data_PCOD9343629
_publ_section_title
;
Structure prediction by ZEFSAII (Michael W. Deem and Ramdas Pophale) SiO2 
 PCOD9343629
Probable space group: P B A 2
;
_chemical_formula_sum "Si O2"
_cell_formula_units_Z 32
_cell_length_a 14.197531
_cell_length_b 5.210117
_cell_length_c 19.543620
_cell_angle_alpha 90.000000
_cell_angle_beta 90.000000
_cell_angle_gamma 90.000000
_cell_volume 1445.657160
_symmetry_space_group_name_H-M "P B A 2"
_symmetry_group_IT_number 32
_symmetry_cell_setting 'orthorhombic'
loop_
_space_group_symop_operation_xyz
x,y,z
-x,-y,z
1/2-x,1/2+y,z
1/2+x,1/2-y,z
loop_
_atom_site_type_symbol
_atom_site_label
_atom_site_fract_x
_atom_site_fract_y
_atom_site_fract_z
Si Si1 0.640254 0.024363 0.742810
Si Si2 0.612256 0.519549 0.089933
Si Si3 0.686054 0.067285 0.451175
Si Si4 0.808819 0.189100 0.946579
Si Si5 0.813052 0.684038 0.595141
Si Si6 0.811609 0.676646 0.306188
Si Si7 0.387929 0.980596 0.161382
Si Si8 0.357384 0.475707 0.797679
O O1 0.635514 0.127299 0.665969
O O2 0.600821 0.242344 0.792239
O O3 0.749532 0.987088 0.768862
O O4 0.599561 0.741928 0.749766
O O5 0.500000 0.500000 0.096696
O O6 0.647856 0.735424 0.143181
O O7 0.648194 0.236097 0.108626
O O8 0.634847 0.616601 0.014335
O O9 0.771256 0.279978 0.451500
O O10 0.635784 0.126062 0.523167
O O11 0.637039 0.120898 0.378563
O O12 0.722209 0.985219 0.947216
O O13 0.857586 0.126399 0.874590
O O14 0.728282 0.471795 0.595659
O O15 0.726481 0.467308 0.306045
O O16 0.866933 0.614335 0.237471
O O17 0.500000 0.000000 0.153490
#
# Coordination Sequence:
#
# PCOD9343629 Si02
#       8
#     4   4   4   4   4   4   4   4
#     4  10  14  23  36  54  88 122 146 182 225 268
#     4  10  23  39  52  70  97 126 158 197 240 289
#     4   8  16  25  36  60  89 119 145 178 223 274
#     4  12  21  32  50  73  98 124 155 202 244 282
#     4  10  14  20  34  52  80 124 149 169 214 277
#     4  10  19  32  51  73 101 126 150 198 241 280
#     4  10  21  38  55  71  93 125 163 198 232 283
#     4  10  16  25  36  59  89 116 145 192 229 265
#
# _framework density 22.135262999999998
#
# number of rings (size 3 to 8) (size 9 to 14) (size 15 to 20)
#    0.000    2.000    5.000    1.500    0.000    3.000 
#    0.000    0.000    0.000    0.000    0.000    0.000 
#    0.000    2.000    0.000    0.000    0.000    6.750 
#
# Total GULP energy -178463.894684 kJ/mol
# GULP energy per Si atom -5576.996709 kJ/mol
# Density = 2.208488 g / cm^3
# Si number density = 22.135263 Si / 1000 Ang^3
#
#
#
# Elastic Constant Matrix: (Units=GPa)
#
#
# Indices 1 2 3 4 5 6 
#
# 1 37.6832 -8.8290 -13.8278 0.0000 0.0000 0.0000
# 2 -8.8290 106.6564 -5.2994 0.0000 0.0000 0.0000
# 3 -13.8278 -5.2994 121.2844 0.0000 0.0000 0.0000
# 4 0.0000 0.0000 0.0000 35.5419 0.0000 0.0000
# 5 0.0000 0.0000 0.0000 0.0000 -4.0935 0.0000
# 6 0.0000 0.0000 0.0000 0.0000 0.0000 3.6060
#
#
#
# Elastic Compliance Matrix: (Units=1/GPa)
#
#
# Indices 1 2 3 4 5 6 
#
# 1 0.028352 0.002513 0.003342 0.000000 0.000000 0.000000
# 2 0.002513 0.009619 0.000707 0.000000 0.000000 0.000000
# 3 0.003342 0.000707 0.008657 0.000000 0.000000 0.000000
# 4 0.000000 0.000000 0.000000 0.028136 0.000000 0.000000
# 5 0.000000 0.000000 0.000000 0.000000 -0.244289 0.000000
# 6 0.000000 0.000000 0.000000 0.000000 0.000000 0.277318
#
#
# Mechanical properties :
#
#
# Convention : Reuss Voigt Hill
#
# Bulk Modulus (GPa) = 16.73565 23.30128 20.01847
# Shear Modulus (GPa) = 43.63511 26.58289 35.10900
#
# Velocity S-wave (km/s) = 4.44474 3.46920 3.98692
# Velocity P-wave (km/s) = 5.82392 5.15721 5.50067
#
# Compressibility (1/GPa) = 0.05975268
#
# Stress axis : x y z
#
# Youngs Moduli (GPa) = 35.27055 103.96033 115.51313
#
# Poissons Ratio (x) = -0.26126 -0.38608
# Poissons Ratio (y) = -0.08864 -0.08165
# Poissons Ratio (z) = -0.11788 -0.07348
#
# Static dielectric constant tensor:
#      x y z
#    x 1.898810 0.000000 0.000000 
#    y 0.000000 1.848730 0.000000 
#    z 0.000000 0.000000 1.843030 
# 
# From -- ./inp_files/4246.got.cif
#   From: 2010.05.17/outbox.cif.g08.bks.cpg/sg32_3_cif.got.tgz:4246.got - 2010.06.03 17:12:27.
