data_PCOD9343127
_publ_section_title
;
Structure prediction by ZEFSAII (Michael W. Deem and Ramdas Pophale) SiO2 
 PCOD9343127
Probable space group: P M N 21
;
_chemical_formula_sum "Si O2"
_cell_formula_units_Z 32
_cell_length_a 7.619655
_cell_length_b 12.466482
_cell_length_c 14.951495
_cell_angle_alpha 90.000000
_cell_angle_beta 90.000000
_cell_angle_gamma 90.000000
_cell_volume 1420.246874
_symmetry_space_group_name_H-M "P M N 21"
_symmetry_group_IT_number 31
_symmetry_cell_setting 'orthorhombic'
loop_
_space_group_symop_operation_xyz
x,y,z
1/2-x,-y,1/2+z
-x,y,z
1/2+x,-y,1/2+z
loop_
_atom_site_type_symbol
_atom_site_label
_atom_site_fract_x
_atom_site_fract_y
_atom_site_fract_z
Si Si1 0.214190 0.160262 0.070160
Si Si2 0.299126 0.358567 0.197741
Si Si3 0.702749 0.002248 0.713086
Si Si4 0.787892 0.516005 0.534006
Si Si5 0.301210 0.764958 0.218887
Si Si6 0.206207 0.804116 0.834076
Si Si7 0.708847 0.713766 0.405961
Si Si8 0.712137 0.724828 0.021252
O O1 0.291062 0.255999 0.130845
O O2 0.264720 0.050752 0.119341
O O3 0.000000 0.167400 0.075320
O O4 0.270307 0.188276 0.969623
O O5 0.500000 0.390210 0.217702
O O6 0.221802 0.450703 0.133695
O O7 0.221289 0.305738 0.287510
O O8 0.500000 0.032944 0.703358
O O9 0.714468 0.907776 0.786204
O O10 0.804870 0.108315 0.738703
O O11 0.736533 0.605967 0.462430
O O12 0.731790 0.398092 0.505897
O O13 0.000000 0.517326 0.539355
O O14 0.500000 0.721283 0.210610
O O15 0.216369 0.711891 0.306206
O O16 0.222990 0.753844 0.120306
O O17 0.000000 0.807400 0.812625
O O18 0.227469 0.797894 0.939702
O O19 0.500000 0.728919 0.396045
O O20 0.500000 0.730225 0.020504
#
# Coordination Sequence:
#
# PCOD9343127 Si02
#       8
#     4   4   4   4   4   4   4   4
#     4   8  15  29  50  76 103 130 165 212 261 308
#     4   8  15  29  51  78 103 130 169 215 261 312
#     4  10  20  35  56  81 110 142 176 220 274 326
#     4   9  18  34  55  78 107 142 178 221 273 324
#     4  10  22  38  54  76 110 148 182 219 268 325
#     4  10  20  35  57  82 107 140 185 230 270 321
#     4   9  18  34  56  80 105 137 179 223 266 318
#     4  10  22  38  53  75 111 149 182 220 269 322
#
# _framework density 22.531293999999999
#
# number of rings (size 3 to 8) (size 9 to 14) (size 15 to 20)
#    0.000    2.750    0.000    0.750    0.000    4.500 
#    0.000    3.750    0.000    0.000    0.000    0.000 
#    0.000    0.000    0.000    0.000    0.000    0.000 
#
# Total GULP energy -178443.165687 kJ/mol
# GULP energy per Si atom -5576.348928 kJ/mol
# Density = 2.248001 g / cm^3
# Si number density = 22.531294 Si / 1000 Ang^3
#
#
#
# Elastic Constant Matrix: (Units=GPa)
#
#
# Indices 1 2 3 4 5 6 
#
# 1 54.4296 -5.5668 -0.2211 0.0000 0.0000 0.0000
# 2 -5.5668 50.2008 26.7093 0.0000 0.0000 0.0000
# 3 -0.2211 26.7093 162.8185 0.0000 0.0000 0.0000
# 4 0.0000 0.0000 0.0000 24.6728 0.0000 0.0000
# 5 0.0000 0.0000 0.0000 0.0000 9.6060 0.0000
# 6 0.0000 0.0000 0.0000 0.0000 0.0000 10.1780
#
#
#
# Elastic Compliance Matrix: (Units=1/GPa)
#
#
# Indices 1 2 3 4 5 6 
#
# 1 0.018601 0.002245 -0.000343 0.000000 0.000000 0.000000
# 2 0.002245 0.022096 -0.003622 0.000000 0.000000 0.000000
# 3 -0.000343 -0.003622 0.006735 0.000000 0.000000 0.000000
# 4 0.000000 0.000000 0.000000 0.040530 0.000000 0.000000
# 5 0.000000 0.000000 0.000000 0.000000 0.104102 0.000000
# 6 0.000000 0.000000 0.000000 0.000000 0.000000 0.098251
#
#
# Mechanical properties :
#
#
# Convention : Reuss Voigt Hill
#
# Bulk Modulus (GPa) = 22.73096 34.36573 28.54835
# Shear Modulus (GPa) = 16.21173 25.32653 20.76913
#
# Velocity S-wave (km/s) = 2.68530 3.35634 3.03939
# Velocity P-wave (km/s) = 4.44128 5.50505 5.00153
#
# Compressibility (1/GPa) = 0.04399286
#
# Stress axis : x y z
#
# Youngs Moduli (GPa) = 53.76173 45.25738 148.46833
#
# Poissons Ratio (x) = -0.10161 0.05093
# Poissons Ratio (y) = -0.12070 0.53770
# Poissons Ratio (z) = 0.01844 0.16391
#
# Static dielectric constant tensor:
#      x y z
#    x 1.858280 0.000000 0.000000 
#    y 0.000000 1.842740 0.000000 
#    z 0.000000 0.000000 1.885650 
# 
# From -- ./inp_files/4959.got.cif
#   From: 2010.05.17/outbox.cif.g08.bks.cpg/sg31_3_cif.got.tgz:4959.got - 2010.06.03 17:08:30.
