data_PCOD9343193
_publ_section_title
;
Structure prediction by ZEFSAII (Michael W. Deem and Ramdas Pophale) SiO2 
 PCOD9343193
Probable space group: P M N 21
;
_chemical_formula_sum "Si O2"
_cell_formula_units_Z 32
_cell_length_a 14.684163
_cell_length_b 8.015115
_cell_length_c 12.608130
_cell_angle_alpha 90.000000
_cell_angle_beta 90.000000
_cell_angle_gamma 90.000000
_cell_volume 1483.917077
_symmetry_space_group_name_H-M "P M N 21"
_symmetry_group_IT_number 31
_symmetry_cell_setting 'orthorhombic'
loop_
_space_group_symop_operation_xyz
x,y,z
1/2-x,-y,1/2+z
-x,y,z
1/2+x,-y,1/2+z
loop_
_atom_site_type_symbol
_atom_site_label
_atom_site_fract_x
_atom_site_fract_y
_atom_site_fract_z
Si Si1 0.901641 0.264319 0.989750
Si Si2 0.674943 0.460683 0.876850
Si Si3 0.248488 0.093669 0.875236
Si Si4 0.860200 0.552279 0.817420
Si Si5 0.393582 0.948003 0.018405
Si Si6 0.399557 0.469323 0.658036
Si Si7 0.692364 0.607043 0.098535
Si Si8 0.600543 0.088451 0.237276
O O1 0.822506 0.133987 0.969540
O O2 0.895737 0.421805 0.906221
O O3 0.000000 0.185078 0.976360
O O4 0.894734 0.350180 0.103279
O O5 0.712980 0.276726 0.850813
O O6 0.756786 0.588249 0.852645
O O7 0.602435 0.486116 0.785015
O O8 0.662357 0.485387 0.001582
O O9 0.184647 0.013270 0.786492
O O10 0.333543 0.990472 0.916569
O O11 0.853173 0.456869 0.706248
O O12 0.902265 0.731222 0.793110
O O13 0.500000 0.923722 0.993901
O O14 0.349261 0.784507 0.069561
O O15 0.386913 0.090288 0.109874
O O16 0.500000 0.397345 0.626842
O O17 0.303060 0.389769 0.616959
O O18 0.500000 0.007874 0.252839
#
# Coordination Sequence:
#
# PCOD9343193 Si02
#       8
#     4   4   4   4   4   4   4   4
#     4  10  20  38  63  95 127 163 209 260 311 377
#     4  10  21  38  62  91 121 170 215 255 313 375
#     4  11  22  41  63  89 130 165 207 260 323 386
#     4  10  20  36  65  93 125 163 216 262 308 372
#     4  11  26  43  62  90 127 169 215 266 322 381
#     4  10  21  37  63  95 125 159 210 263 311 371
#     4  11  21  42  66  91 124 172 218 267 319 373
#     4  11  23  39  62  96 129 165 208 261 325 385
#
# _framework density 21.564547000000001
#
# number of rings (size 3 to 8) (size 9 to 14) (size 15 to 20)
#    0.000    1.500    2.500    4.500    1.750    3.000 
#    0.000    0.625    0.000    0.750    0.000    0.000 
#    0.000    0.000    0.000    0.000    0.000    0.000 
#
# Total GULP energy -178372.660132 kJ/mol
# GULP energy per Si atom -5574.145629 kJ/mol
# Density = 2.151546 g / cm^3
# Si number density = 21.564547 Si / 1000 Ang^3
#
#
#
# Elastic Constant Matrix: (Units=GPa)
#
#
# Indices 1 2 3 4 5 6 
#
# 1 137.5095 12.8201 26.4225 0.0000 0.0000 0.0000
# 2 12.8201 36.5111 6.9386 0.0000 0.0000 0.0000
# 3 26.4225 6.9386 92.6468 0.0000 0.0000 0.0000
# 4 0.0000 0.0000 0.0000 22.9639 0.0000 0.0000
# 5 0.0000 0.0000 0.0000 0.0000 28.3057 0.0000
# 6 0.0000 0.0000 0.0000 0.0000 0.0000 19.0284
#
#
#
# Elastic Compliance Matrix: (Units=1/GPa)
#
#
# Indices 1 2 3 4 5 6 
#
# 1 0.007892 -0.002377 -0.002073 0.000000 0.000000 0.000000
# 2 -0.002377 0.028500 -0.001457 0.000000 0.000000 0.000000
# 3 -0.002073 -0.001457 0.011494 0.000000 0.000000 0.000000
# 4 0.000000 0.000000 0.000000 0.043547 0.000000 0.000000
# 5 0.000000 0.000000 0.000000 0.000000 0.035329 0.000000
# 6 0.000000 0.000000 0.000000 0.000000 0.000000 0.052553
#
#
# Mechanical properties :
#
#
# Convention : Reuss Voigt Hill
#
# Bulk Modulus (GPa) = 27.72122 39.89220 33.80671
# Shear Modulus (GPa) = 24.61208 28.75867 26.68538
#
# Velocity S-wave (km/s) = 3.38201 3.65582 3.52158
# Velocity P-wave (km/s) = 5.30411 6.02986 5.67859
#
# Compressibility (1/GPa) = 0.03607345
#
# Stress axis : x y z
#
# Youngs Moduli (GPa) = 126.70830 35.08716 87.00258
#
# Poissons Ratio (x) = 0.08341 0.18034
# Poissons Ratio (y) = 0.30122 0.12672
# Poissons Ratio (z) = 0.26264 0.05111
#
# Static dielectric constant tensor:
#      x y z
#    x 1.802510 0.000000 0.000000 
#    y 0.000000 1.784850 0.000000 
#    z 0.000000 0.000000 1.830600 
# 
# From -- ./inp_files/4304.got.cif
#   From: 2010.05.17/outbox.cif.g08.bks.cpg/sg31_3_cif.got.tgz:4304.got - 2010.06.03 17:08:30.
