data_PCOD9343682
_publ_section_title
;
Structure prediction by ZEFSAII (Michael W. Deem and Ramdas Pophale) SiO2 
 PCOD9343682
Probable space group: P B A 2
;
_chemical_formula_sum "Si O2"
_cell_formula_units_Z 28
_cell_length_a 9.606451
_cell_length_b 19.943437
_cell_length_c 5.867464
_cell_angle_alpha 90.000000
_cell_angle_beta 90.000000
_cell_angle_gamma 90.000000
_cell_volume 1124.121906
_symmetry_space_group_name_H-M "P B A 2"
_symmetry_group_IT_number 32
_symmetry_cell_setting 'orthorhombic'
loop_
_space_group_symop_operation_xyz
x,y,z
-x,-y,z
1/2-x,1/2+y,z
1/2+x,1/2-y,z
loop_
_atom_site_type_symbol
_atom_site_label
_atom_site_fract_x
_atom_site_fract_y
_atom_site_fract_z
Si Si1 0.343470 0.305500 0.724730
Si Si2 0.605445 0.211331 0.358855
Si Si3 0.589278 0.564025 0.507074
Si Si4 0.367350 0.153114 0.782252
Si Si5 0.608714 0.051365 0.722449
Si Si6 0.750288 0.593525 0.112717
Si Si7 0.205185 0.671609 0.283427
O O1 0.203095 0.287979 0.584209
O O2 0.439646 0.358787 0.584218
O O3 0.396792 0.232999 0.796405
O O4 0.303925 0.350799 0.937337
O O5 0.645929 0.138493 0.260996
O O6 0.670534 0.276188 0.237490
O O7 0.439615 0.212253 0.332152
O O8 0.500000 0.500000 0.579105
O O9 0.747693 0.552357 0.590377
O O10 0.614931 0.565962 0.237939
O O11 0.513787 0.116691 0.746083
O O12 0.282798 0.138485 0.541376
O O13 0.311342 0.134481 0.037257
O O14 0.500000 0.000000 0.622789
O O15 0.662346 0.037830 0.979246
#
# Coordination Sequence:
#
# PCOD9343682 Si02
#       7
#     4   4   4   4   4   4   4
#     4   9  20  38  70  96 133 178 226 290 351 420
#     4  10  20  36  59  98 129 175 216 278 342 419
#     4  10  23  44  69 100 139 185 241 291 361 432
#     4  11  22  42  70 105 134 177 236 289 350 425
#     4  11  25  44  71  97 140 191 239 297 361 428
#     4  10  18  38  68  91 127 180 226 278 348 418
#     4  11  22  36  66  95 139 176 221 281 351 410
#
# _framework density 24.908329999999999
#
# number of rings (size 3 to 8) (size 9 to 14) (size 15 to 20)
#    0.000    1.714    2.857    2.571    0.000    2.857 
#    0.000   12.857    0.000    0.000    0.000    0.000 
#    0.000    0.000    0.000    0.000    0.000    0.000 
#
# Total GULP energy -155923.454775 kJ/mol
# GULP energy per Si atom -5568.694813 kJ/mol
# Density = 2.485164 g / cm^3
# Si number density = 24.908330 Si / 1000 Ang^3
#
#
#
# Elastic Constant Matrix: (Units=GPa)
#
#
# Indices 1 2 3 4 5 6 
#
# 1 64.6829 11.8139 0.1755 0.0000 0.0000 0.0000
# 2 11.8139 72.9670 -2.3295 0.0000 0.0000 0.0000
# 3 0.1755 -2.3295 112.3940 0.0000 0.0000 0.0000
# 4 0.0000 0.0000 0.0000 4.4586 0.0000 0.0000
# 5 0.0000 0.0000 0.0000 0.0000 16.3831 0.0000
# 6 0.0000 0.0000 0.0000 0.0000 0.0000 31.1158
#
#
#
# Elastic Compliance Matrix: (Units=1/GPa)
#
#
# Indices 1 2 3 4 5 6 
#
# 1 0.015932 -0.002582 -0.000078 0.000000 0.000000 0.000000
# 2 -0.002582 0.014132 0.000297 0.000000 0.000000 0.000000
# 3 -0.000078 0.000297 0.008904 0.000000 0.000000 0.000000
# 4 0.000000 0.000000 0.000000 0.224287 0.000000 0.000000
# 5 0.000000 0.000000 0.000000 0.000000 0.061038 0.000000
# 6 0.000000 0.000000 0.000000 0.000000 0.000000 0.032138
#
#
# Mechanical properties :
#
#
# Convention : Reuss Voigt Hill
#
# Bulk Modulus (GPa) = 29.20488 29.92930 29.56709
# Shear Modulus (GPa) = 13.42024 26.41709 19.91867
#
# Velocity S-wave (km/s) = 2.32369 3.26018 2.83093
# Velocity P-wave (km/s) = 4.35314 5.11992 4.75202
#
# Compressibility (1/GPa) = 0.03424086
#
# Stress axis : x y z
#
# Youngs Moduli (GPa) = 62.76739 70.75964 112.31478
#
# Poissons Ratio (x) = 0.18270 0.00881
# Poissons Ratio (y) = 0.16206 -0.03335
# Poissons Ratio (z) = 0.00492 -0.02101
#
# Static dielectric constant tensor:
#      x y z
#    x 1.962440 0.000000 0.000000 
#    y 0.000000 2.020070 0.000000 
#    z 0.000000 0.000000 2.264140 
# 
# From -- ./inp_files/1002.got.cif
#   From: 2010.05.17/outbox.cif.g08.bks.cpg/sg32_1_cif.got.tgz:1002.got - 2010.06.03 17:12:27.
