data_PCOD9343477
_publ_section_title
;
Structure prediction by ZEFSAII (Michael W. Deem and Ramdas Pophale) SiO2 
 PCOD9343477
Probable space group: P M N 21
;
_chemical_formula_sum "Si O2"
_cell_formula_units_Z 32
_cell_length_a 8.923157
_cell_length_b 14.757070
_cell_length_c 12.427809
_cell_angle_alpha 90.000000
_cell_angle_beta 90.000000
_cell_angle_gamma 90.000000
_cell_volume 1636.489570
_symmetry_space_group_name_H-M "P M N 21"
_symmetry_group_IT_number 31
_symmetry_cell_setting 'orthorhombic'
loop_
_space_group_symop_operation_xyz
x,y,z
1/2-x,-y,1/2+z
-x,y,z
1/2+x,-y,1/2+z
loop_
_atom_site_type_symbol
_atom_site_label
_atom_site_fract_x
_atom_site_fract_y
_atom_site_fract_z
Si Si1 0.820854 0.142761 0.048950
Si Si2 0.673522 0.453798 0.778365
Si Si3 0.820768 0.943025 0.992085
Si Si4 0.321628 0.832214 0.794295
Si Si5 0.328522 0.359723 0.322763
Si Si6 0.820344 0.735526 0.379311
Si Si7 0.175250 0.172383 0.673271
Si Si8 0.667114 0.333315 0.573063
O O1 0.783897 0.131812 0.174929
O O2 0.000000 0.157436 0.041722
O O3 0.737836 0.225699 0.991667
O O4 0.784142 0.049521 0.987263
O O5 0.500000 0.473644 0.805881
O O6 0.767130 0.544802 0.783022
O O7 0.724411 0.368574 0.852448
O O8 0.678550 0.413219 0.658458
O O9 0.757057 0.886780 0.891076
O O10 0.000000 0.932921 0.994247
O O11 0.753111 0.905868 0.104014
O O12 0.500000 0.838294 0.809955
O O13 0.269338 0.727796 0.794295
O O14 0.500000 0.344568 0.287932
O O15 0.325750 0.365161 0.452081
O O16 0.751529 0.799370 0.285595
O O17 0.000000 0.738933 0.372943
O O18 0.206193 0.260629 0.599132
O O19 0.000000 0.155085 0.688493
O O20 0.500000 0.290728 0.590096
#
# Coordination Sequence:
#
# PCOD9343477 Si02
#       8
#     4   4   4   4   4   4   4   4
#     4  10  25  44  63  91 129 168 208 256 314 378
#     4   9  20  38  59  86 120 162 208 257 313 373
#     4  11  23  41  63  91 124 161 206 258 311 371
#     4  11  24  43  64  92 127 165 208 259 315 376
#     4  11  22  37  61  90 121 161 207 261 316 372
#     4  10  22  41  64  90 125 165 208 259 314 368
#     4  11  21  35  61  91 118 156 204 255 310 366
#     4   9  19  37  57  81 116 158 203 257 313 362
#
# _framework density 19.554048999999999
#
# number of rings (size 3 to 8) (size 9 to 14) (size 15 to 20)
#    0.000    1.750    1.250    3.375    1.750    6.000 
#    0.000    3.750    0.000    0.000    0.000    0.000 
#    0.000    0.000    0.000    0.000    0.000    0.000 
#
# Total GULP energy -178689.897013 kJ/mol
# GULP energy per Si atom -5584.059282 kJ/mol
# Density = 1.950954 g / cm^3
# Si number density = 19.554049 Si / 1000 Ang^3
#
#
#
# Elastic Constant Matrix: (Units=GPa)
#
#
# Indices 1 2 3 4 5 6 
#
# 1 59.9376 29.6934 19.1271 0.0000 0.0000 0.0000
# 2 29.6934 91.0445 28.3013 0.0000 0.0000 0.0000
# 3 19.1271 28.3013 43.7085 0.0000 0.0000 0.0000
# 4 0.0000 0.0000 0.0000 9.6072 0.0000 0.0000
# 5 0.0000 0.0000 0.0000 0.0000 32.0958 0.0000
# 6 0.0000 0.0000 0.0000 0.0000 0.0000 5.3136
#
#
#
# Elastic Compliance Matrix: (Units=1/GPa)
#
#
# Indices 1 2 3 4 5 6 
#
# 1 0.021076 -0.005016 -0.005975 0.000000 0.000000 0.000000
# 2 -0.005016 0.014945 -0.007482 0.000000 0.000000 0.000000
# 3 -0.005975 -0.007482 0.030338 0.000000 0.000000 0.000000
# 4 0.000000 0.000000 0.000000 0.104089 0.000000 0.000000
# 5 0.000000 0.000000 0.000000 0.000000 0.031157 0.000000
# 6 0.000000 0.000000 0.000000 0.000000 0.000000 0.188197
#
#
# Mechanical properties :
#
#
# Convention : Reuss Voigt Hill
#
# Bulk Modulus (GPa) = 33.99861 38.77046 36.38453
# Shear Modulus (GPa) = 11.45337 17.24124 14.34731
#
# Velocity S-wave (km/s) = 2.42281 2.97260 2.71168
# Velocity P-wave (km/s) = 5.02508 5.62603 5.33402
#
# Compressibility (1/GPa) = 0.02941297
#
# Stress axis : x y z
#
# Youngs Moduli (GPa) = 47.44770 66.90983 32.96192
#
# Poissons Ratio (x) = 0.33565 0.19694
# Poissons Ratio (y) = 0.23802 0.24662
# Poissons Ratio (z) = 0.28349 0.50062
#
# Static dielectric constant tensor:
#      x y z
#    x 1.684210 0.000000 0.000000 
#    y 0.000000 1.670420 0.000000 
#    z 0.000000 0.000000 1.693600 
# 
# From -- ./inp_files/3688.got.cif
#   From: 2010.05.17/outbox.cif.g08.bks.cpg/sg31_2_cif.got.tgz:3688.got - 2010.06.03 17:08:30.
