data_PCOD9343164
_publ_section_title
;
Structure prediction by ZEFSAII (Michael W. Deem and Ramdas Pophale) SiO2 
 PCOD9343164
Probable space group: P M N 21
;
_chemical_formula_sum "Si O2"
_cell_formula_units_Z 28
_cell_length_a 10.325066
_cell_length_b 5.186744
_cell_length_c 27.392983
_cell_angle_alpha 90.000000
_cell_angle_beta 90.000000
_cell_angle_gamma 90.000000
_cell_volume 1466.989406
_symmetry_space_group_name_H-M "P M N 21"
_symmetry_group_IT_number 31
_symmetry_cell_setting 'orthorhombic'
loop_
_space_group_symop_operation_xyz
x,y,z
1/2-x,-y,1/2+z
-x,y,z
1/2+x,-y,1/2+z
loop_
_atom_site_type_symbol
_atom_site_label
_atom_site_fract_x
_atom_site_fract_y
_atom_site_fract_z
Si Si1 0.228420 0.418779 0.689420
Si Si2 0.844340 0.926765 0.948225
Si Si3 0.845987 0.416492 0.009696
Si Si4 0.639570 0.069078 0.139453
Si Si5 0.153182 0.982614 0.358089
Si Si6 0.853873 0.752129 0.098564
Si Si7 0.151867 0.482917 0.293254
O O1 0.150045 0.156097 0.680362
O O2 0.349587 0.372581 0.652562
O O3 0.267368 0.470778 0.744425
O O4 0.156838 0.660881 0.665849
O O5 0.804554 0.141265 0.988658
O O6 0.753151 0.972974 0.901869
O O7 0.000000 0.958853 0.938378
O O8 0.825438 0.639739 0.969261
O O9 0.000000 0.390339 0.017275
O O10 0.798574 0.547355 0.059805
O O11 0.500000 0.054335 0.114866
O O12 0.757445 0.992862 0.103903
O O13 0.175988 0.707523 0.332601
O O14 0.000000 0.996099 0.372861
O O15 0.174174 0.207092 0.318128
O O16 0.000000 0.827027 0.085097
O O17 0.000000 0.498344 0.279895
#
# Coordination Sequence:
#
# PCOD9343164 Si02
#       7
#     4   4   4   4   4   4   4
#     4  10  21  36  60  82 114 151 195 220 279 336
#     4  10  20  37  57  79 111 145 181 229 284 332
#     4   9  19  34  57  84 111 142 182 233 279 323
#     4  10  22  38  55  78 118 158 185 224 281 329
#     4  10  21  37  58  81 111 142 182 234 284 331
#     4   9  21  36  60  89 113 147 197 237 276 333
#     4  10  20  36  57  85 112 143 182 235 285 324
#
# _framework density 19.086708999999999
#
# number of rings (size 3 to 8) (size 9 to 14) (size 15 to 20)
#    0.857    1.429    0.000    2.571    2.000    1.143 
#    0.000    5.714    0.000    0.000    0.000    0.000 
#    0.000    0.000    0.000    0.000    0.000    0.000 
#
# Total GULP energy -155989.739338 kJ/mol
# GULP energy per Si atom -5571.062119 kJ/mol
# Density = 1.904327 g / cm^3
# Si number density = 19.086709 Si / 1000 Ang^3
#
#
#
# Elastic Constant Matrix: (Units=GPa)
#
#
# Indices 1 2 3 4 5 6 
#
# 1 67.2159 5.1671 20.1319 0.0000 0.0000 0.0000
# 2 5.1671 68.8603 -18.7373 0.0000 0.0000 0.0000
# 3 20.1319 -18.7373 57.5482 0.0000 0.0000 0.0000
# 4 0.0000 0.0000 0.0000 16.7667 0.0000 0.0000
# 5 0.0000 0.0000 0.0000 0.0000 15.8950 0.0000
# 6 0.0000 0.0000 0.0000 0.0000 0.0000 15.4412
#
#
#
# Elastic Compliance Matrix: (Units=1/GPa)
#
#
# Indices 1 2 3 4 5 6 
#
# 1 0.017246 -0.003221 -0.007082 0.000000 0.000000 0.000000
# 2 -0.003221 0.016535 0.006511 0.000000 0.000000 0.000000
# 3 -0.007082 0.006511 0.021974 0.000000 0.000000 0.000000
# 4 0.000000 0.000000 0.000000 0.059642 0.000000 0.000000
# 5 0.000000 0.000000 0.000000 0.000000 0.062913 0.000000
# 6 0.000000 0.000000 0.000000 0.000000 0.000000 0.064762
#
#
# Mechanical properties :
#
#
# Convention : Reuss Voigt Hill
#
# Bulk Modulus (GPa) = 20.75947 22.97198 21.86573
# Shear Modulus (GPa) = 18.74664 22.09142 20.41903
#
# Velocity S-wave (km/s) = 3.13738 3.40578 3.27433
# Velocity P-wave (km/s) = 4.90145 5.24667 5.07700
#
# Compressibility (1/GPa) = 0.04817078
#
# Stress axis : x y z
#
# Youngs Moduli (GPa) = 57.98385 60.47610 45.50829
#
# Poissons Ratio (x) = 0.19480 0.32229
# Poissons Ratio (y) = 0.18678 -0.29629
# Poissons Ratio (z) = 0.41064 -0.39374
#
# Static dielectric constant tensor:
#      x y z
#    x 1.641990 0.000000 0.000000 
#    y 0.000000 1.677670 0.000000 
#    z 0.000000 0.000000 1.653450 
# 
# From -- ./inp_files/6308.got.cif
#   From: 2010.05.17/outbox.cif.g08.bks.cpg/sg31_4_cif.got.tgz:6308.got - 2010.06.03 17:08:30.
