data_PCOD9343952
_publ_section_title
;
Structure prediction by ZEFSAII (Michael W. Deem and Ramdas Pophale) SiO2 
 PCOD9343952
Probable space group: P B A 2
;
_chemical_formula_sum "Si O2"
_cell_formula_units_Z 24
_cell_length_a 15.841672
_cell_length_b 8.521785
_cell_length_c 8.428786
_cell_angle_alpha 90.000000
_cell_angle_beta 90.000000
_cell_angle_gamma 90.000000
_cell_volume 1137.880402
_symmetry_space_group_name_H-M "P B A 2"
_symmetry_group_IT_number 32
_symmetry_cell_setting 'orthorhombic'
loop_
_space_group_symop_operation_xyz
x,y,z
-x,-y,z
1/2-x,1/2+y,z
1/2+x,1/2-y,z
loop_
_atom_site_type_symbol
_atom_site_label
_atom_site_fract_x
_atom_site_fract_y
_atom_site_fract_z
Si Si1 0.920701 0.112270 0.535370
Si Si2 0.768406 0.867483 0.523064
Si Si3 0.821231 0.218568 0.804885
Si Si4 0.083222 0.566455 0.416623
Si Si5 0.825461 0.663076 0.222647
Si Si6 0.725563 0.432323 0.017151
O O1 0.905023 0.209589 0.698226
O O2 0.927190 0.245627 0.400069
O O3 0.838987 0.001074 0.527780
O O4 0.000000 0.000000 0.536832
O O5 0.754711 0.764508 0.682295
O O6 0.793192 0.757895 0.375628
O O7 0.675386 0.940906 0.497825
O O8 0.807738 0.347491 0.941248
O O9 0.811039 0.050174 0.887240
O O10 0.096010 0.446311 0.270229
O O11 0.000000 0.500000 0.502119
O O12 0.754917 0.542154 0.161091
O O13 0.833442 0.793794 0.084516
#
# Coordination Sequence:
#
# PCOD9343952 Si02
#       6
#     4   4   4   4   4   4
#     4  11  24  41  66 101 134 170 229 287 336 397
#     4  11  22  41  72  95 125 180 228 278 339 400
#     4  10  21  40  64  92 131 170 228 270 332 396
#     4  11  23  40  62 101 135 169 225 286 335 398
#     4  11  22  38  66  95 132 171 227 271 332 398
#     4  10  22  38  64  98 129 173 223 268 335 405
#
# _framework density 21.091847000000001
#
# number of rings (size 3 to 8) (size 9 to 14) (size 15 to 20)
#    0.000    1.333    3.333    3.000    2.333    0.000 
#    0.000    1.667    0.000    0.000    0.000    0.000 
#    0.000    0.000    0.000    0.000    0.000    0.000 
#
# Total GULP energy -133692.277384 kJ/mol
# GULP energy per Si atom -5570.511558 kJ/mol
# Density = 2.104384 g / cm^3
# Si number density = 21.091847 Si / 1000 Ang^3
#
#
#
# Elastic Constant Matrix: (Units=GPa)
#
#
# Indices 1 2 3 4 5 6 
#
# 1 100.1943 40.3474 8.9049 0.0000 0.0000 0.0000
# 2 40.3474 141.5101 47.4476 0.0000 0.0000 0.0000
# 3 8.9049 47.4476 78.2313 0.0000 0.0000 0.0000
# 4 0.0000 0.0000 0.0000 43.7859 0.0000 0.0000
# 5 0.0000 0.0000 0.0000 0.0000 16.1680 0.0000
# 6 0.0000 0.0000 0.0000 0.0000 0.0000 42.2877
#
#
#
# Elastic Compliance Matrix: (Units=1/GPa)
#
#
# Indices 1 2 3 4 5 6 
#
# 1 0.011319 -0.003509 0.000840 0.000000 0.000000 0.000000
# 2 -0.003509 0.009958 -0.005640 0.000000 0.000000 0.000000
# 3 0.000840 -0.005640 0.016108 0.000000 0.000000 0.000000
# 4 0.000000 0.000000 0.000000 0.022838 0.000000 0.000000
# 5 0.000000 0.000000 0.000000 0.000000 0.061851 0.000000
# 6 0.000000 0.000000 0.000000 0.000000 0.000000 0.023648
#
#
# Mechanical properties :
#
#
# Convention : Reuss Voigt Hill
#
# Bulk Modulus (GPa) = 48.15510 57.03728 52.59619
# Shear Modulus (GPa) = 29.53990 35.33071 32.43531
#
# Velocity S-wave (km/s) = 3.74643 4.09722 3.92575
# Velocity P-wave (km/s) = 6.44942 7.03449 6.74830
#
# Compressibility (1/GPa) = 0.02076623
#
# Stress axis : x y z
#
# Youngs Moduli (GPa) = 88.34746 100.41943 62.08135
#
# Poissons Ratio (x) = 0.35235 -0.05213
# Poissons Ratio (y) = 0.30999 0.35016
# Poissons Ratio (z) = -0.07419 0.56640
#
# Static dielectric constant tensor:
#      x y z
#    x 1.756520 0.000000 0.000000 
#    y 0.000000 1.828500 0.000000 
#    z 0.000000 0.000000 1.857250 
# 
# From -- ./inp_files/3181.got.cif
#   From: 2010.05.17/outbox.cif.g08.bks.cpg/sg32_2_cif.got.tgz:3181.got - 2010.06.03 17:12:27.
