data_PCOD9343578
_publ_section_title
;
Structure prediction by ZEFSAII (Michael W. Deem and Ramdas Pophale) SiO2 
 PCOD9343578
Probable space group: P M N 21
;
_chemical_formula_sum "Si O2"
_cell_formula_units_Z 20
_cell_length_a 13.967749
_cell_length_b 5.073113
_cell_length_c 12.114104
_cell_angle_alpha 90.000000
_cell_angle_beta 90.000000
_cell_angle_gamma 90.000000
_cell_volume 858.405034
_symmetry_space_group_name_H-M "P M N 21"
_symmetry_group_IT_number 31
_symmetry_cell_setting 'orthorhombic'
loop_
_space_group_symop_operation_xyz
x,y,z
1/2-x,-y,1/2+z
-x,y,z
1/2+x,-y,1/2+z
loop_
_atom_site_type_symbol
_atom_site_label
_atom_site_fract_x
_atom_site_fract_y
_atom_site_fract_z
Si Si1 0.104147 0.098629 0.076340
Si Si2 0.309382 0.385727 0.233043
Si Si3 0.388064 0.423980 0.991324
Si Si4 0.185097 0.883439 0.284036
Si Si5 0.186717 0.586687 0.966763
O O1 0.000000 0.195647 0.046396
O O2 0.108445 0.017720 0.203874
O O3 0.175755 0.326175 0.040590
O O4 0.133495 0.835530 0.014084
O O5 0.370780 0.367240 0.121768
O O6 0.226577 0.612838 0.229725
O O7 0.357788 0.478140 0.347405
O O8 0.269660 0.098702 0.270069
O O9 0.500000 0.494507 0.974513
O O10 0.358699 0.198043 0.901971
O O11 0.302235 0.631176 0.963923
#
# Coordination Sequence:
#
# PCOD9343578 Si02
#       5
#     4   4   4   4   4
#     4  12  23  43  72 101 140 192 243 294 359 430
#     4  11  24  44  71  96 148 187 230 293 362 421
#     4  11  24  45  74 107 145 193 243 297 361 434
#     4  11  23  45  69 105 140 184 237 299 355 422
#     4  11  24  45  66 105 145 186 237 301 359 425
#
# _framework density 23.299023999999999
#
# number of rings (size 3 to 8) (size 9 to 14) (size 15 to 20)
#    0.000    0.800    4.000    3.600    0.000    1.600 
#    0.000   21.000    0.000    0.000    0.000    0.000 
#    0.000    0.000    0.000    0.000    0.000    0.000 
#
# Total GULP energy -111503.785762 kJ/mol
# GULP energy per Si atom -5575.189288 kJ/mol
# Density = 2.324599 g / cm^3
# Si number density = 23.299024 Si / 1000 Ang^3
#
#
#
# Elastic Constant Matrix: (Units=GPa)
#
#
# Indices 1 2 3 4 5 6 
#
# 1 94.5688 -7.4824 22.0197 0.0000 0.0000 0.0000
# 2 -7.4824 56.7200 39.6529 0.0000 0.0000 0.0000
# 3 22.0197 39.6529 155.5010 0.0000 0.0000 0.0000
# 4 0.0000 0.0000 0.0000 28.3623 0.0000 0.0000
# 5 0.0000 0.0000 0.0000 0.0000 19.5198 0.0000
# 6 0.0000 0.0000 0.0000 0.0000 0.0000 14.2094
#
#
#
# Elastic Compliance Matrix: (Units=1/GPa)
#
#
# Indices 1 2 3 4 5 6 
#
# 1 0.011393 0.003202 -0.002430 0.000000 0.000000 0.000000
# 2 0.003202 0.022355 -0.006154 0.000000 0.000000 0.000000
# 3 -0.002430 -0.006154 0.008344 0.000000 0.000000 0.000000
# 4 0.000000 0.000000 0.000000 0.035258 0.000000 0.000000
# 5 0.000000 0.000000 0.000000 0.000000 0.051230 0.000000
# 6 0.000000 0.000000 0.000000 0.000000 0.000000 0.070376
#
#
# Mechanical properties :
#
#
# Convention : Reuss Voigt Hill
#
# Bulk Modulus (GPa) = 31.91988 46.13003 39.02496
# Shear Modulus (GPa) = 22.71039 29.25827 25.98433
#
# Velocity S-wave (km/s) = 3.12546 3.54753 3.34316
# Velocity P-wave (km/s) = 5.17248 6.05162 5.62924
#
# Compressibility (1/GPa) = 0.03132844
#
# Stress axis : x y z
#
# Youngs Moduli (GPa) = 87.77022 44.73272 119.84445
#
# Poissons Ratio (x) = -0.14322 0.29120
# Poissons Ratio (y) = -0.28101 0.73751
# Poissons Ratio (z) = 0.21326 0.27528
#
# Static dielectric constant tensor:
#      x y z
#    x 1.958340 0.000000 0.000000 
#    y 0.000000 1.827720 0.000000 
#    z 0.000000 0.000000 2.026070 
# 
# From -- ./inp_files/4166.got.cif
#   From: 2010.05.17/outbox.cif.g08.bks.cpg/sg31_3_cif.got.tgz:4166.got - 2010.06.03 17:08:30.
