data_PCOD9343852
_publ_section_title
;
Structure prediction by ZEFSAII (Michael W. Deem and Ramdas Pophale) SiO2 
 PCOD9343852
Probable space group: P B A 2
;
_chemical_formula_sum "Si O2"
_cell_formula_units_Z 32
_cell_length_a 10.447639
_cell_length_b 18.229883
_cell_length_c 8.574905
_cell_angle_alpha 90.000000
_cell_angle_beta 90.000000
_cell_angle_gamma 90.000000
_cell_volume 1633.169860
_symmetry_space_group_name_H-M "P B A 2"
_symmetry_group_IT_number 32
_symmetry_cell_setting 'orthorhombic'
loop_
_space_group_symop_operation_xyz
x,y,z
-x,-y,z
1/2-x,1/2+y,z
1/2+x,1/2-y,z
loop_
_atom_site_type_symbol
_atom_site_label
_atom_site_fract_x
_atom_site_fract_y
_atom_site_fract_z
Si Si1 0.657731 0.795950 0.187250
Si Si2 0.430144 0.320804 0.421948
Si Si3 0.657063 0.405507 0.295445
Si Si4 0.436805 0.291377 0.774064
Si Si5 0.676620 0.212733 0.927326
Si Si6 0.536861 0.083432 0.061563
Si Si7 0.021476 0.917968 0.009816
Si Si8 0.736889 0.570498 0.279380
O O1 0.569008 0.738785 0.281776
O O2 0.736673 0.843578 0.311136
O O3 0.578648 0.858756 0.093140
O O4 0.758306 0.748475 0.083134
O O5 0.537497 0.382533 0.397914
O O6 0.453583 0.287844 0.590368
O O7 0.298415 0.366550 0.402559
O O8 0.602862 0.400023 0.116892
O O9 0.705028 0.487210 0.326967
O O10 0.544963 0.247466 0.867892
O O11 0.289953 0.271276 0.807137
O O12 0.452527 0.369199 0.860699
O O13 0.635550 0.128047 0.951646
O O14 0.618749 0.074855 0.220124
O O15 0.500000 0.000000 0.013460
O O16 0.138774 0.915149 0.133624
O O17 0.000000 0.000000 0.957297
#
# Coordination Sequence:
#
# PCOD9343852 Si02
#       8
#     4   4   4   4   4   4   4   4
#     4  12  22  38  68  96 125 168 219 276 323 390
#     4  11  25  38  64  91 129 172 212 274 331 399
#     4  10  20  39  62  91 121 164 217 266 322 391
#     4  12  25  40  64  95 135 175 219 273 337 402
#     4  12  24  44  66  97 130 175 226 274 332 401
#     4  12  23  39  70 102 125 166 220 283 337 383
#     4   9  18  35  62  89 116 158 211 264 312 383
#     4  10  20  40  64  92 126 159 218 271 322 388
#
# _framework density 19.593796000000001
#
# number of rings (size 3 to 8) (size 9 to 14) (size 15 to 20)
#    0.000    1.000    6.250    2.625    1.750    1.000 
#    0.000    0.000    2.750    0.000    0.000    0.000 
#    0.000    0.000    0.000    0.000    0.000    0.000 
#
# Total GULP energy -178284.164361 kJ/mol
# GULP energy per Si atom -5571.380136 kJ/mol
# Density = 1.954920 g / cm^3
# Si number density = 19.593796 Si / 1000 Ang^3
#
#
#
# Elastic Constant Matrix: (Units=GPa)
#
#
# Indices 1 2 3 4 5 6 
#
# 1 81.4394 30.0610 6.0943 0.0000 0.0000 0.0000
# 2 30.0610 114.1884 24.2112 0.0000 0.0000 0.0000
# 3 6.0943 24.2112 55.7125 0.0000 0.0000 0.0000
# 4 0.0000 0.0000 0.0000 10.8215 0.0000 0.0000
# 5 0.0000 0.0000 0.0000 0.0000 16.0173 0.0000
# 6 0.0000 0.0000 0.0000 0.0000 0.0000 37.0012
#
#
#
# Elastic Compliance Matrix: (Units=1/GPa)
#
#
# Indices 1 2 3 4 5 6 
#
# 1 0.013601 -0.003596 0.000075 0.000000 0.000000 0.000000
# 2 -0.003596 0.010597 -0.004212 0.000000 0.000000 0.000000
# 3 0.000075 -0.004212 0.019771 0.000000 0.000000 0.000000
# 4 0.000000 0.000000 0.000000 0.092408 0.000000 0.000000
# 5 0.000000 0.000000 0.000000 0.000000 0.062433 0.000000
# 6 0.000000 0.000000 0.000000 0.000000 0.000000 0.027026
#
#
# Mechanical properties :
#
#
# Convention : Reuss Voigt Hill
#
# Bulk Modulus (GPa) = 35.08372 41.34148 38.21260
# Shear Modulus (GPa) = 19.93586 25.49958 22.71772
#
# Velocity S-wave (km/s) = 3.19322 3.61142 3.40874
# Velocity P-wave (km/s) = 5.61604 6.20765 5.91924
#
# Compressibility (1/GPa) = 0.02850325
#
# Stress axis : x y z
#
# Youngs Moduli (GPa) = 73.52408 94.36359 50.57793
#
# Poissons Ratio (x) = 0.33938 -0.00380
# Poissons Ratio (y) = 0.26443 0.21303
# Poissons Ratio (z) = -0.00552 0.39745
#
# Static dielectric constant tensor:
#      x y z
#    x 1.745560 0.000000 0.000000 
#    y 0.000000 1.719860 0.000000 
#    z 0.000000 0.000000 1.680450 
# 
# From -- ./inp_files/2914.got.cif
#   From: 2010.05.17/outbox.cif.g08.bks.cpg/sg32_2_cif.got.tgz:2914.got - 2010.06.03 17:12:27.
