data_PCOD9343861
_publ_section_title
;
Structure prediction by ZEFSAII (Michael W. Deem and Ramdas Pophale) SiO2 
 PCOD9343861
Probable space group: P B A 2
;
_chemical_formula_sum "Si O2"
_cell_formula_units_Z 28
_cell_length_a 8.421571
_cell_length_b 24.131882
_cell_length_c 6.536373
_cell_angle_alpha 90.000000
_cell_angle_beta 90.000000
_cell_angle_gamma 90.000000
_cell_volume 1328.376350
_symmetry_space_group_name_H-M "P B A 2"
_symmetry_group_IT_number 32
_symmetry_cell_setting 'orthorhombic'
loop_
_space_group_symop_operation_xyz
x,y,z
-x,-y,z
1/2-x,1/2+y,z
1/2+x,1/2-y,z
loop_
_atom_site_type_symbol
_atom_site_label
_atom_site_fract_x
_atom_site_fract_y
_atom_site_fract_z
Si Si1 0.000000 0.000000 0.530831
Si Si2 0.714290 0.443670 0.198331
Si Si3 0.328599 0.699927 0.777886
Si Si4 0.000000 0.500000 0.953631
Si Si5 0.999998 0.300650 0.552324
Si Si6 0.625970 0.827397 0.140377
Si Si7 0.383377 0.885700 0.829427
Si Si8 0.965894 0.092646 0.859506
O O1 0.860393 0.974349 0.392102
O O2 0.058254 0.950998 0.677901
O O3 0.786518 0.382002 0.234074
O O4 0.570455 0.434862 0.037464
O O5 0.852479 0.479902 0.092616
O O6 0.424622 0.749879 0.676842
O O7 0.435601 0.645530 0.784934
O O8 0.176298 0.690159 0.637519
O O9 0.254152 0.706871 0.006268
O O10 0.051651 0.447796 0.819377
O O11 0.105968 0.353689 0.614363
O O12 0.970337 0.294363 0.312046
O O13 0.499764 0.852642 0.980933
O O14 0.208088 0.887421 0.921753
#
# Coordination Sequence:
#
# PCOD9343861 Si02
#       8
#     2   4   4   2   4   4   4   4
#     4  12  22  36  62  92 120 162 210 254 304 370
#     4  10  22  39  58  87 126 164 207 255 314 374
#     4  10  23  42  62  90 125 159 206 259 313 373
#     4  10  20  40  60  84 126 164 202 262 314 362
#     4  11  22  41  65  91 121 163 212 256 310 376
#     4   9  22  42  62  87 123 163 203 257 315 374
#     4  10  22  38  61  89 122 162 205 254 311 371
#     4  11  23  41  62  90 128 164 202 257 311 368
#
# _framework density 21.078364000000001
#
# number of rings (size 3 to 8) (size 9 to 14) (size 15 to 20)
#    0.000    1.714    0.000    4.714    0.000    6.857 
#    0.000    7.143    0.000    0.000    0.000    0.000 
#    0.000    0.000    0.000    0.000    0.000    0.000 
#
# Total GULP energy -156448.781840 kJ/mol
# GULP energy per Si atom -5587.456494 kJ/mol
# Density = 2.103039 g / cm^3
# Si number density = 21.078364 Si / 1000 Ang^3
#
#
#
# Elastic Constant Matrix: (Units=GPa)
#
#
# Indices 1 2 3 4 5 6 
#
# 1 118.9940 34.2049 31.7785 0.0000 0.0000 0.0000
# 2 34.2049 96.9391 56.2665 0.0000 0.0000 0.0000
# 3 31.7785 56.2665 93.7093 0.0000 0.0000 0.0000
# 4 0.0000 0.0000 0.0000 29.7312 0.0000 0.0000
# 5 0.0000 0.0000 0.0000 0.0000 18.9890 0.0000
# 6 0.0000 0.0000 0.0000 0.0000 0.0000 26.3683
#
#
#
# Elastic Compliance Matrix: (Units=1/GPa)
#
#
# Indices 1 2 3 4 5 6 
#
# 1 0.009561 -0.002290 -0.001867 0.000000 0.000000 0.000000
# 2 -0.002290 0.016382 -0.009060 0.000000 0.000000 0.000000
# 3 -0.001867 -0.009060 0.016745 0.000000 0.000000 0.000000
# 4 0.000000 0.000000 0.000000 0.033635 0.000000 0.000000
# 5 0.000000 0.000000 0.000000 0.000000 0.052662 0.000000
# 6 0.000000 0.000000 0.000000 0.000000 0.000000 0.037924
#
#
# Mechanical properties :
#
#
# Convention : Reuss Voigt Hill
#
# Bulk Modulus (GPa) = 61.52578 61.57139 61.54858
# Shear Modulus (GPa) = 25.15585 27.51054 26.33320
#
# Velocity S-wave (km/s) = 3.45837 3.61661 3.53838
# Velocity P-wave (km/s) = 6.72306 6.83476 6.77914
#
# Compressibility (1/GPa) = 0.01625335
#
# Stress axis : x y z
#
# Youngs Moduli (GPa) = 104.59548 61.04099 59.72053
#
# Poissons Ratio (x) = 0.13976 0.11153
# Poissons Ratio (y) = 0.23947 0.54108
# Poissons Ratio (z) = 0.19533 0.55304
#
# Static dielectric constant tensor:
#      x y z
#    x 1.750620 0.000000 0.000000 
#    y 0.000000 1.749610 0.000000 
#    z 0.000000 0.000000 1.784910 
# 
# From -- ./inp_files/580.got.cif
#   From: 2010.05.17/outbox.cif.g08.bks.cpg/sg32_1_cif.got.tgz:580.got - 2010.06.03 17:12:27.
