data_PCOD9343083
_publ_section_title
;
Structure prediction by ZEFSAII (Michael W. Deem and Ramdas Pophale) SiO2 
 PCOD9343083
Probable space group: P M N 21
;
_chemical_formula_sum "Si O2"
_cell_formula_units_Z 32
_cell_length_a 7.727993
_cell_length_b 10.955344
_cell_length_c 14.530695
_cell_angle_alpha 90.000000
_cell_angle_beta 90.000000
_cell_angle_gamma 90.000000
_cell_volume 1230.209641
_symmetry_space_group_name_H-M "P M N 21"
_symmetry_group_IT_number 31
_symmetry_cell_setting 'orthorhombic'
loop_
_space_group_symop_operation_xyz
x,y,z
1/2-x,-y,1/2+z
-x,y,z
1/2+x,-y,1/2+z
loop_
_atom_site_type_symbol
_atom_site_label
_atom_site_fract_x
_atom_site_fract_y
_atom_site_fract_z
Si Si1 0.198389 0.557225 0.112500
Si Si2 0.207885 0.194383 0.062840
Si Si3 0.794713 0.203547 0.719584
Si Si4 0.798553 0.419462 0.280623
Si Si5 0.794775 0.348753 0.898094
Si Si6 0.202371 0.964982 0.947856
Si Si7 0.291940 0.064467 0.240504
Si Si8 0.702442 0.709685 0.949199
O O1 0.205002 0.684931 0.168452
O O2 0.278950 0.459422 0.183014
O O3 0.000000 0.522262 0.096566
O O4 0.276984 0.594358 0.015878
O O5 0.266715 0.307659 0.999183
O O6 0.000000 0.198496 0.056472
O O7 0.276309 0.073216 0.009656
O O8 0.245253 0.172386 0.170220
O O9 0.778851 0.232543 0.828900
O O10 0.000000 0.212517 0.696862
O O11 0.733847 0.066945 0.699864
O O12 0.794886 0.541497 0.344079
O O13 0.717340 0.321263 0.349473
O O14 0.000000 0.388105 0.264888
O O15 0.000000 0.378591 0.900981
O O16 0.275719 0.941555 0.845245
O O17 0.218435 0.831161 0.991885
O O18 0.000000 0.994102 0.936656
O O19 0.500000 0.062210 0.244642
O O20 0.500000 0.731481 0.938771
#
# Coordination Sequence:
#
# PCOD9343083 Si02
#       8
#     4   4   4   4   4   4   4   4
#     4  10  20  36  59  86 111 145 189 235 284 334
#     4  10  20  35  55  82 115 149 184 227 279 335
#     4   9  16  31  55  80 109 144 184 230 273 322
#     4   9  21  40  59  81 112 144 183 237 285 327
#     4   9  17  33  57  80 104 139 182 227 276 329
#     4  10  21  39  59  82 117 155 189 229 278 334
#     4  10  20  34  53  80 115 152 186 224 275 333
#     4  11  23  40  59  83 115 150 189 235 282 332
#
# _framework density 26.011825000000002
#
# number of rings (size 3 to 8) (size 9 to 14) (size 15 to 20)
#    0.000    2.250    1.250    1.500    0.000    5.500 
#    2.250    0.000    0.000    0.000    0.000    0.000 
#    0.000    0.000    0.000    0.000    0.000    0.000 
#
# Total GULP energy -178899.874700 kJ/mol
# GULP energy per Si atom -5590.621084 kJ/mol
# Density = 2.595262 g / cm^3
# Si number density = 26.011825 Si / 1000 Ang^3
#
#
#
# Elastic Constant Matrix: (Units=GPa)
#
#
# Indices 1 2 3 4 5 6 
#
# 1 52.7239 -7.4040 3.9341 0.0000 0.0000 0.0000
# 2 -7.4040 84.2053 20.7400 0.0000 0.0000 0.0000
# 3 3.9341 20.7400 152.1742 0.0000 0.0000 0.0000
# 4 0.0000 0.0000 0.0000 52.3554 0.0000 0.0000
# 5 0.0000 0.0000 0.0000 0.0000 26.4970 0.0000
# 6 0.0000 0.0000 0.0000 0.0000 0.0000 20.1585
#
#
#
# Elastic Compliance Matrix: (Units=1/GPa)
#
#
# Indices 1 2 3 4 5 6 
#
# 1 0.019287 0.001882 -0.000755 0.000000 0.000000 0.000000
# 2 0.001882 0.012472 -0.001748 0.000000 0.000000 0.000000
# 3 -0.000755 -0.001748 0.006829 0.000000 0.000000 0.000000
# 4 0.000000 0.000000 0.000000 0.019100 0.000000 0.000000
# 5 0.000000 0.000000 0.000000 0.000000 0.037740 0.000000
# 6 0.000000 0.000000 0.000000 0.000000 0.000000 0.049607
#
#
# Mechanical properties :
#
#
# Convention : Reuss Voigt Hill
#
# Bulk Modulus (GPa) = 26.77731 35.96040 31.36886
# Shear Modulus (GPa) = 31.50056 37.92441 34.71248
#
# Velocity S-wave (km/s) = 3.48373 3.82248 3.65703
# Velocity P-wave (km/s) = 5.14767 5.77377 5.46968
#
# Compressibility (1/GPa) = 0.03734505
#
# Stress axis : x y z
#
# Youngs Moduli (GPa) = 51.84749 80.18057 146.42930
#
# Poissons Ratio (x) = -0.15089 0.11057
# Poissons Ratio (y) = -0.09757 0.25602
# Poissons Ratio (z) = 0.03915 0.14019
#
# Static dielectric constant tensor:
#      x y z
#    x 1.932870 0.000000 0.000000 
#    y 0.000000 2.082210 0.000000 
#    z 0.000000 0.000000 2.111550 
# 
# From -- ./inp_files/5047.got.cif
#   From: 2010.05.17/outbox.cif.g08.bks.cpg/sg31_3_cif.got.tgz:5047.got - 2010.06.03 17:08:30.
