data_PCOD9343656
_publ_section_title
;
Structure prediction by ZEFSAII (Michael W. Deem and Ramdas Pophale) SiO2 
 PCOD9343656
Probable space group: P B A 2
;
_chemical_formula_sum "Si O2"
_cell_formula_units_Z 32
_cell_length_a 15.314400
_cell_length_b 14.744874
_cell_length_c 5.369467
_cell_angle_alpha 90.000000
_cell_angle_beta 90.000000
_cell_angle_gamma 90.000000
_cell_volume 1212.473428
_symmetry_space_group_name_H-M "P B A 2"
_symmetry_group_IT_number 32
_symmetry_cell_setting 'orthorhombic'
loop_
_space_group_symop_operation_xyz
x,y,z
-x,-y,z
1/2-x,1/2+y,z
1/2+x,1/2-y,z
loop_
_atom_site_type_symbol
_atom_site_label
_atom_site_fract_x
_atom_site_fract_y
_atom_site_fract_z
Si Si1 0.583336 0.705921 0.131070
Si Si2 0.347408 0.874703 0.066961
Si Si3 0.433812 0.585346 0.234567
Si Si4 0.458628 0.111138 0.286750
Si Si5 0.633447 0.952940 0.778025
Si Si6 0.896445 0.970370 0.741540
Si Si7 0.269079 0.229548 0.793308
Si Si8 0.284570 0.388137 0.453320
O O1 0.487293 0.667402 0.113259
O O2 0.581599 0.789679 0.316372
O O3 0.638368 0.628493 0.257673
O O4 0.635017 0.737510 0.890718
O O5 0.442172 0.871091 0.196241
O O6 0.290386 0.925644 0.277666
O O7 0.346371 0.940478 0.823797
O O8 0.300670 0.778810 0.985085
O O9 0.500000 0.500000 0.269586
O O10 0.397220 0.600411 0.510847
O O11 0.368655 0.560923 0.014557
O O12 0.429127 0.061684 0.539002
O O13 0.415250 0.069636 0.038422
O O14 0.712235 0.878028 0.757512
O O15 0.832781 0.050219 0.654926
O O16 0.000000 0.000000 0.769394
O O17 0.253563 0.289984 0.549904
#
# Coordination Sequence:
#
# PCOD9343656 Si02
#       8
#     4   4   4   4   4   4   4   4
#     4  10  20  40  68 100 143 200 245 326 385 479
#     4  11  28  46  77 117 156 206 270 346 402 478
#     4  10  18  30  55  91 136 178 252 285 365 454
#     4  11  26  48  78 112 144 203 277 322 390 477
#     4  11  26  51  81 109 155 210 262 331 405 484
#     4  10  19  31  55  93 137 191 247 291 366 478
#     4  10  23  45  74 107 154 197 259 321 419 471
#     4  11  21  41  69 103 154 202 253 327 411 473
#
# _framework density 26.392330999999999
#
# number of rings (size 3 to 8) (size 9 to 14) (size 15 to 20)
#    0.000    1.500    3.750    1.875    5.250    1.000 
#    2.250    0.000    0.000    0.000    0.000    0.000 
#    0.000    0.000    0.000    0.000    0.000    0.000 
#
# Total GULP energy -178692.786645 kJ/mol
# GULP energy per Si atom -5584.149583 kJ/mol
# Density = 2.633226 g / cm^3
# Si number density = 26.392331 Si / 1000 Ang^3
#
#
#
# Elastic Constant Matrix: (Units=GPa)
#
#
# Indices 1 2 3 4 5 6 
#
# 1 113.1904 37.3665 26.7816 0.0000 0.0000 0.0000
# 2 37.3665 108.3778 20.8879 0.0000 0.0000 0.0000
# 3 26.7816 20.8879 151.4084 0.0000 0.0000 0.0000
# 4 0.0000 0.0000 0.0000 28.6115 0.0000 0.0000
# 5 0.0000 0.0000 0.0000 0.0000 26.6121 0.0000
# 6 0.0000 0.0000 0.0000 0.0000 0.0000 36.5796
#
#
#
# Elastic Compliance Matrix: (Units=1/GPa)
#
#
# Indices 1 2 3 4 5 6 
#
# 1 0.010235 -0.003267 -0.001360 0.000000 0.000000 0.000000
# 2 -0.003267 0.010522 -0.000874 0.000000 0.000000 0.000000
# 3 -0.001360 -0.000874 0.006966 0.000000 0.000000 0.000000
# 4 0.000000 0.000000 0.000000 0.034951 0.000000 0.000000
# 5 0.000000 0.000000 0.000000 0.000000 0.037577 0.000000
# 6 0.000000 0.000000 0.000000 0.000000 0.000000 0.027338
#
#
# Mechanical properties :
#
#
# Convention : Reuss Voigt Hill
#
# Bulk Modulus (GPa) = 59.80171 60.33875 60.07023
# Shear Modulus (GPa) = 34.68322 37.55667 36.11995
#
# Velocity S-wave (km/s) = 3.62904 3.77638 3.70344
# Velocity P-wave (km/s) = 6.34569 6.47507 6.41071
#
# Compressibility (1/GPa) = 0.01672193
#
# Stress axis : x y z
#
# Youngs Moduli (GPa) = 97.70596 95.04195 143.56063
#
# Poissons Ratio (x) = 0.31047 0.19520
# Poissons Ratio (y) = 0.31918 0.12543
# Poissons Ratio (z) = 0.13285 0.08304
#
# Static dielectric constant tensor:
#      x y z
#    x 2.165870 0.000000 0.000000 
#    y 0.000000 2.188230 0.000000 
#    z 0.000000 0.000000 2.033940 
# 
# From -- ./inp_files/1769.got.cif
#   From: 2010.05.17/outbox.cif.g08.bks.cpg/sg32_1_cif.got.tgz:1769.got - 2010.06.03 17:12:27.
