data_PCOD9343294
_publ_section_title
;
Structure prediction by ZEFSAII (Michael W. Deem and Ramdas Pophale) SiO2 
 PCOD9343294
Probable space group: P M N 21
;
_chemical_formula_sum "Si O2"
_cell_formula_units_Z 32
_cell_length_a 29.601687
_cell_length_b 9.268476
_cell_length_c 5.318311
_cell_angle_alpha 90.000000
_cell_angle_beta 90.000000
_cell_angle_gamma 90.000000
_cell_volume 1459.145237
_symmetry_space_group_name_H-M "P M N 21"
_symmetry_group_IT_number 31
_symmetry_cell_setting 'orthorhombic'
loop_
_space_group_symop_operation_xyz
x,y,z
1/2-x,-y,1/2+z
-x,y,z
1/2+x,-y,1/2+z
loop_
_atom_site_type_symbol
_atom_site_label
_atom_site_fract_x
_atom_site_fract_y
_atom_site_fract_z
Si Si1 0.080821 0.799984 0.683550
Si Si2 0.681336 0.278502 0.264934
Si Si3 0.773830 0.456005 0.664846
Si Si4 0.422765 0.023939 0.704851
Si Si5 0.679961 0.040676 0.656071
Si Si6 0.240333 0.162246 0.909136
Si Si7 0.445568 0.534160 0.209237
Si Si8 0.446430 0.689658 0.708132
O O1 0.135253 0.782098 0.647330
O O2 0.060573 0.881288 0.441205
O O3 0.063886 0.636361 0.708475
O O4 0.071917 0.891079 0.939530
O O5 0.682608 0.451410 0.250046
O O6 0.680790 0.201045 0.534862
O O7 0.727839 0.235219 0.123810
O O8 0.762561 0.488405 0.374952
O O9 0.772975 0.286818 0.714318
O O10 0.369141 0.007993 0.751135
O O11 0.441203 0.862126 0.698547
O O12 0.693736 0.917854 0.461751
O O13 0.724006 0.040071 0.827810
O O14 0.500000 0.551293 0.209540
O O15 0.427615 0.612075 0.459761
O O16 0.427730 0.615511 0.960741
O O17 0.500000 0.660674 0.710027
#
# Coordination Sequence:
#
# PCOD9343294 Si02
#       8
#     4   4   4   4   4   4   4   4
#     4  11  23  39  63  91 128 164 203 259 312 369
#     4  10  21  37  54  79 116 153 198 250 305 346
#     4  10  21  35  55  77 105 143 194 244 290 346
#     4  11  24  40  61  96 128 163 209 258 315 369
#     4  11  21  36  57  81 117 158 205 253 301 361
#     4  11  20  36  55  79 109 157 201 247 299 351
#     4  10  22  42  67  95 126 165 206 248 307 380
#     4  10  22  43  68  94 130 165 201 253 311 374
#
# _framework density 21.930644999999998
#
# number of rings (size 3 to 8) (size 9 to 14) (size 15 to 20)
#    0.000    1.500    3.750    1.500    0.000    2.000 
#    0.000    6.250    0.000    0.000    0.000    0.000 
#    0.000    0.000    0.000    0.000    0.000    0.000 
#
# Total GULP energy -178401.704984 kJ/mol
# GULP energy per Si atom -5575.053281 kJ/mol
# Density = 2.188073 g / cm^3
# Si number density = 21.930645 Si / 1000 Ang^3
#
#
#
# Elastic Constant Matrix: (Units=GPa)
#
#
# Indices 1 2 3 4 5 6 
#
# 1 9.5154 -9.6590 16.4098 0.0000 0.0000 0.0000
# 2 -9.6590 125.5179 65.3046 0.0000 0.0000 0.0000
# 3 16.4098 65.3046 121.3850 0.0000 0.0000 0.0000
# 4 0.0000 0.0000 0.0000 32.2735 0.0000 0.0000
# 5 0.0000 0.0000 0.0000 0.0000 -0.5596 0.0000
# 6 0.0000 0.0000 0.0000 0.0000 0.0000 31.5381
#
#
#
# Elastic Compliance Matrix: (Units=1/GPa)
#
#
# Indices 1 2 3 4 5 6 
#
# 1 0.284447 0.058181 -0.069755 0.000000 0.000000 0.000000
# 2 0.058181 0.022964 -0.020220 0.000000 0.000000 0.000000
# 3 -0.069755 -0.020220 0.028547 0.000000 0.000000 0.000000
# 4 0.000000 0.000000 0.000000 0.030985 0.000000 0.000000
# 5 0.000000 0.000000 0.000000 0.000000 -1.786926 0.000000
# 6 0.000000 0.000000 0.000000 0.000000 0.000000 0.031708
#
#
# Mechanical properties :
#
#
# Convention : Reuss Voigt Hill
#
# Bulk Modulus (GPa) = 3.67148 44.50325 24.08736
# Shear Modulus (GPa) = -4.05220 24.94125 10.44452
#
# Velocity S-wave (km/s) = -1.36079 3.37601 2.18469
# Velocity P-wave (km/s) = 0.88951 5.96099 4.16786
#
# Compressibility (1/GPa) = 0.27237008
#
# Stress axis : x y z
#
# Youngs Moduli (GPa) = 3.51559 43.54564 35.03032
#
# Poissons Ratio (x) = -2.53354 2.44355
# Poissons Ratio (y) = -0.20454 0.70832
# Poissons Ratio (z) = 0.24523 0.88050
#
# Static dielectric constant tensor:
#      x y z
#    x 1.810670 0.000000 0.000000 
#    y 0.000000 1.845600 0.000000 
#    z 0.000000 0.000000 1.919220 
# 
# From -- ./inp_files/1372.got.cif
#   From: 2010.05.17/outbox.cif.g08.bks.cpg/sg31_1_cif.got.tgz:1372.got - 2010.06.03 17:08:30.
