data_PCOD9343777
_publ_section_title
;
Structure prediction by ZEFSAII (Michael W. Deem and Ramdas Pophale) SiO2 
 PCOD9343777
Probable space group: P B A 2
;
_chemical_formula_sum "Si O2"
_cell_formula_units_Z 26
_cell_length_a 9.322589
_cell_length_b 20.188036
_cell_length_c 6.207829
_cell_angle_alpha 90.000000
_cell_angle_beta 90.000000
_cell_angle_gamma 90.000000
_cell_volume 1168.342982
_symmetry_space_group_name_H-M "P B A 2"
_symmetry_group_IT_number 32
_symmetry_cell_setting 'orthorhombic'
loop_
_space_group_symop_operation_xyz
x,y,z
-x,-y,z
1/2-x,1/2+y,z
1/2+x,1/2-y,z
loop_
_atom_site_type_symbol
_atom_site_label
_atom_site_fract_x
_atom_site_fract_y
_atom_site_fract_z
Si Si1 0.000000 0.000000 0.119681
Si Si2 0.857119 0.072703 0.767301
Si Si3 0.092634 0.817541 0.430803
Si Si4 0.815450 0.674908 0.040963
Si Si5 0.136331 0.264664 0.634167
Si Si6 0.734323 0.987366 0.439379
Si Si7 0.985755 0.611210 0.395853
O O1 0.138927 0.012067 0.265730
O O2 0.030573 0.939797 0.956251
O O3 0.906267 0.111761 0.552914
O O4 0.798725 0.003411 0.674576
O O5 0.736866 0.116889 0.881708
O O6 0.180341 0.816825 0.206446
O O7 0.197521 0.771787 0.574384
O O8 0.936561 0.788685 0.477668
O O9 0.951042 0.649043 0.174586
O O10 0.861623 0.737171 0.893445
O O11 0.056042 0.333096 0.568478
O O12 0.627625 0.050115 0.401302
O O13 0.639596 0.921569 0.425045
#
# Coordination Sequence:
#
# PCOD9343777 Si02
#       7
#     2   4   4   4   4   4   4
#     4  12  24  40  62  94 130 184 208 262 340 398
#     4  11  21  41  63  90 130 172 207 266 330 392
#     4  10  22  42  62  92 125 166 222 275 319 394
#     4  10  19  42  67  86 129 172 213 262 343 375
#     4  10  22  42  63  93 124 172 218 273 330 390
#     4  11  22  42  62  95 132 164 218 268 325 395
#     4  10  21  41  65  94 125 167 217 276 315 397
#
# _framework density 22.253741000000002
#
# number of rings (size 3 to 8) (size 9 to 14) (size 15 to 20)
#    0.000    1.538    6.154    0.462    0.000    6.154 
#   13.846    0.000    0.000    0.000    0.000    0.000 
#    0.000    0.000    0.000    0.000    0.000    0.000 
#
# Total GULP energy -144939.774672 kJ/mol
# GULP energy per Si atom -5574.606718 kJ/mol
# Density = 2.220309 g / cm^3
# Si number density = 22.253741 Si / 1000 Ang^3
#
#
#
# Elastic Constant Matrix: (Units=GPa)
#
#
# Indices 1 2 3 4 5 6 
#
# 1 75.8875 15.1494 21.1367 0.0000 0.0000 0.0000
# 2 15.1494 26.3056 12.2950 0.0000 0.0000 0.0000
# 3 21.1367 12.2950 119.5899 0.0000 0.0000 0.0000
# 4 0.0000 0.0000 0.0000 10.2623 0.0000 0.0000
# 5 0.0000 0.0000 0.0000 0.0000 10.1565 0.0000
# 6 0.0000 0.0000 0.0000 0.0000 0.0000 22.2682
#
#
#
# Elastic Compliance Matrix: (Units=1/GPa)
#
#
# Indices 1 2 3 4 5 6 
#
# 1 0.015284 -0.007920 -0.001887 0.000000 0.000000 0.000000
# 2 -0.007920 0.044038 -0.003128 0.000000 0.000000 0.000000
# 3 -0.001887 -0.003128 0.009017 0.000000 0.000000 0.000000
# 4 0.000000 0.000000 0.000000 0.097444 0.000000 0.000000
# 5 0.000000 0.000000 0.000000 0.000000 0.098459 0.000000
# 6 0.000000 0.000000 0.000000 0.000000 0.000000 0.044907
#
#
# Mechanical properties :
#
#
# Convention : Reuss Voigt Hill
#
# Bulk Modulus (GPa) = 23.54656 35.43836 29.49246
# Shear Modulus (GPa) = 14.31944 20.08419 17.20182
#
# Velocity S-wave (km/s) = 2.53941 3.00744 2.78328
# Velocity P-wave (km/s) = 4.38201 5.29328 4.85906
#
# Compressibility (1/GPa) = 0.04246905
#
# Stress axis : x y z
#
# Youngs Moduli (GPa) = 65.42744 22.70779 110.90164
#
# Poissons Ratio (x) = 0.17985 0.20928
# Poissons Ratio (y) = 0.51819 0.34687
# Poissons Ratio (z) = 0.12347 0.07102
#
# Static dielectric constant tensor:
#      x y z
#    x 1.835910 0.000000 0.000000 
#    y 0.000000 1.903990 0.000000 
#    z 0.000000 0.000000 1.863660 
# 
# From -- ./inp_files/512.got.cif
#   From: 2010.05.17/outbox.cif.g08.bks.cpg/sg32_1_cif.got.tgz:512.got - 2010.06.03 17:12:27.
