data_PCOD9343466
_publ_section_title
;
Structure prediction by ZEFSAII (Michael W. Deem and Ramdas Pophale) SiO2 
 PCOD9343466
Probable space group: P M N 21
;
_chemical_formula_sum "Si O2"
_cell_formula_units_Z 24
_cell_length_a 19.456052
_cell_length_b 10.215572
_cell_length_c 5.406881
_cell_angle_alpha 90.000000
_cell_angle_beta 90.000000
_cell_angle_gamma 90.000000
_cell_volume 1074.643011
_symmetry_space_group_name_H-M "P M N 21"
_symmetry_group_IT_number 31
_symmetry_cell_setting 'orthorhombic'
loop_
_space_group_symop_operation_xyz
x,y,z
1/2-x,-y,1/2+z
-x,y,z
1/2+x,-y,1/2+z
loop_
_atom_site_type_symbol
_atom_site_label
_atom_site_fract_x
_atom_site_fract_y
_atom_site_fract_z
Si Si1 0.659634 0.479297 0.544370
Si Si2 0.074663 0.729773 0.830819
Si Si3 0.922418 0.995476 0.142983
Si Si4 0.186309 0.370950 0.540618
Si Si5 0.819773 0.865403 0.536684
Si Si6 0.678550 0.874331 0.309787
O O1 0.597974 0.376030 0.529770
O O2 0.731859 0.400009 0.540877
O O3 0.657826 0.562490 0.291186
O O4 0.658386 0.566900 0.789038
O O5 0.136112 0.744699 0.636253
O O6 0.000000 0.700442 0.722663
O O7 0.071481 0.872367 0.955991
O O8 0.869642 0.942218 0.348032
O O9 0.000000 0.024183 0.233991
O O10 0.886550 0.111717 0.988937
O O11 0.168720 0.218111 0.573941
O O12 0.747135 0.818794 0.435857
O O13 0.802963 0.976115 0.740068
#
# Coordination Sequence:
#
# PCOD9343466 Si02
#       6
#     4   4   4   4   4   4
#     4  10  23  41  64  96 125 178 223 280 343 399
#     4  10  23  41  65  95 131 172 227 289 349 413
#     4  10  22  40  62  94 132 171 215 282 359 413
#     4  10  24  40  65  93 133 170 224 285 337 398
#     4  11  22  37  66 100 127 175 226 289 353 413
#     4  11  23  37  64  98 131 172 231 283 344 420
#
# _framework density 22.332998
#
# number of rings (size 3 to 8) (size 9 to 14) (size 15 to 20)
#    0.000    1.667    1.667    1.500   14.000    0.667 
#    0.000    1.667    0.000    0.000    0.000    0.000 
#    0.000    0.000    0.000    0.000    0.000    0.000 
#
# Total GULP energy -134151.393047 kJ/mol
# GULP energy per Si atom -5589.641377 kJ/mol
# Density = 2.228217 g / cm^3
# Si number density = 22.332998 Si / 1000 Ang^3
#
#
#
# Elastic Constant Matrix: (Units=GPa)
#
#
# Indices 1 2 3 4 5 6 
#
# 1 124.3800 29.5942 30.6708 0.0000 0.0000 0.0000
# 2 29.5942 78.9010 24.9859 0.0000 0.0000 0.0000
# 3 30.6708 24.9859 76.9841 0.0000 0.0000 0.0000
# 4 0.0000 0.0000 0.0000 39.7796 0.0000 0.0000
# 5 0.0000 0.0000 0.0000 0.0000 16.7095 0.0000
# 6 0.0000 0.0000 0.0000 0.0000 0.0000 -2.2959
#
#
#
# Elastic Compliance Matrix: (Units=1/GPa)
#
#
# Indices 1 2 3 4 5 6 
#
# 1 0.009371 -0.002600 -0.002890 0.000000 0.000000 0.000000
# 2 -0.002600 0.014847 -0.003783 0.000000 0.000000 0.000000
# 3 -0.002890 -0.003783 0.015369 0.000000 0.000000 0.000000
# 4 0.000000 0.000000 0.000000 0.025139 0.000000 0.000000
# 5 0.000000 0.000000 0.000000 0.000000 0.059846 0.000000
# 6 0.000000 0.000000 0.000000 0.000000 0.000000 -0.435562
#
#
# Mechanical properties :
#
#
# Convention : Reuss Voigt Hill
#
# Bulk Modulus (GPa) = 47.52398 50.08523 48.80461
# Shear Modulus (GPa) = -17.51734 23.83959 3.16112
#
# Velocity S-wave (km/s) = -2.80370 3.27075 1.19102
# Velocity P-wave (km/s) = 3.29316 6.06127 4.87770
#
# Compressibility (1/GPa) = 0.02104201
#
# Stress axis : x y z
#
# Youngs Moduli (GPa) = 106.71197 67.35264 65.06702
#
# Poissons Ratio (x) = 0.17510 0.18802
# Poissons Ratio (y) = 0.27743 0.24615
# Poissons Ratio (z) = 0.30836 0.25480
#
# Static dielectric constant tensor:
#      x y z
#    x 1.810160 0.000000 0.000000 
#    y 0.000000 1.841170 0.000000 
#    z 0.000000 0.000000 1.902710 
# 
# From -- ./inp_files/810.got.cif
#   From: 2010.05.17/outbox.cif.g08.bks.cpg/sg31_1_cif.got.tgz:810.got - 2010.06.03 17:08:30.
