data_PCOD9343754
_publ_section_title
;
Structure prediction by ZEFSAII (Michael W. Deem and Ramdas Pophale) SiO2 
 PCOD9343754
Probable space group: P B A 2
;
_chemical_formula_sum "Si O2"
_cell_formula_units_Z 26
_cell_length_a 7.650960
_cell_length_b 23.732355
_cell_length_c 5.488461
_cell_angle_alpha 90.000000
_cell_angle_beta 90.000000
_cell_angle_gamma 90.000000
_cell_volume 996.568946
_symmetry_space_group_name_H-M "P B A 2"
_symmetry_group_IT_number 32
_symmetry_cell_setting 'orthorhombic'
loop_
_space_group_symop_operation_xyz
x,y,z
-x,-y,z
1/2-x,1/2+y,z
1/2+x,1/2-y,z
loop_
_atom_site_type_symbol
_atom_site_label
_atom_site_fract_x
_atom_site_fract_y
_atom_site_fract_z
Si Si1 0.323967 0.670624 0.021750
Si Si2 0.166168 0.434907 0.168351
Si Si3 0.000000 0.000000 0.687889
Si Si4 0.896334 0.669284 0.484780
Si Si5 0.201518 0.549653 0.043416
Si Si6 0.610316 0.616102 0.767495
Si Si7 0.889142 0.246848 0.253203
O O1 0.269540 0.610045 0.122780
O O2 0.158737 0.712095 0.026795
O O3 0.458578 0.703704 0.190505
O O4 0.436830 0.653978 0.785035
O O5 0.333714 0.410486 0.028065
O O6 0.090032 0.392248 0.365034
O O7 0.201070 0.499603 0.241759
O O8 0.002251 0.440541 0.977133
O O9 0.075842 0.938831 0.595604
O O10 0.834371 0.974867 0.841873
O O11 0.774604 0.656305 0.713305
O O12 0.768876 0.705977 0.314841
O O13 0.065757 0.708513 0.468835
#
# Coordination Sequence:
#
# PCOD9343754 Si02
#       7
#     4   4   2   4   4   4   4
#     4  10  19  38  61  85 117 167 198 254 313 369
#     4  10  19  39  63  89 120 162 199 259 318 377
#     4   8  18  38  58  94 122 156 206 266 306 394
#     4  11  22  41  58  91 119 159 205 262 305 377
#     4   9  18  35  65  88 121 161 204 249 319 374
#     4  10  21  38  63  88 123 157 210 257 323 375
#     4  10  22  38  60  84 125 157 211 251 302 384
#
# _framework density 26.089516
#
# number of rings (size 3 to 8) (size 9 to 14) (size 15 to 20)
#    0.000    2.154    3.077    0.000    0.000    1.231 
#    2.769   12.308    0.000    0.000    0.000    0.000 
#    0.000    0.000    0.000    0.000    0.000    0.000 
#
# Total GULP energy -144845.760261 kJ/mol
# GULP energy per Si atom -5570.990779 kJ/mol
# Density = 2.603014 g / cm^3
# Si number density = 26.089516 Si / 1000 Ang^3
#
#
#
# Elastic Constant Matrix: (Units=GPa)
#
#
# Indices 1 2 3 4 5 6 
#
# 1 87.6315 24.4181 3.1481 0.0000 0.0000 0.0000
# 2 24.4181 176.1765 26.4998 0.0000 0.0000 0.0000
# 3 3.1481 26.4998 37.7340 0.0000 0.0000 0.0000
# 4 0.0000 0.0000 0.0000 15.7349 0.0000 0.0000
# 5 0.0000 0.0000 0.0000 0.0000 19.4783 0.0000
# 6 0.0000 0.0000 0.0000 0.0000 0.0000 -0.2080
#
#
#
# Elastic Compliance Matrix: (Units=1/GPa)
#
#
# Indices 1 2 3 4 5 6 
#
# 1 0.011871 -0.001673 0.000185 0.000000 0.000000 0.000000
# 2 -0.001673 0.006582 -0.004483 0.000000 0.000000 0.000000
# 3 0.000185 -0.004483 0.029634 0.000000 0.000000 0.000000
# 4 0.000000 0.000000 0.000000 0.063553 0.000000 0.000000
# 5 0.000000 0.000000 0.000000 0.000000 0.051339 0.000000
# 6 0.000000 0.000000 0.000000 0.000000 0.000000 -4.807309
#
#
# Mechanical properties :
#
#
# Convention : Reuss Voigt Hill
#
# Bulk Modulus (GPa) = 27.66674 45.51934 36.59304
# Shear Modulus (GPa) = -1.08217 23.49941 11.20862
#
# Velocity S-wave (km/s) = -0.64474 3.00446 2.07498
# Velocity P-wave (km/s) = 3.17385 5.43332 4.44940
#
# Compressibility (1/GPa) = 0.03614448
#
# Stress axis : x y z
#
# Youngs Moduli (GPa) = 84.23895 151.92154 33.74470
#
# Poissons Ratio (x) = 0.25418 -0.00623
# Poissons Ratio (y) = 0.14094 0.15128
# Poissons Ratio (z) = -0.01555 0.68107
#
# Static dielectric constant tensor:
#      x y z
#    x 2.216850 0.000000 0.000000 
#    y 0.000000 2.036550 0.000000 
#    z 0.000000 0.000000 2.118670 
# 
# From -- ./inp_files/509.got.cif
#   From: 2010.05.17/outbox.cif.g08.bks.cpg/sg32_1_cif.got.tgz:509.got - 2010.06.03 17:12:27.
