data_PCOD9343003
_publ_section_title
;
Structure prediction by ZEFSAII (Michael W. Deem and Ramdas Pophale) SiO2 
 PCOD9343003
Probable space group: P M N 21
;
_chemical_formula_sum "Si O2"
_cell_formula_units_Z 32
_cell_length_a 8.396464
_cell_length_b 14.861681
_cell_length_c 12.620933
_cell_angle_alpha 90.000000
_cell_angle_beta 90.000000
_cell_angle_gamma 90.000000
_cell_volume 1574.910312
_symmetry_space_group_name_H-M "P M N 21"
_symmetry_group_IT_number 31
_symmetry_cell_setting 'orthorhombic'
loop_
_space_group_symop_operation_xyz
x,y,z
1/2-x,-y,1/2+z
-x,y,z
1/2+x,-y,1/2+z
loop_
_atom_site_type_symbol
_atom_site_label
_atom_site_fract_x
_atom_site_fract_y
_atom_site_fract_z
Si Si1 0.307687 0.352051 0.181020
Si Si2 0.816752 0.869488 0.969983
Si Si3 0.309085 0.776098 0.508411
Si Si4 0.807694 0.666493 0.923505
Si Si5 0.807165 0.452231 0.619918
Si Si6 0.315228 0.054023 0.893594
Si Si7 0.678027 0.862037 0.188471
Si Si8 0.316001 0.671368 0.304332
O O1 0.500000 0.345000 0.177828
O O2 0.236552 0.266767 0.120131
O O3 0.260725 0.359513 0.304169
O O4 0.259001 0.443680 0.121429
O O5 0.756389 0.769807 0.941966
O O6 0.000000 0.877279 0.935115
O O7 0.718252 0.951998 0.924398
O O8 0.803253 0.876495 0.096504
O O9 0.500000 0.782897 0.497211
O O10 0.237394 0.873912 0.483109
O O11 0.247962 0.707171 0.415744
O O12 0.000000 0.664744 0.929469
O O13 0.745854 0.602106 0.016394
O O14 0.745799 0.405662 0.729081
O O15 0.000000 0.448110 0.623946
O O16 0.500000 0.068986 0.870683
O O17 0.213405 0.078295 0.790332
O O18 0.500000 0.879455 0.147129
O O19 0.684035 0.759821 0.230180
O O20 0.500000 0.645564 0.326785
#
# Coordination Sequence:
#
# PCOD9343003 Si02
#       8
#     4   4   4   4   4   4   4   4
#     4  10  23  40  59  87 126 168 204 250 310 368
#     4  11  22  38  60  88 120 159 207 259 313 373
#     4  10  21  39  62  88 121 160 206 255 306 367
#     4  10  23  41  61  88 124 160 202 255 308 365
#     4  10  20  37  61  87 117 157 204 250 302 366
#     4  11  23  39  61  89 122 162 207 257 313 374
#     4  10  19  36  59  85 118 156 201 252 308 367
#     4   8  16  32  57  84 110 148 193 246 300 350
#
# _framework density 20.318617
#
# number of rings (size 3 to 8) (size 9 to 14) (size 15 to 20)
#    0.000    2.000    1.250    3.000    1.750    2.500 
#    0.000    4.375    0.000    0.000    0.000    0.000 
#    0.000    0.000    0.000    0.000    0.000    0.000 
#
# Total GULP energy -178622.356716 kJ/mol
# GULP energy per Si atom -5581.948647 kJ/mol
# Density = 2.027237 g / cm^3
# Si number density = 20.318617 Si / 1000 Ang^3
#
#
#
# Elastic Constant Matrix: (Units=GPa)
#
#
# Indices 1 2 3 4 5 6 
#
# 1 30.8694 12.8477 -0.2587 0.0000 0.0000 0.0000
# 2 12.8477 103.9566 35.2623 0.0000 0.0000 0.0000
# 3 -0.2587 35.2623 53.0718 0.0000 0.0000 0.0000
# 4 0.0000 0.0000 0.0000 18.8116 0.0000 0.0000
# 5 0.0000 0.0000 0.0000 0.0000 25.8217 0.0000
# 6 0.0000 0.0000 0.0000 0.0000 0.0000 15.2888
#
#
#
# Elastic Compliance Matrix: (Units=1/GPa)
#
#
# Indices 1 2 3 4 5 6 
#
# 1 0.034767 -0.005621 0.003904 0.000000 0.000000 0.000000
# 2 -0.005621 0.013327 -0.008882 0.000000 0.000000 0.000000
# 3 0.003904 -0.008882 0.024763 0.000000 0.000000 0.000000
# 4 0.000000 0.000000 0.000000 0.053159 0.000000 0.000000
# 5 0.000000 0.000000 0.000000 0.000000 0.038727 0.000000
# 6 0.000000 0.000000 0.000000 0.000000 0.000000 0.065407
#
#
# Mechanical properties :
#
#
# Convention : Reuss Voigt Hill
#
# Bulk Modulus (GPa) = 19.35783 31.51115 25.43449
# Shear Modulus (GPa) = 18.61731 21.32085 19.96908
#
# Velocity S-wave (km/s) = 3.03028 3.24284 3.13836
# Velocity P-wave (km/s) = 4.66811 5.43724 5.06729
#
# Compressibility (1/GPa) = 0.05165869
#
# Stress axis : x y z
#
# Youngs Moduli (GPa) = 28.76314 75.03606 40.38292
#
# Poissons Ratio (x) = 0.42178 -0.15766
# Poissons Ratio (y) = 0.16168 0.35869
# Poissons Ratio (z) = -0.11230 0.66648
#
# Static dielectric constant tensor:
#      x y z
#    x 1.700780 0.000000 0.000000 
#    y 0.000000 1.716680 0.000000 
#    z 0.000000 0.000000 1.713110 
# 
# From -- ./inp_files/3687.got.cif
#   From: 2010.05.17/outbox.cif.g08.bks.cpg/sg31_2_cif.got.tgz:3687.got - 2010.06.03 17:08:30.
