data_PCOD9343201
_publ_section_title
;
Structure prediction by ZEFSAII (Michael W. Deem and Ramdas Pophale) SiO2 
 PCOD9343201
Probable space group: P M N 21
;
_chemical_formula_sum "Si O2"
_cell_formula_units_Z 32
_cell_length_a 8.894754
_cell_length_b 11.611721
_cell_length_c 16.791262
_cell_angle_alpha 90.000000
_cell_angle_beta 90.000000
_cell_angle_gamma 90.000000
_cell_volume 1734.258660
_symmetry_space_group_name_H-M "P M N 21"
_symmetry_group_IT_number 31
_symmetry_cell_setting 'orthorhombic'
loop_
_space_group_symop_operation_xyz
x,y,z
1/2-x,-y,1/2+z
-x,y,z
1/2+x,-y,1/2+z
loop_
_atom_site_type_symbol
_atom_site_label
_atom_site_fract_x
_atom_site_fract_y
_atom_site_fract_z
Si Si1 0.166627 0.566152 0.319730
Si Si2 0.683597 0.307200 0.544390
Si Si3 0.328342 0.265124 0.968924
Si Si4 0.677093 0.212069 0.711525
Si Si5 0.680426 0.921757 0.357321
Si Si6 0.674877 0.369501 0.256355
Si Si7 0.320622 0.566182 0.590506
Si Si8 0.816841 0.813846 0.880315
O O1 0.166991 0.638867 0.399808
O O2 0.187733 0.660609 0.250517
O O3 0.296472 0.472671 0.318599
O O4 0.000000 0.513068 0.310078
O O5 0.500000 0.308266 0.545078
O O6 0.729388 0.229137 0.620649
O O7 0.732046 0.440141 0.558569
O O8 0.733408 0.250722 0.461101
O O9 0.500000 0.236123 0.990983
O O10 0.247537 0.157700 0.927306
O O11 0.242141 0.327544 0.039604
O O12 0.500000 0.181093 0.711906
O O13 0.761490 0.127318 0.772325
O O14 0.500000 0.914416 0.358270
O O15 0.727130 0.053317 0.372950
O O16 0.500000 0.357982 0.236338
O O17 0.764905 0.410174 0.179569
O O18 0.729646 0.255908 0.301532
O O19 0.500000 0.564830 0.587568
O O20 0.000000 0.809947 0.881728
#
# Coordination Sequence:
#
# PCOD9343201 Si02
#       8
#     4   4   4   4   4   4   4   4
#     4   9  17  32  53  80 111 142 177 221 275 336
#     4   9  17  34  59  83 111 146 186 233 284 337
#     4  10  21  37  57  82 112 145 182 229 285 335
#     4   9  17  33  57  82 110 145 185 233 284 332
#     4  10  20  37  58  80 110 146 193 237 272 329
#     4  11  21  34  54  81 117 153 183 226 284 339
#     4  11  21  36  58  86 115 144 186 232 283 345
#     4   9  20  37  56  80 112 151 192 233 279 331
#
# _framework density 18.451688000000001
#
# number of rings (size 3 to 8) (size 9 to 14) (size 15 to 20)
#    0.000    2.250    1.250    3.000    0.000    3.500 
#    2.250    2.500    0.000    5.250    0.000    0.000 
#    0.000    0.000    0.000    0.000    0.000    0.000 
#
# Total GULP energy -178419.008471 kJ/mol
# GULP energy per Si atom -5575.594015 kJ/mol
# Density = 1.840969 g / cm^3
# Si number density = 18.451688 Si / 1000 Ang^3
#
#
#
# Elastic Constant Matrix: (Units=GPa)
#
#
# Indices 1 2 3 4 5 6 
#
# 1 50.7805 40.5418 25.7286 0.0000 0.0000 0.0000
# 2 40.5418 130.1706 60.9726 0.0000 0.0000 0.0000
# 3 25.7286 60.9726 74.9447 0.0000 0.0000 0.0000
# 4 0.0000 0.0000 0.0000 22.1613 0.0000 0.0000
# 5 0.0000 0.0000 0.0000 0.0000 25.8654 0.0000
# 6 0.0000 0.0000 0.0000 0.0000 0.0000 19.3405
#
#
#
# Elastic Compliance Matrix: (Units=1/GPa)
#
#
# Indices 1 2 3 4 5 6 
#
# 1 0.026900 -0.006548 -0.003908 0.000000 0.000000 0.000000
# 2 -0.006548 0.014006 -0.009147 0.000000 0.000000 0.000000
# 3 -0.003908 -0.009147 0.022127 0.000000 0.000000 0.000000
# 4 0.000000 0.000000 0.000000 0.045124 0.000000 0.000000
# 5 0.000000 0.000000 0.000000 0.000000 0.038662 0.000000
# 6 0.000000 0.000000 0.000000 0.000000 0.000000 0.051705
#
#
# Mechanical properties :
#
#
# Convention : Reuss Voigt Hill
#
# Bulk Modulus (GPa) = 41.96838 56.70907 49.33872
# Shear Modulus (GPa) = 20.35247 22.05028 21.20138
#
# Velocity S-wave (km/s) = 3.32477 3.46067 3.39340
# Velocity P-wave (km/s) = 6.12643 6.83877 6.49238
#
# Compressibility (1/GPa) = 0.02382747
#
# Stress axis : x y z
#
# Youngs Moduli (GPa) = 37.17477 71.39808 45.19465
#
# Poissons Ratio (x) = 0.46748 0.17662
# Poissons Ratio (y) = 0.24340 0.41340
# Poissons Ratio (z) = 0.14528 0.65308
#
# Static dielectric constant tensor:
#      x y z
#    x 1.647580 0.000000 0.000000 
#    y 0.000000 1.632810 0.000000 
#    z 0.000000 0.000000 1.681120 
# 
# From -- ./inp_files/5052.got.cif
#   From: 2010.05.17/outbox.cif.g08.bks.cpg/sg31_3_cif.got.tgz:5052.got - 2010.06.03 17:08:30.
