data_PCOD9343986
_publ_section_title
;
Structure prediction by ZEFSAII (Michael W. Deem and Ramdas Pophale) SiO2 
 PCOD9343986
Probable space group: P B A 2
;
_chemical_formula_sum "Si O2"
_cell_formula_units_Z 30
_cell_length_a 7.822118
_cell_length_b 14.466992
_cell_length_c 10.866552
_cell_angle_alpha 90.000000
_cell_angle_beta 90.000000
_cell_angle_gamma 90.000000
_cell_volume 1229.686392
_symmetry_space_group_name_H-M "P B A 2"
_symmetry_group_IT_number 32
_symmetry_cell_setting 'orthorhombic'
loop_
_space_group_symop_operation_xyz
x,y,z
-x,-y,z
1/2-x,1/2+y,z
1/2+x,1/2-y,z
loop_
_atom_site_type_symbol
_atom_site_label
_atom_site_fract_x
_atom_site_fract_y
_atom_site_fract_z
Si Si1 0.233961 0.547171 0.280230
Si Si2 0.134673 0.613455 0.021584
Si Si3 0.000000 0.500000 0.799446
Si Si4 0.247633 0.313764 0.030494
Si Si5 0.611576 0.299964 0.631255
Si Si6 0.900013 0.322242 0.454851
Si Si7 0.781654 0.140679 0.760972
Si Si8 0.096740 0.857214 0.290322
O O1 0.191500 0.549551 0.135125
O O2 0.084600 0.595691 0.357710
O O3 0.294914 0.447640 0.324275
O O4 0.398495 0.614427 0.298087
O O5 0.251710 0.703422 0.014859
O O6 0.944511 0.651188 0.049134
O O7 0.114171 0.562485 0.891897
O O8 0.863716 0.565008 0.731322
O O9 0.357184 0.335245 0.150168
O O10 0.317626 0.362044 0.906718
O O11 0.751820 0.351700 0.550656
O O12 0.546686 0.217362 0.542021
O O13 0.701309 0.242684 0.739324
O O14 0.452751 0.359205 0.679650
O O15 0.861187 0.230928 0.373014
#
# Coordination Sequence:
#
# PCOD9343986 Si02
#       8
#     4   4   2   4   4   4   4   4
#     4  11  23  40  64  97 142 168 221 273 336 402
#     4  11  22  38  64 101 136 171 211 276 333 420
#     4  10  22  40  64 100 140 162 224 288 344 398
#     4  11  22  38  68  96 132 171 220 263 354 400
#     4  10  23  42  68  88 126 178 237 263 332 393
#     4  11  22  44  64  94 130 179 223 283 328 397
#     4  10  21  43  66  94 129 173 223 283 327 404
#     4  11  24  41  65 104 134 177 219 277 344 406
#
# _framework density 24.396463000000001
#
# number of rings (size 3 to 8) (size 9 to 14) (size 15 to 20)
#    0.000    1.333    2.667    4.000    1.867    0.000 
#    4.800    0.000    2.933    9.600    0.000    0.000 
#    0.000    0.000    0.000    0.000    0.000    0.000 
#
# Total GULP energy -167941.814235 kJ/mol
# GULP energy per Si atom -5598.060475 kJ/mol
# Density = 2.434094 g / cm^3
# Si number density = 24.396463 Si / 1000 Ang^3
#
#
#
# Elastic Constant Matrix: (Units=GPa)
#
#
# Indices 1 2 3 4 5 6 
#
# 1 75.4851 5.9376 14.6871 0.0000 0.0000 0.0000
# 2 5.9376 97.9498 11.4204 0.0000 0.0000 0.0000
# 3 14.6871 11.4204 73.2996 0.0000 0.0000 0.0000
# 4 0.0000 0.0000 0.0000 13.8304 0.0000 0.0000
# 5 0.0000 0.0000 0.0000 0.0000 29.8393 0.0000
# 6 0.0000 0.0000 0.0000 0.0000 0.0000 30.0446
#
#
#
# Elastic Compliance Matrix: (Units=1/GPa)
#
#
# Indices 1 2 3 4 5 6 
#
# 1 0.013811 -0.000524 -0.002686 0.000000 0.000000 0.000000
# 2 -0.000524 0.010418 -0.001518 0.000000 0.000000 0.000000
# 3 -0.002686 -0.001518 0.014417 0.000000 0.000000 0.000000
# 4 0.000000 0.000000 0.000000 0.072305 0.000000 0.000000
# 5 0.000000 0.000000 0.000000 0.000000 0.033513 0.000000
# 6 0.000000 0.000000 0.000000 0.000000 0.000000 0.033284
#
#
# Mechanical properties :
#
#
# Convention : Reuss Voigt Hill
#
# Bulk Modulus (GPa) = 34.25732 34.53606 34.39669
# Shear Modulus (GPa) = 25.38916 29.05548 27.22232
#
# Velocity S-wave (km/s) = 3.22947 3.45479 3.34403
# Velocity P-wave (km/s) = 5.28946 5.48644 5.38885
#
# Compressibility (1/GPa) = 0.02919084
#
# Stress axis : x y z
#
# Youngs Moduli (GPa) = 72.40379 95.98687 69.36097
#
# Poissons Ratio (x) = 0.05031 0.18629
# Poissons Ratio (y) = 0.03795 0.10530
# Poissons Ratio (z) = 0.19446 0.14572
#
# Static dielectric constant tensor:
#      x y z
#    x 1.979360 0.000000 0.000000 
#    y 0.000000 1.923930 0.000000 
#    z 0.000000 0.000000 1.923990 
# 
# From -- ./inp_files/3731.got.cif
#   From: 2010.05.17/outbox.cif.g08.bks.cpg/sg32_2_cif.got.tgz:3731.got - 2010.06.03 17:12:27.
