data_PCOD9343338
_publ_section_title
;
Structure prediction by ZEFSAII (Michael W. Deem and Ramdas Pophale) SiO2 
 PCOD9343338
Probable space group: P M N 21
;
_chemical_formula_sum "Si O2"
_cell_formula_units_Z 20
_cell_length_a 10.954766
_cell_length_b 7.739678
_cell_length_c 12.501460
_cell_angle_alpha 90.000000
_cell_angle_beta 90.000000
_cell_angle_gamma 90.000000
_cell_volume 1059.953306
_symmetry_space_group_name_H-M "P M N 21"
_symmetry_group_IT_number 31
_symmetry_cell_setting 'orthorhombic'
loop_
_space_group_symop_operation_xyz
x,y,z
1/2-x,-y,1/2+z
-x,y,z
1/2+x,-y,1/2+z
loop_
_atom_site_type_symbol
_atom_site_label
_atom_site_fract_x
_atom_site_fract_y
_atom_site_fract_z
Si Si1 0.860430 0.270952 0.183500
Si Si2 0.144083 0.019421 0.369704
Si Si3 0.357659 0.659431 0.009231
Si Si4 0.864886 0.475040 0.732442
Si Si5 0.213869 0.315575 0.944506
O O1 0.842825 0.093977 0.249629
O O2 0.751062 0.397061 0.222304
O O3 0.000000 0.331251 0.208745
O O4 0.848596 0.258895 0.055524
O O5 0.190829 0.173612 0.447390
O O6 0.000000 0.994622 0.389753
O O7 0.211264 0.844007 0.397160
O O8 0.500000 0.649545 0.981258
O O9 0.347278 0.664161 0.137440
O O10 0.296667 0.480496 0.975094
O O11 0.866170 0.386852 0.847443
O O12 0.000000 0.556690 0.712927
#
# Coordination Sequence:
#
# PCOD9343338 Si02
#       5
#     4   4   4   4   4
#     4  10  22  41  62  90 126 158 203 254 298 360
#     4  10  21  37  60  88 120 161 205 245 299 367
#     4   9  19  37  57  83 117 155 202 248 292 359
#     4  10  21  38  62  89 121 160 201 248 309 360
#     4  11  21  35  63  86 123 156 202 247 309 346
#
# _framework density 18.868755
#
# number of rings (size 3 to 8) (size 9 to 14) (size 15 to 20)
#    0.000    2.000    2.000    1.200    2.800    1.600 
#    0.000    2.000    0.000    0.000    0.000    0.000 
#    0.000    0.000    0.000    0.000    0.000    0.000 
#
# Total GULP energy -111428.167435 kJ/mol
# GULP energy per Si atom -5571.408372 kJ/mol
# Density = 1.882581 g / cm^3
# Si number density = 18.868755 Si / 1000 Ang^3
#
#
#
# Elastic Constant Matrix: (Units=GPa)
#
#
# Indices 1 2 3 4 5 6 
#
# 1 98.5166 41.4450 34.6124 0.0000 0.0000 0.0000
# 2 41.4450 71.7069 24.8523 0.0000 0.0000 0.0000
# 3 34.6124 24.8523 134.1315 0.0000 0.0000 0.0000
# 4 0.0000 0.0000 0.0000 19.3707 0.0000 0.0000
# 5 0.0000 0.0000 0.0000 0.0000 22.7769 0.0000
# 6 0.0000 0.0000 0.0000 0.0000 0.0000 17.9763
#
#
#
# Elastic Compliance Matrix: (Units=1/GPa)
#
#
# Indices 1 2 3 4 5 6 
#
# 1 0.014026 -0.007323 -0.002263 0.000000 0.000000 0.000000
# 2 -0.007323 0.018726 -0.001580 0.000000 0.000000 0.000000
# 3 -0.002263 -0.001580 0.008332 0.000000 0.000000 0.000000
# 4 0.000000 0.000000 0.000000 0.051624 0.000000 0.000000
# 5 0.000000 0.000000 0.000000 0.000000 0.043904 0.000000
# 6 0.000000 0.000000 0.000000 0.000000 0.000000 0.055629
#
#
# Mechanical properties :
#
#
# Convention : Reuss Voigt Hill
#
# Bulk Modulus (GPa) = 53.32412 56.24159 54.78285
# Shear Modulus (GPa) = 22.64266 25.58781 24.11523
#
# Velocity S-wave (km/s) = 3.46787 3.68651 3.57886
# Velocity P-wave (km/s) = 6.66009 6.92762 6.79517
#
# Compressibility (1/GPa) = 0.01875324
#
# Stress axis : x y z
#
# Youngs Moduli (GPa) = 71.29584 53.40304 120.01945
#
# Poissons Ratio (x) = 0.39105 0.27156
# Poissons Ratio (y) = 0.52207 0.18962
# Poissons Ratio (z) = 0.16132 0.08437
#
# Static dielectric constant tensor:
#      x y z
#    x 1.647800 0.000000 0.000000 
#    y 0.000000 1.621080 0.000000 
#    z 0.000000 0.000000 1.706400 
# 
# From -- ./inp_files/3387.got.cif
#   From: 2010.05.17/outbox.cif.g08.bks.cpg/sg31_2_cif.got.tgz:3387.got - 2010.06.03 17:08:30.
