data_PCOD9343122
_publ_section_title
;
Structure prediction by ZEFSAII (Michael W. Deem and Ramdas Pophale) SiO2 
 PCOD9343122
Probable space group: P M N 21
;
_chemical_formula_sum "Si O2"
_cell_formula_units_Z 16
_cell_length_a 8.967667
_cell_length_b 8.220158
_cell_length_c 9.619725
_cell_angle_alpha 90.000000
_cell_angle_beta 90.000000
_cell_angle_gamma 90.000000
_cell_volume 709.124181
_symmetry_space_group_name_H-M "P M N 21"
_symmetry_group_IT_number 31
_symmetry_cell_setting 'orthorhombic'
loop_
_space_group_symop_operation_xyz
x,y,z
1/2-x,-y,1/2+z
-x,y,z
1/2+x,-y,1/2+z
loop_
_atom_site_type_symbol
_atom_site_label
_atom_site_fract_x
_atom_site_fract_y
_atom_site_fract_z
Si Si1 0.326189 0.828589 0.274560
Si Si2 0.177876 0.001071 0.047081
Si Si3 0.825341 0.500207 0.957069
Si Si4 0.178293 0.688063 0.693970
O O1 0.500000 0.857401 0.242488
O O2 0.274824 0.962506 0.389024
O O3 0.315766 0.659517 0.356969
O O4 0.235346 0.847255 0.133198
O O5 0.240587 0.154883 0.133156
O O6 0.000000 0.002837 0.046411
O O7 0.781396 0.643726 0.852178
O O8 0.000000 0.518343 0.996548
O O9 0.726840 0.457602 0.090042
O O10 0.000000 0.708294 0.688675
#
# Coordination Sequence:
#
# PCOD9343122 Si02
#       4
#     4   4   4   4
#     4   9  19  36  54  75 105 137 172 215 260 308
#     4  10  21  36  54  78 107 138 174 216 260 308
#     4   9  20  37  54  77 108 137 172 218 260 305
#     4  10  20  35  56  80 106 138 174 213 260 311
#
# _framework density 22.563044000000001
#
# number of rings (size 3 to 8) (size 9 to 14) (size 15 to 20)
#    0.000    2.500    0.000    3.000    0.000    9.000 
#    0.000    5.000    0.000    0.000    0.000    0.000 
#    0.000    0.000    0.000    0.000    0.000    0.000 
#
# Total GULP energy -89423.625096 kJ/mol
# GULP energy per Si atom -5588.976569 kJ/mol
# Density = 2.251169 g / cm^3
# Si number density = 22.563044 Si / 1000 Ang^3
#
#
#
# Elastic Constant Matrix: (Units=GPa)
#
#
# Indices 1 2 3 4 5 6 
#
# 1 25.3069 -2.9805 31.7361 0.0000 0.0000 0.0000
# 2 -2.9805 41.0123 6.3841 0.0000 0.0000 0.0000
# 3 31.7361 6.3841 121.2473 0.0000 0.0000 0.0000
# 4 0.0000 0.0000 0.0000 43.8062 0.0000 0.0000
# 5 0.0000 0.0000 0.0000 0.0000 6.6166 0.0000
# 6 0.0000 0.0000 0.0000 0.0000 0.0000 23.5975
#
#
#
# Elastic Compliance Matrix: (Units=1/GPa)
#
#
# Indices 1 2 3 4 5 6 
#
# 1 0.060723 0.006944 -0.016260 0.000000 0.000000 0.000000
# 2 0.006944 0.025379 -0.003154 0.000000 0.000000 0.000000
# 3 -0.016260 -0.003154 0.012670 0.000000 0.000000 0.000000
# 4 0.000000 0.000000 0.000000 0.022828 0.000000 0.000000
# 5 0.000000 0.000000 0.000000 0.000000 0.151136 0.000000
# 6 0.000000 0.000000 0.000000 0.000000 0.000000 0.042377
#
#
# Mechanical properties :
#
#
# Convention : Reuss Voigt Hill
#
# Bulk Modulus (GPa) = 13.54421 28.64954 21.09688
# Shear Modulus (GPa) = 13.71130 24.96583 19.33857
#
# Velocity S-wave (km/s) = 2.46781 3.33001 2.93079
# Velocity P-wave (km/s) = 3.75978 5.24503 4.56324
#
# Compressibility (1/GPa) = 0.07383227
#
# Stress axis : x y z
#
# Youngs Moduli (GPa) = 16.46813 39.40338 78.92905
#
# Poissons Ratio (x) = -0.27362 1.28337
# Poissons Ratio (y) = -0.11435 0.24893
# Poissons Ratio (z) = 0.26777 0.12427
#
# Static dielectric constant tensor:
#      x y z
#    x 1.741800 0.000000 0.000000 
#    y 0.000000 1.995390 0.000000 
#    z 0.000000 0.000000 1.811640 
# 
# From -- ./inp_files/1463.got.cif
#   From: 2010.05.17/outbox.cif.g08.bks.cpg/sg31_1_cif.got.tgz:1463.got - 2010.06.03 17:08:30.
