data_PCOD9343292
_publ_section_title
;
Structure prediction by ZEFSAII (Michael W. Deem and Ramdas Pophale) SiO2 
 PCOD9343292
Probable space group: P M N 21
;
_chemical_formula_sum "Si O2"
_cell_formula_units_Z 32
_cell_length_a 10.285908
_cell_length_b 5.714062
_cell_length_c 25.404476
_cell_angle_alpha 90.000000
_cell_angle_beta 90.000000
_cell_angle_gamma 90.000000
_cell_volume 1493.130701
_symmetry_space_group_name_H-M "P M N 21"
_symmetry_group_IT_number 31
_symmetry_cell_setting 'orthorhombic'
loop_
_space_group_symop_operation_xyz
x,y,z
1/2-x,-y,1/2+z
-x,y,z
1/2+x,-y,1/2+z
loop_
_atom_site_type_symbol
_atom_site_label
_atom_site_fract_x
_atom_site_fract_y
_atom_site_fract_z
Si Si1 0.856366 0.759739 0.704980
Si Si2 0.643632 0.259701 0.952781
Si Si3 0.851953 0.546706 0.249260
Si Si4 0.138838 0.381321 0.366286
Si Si5 0.861162 0.118692 0.791485
Si Si6 0.154630 0.002426 0.600856
Si Si7 0.648044 0.046746 0.408511
Si Si8 0.845371 0.497667 0.556907
O O1 0.736448 0.583695 0.706273
O O2 0.832750 0.969193 0.663636
O O3 0.000000 0.660530 0.691219
O O4 0.865876 0.868237 0.763101
O O5 0.500000 0.160487 0.966541
O O6 0.634123 0.368202 0.894661
O O7 0.763550 0.083660 0.951494
O O8 0.667243 0.469152 0.994126
O O9 0.858824 0.398144 0.303609
O O10 0.766007 0.763256 0.268429
O O11 0.000000 0.597320 0.233206
O O12 0.000000 0.262186 0.380818
O O13 0.266011 0.263300 0.389345
O O14 0.858825 0.101811 0.854161
O O15 0.000000 0.237839 0.776958
O O16 0.204053 0.750053 0.578878
O O17 0.000000 0.005558 0.588887
O O18 0.207348 0.250053 0.578885
O O19 0.500000 0.097352 0.424568
O O20 0.000000 0.494551 0.568879
#
# Coordination Sequence:
#
# PCOD9343292 Si02
#       8
#     4   4   4   4   4   4   4   4
#     4  10  21  37  59  83 113 152 193 240 298 354
#     4  10  21  37  59  83 113 152 193 240 298 354
#     4  11  22  35  54  82 117 153 192 235 287 353
#     4  10  21  35  53  80 113 151 192 233 284 347
#     4  10  21  35  53  80 113 151 192 233 284 347
#     4   9  19  35  58  89 118 148 197 259 310 352
#     4  11  22  35  54  82 117 153 192 235 287 353
#     4   9  19  35  58  89 118 148 197 259 310 352
#
# _framework density 21.431479
#
# number of rings (size 3 to 8) (size 9 to 14) (size 15 to 20)
#    0.000    2.000    2.500    0.750    3.500    2.000 
#    0.000    0.000    0.000    1.500    0.000    0.000 
#    0.000    0.000    0.000    0.000    0.000    0.000 
#
# Total GULP energy -178214.735559 kJ/mol
# GULP energy per Si atom -5569.210486 kJ/mol
# Density = 2.138270 g / cm^3
# Si number density = 21.431479 Si / 1000 Ang^3
#
#
#
# Elastic Constant Matrix: (Units=GPa)
#
#
# Indices 1 2 3 4 5 6 
#
# 1 166.6180 31.1859 1.0543 0.0000 0.0000 0.0000
# 2 31.1859 58.1473 3.6429 0.0000 0.0000 0.0000
# 3 1.0543 3.6429 56.9559 0.0000 0.0000 0.0000
# 4 0.0000 0.0000 0.0000 39.9404 0.0000 0.0000
# 5 0.0000 0.0000 0.0000 0.0000 51.4990 0.0000
# 6 0.0000 0.0000 0.0000 0.0000 0.0000 33.0821
#
#
#
# Elastic Compliance Matrix: (Units=1/GPa)
#
#
# Indices 1 2 3 4 5 6 
#
# 1 0.006672 -0.003585 0.000106 0.000000 0.000000 0.000000
# 2 -0.003585 0.019193 -0.001161 0.000000 0.000000 0.000000
# 3 0.000106 -0.001161 0.017630 0.000000 0.000000 0.000000
# 4 0.000000 0.000000 0.000000 0.025037 0.000000 0.000000
# 5 0.000000 0.000000 0.000000 0.000000 0.019418 0.000000
# 6 0.000000 0.000000 0.000000 0.000000 0.000000 0.030228
#
#
# Mechanical properties :
#
#
# Convention : Reuss Voigt Hill
#
# Bulk Modulus (GPa) = 29.22774 39.27639 34.25207
# Shear Modulus (GPa) = 36.00653 41.29350 38.65001
#
# Velocity S-wave (km/s) = 4.10332 4.39426 4.25128
# Velocity P-wave (km/s) = 6.00974 6.64171 6.33361
#
# Compressibility (1/GPa) = 0.03421407
#
# Stress axis : x y z
#
# Youngs Moduli (GPa) = 149.87790 52.10179 56.72232
#
# Poissons Ratio (x) = 0.18679 -0.00600
# Poissons Ratio (y) = 0.53732 0.06587
# Poissons Ratio (z) = -0.01586 0.06050
#
# Static dielectric constant tensor:
#      x y z
#    x 1.805280 0.000000 0.000000 
#    y 0.000000 1.841970 0.000000 
#    z 0.000000 0.000000 1.826350 
# 
# From -- ./inp_files/6626.got.cif
#   From: 2010.05.17/outbox.cif.g08.bks.cpg/sg31_4_cif.got.tgz:6626.got - 2010.06.03 17:08:30.
