data_PCOD9343307
_publ_section_title
;
Structure prediction by ZEFSAII (Michael W. Deem and Ramdas Pophale) SiO2 
 PCOD9343307
Probable space group: P M N 21
;
_chemical_formula_sum "Si O2"
_cell_formula_units_Z 32
_cell_length_a 7.657122
_cell_length_b 25.680363
_cell_length_c 7.749684
_cell_angle_alpha 90.000000
_cell_angle_beta 90.000000
_cell_angle_gamma 90.000000
_cell_volume 1523.879824
_symmetry_space_group_name_H-M "P M N 21"
_symmetry_group_IT_number 31
_symmetry_cell_setting 'orthorhombic'
loop_
_space_group_symop_operation_xyz
x,y,z
1/2-x,-y,1/2+z
-x,y,z
1/2+x,-y,1/2+z
loop_
_atom_site_type_symbol
_atom_site_label
_atom_site_fract_x
_atom_site_fract_y
_atom_site_fract_z
Si Si1 0.708123 0.560686 0.566100
Si Si2 0.714233 0.248570 0.756171
Si Si3 0.713775 0.171833 0.456069
Si Si4 0.790087 0.554366 0.963855
Si Si5 0.292673 0.058087 0.060169
Si Si6 0.706011 0.366515 0.753524
Si Si7 0.707369 0.059322 0.458631
Si Si8 0.213957 0.829320 0.553645
O O1 0.500000 0.560187 0.548473
O O2 0.751184 0.568583 0.766637
O O3 0.776475 0.503768 0.507044
O O4 0.775308 0.604407 0.435864
O O5 0.500000 0.248751 0.758792
O O6 0.768376 0.217349 0.584528
O O7 0.776775 0.307978 0.756970
O O8 0.770092 0.215810 0.924180
O O9 0.500000 0.171593 0.455018
O O10 0.772728 0.114934 0.528566
O O11 0.766122 0.177889 0.254752
O O12 0.000000 0.552317 0.982806
O O13 0.721616 0.595859 0.103370
O O14 0.500000 0.060658 0.041063
O O15 0.243647 0.062114 0.259233
O O16 0.227363 0.113218 0.985726
O O17 0.250088 0.999223 0.011235
O O18 0.500000 0.361297 0.717337
O O19 0.500000 0.061962 0.477760
O O20 0.000000 0.829498 0.554132
#
# Coordination Sequence:
#
# PCOD9343307 Si02
#       8
#     4   4   4   4   4   4   4   4
#     4  11  22  36  58  84 115 153 185 221 273 328
#     4   9  17  29  51  76 100 136 175 214 266 314
#     4   8  15  28  44  67  99 130 166 213 262 311
#     4  10  21  36  56  83 115 148 182 226 274 319
#     4   9  18  30  45  70 101 127 163 210 258 315
#     4  10  21  37  56  86 118 142 184 234 274 324
#     4   9  18  30  45  69  99 128 164 210 258 313
#     4   8  15  28  45  69  99 130 165 212 263 310
#
# _framework density 20.999033000000001
#
# number of rings (size 3 to 8) (size 9 to 14) (size 15 to 20)
#    0.000    2.750    1.250    1.875    1.750    2.500 
#    0.000    3.750    0.000    1.500    0.000    1.750 
#    0.000    0.000    0.000    0.000    0.000    0.000 
#
# Total GULP energy -178331.579623 kJ/mol
# GULP energy per Si atom -5572.861863 kJ/mol
# Density = 2.095124 g / cm^3
# Si number density = 20.999033 Si / 1000 Ang^3
#
#
#
# Elastic Constant Matrix: (Units=GPa)
#
#
# Indices 1 2 3 4 5 6 
#
# 1 39.5239 11.8381 -12.7638 0.0000 0.0000 0.0000
# 2 11.8381 228.0053 90.4243 0.0000 0.0000 0.0000
# 3 -12.7638 90.4243 125.3808 0.0000 0.0000 0.0000
# 4 0.0000 0.0000 0.0000 37.2744 0.0000 0.0000
# 5 0.0000 0.0000 0.0000 0.0000 11.7891 0.0000
# 6 0.0000 0.0000 0.0000 0.0000 0.0000 25.0188
#
#
#
# Elastic Compliance Matrix: (Units=1/GPa)
#
#
# Indices 1 2 3 4 5 6 
#
# 1 0.028166 -0.003641 0.005493 0.000000 0.000000 0.000000
# 2 -0.003641 0.006613 -0.005140 0.000000 0.000000 0.000000
# 3 0.005493 -0.005140 0.012242 0.000000 0.000000 0.000000
# 4 0.000000 0.000000 0.000000 0.026828 0.000000 0.000000
# 5 0.000000 0.000000 0.000000 0.000000 0.084824 0.000000
# 6 0.000000 0.000000 0.000000 0.000000 0.000000 0.039970
#
#
# Mechanical properties :
#
#
# Convention : Reuss Voigt Hill
#
# Bulk Modulus (GPa) = 24.72497 63.54524 44.13511
# Shear Modulus (GPa) = 22.86226 35.04388 28.95307
#
# Velocity S-wave (km/s) = 3.30317 4.08957 3.71722
# Velocity P-wave (km/s) = 5.13301 7.25439 6.28387
#
# Compressibility (1/GPa) = 0.04044494
#
# Stress axis : x y z
#
# Youngs Moduli (GPa) = 35.50434 151.20677 81.68580
#
# Poissons Ratio (x) = 0.55052 -0.44870
# Poissons Ratio (y) = 0.12927 0.41989
# Poissons Ratio (z) = -0.19503 0.77724
#
# Static dielectric constant tensor:
#      x y z
#    x 1.796050 0.000000 0.000000 
#    y 0.000000 1.798850 0.000000 
#    z 0.000000 0.000000 1.730780 
# 
# From -- ./inp_files/1892.got.cif
#   From: 2010.05.17/outbox.cif.g08.bks.cpg/sg31_1_cif.got.tgz:1892.got - 2010.06.03 17:08:30.
