data_PCOD9343469
_publ_section_title
;
Structure prediction by ZEFSAII (Michael W. Deem and Ramdas Pophale) SiO2 
 PCOD9343469
Probable space group: P M N 21
;
_chemical_formula_sum "Si O2"
_cell_formula_units_Z 32
_cell_length_a 13.753533
_cell_length_b 9.844027
_cell_length_c 12.156515
_cell_angle_alpha 90.000000
_cell_angle_beta 90.000000
_cell_angle_gamma 90.000000
_cell_volume 1645.872392
_symmetry_space_group_name_H-M "P M N 21"
_symmetry_group_IT_number 31
_symmetry_cell_setting 'orthorhombic'
loop_
_space_group_symop_operation_xyz
x,y,z
1/2-x,-y,1/2+z
-x,y,z
1/2+x,-y,1/2+z
loop_
_atom_site_type_symbol
_atom_site_label
_atom_site_fract_x
_atom_site_fract_y
_atom_site_fract_z
Si Si1 0.723911 0.349935 0.194140
Si Si2 0.116667 0.854373 0.848791
Si Si3 0.273669 0.344695 0.756995
Si Si4 0.883340 0.860697 0.103018
Si Si5 0.117172 0.728512 0.474490
Si Si6 0.883695 0.139241 0.232153
Si Si7 0.116309 0.131535 0.718027
Si Si8 0.617709 0.953954 0.974230
O O1 0.665154 0.273935 0.290775
O O2 0.747525 0.503941 0.222606
O O3 0.822514 0.262125 0.182496
O O4 0.660051 0.336286 0.084522
O O5 0.000000 0.838565 0.844654
O O6 0.139142 0.990235 0.779379
O O7 0.145425 0.871578 0.975668
O O8 0.335054 0.265449 0.664288
O O9 0.336468 0.340287 0.867889
O O10 0.176622 0.253875 0.769900
O O11 0.000000 0.845175 0.107714
O O12 0.860941 0.999283 0.168698
O O13 0.000000 0.721320 0.472631
O O14 0.146743 0.888018 0.472756
O O15 0.855184 0.118303 0.360373
O O16 0.000000 0.160991 0.225855
O O17 0.145103 0.114615 0.589545
O O18 0.000000 0.152533 0.724550
O O19 0.500000 0.955603 0.974427
#
# Coordination Sequence:
#
# PCOD9343469 Si02
#       8
#     4   4   4   4   4   4   4   4
#     4  12  27  40  64  95 133 171 213 255 323 389
#     4  10  22  41  66  93 125 165 214 272 328 376
#     4  12  27  40  64  95 133 171 213 255 323 389
#     4  10  22  41  66  93 125 165 214 272 328 376
#     4  11  24  45  70  94 125 169 219 266 314 380
#     4  10  22  40  64  96 128 166 217 273 321 375
#     4  10  22  40  64  96 128 166 217 273 321 375
#     4   9  18  37  67  96 119 161 222 270 315 362
#
# _framework density 19.442578000000001
#
# number of rings (size 3 to 8) (size 9 to 14) (size 15 to 20)
#    0.000    1.500    2.500    1.500    5.250    2.000 
#    0.000    1.250    0.000    0.000    0.000    0.000 
#    0.000    0.000    0.000    0.000    0.000    0.000 
#
# Total GULP energy -178982.563539 kJ/mol
# GULP energy per Si atom -5593.205111 kJ/mol
# Density = 1.939833 g / cm^3
# Si number density = 19.442578 Si / 1000 Ang^3
#
#
#
# Elastic Constant Matrix: (Units=GPa)
#
#
# Indices 1 2 3 4 5 6 
#
# 1 84.7156 25.3947 23.2589 0.0000 0.0000 0.0000
# 2 25.3947 85.6356 -4.1330 0.0000 0.0000 0.0000
# 3 23.2589 -4.1330 88.5881 0.0000 0.0000 0.0000
# 4 0.0000 0.0000 0.0000 0.5999 0.0000 0.0000
# 5 0.0000 0.0000 0.0000 0.0000 40.6716 0.0000
# 6 0.0000 0.0000 0.0000 0.0000 0.0000 14.0572
#
#
#
# Elastic Compliance Matrix: (Units=1/GPa)
#
#
# Indices 1 2 3 4 5 6 
#
# 1 0.014204 -0.004402 -0.003935 0.000000 0.000000 0.000000
# 2 -0.004402 0.013068 0.001765 0.000000 0.000000 0.000000
# 3 -0.003935 0.001765 0.012404 0.000000 0.000000 0.000000
# 4 0.000000 0.000000 0.000000 1.666993 0.000000 0.000000
# 5 0.000000 0.000000 0.000000 0.000000 0.024587 0.000000
# 6 0.000000 0.000000 0.000000 0.000000 0.000000 0.071138
#
#
# Mechanical properties :
#
#
# Convention : Reuss Voigt Hill
#
# Bulk Modulus (GPa) = 37.68873 38.66452 38.17662
# Shear Modulus (GPa) = 2.74066 25.36031 14.05048
#
# Velocity S-wave (km/s) = 1.18856 3.61552 2.69116
# Velocity P-wave (km/s) = 4.61631 6.11220 5.41615
#
# Compressibility (1/GPa) = 0.02653313
#
# Stress axis : x y z
#
# Youngs Moduli (GPa) = 70.40251 76.52291 80.62171
#
# Poissons Ratio (x) = 0.33686 0.31722
# Poissons Ratio (y) = 0.30991 -0.14233
# Poissons Ratio (z) = 0.27701 -0.13510
#
# Static dielectric constant tensor:
#      x y z
#    x 1.722450 0.000000 0.000000 
#    y 0.000000 1.614030 0.000000 
#    z 0.000000 0.000000 1.679860 
# 
# From -- ./inp_files/4278.got.cif
#   From: 2010.05.17/outbox.cif.g08.bks.cpg/sg31_3_cif.got.tgz:4278.got - 2010.06.03 17:08:30.
