data_PCOD9343462
_publ_section_title
;
Structure prediction by ZEFSAII (Michael W. Deem and Ramdas Pophale) SiO2 
 PCOD9343462
Probable space group: P M N 21
;
_chemical_formula_sum "Si O2"
_cell_formula_units_Z 32
_cell_length_a 7.933154
_cell_length_b 14.952334
_cell_length_c 12.637331
_cell_angle_alpha 90.000000
_cell_angle_beta 90.000000
_cell_angle_gamma 90.000000
_cell_volume 1499.029693
_symmetry_space_group_name_H-M "P M N 21"
_symmetry_group_IT_number 31
_symmetry_cell_setting 'orthorhombic'
loop_
_space_group_symop_operation_xyz
x,y,z
1/2-x,-y,1/2+z
-x,y,z
1/2+x,-y,1/2+z
loop_
_atom_site_type_symbol
_atom_site_label
_atom_site_fract_x
_atom_site_fract_y
_atom_site_fract_z
Si Si1 0.804012 0.439066 0.900350
Si Si2 0.305785 0.628896 0.827617
Si Si3 0.694239 0.344962 0.099392
Si Si4 0.800152 0.171732 0.359452
Si Si5 0.802388 0.168559 0.980167
Si Si6 0.300202 0.141506 0.595542
Si Si7 0.203210 0.266864 0.773822
Si Si8 0.206830 0.047151 0.166612
O O1 0.785265 0.541635 0.870558
O O2 0.748349 0.367177 0.810441
O O3 0.000000 0.418641 0.921695
O O4 0.703042 0.416314 0.005729
O O5 0.500000 0.625244 0.863272
O O6 0.293505 0.623722 0.701308
O O7 0.232043 0.726727 0.854514
O O8 0.500000 0.326761 0.126946
O O9 0.779144 0.256023 0.052936
O O10 0.774350 0.137929 0.478187
O O11 0.734354 0.105870 0.267055
O O12 0.000000 0.179956 0.338776
O O13 0.731525 0.199219 0.866479
O O14 0.000000 0.150260 0.963703
O O15 0.734867 0.089813 0.054614
O O16 0.500000 0.134444 0.583327
O O17 0.260566 0.231016 0.660851
O O18 0.241093 0.056147 0.664470
O O19 0.000000 0.263773 0.774268
O O20 0.000000 0.050327 0.167794
#
# Coordination Sequence:
#
# PCOD9343462 Si02
#       8
#     4   4   4   4   4   4   4   4
#     4  10  22  40  62  88 120 160 206 256 307 365
#     4  11  22  39  64  89 118 160 202 252 310 365
#     4  11  21  35  57  88 120 152 197 249 301 364
#     4  10  22  42  64  85 120 162 201 243 304 373
#     4   9  17  36  62  83 110 152 199 249 301 353
#     4  11  24  38  59  90 126 161 201 253 303 357
#     4   9  20  38  61  85 117 161 201 241 303 368
#     4   9  19  38  61  86 117 156 197 245 305 361
#
# _framework density 21.347141000000001
#
# number of rings (size 3 to 8) (size 9 to 14) (size 15 to 20)
#    0.000    2.000    1.250    3.000    1.750    4.500 
#    0.000    3.125    0.000    0.000    0.000    0.000 
#    0.000    0.000    0.000    0.000    0.000    0.000 
#
# Total GULP energy -178593.056062 kJ/mol
# GULP energy per Si atom -5581.033002 kJ/mol
# Density = 2.129855 g / cm^3
# Si number density = 21.347141 Si / 1000 Ang^3
#
#
#
# Elastic Constant Matrix: (Units=GPa)
#
#
# Indices 1 2 3 4 5 6 
#
# 1 22.6872 3.0328 -0.7536 0.0000 0.0000 0.0000
# 2 3.0328 114.3681 38.2725 0.0000 0.0000 0.0000
# 3 -0.7536 38.2725 58.7339 0.0000 0.0000 0.0000
# 4 0.0000 0.0000 0.0000 21.9266 0.0000 0.0000
# 5 0.0000 0.0000 0.0000 0.0000 10.4638 0.0000
# 6 0.0000 0.0000 0.0000 0.0000 0.0000 16.0488
#
#
#
# Elastic Compliance Matrix: (Units=1/GPa)
#
#
# Indices 1 2 3 4 5 6 
#
# 1 0.044368 -0.001748 0.001709 0.000000 0.000000 0.000000
# 2 -0.001748 0.011251 -0.007354 0.000000 0.000000 0.000000
# 3 0.001709 -0.007354 0.021840 0.000000 0.000000 0.000000
# 4 0.000000 0.000000 0.000000 0.045607 0.000000 0.000000
# 5 0.000000 0.000000 0.000000 0.000000 0.095568 0.000000
# 6 0.000000 0.000000 0.000000 0.000000 0.000000 0.062310
#
#
# Mechanical properties :
#
#
# Convention : Reuss Voigt Hill
#
# Bulk Modulus (GPa) = 15.95613 30.76582 23.36097
# Shear Modulus (GPa) = 15.79171 20.03698 17.91435
#
# Velocity S-wave (km/s) = 2.72280 3.06702 2.90002
# Velocity P-wave (km/s) = 4.16841 5.19477 4.70963
#
# Compressibility (1/GPa) = 0.06267185
#
# Stress axis : x y z
#
# Youngs Moduli (GPa) = 22.53863 88.88118 45.78789
#
# Poissons Ratio (x) = 0.15539 -0.07823
# Poissons Ratio (y) = 0.03940 0.33672
# Poissons Ratio (z) = -0.03851 0.65362
#
# Static dielectric constant tensor:
#      x y z
#    x 1.777660 0.000000 0.000000 
#    y 0.000000 1.782690 0.000000 
#    z 0.000000 0.000000 1.765290 
# 
# From -- ./inp_files/3684.got.cif
#   From: 2010.05.17/outbox.cif.g08.bks.cpg/sg31_2_cif.got.tgz:3684.got - 2010.06.03 17:08:30.
