data_PCOD9343502
_publ_section_title
;
Structure prediction by ZEFSAII (Michael W. Deem and Ramdas Pophale) SiO2 
 PCOD9343502
Probable space group: P M N 21
;
_chemical_formula_sum "Si O2"
_cell_formula_units_Z 24
_cell_length_a 11.822070
_cell_length_b 5.260373
_cell_length_c 17.320437
_cell_angle_alpha 90.000000
_cell_angle_beta 90.000000
_cell_angle_gamma 90.000000
_cell_volume 1077.131959
_symmetry_space_group_name_H-M "P M N 21"
_symmetry_group_IT_number 31
_symmetry_cell_setting 'orthorhombic'
loop_
_space_group_symop_operation_xyz
x,y,z
1/2-x,-y,1/2+z
-x,y,z
1/2+x,-y,1/2+z
loop_
_atom_site_type_symbol
_atom_site_label
_atom_site_fract_x
_atom_site_fract_y
_atom_site_fract_z
Si Si1 0.744833 0.785075 0.172660
Si Si2 0.297409 0.577064 0.939774
Si Si3 0.500000 0.230350 0.727680
Si Si4 0.000000 0.263165 0.334659
Si Si5 0.722672 0.275638 0.078005
Si Si6 0.128677 0.271460 0.835302
Si Si7 0.877411 0.960593 0.988059
O O1 0.718812 0.510234 0.136293
O O2 0.689667 0.803545 0.256970
O O3 0.881952 0.797911 0.181146
O O4 0.693827 0.021040 0.124556
O O5 0.393362 0.711155 0.891101
O O6 0.208777 0.471372 0.877864
O O7 0.223898 0.763031 0.993356
O O8 0.340985 0.359273 0.998961
O O9 0.500000 0.499734 0.774019
O O10 0.500000 0.000418 0.789267
O O11 0.845930 0.200696 0.041771
O O12 0.000000 0.360610 0.821913
O O13 0.122596 0.050445 0.899401
O O14 0.000000 0.854991 0.007049
#
# Coordination Sequence:
#
# PCOD9343502 Si02
#       7
#     4   4   2   2   4   4   4
#     4  12  25  45  67 102 144 178 225 280 350 410
#     4  11  23  47  70 103 137 180 237 281 339 407
#     4  12  26  44  70 110 134 183 222 298 345 410
#     4  12  26  44  78  98 140 181 236 286 341 414
#     4  11  26  43  67  99 143 182 220 280 344 410
#     4  10  23  43  72  98 133 179 232 284 333 403
#     4  10  22  43  72 102 132 177 230 285 336 400
#
# _framework density 22.281392
#
# number of rings (size 3 to 8) (size 9 to 14) (size 15 to 20)
#    0.000    1.000    3.333    2.500    7.000    0.667 
#    3.000    0.000    0.000    0.000    0.000    0.000 
#    0.000    0.000    0.000    0.000    0.000    0.000 
#
# Total GULP energy -134040.420267 kJ/mol
# GULP energy per Si atom -5585.017511 kJ/mol
# Density = 2.223068 g / cm^3
# Si number density = 22.281392 Si / 1000 Ang^3
#
#
#
# Elastic Constant Matrix: (Units=GPa)
#
#
# Indices 1 2 3 4 5 6 
#
# 1 42.3456 -2.9055 -12.4858 0.0000 0.0000 0.0000
# 2 -2.9055 106.4716 31.6407 0.0000 0.0000 0.0000
# 3 -12.4858 31.6407 83.2614 0.0000 0.0000 0.0000
# 4 0.0000 0.0000 0.0000 43.0645 0.0000 0.0000
# 5 0.0000 0.0000 0.0000 0.0000-1983.6519 0.0000
# 6 0.0000 0.0000 0.0000 0.0000 0.0000 12.3469
#
#
#
# Elastic Compliance Matrix: (Units=1/GPa)
#
#
# Indices 1 2 3 4 5 6 
#
# 1 0.024730 -0.000482 0.003891 0.000000 0.000000 0.000000
# 2 -0.000482 0.010597 -0.004099 0.000000 0.000000 0.000000
# 3 0.003891 -0.004099 0.014152 0.000000 0.000000 0.000000
# 4 0.000000 0.000000 0.000000 0.023221 0.000000 0.000000
# 5 0.000000 0.000000 0.000000 0.000000 -0.000504 0.000000
# 6 0.000000 0.000000 0.000000 0.000000 0.000000 0.080992
#
#
# Mechanical properties :
#
#
# Convention : Reuss Voigt Hill
#
# Bulk Modulus (GPa) = 20.79022 29.39749 25.09385
# Shear Modulus (GPa) = 29.30843 -371.25947 -170.97552
#
# Velocity S-wave (km/s) = 3.63075 -12.92226 -8.76934
# Velocity P-wave (km/s) = 5.18917 14.47149 9.55240
#
# Compressibility (1/GPa) = 0.04809955
#
# Stress axis : x y z
#
# Youngs Moduli (GPa) = 40.43744 94.36399 70.66263
#
# Poissons Ratio (x) = 0.04545 -0.27498
# Poissons Ratio (y) = 0.01948 0.28967
# Poissons Ratio (z) = -0.15736 0.38683
#
# Static dielectric constant tensor:
#      x y z
#    x 3.916060 0.000000 0.000000 
#    y 0.000000 1.858970 0.000000 
#    z 0.000000 0.000000 1.829140 
# 
# From -- ./inp_files/5968.got.cif
#   From: 2010.05.17/outbox.cif.g08.bks.cpg/sg31_3_cif.got.tgz:5968.got - 2010.06.03 17:08:30.
