data_PCOD9343568
_publ_section_title
;
Structure prediction by ZEFSAII (Michael W. Deem and Ramdas Pophale) SiO2 
 PCOD9343568
Probable space group: P M N 21
;
_chemical_formula_sum "Si O2"
_cell_formula_units_Z 24
_cell_length_a 8.057656
_cell_length_b 15.806909
_cell_length_c 7.537547
_cell_angle_alpha 90.000000
_cell_angle_beta 90.000000
_cell_angle_gamma 90.000000
_cell_volume 960.031999
_symmetry_space_group_name_H-M "P M N 21"
_symmetry_group_IT_number 31
_symmetry_cell_setting 'orthorhombic'
loop_
_space_group_symop_operation_xyz
x,y,z
1/2-x,-y,1/2+z
-x,y,z
1/2+x,-y,1/2+z
loop_
_atom_site_type_symbol
_atom_site_label
_atom_site_fract_x
_atom_site_fract_y
_atom_site_fract_z
Si Si1 0.697658 0.498295 0.186620
Si Si2 0.188181 0.637223 0.929702
Si Si3 0.695298 0.073125 0.806142
Si Si4 0.197603 0.889960 0.909213
Si Si5 0.189681 0.202124 0.082178
Si Si6 0.802137 0.666396 0.294216
O O1 0.500000 0.491008 0.139490
O O2 0.759256 0.405719 0.251398
O O3 0.714552 0.577255 0.326052
O O4 0.805982 0.548491 0.041679
O O5 0.000000 0.663231 0.891081
O O6 0.256251 0.693907 0.092938
O O7 0.500000 0.092910 0.827403
O O8 0.790830 0.116424 0.967692
O O9 0.721657 0.973020 0.820800
O O10 0.751430 0.108176 0.614758
O O11 0.235406 0.812112 0.777432
O O12 0.000000 0.901410 0.911098
O O13 0.270250 0.268950 0.950149
O O14 0.000000 0.223856 0.107928
O O15 0.000000 0.656284 0.281755
#
# Coordination Sequence:
#
# PCOD9343568 Si02
#       6
#     4   4   4   4   4   4
#     4   9  16  30  52  78 106 140 183 227 273 334
#     4   8  17  31  50  77 107 140 180 224 274 332
#     4  11  23  39  62  90 119 156 201 248 296 356
#     4  11  23  39  62  90 119 157 201 246 297 355
#     4  12  24  39  61  88 122 162 199 249 304 355
#     4   9  19  36  55  79 113 153 188 234 294 346
#
# _framework density 24.999168000000001
#
# number of rings (size 3 to 8) (size 9 to 14) (size 15 to 20)
#    1.000    1.000    1.667    3.000    0.000    3.333 
#    0.000    1.667    0.000    6.000    0.000    0.000 
#    0.000    0.000    0.000    0.000    0.000    0.000 
#
# Total GULP energy -133681.643591 kJ/mol
# GULP energy per Si atom -5570.068483 kJ/mol
# Density = 2.494227 g / cm^3
# Si number density = 24.999168 Si / 1000 Ang^3
#
#
#
# Elastic Constant Matrix: (Units=GPa)
#
#
# Indices 1 2 3 4 5 6 
#
# 1 69.4415 9.1425 16.8295 0.0000 0.0000 0.0000
# 2 9.1425 35.1392 18.3080 0.0000 0.0000 0.0000
# 3 16.8295 18.3080 130.9320 0.0000 0.0000 0.0000
# 4 0.0000 0.0000 0.0000 44.9172 0.0000 0.0000
# 5 0.0000 0.0000 0.0000 0.0000 32.3862 0.0000
# 6 0.0000 0.0000 0.0000 0.0000 0.0000 50.3439
#
#
#
# Elastic Compliance Matrix: (Units=1/GPa)
#
#
# Indices 1 2 3 4 5 6 
#
# 1 0.015183 -0.003164 -0.001509 0.000000 0.000000 0.000000
# 2 -0.003164 0.031354 -0.003977 0.000000 0.000000 0.000000
# 3 -0.001509 -0.003977 0.008388 0.000000 0.000000 0.000000
# 4 0.000000 0.000000 0.000000 0.022263 0.000000 0.000000
# 5 0.000000 0.000000 0.000000 0.000000 0.030877 0.000000
# 6 0.000000 0.000000 0.000000 0.000000 0.000000 0.019863
#
#
# Mechanical properties :
#
#
# Convention : Reuss Voigt Hill
#
# Bulk Modulus (GPa) = 26.57933 36.00805 31.29369
# Shear Modulus (GPa) = 31.69161 38.27832 34.98496
#
# Velocity S-wave (km/s) = 3.56435 3.91728 3.74497
# Velocity P-wave (km/s) = 5.25306 5.90721 5.58971
#
# Compressibility (1/GPa) = 0.03762322
#
# Stress axis : x y z
#
# Youngs Moduli (GPa) = 65.86349 31.89409 119.22231
#
# Poissons Ratio (x) = 0.10091 0.17992
# Poissons Ratio (y) = 0.20839 0.47420
# Poissons Ratio (z) = 0.09940 0.12686
#
# Static dielectric constant tensor:
#      x y z
#    x 1.825220 0.000000 0.000000 
#    y 0.000000 2.075440 0.000000 
#    z 0.000000 0.000000 2.278680 
# 
# From -- ./inp_files/1759.got.cif
#   From: 2010.05.17/outbox.cif.g08.bks.cpg/sg31_1_cif.got.tgz:1759.got - 2010.06.03 17:08:30.
