data_PCOD9343633
_publ_section_title
;
Structure prediction by ZEFSAII (Michael W. Deem and Ramdas Pophale) SiO2 
 PCOD9343633
Probable space group: P B A 2
;
_chemical_formula_sum "Si O2"
_cell_formula_units_Z 24
_cell_length_a 5.364674
_cell_length_b 27.274514
_cell_length_c 7.106707
_cell_angle_alpha 90.000000
_cell_angle_beta 90.000000
_cell_angle_gamma 90.000000
_cell_volume 1039.845381
_symmetry_space_group_name_H-M "P B A 2"
_symmetry_group_IT_number 32
_symmetry_cell_setting 'orthorhombic'
loop_
_space_group_symop_operation_xyz
x,y,z
-x,-y,z
1/2-x,1/2+y,z
1/2+x,1/2-y,z
loop_
_atom_site_type_symbol
_atom_site_label
_atom_site_fract_x
_atom_site_fract_y
_atom_site_fract_z
Si Si1 0.442872 0.231714 0.021300
Si Si2 0.251926 0.482523 0.500886
Si Si3 0.245683 0.634393 0.861841
Si Si4 0.751266 0.975251 0.928223
Si Si5 0.090704 0.270327 0.452964
Si Si6 0.745398 0.630564 0.614262
O O1 0.225091 0.267045 0.938161
O O2 0.518515 0.242325 0.237465
O O3 0.306624 0.179679 0.999118
O O4 0.500000 0.500000 0.402127
O O5 0.250907 0.512848 0.701059
O O6 0.264994 0.424381 0.532296
O O7 0.000000 0.500000 0.406489
O O8 0.264635 0.582228 0.962895
O O9 0.492624 0.639342 0.733325
O O10 0.993472 0.631077 0.740641
O O11 0.500000 0.000000 0.995809
O O12 0.000000 0.000000 0.997402
O O13 0.311548 0.236153 0.537771
O O14 0.203349 0.324799 0.470739
#
# Coordination Sequence:
#
# PCOD9343633 Si02
#       6
#     4   4   4   4   4   4
#     4  10  23  42  57  75 112 156 187 227 290 346
#     4  10  16  30  48  77 115 144 166 214 287 343
#     4  12  21  32  58  89 109 141 191 237 279 336
#     4  10  16  30  48  77 115 144 166 214 287 343
#     4  10  23  42  57  75 112 156 187 227 290 346
#     4  12  21  32  58  89 109 141 191 237 279 336
#
# _framework density 23.080355000000001
#
# number of rings (size 3 to 8) (size 9 to 14) (size 15 to 20)
#    0.000    1.333    6.667    2.000    0.000    4.000 
#    0.000    0.000    0.000    1.000    0.000    4.667 
#    0.000    0.000    0.000    0.000    0.000    0.000 
#
# Total GULP energy -133911.687258 kJ/mol
# GULP energy per Si atom -5579.653636 kJ/mol
# Density = 2.302782 g / cm^3
# Si number density = 23.080355 Si / 1000 Ang^3
#
#
#
# Elastic Constant Matrix: (Units=GPa)
#
#
# Indices 1 2 3 4 5 6 
#
# 1 270.6604 61.8997 26.2564 0.0000 0.0000 0.0000
# 2 61.8997 170.2148 3.3008 0.0000 0.0000 0.0000
# 3 26.2564 3.3008 55.8813 0.0000 0.0000 0.0000
# 4 0.0000 0.0000 0.0000 -18.9162 0.0000 0.0000
# 5 0.0000 0.0000 0.0000 0.0000 0.3558 0.0000
# 6 0.0000 0.0000 0.0000 0.0000 0.0000 47.9762
#
#
#
# Elastic Compliance Matrix: (Units=1/GPa)
#
#
# Indices 1 2 3 4 5 6 
#
# 1 0.004221 -0.001498 -0.001895 0.000000 0.000000 0.000000
# 2 -0.001498 0.006413 0.000325 0.000000 0.000000 0.000000
# 3 -0.001895 0.000325 0.018766 0.000000 0.000000 0.000000
# 4 0.000000 0.000000 0.000000 -0.052865 0.000000 0.000000
# 5 0.000000 0.000000 0.000000 0.000000 2.810905 0.000000
# 6 0.000000 0.000000 0.000000 0.000000 0.000000 0.020844
#
#
# Mechanical properties :
#
#
# Convention : Reuss Voigt Hill
#
# Bulk Modulus (GPa) = 42.98330 75.51892 59.25111
# Shear Modulus (GPa) = 1.77168 32.90312 17.33740
#
# Velocity S-wave (km/s) = 0.87709 3.77979 2.74373
# Velocity P-wave (km/s) = 4.43728 7.20001 5.98037
#
# Compressibility (1/GPa) = 0.02326485
#
# Stress axis : x y z
#
# Youngs Moduli (GPa) = 236.90267 155.92127 53.28733
#
# Poissons Ratio (x) = 0.23362 0.10097
# Poissons Ratio (y) = 0.35495 -0.01733
# Poissons Ratio (z) = 0.44889 -0.05070
#
# Static dielectric constant tensor:
#      x y z
#    x 2.022810 0.000000 0.000000 
#    y 0.000000 1.900220 0.000000 
#    z 0.000000 0.000000 1.898920 
# 
# From -- ./inp_files/1961.got.cif
#   From: 2010.05.17/outbox.cif.g08.bks.cpg/sg32_1_cif.got.tgz:1961.got - 2010.06.03 17:12:27.
