data_PCOD9343505
_publ_section_title
;
Structure prediction by ZEFSAII (Michael W. Deem and Ramdas Pophale) SiO2 
 PCOD9343505
Probable space group: P M N 21
;
_chemical_formula_sum "Si O2"
_cell_formula_units_Z 20
_cell_length_a 9.413301
_cell_length_b 9.349072
_cell_length_c 10.639847
_cell_angle_alpha 90.000000
_cell_angle_beta 90.000000
_cell_angle_gamma 90.000000
_cell_volume 936.366426
_symmetry_space_group_name_H-M "P M N 21"
_symmetry_group_IT_number 31
_symmetry_cell_setting 'orthorhombic'
loop_
_space_group_symop_operation_xyz
x,y,z
1/2-x,-y,1/2+z
-x,y,z
1/2+x,-y,1/2+z
loop_
_atom_site_type_symbol
_atom_site_label
_atom_site_fract_x
_atom_site_fract_y
_atom_site_fract_z
Si Si1 0.661419 0.621222 0.537170
Si Si2 0.662527 0.798271 0.110109
Si Si3 0.167915 0.080877 0.177568
Si Si4 0.341926 0.245688 0.378171
Si Si5 0.766653 0.461924 0.777330
O O1 0.500000 0.605752 0.487279
O O2 0.680749 0.785188 0.581632
O O3 0.668340 0.521121 0.662441
O O4 0.767654 0.582897 0.422333
O O5 0.500000 0.841276 0.087503
O O6 0.667207 0.681895 0.220687
O O7 0.762572 0.934691 0.131724
O O8 0.734382 0.724447 0.990609
O O9 0.262820 0.127427 0.295971
O O10 0.000000 0.065635 0.206293
O O11 0.500000 0.202272 0.418295
O O12 0.352217 0.391625 0.299501
#
# Coordination Sequence:
#
# PCOD9343505 Si02
#       5
#     4   4   4   4   4
#     4  10  22  44  68  98 136 176 224 280 341 407
#     4  12  25  41  67 101 135 176 227 278 340 411
#     4  10  24  44  68  97 135 178 224 279 340 407
#     4  11  23  44  69  95 133 177 225 283 344 403
#     4  11  23  43  70  99 132 177 227 282 344 406
#
# _framework density 21.359158999999998
#
# number of rings (size 3 to 8) (size 9 to 14) (size 15 to 20)
#    0.000    1.200    2.000    3.600    2.800    1.600 
#    0.000    2.000    0.000    0.000    0.000    0.000 
#    0.000    0.000    0.000    0.000    0.000    0.000 
#
# Total GULP energy -111386.699491 kJ/mol
# GULP energy per Si atom -5569.334975 kJ/mol
# Density = 2.131054 g / cm^3
# Si number density = 21.359159 Si / 1000 Ang^3
#
#
#
# Elastic Constant Matrix: (Units=GPa)
#
#
# Indices 1 2 3 4 5 6 
#
# 1 80.1437 32.0046 9.2541 0.0000 0.0000 0.0000
# 2 32.0046 105.1415 13.1666 0.0000 0.0000 0.0000
# 3 9.2541 13.1666 85.0946 0.0000 0.0000 0.0000
# 4 0.0000 0.0000 0.0000 33.4090 0.0000 0.0000
# 5 0.0000 0.0000 0.0000 0.0000 24.4518 0.0000
# 6 0.0000 0.0000 0.0000 0.0000 0.0000 -21.4601
#
#
#
# Elastic Compliance Matrix: (Units=1/GPa)
#
#
# Indices 1 2 3 4 5 6 
#
# 1 0.014271 -0.004232 -0.000897 0.000000 0.000000 0.000000
# 2 -0.004232 0.010954 -0.001235 0.000000 0.000000 0.000000
# 3 -0.000897 -0.001235 0.012040 0.000000 0.000000 0.000000
# 4 0.000000 0.000000 0.000000 0.029932 0.000000 0.000000
# 5 0.000000 0.000000 0.000000 0.000000 0.040897 0.000000
# 6 0.000000 0.000000 0.000000 0.000000 0.000000 -0.046598
#
#
# Mechanical properties :
#
#
# Convention : Reuss Voigt Hill
#
# Bulk Modulus (GPa) = 40.75334 42.13673 41.44503
# Shear Modulus (GPa) = 60.67799 21.67710 41.17754
#
# Velocity S-wave (km/s) = 5.33574 3.18918 4.39551
# Velocity P-wave (km/s) = 7.55523 5.77336 6.72359
#
# Compressibility (1/GPa) = 0.02453787
#
# Stress axis : x y z
#
# Youngs Moduli (GPa) = 70.07175 91.29325 83.05485
#
# Poissons Ratio (x) = 0.38633 0.07452
# Poissons Ratio (y) = 0.29652 0.10254
# Poissons Ratio (z) = 0.06287 0.11272
#
# Static dielectric constant tensor:
#      x y z
#    x 1.754510 0.000000 0.000000 
#    y 0.000000 1.784730 0.000000 
#    z 0.000000 0.000000 1.885080 
# 
# From -- ./inp_files/3394.got.cif
#   From: 2010.05.17/outbox.cif.g08.bks.cpg/sg31_2_cif.got.tgz:3394.got - 2010.06.03 17:08:30.
