data_PCOD9343344
_publ_section_title
;
Structure prediction by ZEFSAII (Michael W. Deem and Ramdas Pophale) SiO2 
 PCOD9343344
Probable space group: P M N 21
;
_chemical_formula_sum "Si O2"
_cell_formula_units_Z 24
_cell_length_a 18.094646
_cell_length_b 6.127136
_cell_length_c 10.611987
_cell_angle_alpha 90.000000
_cell_angle_beta 90.000000
_cell_angle_gamma 90.000000
_cell_volume 1176.533562
_symmetry_space_group_name_H-M "P M N 21"
_symmetry_group_IT_number 31
_symmetry_cell_setting 'orthorhombic'
loop_
_space_group_symop_operation_xyz
x,y,z
1/2-x,-y,1/2+z
-x,y,z
1/2+x,-y,1/2+z
loop_
_atom_site_type_symbol
_atom_site_label
_atom_site_fract_x
_atom_site_fract_y
_atom_site_fract_z
Si Si1 0.272555 0.873478 0.032480
Si Si2 0.627394 0.525767 0.917305
Si Si3 0.000000 0.454633 0.212939
Si Si4 0.000000 0.956760 0.081473
Si Si5 0.132131 0.988089 0.884771
Si Si6 0.860062 0.745967 0.641709
Si Si7 0.224717 0.367309 0.785174
O O1 0.247920 0.771511 0.164919
O O2 0.298915 0.111742 0.070016
O O3 0.344905 0.751302 0.979356
O O4 0.206352 0.867716 0.933760
O O5 0.571443 0.547273 0.803226
O O6 0.704523 0.429767 0.865477
O O7 0.596288 0.374730 0.030389
O O8 0.000000 0.205485 0.147985
O O9 0.000000 0.705527 0.146504
O O10 0.928366 0.964575 0.991816
O O11 0.163349 0.230370 0.860878
O O12 0.104383 0.896532 0.749870
O O13 0.817325 0.564864 0.720579
#
# Coordination Sequence:
#
# PCOD9343344 Si02
#       7
#     4   4   2   2   4   4   4
#     4  10  21  37  68 101 132 181 235 302 349 424
#     4  11  23  43  70 103 143 184 249 294 370 440
#     4  12  32  49  75 109 149 200 236 307 384 442
#     4  12  32  49  75 109 149 200 236 307 384 442
#     4  11  23  43  70 103 143 184 249 294 370 440
#     4  10  22  39  66 101 130 184 234 304 358 403
#     4  10  21  37  68 101 132 181 235 302 349 424
#
# _framework density 20.398907999999999
#
# number of rings (size 3 to 8) (size 9 to 14) (size 15 to 20)
#    0.000    1.333    3.333    1.000    7.000    0.667 
#    0.000    7.500    0.000    0.000    0.000    0.000 
#    0.000    0.000    0.000    0.000    0.000    0.000 
#
# Total GULP energy -133622.998694 kJ/mol
# GULP energy per Si atom -5567.624946 kJ/mol
# Density = 2.035248 g / cm^3
# Si number density = 20.398908 Si / 1000 Ang^3
#
#
#
# Elastic Constant Matrix: (Units=GPa)
#
#
# Indices 1 2 3 4 5 6 
#
# 1 68.1959 35.6877 35.9232 0.0000 0.0000 0.0000
# 2 35.6877 79.3231 32.2533 0.0000 0.0000 0.0000
# 3 35.9232 32.2533 87.2843 0.0000 0.0000 0.0000
# 4 0.0000 0.0000 0.0000 68.5053 0.0000 0.0000
# 5 0.0000 0.0000 0.0000 0.0000 52.7232 0.0000
# 6 0.0000 0.0000 0.0000 0.0000 0.0000 11.6128
#
#
#
# Elastic Compliance Matrix: (Units=1/GPa)
#
#
# Indices 1 2 3 4 5 6 
#
# 1 0.021759 -0.007235 -0.006282 0.000000 0.000000 0.000000
# 2 -0.007235 0.017242 -0.003393 0.000000 0.000000 0.000000
# 3 -0.006282 -0.003393 0.015296 0.000000 0.000000 0.000000
# 4 0.000000 0.000000 0.000000 0.014597 0.000000 0.000000
# 5 0.000000 0.000000 0.000000 0.000000 0.018967 0.000000
# 6 0.000000 0.000000 0.000000 0.000000 0.000000 0.086112
#
#
# Mechanical properties :
#
#
# Convention : Reuss Voigt Hill
#
# Bulk Modulus (GPa) = 48.83752 49.17020 49.00386
# Shear Modulus (GPa) = 23.29719 35.29755 29.29737
#
# Velocity S-wave (km/s) = 3.38313 4.16428 3.79386
# Velocity P-wave (km/s) = 6.26530 6.87592 6.57770
#
# Compressibility (1/GPa) = 0.02047606
#
# Stress axis : x y z
#
# Youngs Moduli (GPa) = 45.95830 57.99938 65.37646
#
# Poissons Ratio (x) = 0.41964 0.41067
# Poissons Ratio (y) = 0.33252 0.22185
# Poissons Ratio (z) = 0.28869 0.19681
#
# Static dielectric constant tensor:
#      x y z
#    x 1.667360 0.000000 0.000000 
#    y 0.000000 1.783410 0.000000 
#    z 0.000000 0.000000 1.746320 
# 
# From -- ./inp_files/4348.got.cif
#   From: 2010.05.17/outbox.cif.g08.bks.cpg/sg31_3_cif.got.tgz:4348.got - 2010.06.03 17:08:30.
