data_PCOD9343054
_publ_section_title
;
Structure prediction by ZEFSAII (Michael W. Deem and Ramdas Pophale) SiO2 
 PCOD9343054
Probable space group: P M N 21
;
_chemical_formula_sum "Si O2"
_cell_formula_units_Z 32
_cell_length_a 7.270287
_cell_length_b 19.622100
_cell_length_c 8.284061
_cell_angle_alpha 90.000000
_cell_angle_beta 90.000000
_cell_angle_gamma 90.000000
_cell_volume 1181.790047
_symmetry_space_group_name_H-M "P M N 21"
_symmetry_group_IT_number 31
_symmetry_cell_setting 'orthorhombic'
loop_
_space_group_symop_operation_xyz
x,y,z
1/2-x,-y,1/2+z
-x,y,z
1/2+x,-y,1/2+z
loop_
_atom_site_type_symbol
_atom_site_label
_atom_site_fract_x
_atom_site_fract_y
_atom_site_fract_z
Si Si1 0.223017 0.148126 0.306420
Si Si2 0.782648 0.476958 0.001533
Si Si3 0.222458 0.273100 0.120825
Si Si4 0.220063 0.397978 0.315802
Si Si5 0.222341 0.355814 0.795855
Si Si6 0.774183 0.227159 0.625059
Si Si7 0.222537 0.018794 0.130964
Si Si8 0.709003 0.894816 0.329461
O O1 0.280565 0.196581 0.157187
O O2 0.284521 0.188195 0.464422
O O3 0.280420 0.071222 0.273275
O O4 0.000000 0.146601 0.310973
O O5 0.757264 0.556902 0.972866
O O6 0.711083 0.430506 0.851779
O O7 0.000000 0.465178 0.007123
O O8 0.710394 0.445139 0.167070
O O9 0.282831 0.322771 0.267583
O O10 0.000000 0.271707 0.121762
O O11 0.268027 0.310579 0.955371
O O12 0.000000 0.393813 0.312073
O O13 0.284043 0.305274 0.653113
O O14 0.000000 0.360630 0.778401
O O15 0.715165 0.177178 0.770823
O O16 0.000000 0.227799 0.623897
O O17 0.000000 0.013632 0.126055
O O18 0.293826 0.944241 0.172829
O O19 0.288017 0.057454 0.969787
O O20 0.500000 0.880124 0.381917
#
# Coordination Sequence:
#
# PCOD9343054 Si02
#       8
#     4   4   4   4   4   4   4   4
#     4   9  16  26  43  68  94 119 152 194 235 275
#     4   9  18  31  47  69  96 125 157 193 234 280
#     4   8  14  26  43  63  89 119 151 190 234 277
#     4   9  18  31  47  69  96 125 157 193 234 280
#     4   8  14  26  43  63  89 119 151 190 234 277
#     4   9  16  26  43  68  94 119 152 194 235 275
#     4  10  20  33  50  72  98 128 159 192 233 279
#     4  10  20  33  50  72  98 128 159 192 233 279
#
# _framework density 27.077565
#
# number of rings (size 3 to 8) (size 9 to 14) (size 15 to 20)
#    0.000    3.000    0.000    3.000    0.000    6.000 
#    0.000    2.500    0.000    1.500    0.000    7.000 
#    0.000    0.000    0.000    0.000    0.000    0.000 
#
# Total GULP energy -178858.212889 kJ/mol
# GULP energy per Si atom -5589.319153 kJ/mol
# Density = 2.701594 g / cm^3
# Si number density = 27.077565 Si / 1000 Ang^3
#
#
#
# Elastic Constant Matrix: (Units=GPa)
#
#
# Indices 1 2 3 4 5 6 
#
# 1 119.8680 -12.2931 -9.1118 0.0000 0.0000 0.0000
# 2 -12.2931 157.8068 -0.0401 0.0000 0.0000 0.0000
# 3 -9.1118 -0.0401 63.9775 0.0000 0.0000 0.0000
# 4 0.0000 0.0000 0.0000 52.8121 0.0000 0.0000
# 5 0.0000 0.0000 0.0000 0.0000 -1.6302 0.0000
# 6 0.0000 0.0000 0.0000 0.0000 0.0000 13.8812
#
#
#
# Elastic Compliance Matrix: (Units=1/GPa)
#
#
# Indices 1 2 3 4 5 6 
#
# 1 0.008503 0.000663 0.001211 0.000000 0.000000 0.000000
# 2 0.000663 0.006389 0.000098 0.000000 0.000000 0.000000
# 3 0.001211 0.000098 0.015803 0.000000 0.000000 0.000000
# 4 0.000000 0.000000 0.000000 0.018935 0.000000 0.000000
# 5 0.000000 0.000000 0.000000 0.000000 -0.613414 0.000000
# 6 0.000000 0.000000 0.000000 0.000000 0.000000 0.072040
#
#
# Mechanical properties :
#
#
# Convention : Reuss Voigt Hill
#
# Bulk Modulus (GPa) = 28.86925 33.19582 31.03254
# Shear Modulus (GPa) = -10.32752 37.21910 13.44579
#
# Velocity S-wave (km/s) = -1.95508 3.71150 2.23079
# Velocity P-wave (km/s) = 2.36398 5.53652 4.25685
#
# Compressibility (1/GPa) = 0.03463893
#
# Stress axis : x y z
#
# Youngs Moduli (GPa) = 117.61175 156.53107 63.27884
#
# Poissons Ratio (x) = -0.10373 -0.07665
# Poissons Ratio (y) = -0.07794 -0.00623
# Poissons Ratio (z) = -0.14247 -0.01540
#
# Static dielectric constant tensor:
#      x y z
#    x 2.059170 0.000000 0.000000 
#    y 0.000000 2.028220 0.000000 
#    z 0.000000 0.000000 2.204500 
# 
# From -- ./inp_files/2280.got.cif
#   From: 2010.05.17/outbox.cif.g08.bks.cpg/sg31_2_cif.got.tgz:2280.got - 2010.06.03 17:08:30.
