data_PCOD9343654
_publ_section_title
;
Structure prediction by ZEFSAII (Michael W. Deem and Ramdas Pophale) SiO2 
 PCOD9343654
Probable space group: P B A 2
;
_chemical_formula_sum "Si O2"
_cell_formula_units_Z 32
_cell_length_a 5.423174
_cell_length_b 29.603812
_cell_length_c 8.875508
_cell_angle_alpha 90.000000
_cell_angle_beta 90.000000
_cell_angle_gamma 90.000000
_cell_volume 1424.932842
_symmetry_space_group_name_H-M "P B A 2"
_symmetry_group_IT_number 32
_symmetry_cell_setting 'orthorhombic'
loop_
_space_group_symop_operation_xyz
x,y,z
-x,-y,z
1/2-x,1/2+y,z
1/2+x,1/2-y,z
loop_
_atom_site_type_symbol
_atom_site_label
_atom_site_fract_x
_atom_site_fract_y
_atom_site_fract_z
Si Si1 0.865967 0.640775 0.480810
Si Si2 0.825305 0.362594 0.195752
Si Si3 0.078165 0.771432 0.414813
Si Si4 0.588683 0.765247 0.069664
Si Si5 0.339246 0.918768 0.724313
Si Si6 0.890021 0.550106 0.063243
Si Si7 0.652970 0.453489 0.594803
Si Si8 0.452010 0.422711 0.300526
O O1 0.661983 0.678709 0.457958
O O2 0.922714 0.629397 0.653126
O O3 0.761115 0.593686 0.413248
O O4 0.082290 0.650943 0.363364
O O5 0.879685 0.318528 0.098751
O O6 0.544789 0.378044 0.214019
O O7 0.949529 0.408907 0.136114
O O8 0.309805 0.741917 0.472269
O O9 0.071939 0.761345 0.233242
O O10 0.331435 0.754078 0.992511
O O11 0.570309 0.949511 0.658989
O O12 0.047280 0.921772 0.678928
O O13 0.335281 0.930855 0.898572
O O14 0.656443 0.545752 0.173676
O O15 0.000000 0.500000 0.051872
O O16 0.500000 0.500000 0.610525
O O17 0.652822 0.442328 0.415857
#
# Coordination Sequence:
#
# PCOD9343654 Si02
#       8
#     4   4   4   4   4   4   4   4
#     4  10  20  37  62  93 126 163 219 272 331 392
#     4  11  21  38  63  95 131 169 221 282 334 399
#     4  10  18  29  56  93 126 156 199 265 326 397
#     4  10  19  32  59  94 130 163 205 267 335 407
#     4  11  25  45  63  91 126 180 216 277 330 412
#     4  11  27  43  62  90 138 187 235 275 345 410
#     4  11  23  40  67  89 123 159 223 278 335 381
#     4  10  23  37  62  94 126 166 216 290 326 390
#
# _framework density 22.4572
#
# number of rings (size 3 to 8) (size 9 to 14) (size 15 to 20)
#    0.000    1.500    3.750    2.625    5.250    0.000 
#    0.000    0.000    0.000    1.500    0.000    0.000 
#    0.000    0.000    0.000    0.000    0.000    0.000 
#
# Total GULP energy -178218.346554 kJ/mol
# GULP energy per Si atom -5569.323330 kJ/mol
# Density = 2.240609 g / cm^3
# Si number density = 22.457200 Si / 1000 Ang^3
#
#
#
# Elastic Constant Matrix: (Units=GPa)
#
#
# Indices 1 2 3 4 5 6 
#
# 1 91.3611 9.3060 12.9360 0.0000 0.0000 0.0000
# 2 9.3060 66.5271 21.5956 0.0000 0.0000 0.0000
# 3 12.9360 21.5956 93.1335 0.0000 0.0000 0.0000
# 4 0.0000 0.0000 0.0000 15.1520 0.0000 0.0000
# 5 0.0000 0.0000 0.0000 0.0000 2.0074 0.0000
# 6 0.0000 0.0000 0.0000 0.0000 0.0000 19.0117
#
#
#
# Elastic Compliance Matrix: (Units=1/GPa)
#
#
# Indices 1 2 3 4 5 6 
#
# 1 0.011246 -0.001153 -0.001295 0.000000 0.000000 0.000000
# 2 -0.001153 0.016373 -0.003636 0.000000 0.000000 0.000000
# 3 -0.001295 -0.003636 0.011760 0.000000 0.000000 0.000000
# 4 0.000000 0.000000 0.000000 0.065998 0.000000 0.000000
# 5 0.000000 0.000000 0.000000 0.000000 0.498159 0.000000
# 6 0.000000 0.000000 0.000000 0.000000 0.000000 0.052599
#
#
# Mechanical properties :
#
#
# Convention : Reuss Voigt Hill
#
# Bulk Modulus (GPa) = 36.74894 37.63300 37.19097
# Shear Modulus (GPa) = 7.38144 21.04648 14.21396
#
# Velocity S-wave (km/s) = 1.81495 3.06466 2.51855
# Velocity P-wave (km/s) = 4.55978 5.41451 5.00542
#
# Compressibility (1/GPa) = 0.02721167
#
# Stress axis : x y z
#
# Youngs Moduli (GPa) = 88.91787 61.07555 85.03170
#
# Poissons Ratio (x) = 0.07041 0.11010
# Poissons Ratio (y) = 0.10251 0.30921
# Poissons Ratio (z) = 0.11513 0.22210
#
# Static dielectric constant tensor:
#      x y z
#    x 1.929420 0.000000 0.000000 
#    y 0.000000 1.921490 0.000000 
#    z 0.000000 0.000000 1.868640 
# 
# From -- ./inp_files/2074.got.cif
#   From: 2010.05.17/outbox.cif.g08.bks.cpg/sg32_2_cif.got.tgz:2074.got - 2010.06.03 17:12:27.
