data_PCOD9343203
_publ_section_title
;
Structure prediction by ZEFSAII (Michael W. Deem and Ramdas Pophale) SiO2 
 PCOD9343203
Probable space group: P M N 21
;
_chemical_formula_sum "Si O2"
_cell_formula_units_Z 32
_cell_length_a 8.722908
_cell_length_b 11.691436
_cell_length_c 16.590190
_cell_angle_alpha 90.000000
_cell_angle_beta 90.000000
_cell_angle_gamma 90.000000
_cell_volume 1691.922666
_symmetry_space_group_name_H-M "P M N 21"
_symmetry_group_IT_number 31
_symmetry_cell_setting 'orthorhombic'
loop_
_space_group_symop_operation_xyz
x,y,z
1/2-x,-y,1/2+z
-x,y,z
1/2+x,-y,1/2+z
loop_
_atom_site_type_symbol
_atom_site_label
_atom_site_fract_x
_atom_site_fract_y
_atom_site_fract_z
Si Si1 0.176358 0.265188 0.128500
Si Si2 0.829289 0.598851 0.758221
Si Si3 0.315006 0.314583 0.554485
Si Si4 0.314413 0.069440 0.236257
Si Si5 0.178254 0.790627 0.889624
Si Si6 0.677148 0.632339 0.343887
Si Si7 0.320104 0.438689 0.008887
Si Si8 0.685546 0.806233 0.213552
O O1 0.198534 0.357668 0.199947
O O2 0.251549 0.152334 0.166609
O O3 0.000000 0.245541 0.109070
O O4 0.262241 0.326225 0.055653
O O5 0.819066 0.670778 0.840674
O O6 0.822554 0.466462 0.776503
O O7 0.000000 0.626101 0.723964
O O8 0.500000 0.315441 0.553028
O O9 0.257700 0.237520 0.477962
O O10 0.259462 0.444979 0.540682
O O11 0.256629 0.258874 0.637225
O O12 0.500000 0.077693 0.237081
O O13 0.259238 0.118693 0.323659
O O14 0.271313 0.939260 0.218857
O O15 0.000000 0.822750 0.901909
O O16 0.500000 0.645020 0.371845
O O17 0.777194 0.586070 0.416646
O O18 0.729036 0.745289 0.297641
O O19 0.500000 0.453415 0.019635
O O20 0.500000 0.797970 0.207588
#
# Coordination Sequence:
#
# PCOD9343203 Si02
#       8
#     4   4   4   4   4   4   4   4
#     4  11  22  36  58  87 115 149 196 243 292 347
#     4   9  16  32  57  82 116 152 186 228 290 353
#     4  11  21  37  61  90 123 154 199 251 297 355
#     4   9  19  40  62  82 116 160 205 242 289 352
#     4   8  15  31  57  83 110 153 195 236 286 342
#     4  10  20  37  58  83 118 156 192 236 292 357
#     4  12  24  38  58  87 122 154 192 243 305 362
#     4  10  22  39  61  88 122 164 203 243 297 358
#
# _framework density 18.913392999999999
#
# number of rings (size 3 to 8) (size 9 to 14) (size 15 to 20)
#    0.000    2.000    1.250    4.125    0.000    2.500 
#    2.250    0.625    0.000    0.000    0.000    0.000 
#    0.000    0.000    0.000    0.000    0.000    0.000 
#
# Total GULP energy -178457.653390 kJ/mol
# GULP energy per Si atom -5576.801668 kJ/mol
# Density = 1.887035 g / cm^3
# Si number density = 18.913393 Si / 1000 Ang^3
#
#
#
# Elastic Constant Matrix: (Units=GPa)
#
#
# Indices 1 2 3 4 5 6 
#
# 1 51.4264 33.0586 22.3038 0.0000 0.0000 0.0000
# 2 33.0586 132.8664 48.5318 0.0000 0.0000 0.0000
# 3 22.3038 48.5318 61.2474 0.0000 0.0000 0.0000
# 4 0.0000 0.0000 0.0000 23.8151 0.0000 0.0000
# 5 0.0000 0.0000 0.0000 0.0000 28.0422 0.0000
# 6 0.0000 0.0000 0.0000 0.0000 0.0000 23.9861
#
#
#
# Elastic Compliance Matrix: (Units=1/GPa)
#
#
# Indices 1 2 3 4 5 6 
#
# 1 0.024512 -0.003994 -0.005761 0.000000 0.000000 0.000000
# 2 -0.003994 0.011243 -0.007454 0.000000 0.000000 0.000000
# 3 -0.005761 -0.007454 0.024332 0.000000 0.000000 0.000000
# 4 0.000000 0.000000 0.000000 0.041990 0.000000 0.000000
# 5 0.000000 0.000000 0.000000 0.000000 0.035661 0.000000
# 6 0.000000 0.000000 0.000000 0.000000 0.000000 0.041691
#
#
# Mechanical properties :
#
#
# Convention : Reuss Voigt Hill
#
# Bulk Modulus (GPa) = 38.96038 50.36984 44.66511
# Shear Modulus (GPa) = 22.48173 24.61174 23.54674
#
# Velocity S-wave (km/s) = 3.45145 3.61125 3.53225
# Velocity P-wave (km/s) = 6.04379 6.63911 6.34843
#
# Compressibility (1/GPa) = 0.02566710
#
# Stress axis : x y z
#
# Youngs Moduli (GPa) = 40.79705 88.94421 41.09859
#
# Poissons Ratio (x) = 0.35528 0.23677
# Poissons Ratio (y) = 0.16296 0.30636
# Poissons Ratio (z) = 0.23503 0.66301
#
# Static dielectric constant tensor:
#      x y z
#    x 1.659570 0.000000 0.000000 
#    y 0.000000 1.648300 0.000000 
#    z 0.000000 0.000000 1.690050 
# 
# From -- ./inp_files/5087.got.cif
#   From: 2010.05.17/outbox.cif.g08.bks.cpg/sg31_3_cif.got.tgz:5087.got - 2010.06.03 17:08:30.
