data_PCOD9343616
_publ_section_title
;
Structure prediction by ZEFSAII (Michael W. Deem and Ramdas Pophale) SiO2 
 PCOD9343616
Probable space group: P M N 21
;
_chemical_formula_sum "Si O2"
_cell_formula_units_Z 32
_cell_length_a 9.000000
_cell_length_b 12.000000
_cell_length_c 15.000000
_cell_angle_alpha 90.000000
_cell_angle_beta 90.000000
_cell_angle_gamma 90.000000
_cell_volume 1620.000000
_symmetry_space_group_name_H-M "P M N 21"
_symmetry_group_IT_number 31
_symmetry_cell_setting 'orthorhombic'
loop_
_space_group_symop_operation_xyz
x,y,z
1/2-x,-y,1/2+z
-x,y,z
1/2+x,-y,1/2+z
loop_
_atom_site_type_symbol
_atom_site_label
_atom_site_fract_x
_atom_site_fract_y
_atom_site_fract_z
Si Si1 0.325935 0.077179 0.696710
Si Si2 0.324747 0.504345 0.095302
Si Si3 0.827856 0.751041 0.357407
Si Si4 0.172304 0.504124 0.278781
Si Si5 0.674986 0.713292 0.534299
Si Si6 0.674822 0.724697 0.866435
Si Si7 0.676537 0.159166 0.197387
Si Si8 0.175886 0.737976 0.048762
O O1 0.500000 0.042377 0.691575
O O2 0.308579 0.153229 0.784358
O O3 0.294805 0.159695 0.614599
O O4 0.222598 0.970051 0.696544
O O5 0.500000 0.497105 0.079166
O O6 0.282602 0.479391 0.197877
O O7 0.238027 0.412447 0.038084
O O8 0.264507 0.627879 0.077695
O O9 0.806411 0.629282 0.313185
O O10 0.715784 0.762417 0.438479
O O11 0.000000 0.754210 0.389098
O O12 0.190829 0.408901 0.352949
O O13 0.000000 0.495211 0.246714
O O14 0.500000 0.714459 0.552098
O O15 0.762711 0.782487 0.608512
O O16 0.500000 0.748224 0.877849
O O17 0.737800 0.782568 0.778698
O O18 0.768973 0.764437 0.950138
O O19 0.500000 0.173585 0.205261
O O20 0.000000 0.714359 0.052177
#
# Coordination Sequence:
#
# PCOD9343616 Si02
#       8
#     4   4   4   4   4   4   4   4
#     4  10  23  44  68  92 124 168 212 263 317 370
#     4  12  23  37  63  96 131 168 209 256 316 383
#     4  10  21  41  67  96 129 164 207 256 315 380
#     4  10  20  38  64  93 128 168 203 251 316 381
#     4  12  25  42  65  94 129 167 212 263 318 378
#     4  11  23  40  66  97 131 167 207 258 317 379
#     4  12  26  44  66  92 124 166 216 267 316 375
#     4  11  23  42  67  96 130 168 212 260 315 376
#
# _framework density 19.753086
#
# number of rings (size 3 to 8) (size 9 to 14) (size 15 to 20)
#    0.000    1.000    2.500    4.875    0.000    4.500 
#    0.000    0.000    0.000    0.000    0.000    0.000 
#    0.000    0.000    0.000    0.000    0.000    0.000 
#
# Total GULP energy -179017.122283 kJ/mol
# GULP energy per Si atom -5594.285071 kJ/mol
# Density = 1.970813 g / cm^3
# Si number density = 19.753086 Si / 1000 Ang^3
#
#
#
# Elastic Constant Matrix: (Units=GPa)
#
#
# Indices 1 2 3 4 5 6 
#
# 1 43.0128 24.1811 -6.0310 0.0000 0.0000 0.0000
# 2 24.1811 72.0904 2.9567 0.0000 0.0000 0.0000
# 3 -6.0310 2.9567 48.8316 0.0000 0.0000 0.0000
# 4 0.0000 0.0000 0.0000 -4.8059 0.0000 0.0000
# 5 0.0000 0.0000 0.0000 0.0000 28.5854 0.0000
# 6 0.0000 0.0000 0.0000 0.0000 0.0000 31.0134
#
#
#
# Elastic Compliance Matrix: (Units=1/GPa)
#
#
# Indices 1 2 3 4 5 6 
#
# 1 0.029508 -0.010072 0.004254 0.000000 0.000000 0.000000
# 2 -0.010072 0.017344 -0.002294 0.000000 0.000000 0.000000
# 3 0.004254 -0.002294 0.021143 0.000000 0.000000 0.000000
# 4 0.000000 0.000000 0.000000 -0.208079 0.000000 0.000000
# 5 0.000000 0.000000 0.000000 0.000000 0.034983 0.000000
# 6 0.000000 0.000000 0.000000 0.000000 0.000000 0.032244
#
#
# Mechanical properties :
#
#
# Convention : Reuss Voigt Hill
#
# Bulk Modulus (GPa) = 19.31602 22.90540 21.11071
# Shear Modulus (GPa) = -126.97997 20.48044 -53.24976
#
# Velocity S-wave (km/s) = -8.02640 3.22347 -5.19771
# Velocity P-wave (km/s) = 8.72339 5.04731 5.03102
#
# Compressibility (1/GPa) = 0.05177049
#
# Stress axis : x y z
#
# Youngs Moduli (GPa) = 33.88931 57.65663 47.29729
#
# Poissons Ratio (x) = 0.58073 -0.20121
# Poissons Ratio (y) = 0.34134 0.10851
# Poissons Ratio (z) = -0.14417 0.13227
#
# Static dielectric constant tensor:
#      x y z
#    x 1.657200 0.000000 0.000000 
#    y 0.000000 1.676780 0.000000 
#    z 0.000000 0.000000 1.710300 
# 
# From -- ./inp_files/4965.got.cif
#   From: 2010.05.17/outbox.ucp.g08.bks.cvg/sg31_3_cif.got.tgz:4965.got - 2010.06.11 10:34:26.
