data_PCOD9343027
_publ_section_title
;
Structure prediction by ZEFSAII (Michael W. Deem and Ramdas Pophale) SiO2 
 PCOD9343027
Probable space group: P M N 21
;
_chemical_formula_sum "Si O2"
_cell_formula_units_Z 32
_cell_length_a 7.791475
_cell_length_b 12.432940
_cell_length_c 15.889039
_cell_angle_alpha 90.000000
_cell_angle_beta 90.000000
_cell_angle_gamma 90.000000
_cell_volume 1539.186162
_symmetry_space_group_name_H-M "P M N 21"
_symmetry_group_IT_number 31
_symmetry_cell_setting 'orthorhombic'
loop_
_space_group_symop_operation_xyz
x,y,z
1/2-x,-y,1/2+z
-x,y,z
1/2+x,-y,1/2+z
loop_
_atom_site_type_symbol
_atom_site_label
_atom_site_fract_x
_atom_site_fract_y
_atom_site_fract_z
Si Si1 0.792520 0.961441 0.986070
Si Si2 0.703830 0.353406 0.826850
Si Si3 0.205156 0.731227 0.726096
Si Si4 0.793935 0.736985 0.921924
Si Si5 0.292524 0.494447 0.481444
Si Si6 0.800635 0.502984 0.172488
Si Si7 0.705815 0.041707 0.170233
Si Si8 0.706759 0.898283 0.327219
O O1 0.731876 0.041448 0.911994
O O2 0.000000 0.958836 0.980131
O O3 0.727144 0.840429 0.970810
O O4 0.744592 0.998241 0.078526
O O5 0.500000 0.360591 0.821174
O O6 0.750572 0.412371 0.914444
O O7 0.775263 0.419165 0.745230
O O8 0.751049 0.227895 0.825486
O O9 0.232183 0.756724 0.823766
O O10 0.290266 0.618721 0.704868
O O11 0.269951 0.835814 0.677334
O O12 0.000000 0.717332 0.712393
O O13 0.727985 0.619844 0.946154
O O14 0.000000 0.732675 0.935738
O O15 0.500000 0.493713 0.484393
O O16 0.227500 0.500718 0.577633
O O17 0.000000 0.535367 0.163125
O O18 0.500000 0.048330 0.181328
O O19 0.769964 0.963847 0.245014
O O20 0.500000 0.905681 0.327034
#
# Coordination Sequence:
#
# PCOD9343027 Si02
#       8
#     4   4   4   4   4   4   4   4
#     4  10  21  38  62  87 113 151 196 237 282 341
#     4  11  24  40  58  86 120 151 191 245 290 332
#     4  10  19  37  63  84 109 148 192 237 284 338
#     4   9  17  35  63  85 105 145 197 237 277 338
#     4  10  21  39  62  84 113 154 194 231 284 352
#     4  10  23  39  57  86 118 148 189 240 288 339
#     4  10  22  39  59  88 120 150 190 239 287 340
#     4  10  22  41  60  82 118 161 195 228 282 354
#
# _framework density 20.790206000000001
#
# number of rings (size 3 to 8) (size 9 to 14) (size 15 to 20)
#    0.000    2.000    2.500    0.375    3.500    2.500 
#    0.000    1.250    0.000    0.000    0.000    0.000 
#    0.000    0.000    0.000    0.000    0.000    0.000 
#
# Total GULP energy -178607.563954 kJ/mol
# GULP energy per Si atom -5581.486374 kJ/mol
# Density = 2.074289 g / cm^3
# Si number density = 20.790206 Si / 1000 Ang^3
#
#
#
# Elastic Constant Matrix: (Units=GPa)
#
#
# Indices 1 2 3 4 5 6 
#
# 1 26.2840 -8.2032 6.9269 0.0000 0.0000 0.0000
# 2 -8.2032 109.8146 32.7050 0.0000 0.0000 0.0000
# 3 6.9269 32.7050 96.9654 0.0000 0.0000 0.0000
# 4 0.0000 0.0000 0.0000 30.5906 0.0000 0.0000
# 5 0.0000 0.0000 0.0000 0.0000 14.9291 0.0000
# 6 0.0000 0.0000 0.0000 0.0000 0.0000 -0.9799
#
#
#
# Elastic Compliance Matrix: (Units=1/GPa)
#
#
# Indices 1 2 3 4 5 6 
#
# 1 0.040544 0.004326 -0.004355 0.000000 0.000000 0.000000
# 2 0.004326 0.010585 -0.003879 0.000000 0.000000 0.000000
# 3 -0.004355 -0.003879 0.011932 0.000000 0.000000 0.000000
# 4 0.000000 0.000000 0.000000 0.032690 0.000000 0.000000
# 5 0.000000 0.000000 0.000000 0.000000 0.066983 0.000000
# 6 0.000000 0.000000 0.000000 0.000000 0.000000 -1.020500
#
#
# Mechanical properties :
#
#
# Convention : Reuss Voigt Hill
#
# Bulk Modulus (GPa) = 18.10165 32.88016 25.49090
# Shear Modulus (GPa) = -6.01298 22.35032 8.16867
#
# Velocity S-wave (km/s) = -1.70250 3.28234 1.98434
# Velocity P-wave (km/s) = 2.20478 5.49678 4.18782
#
# Compressibility (1/GPa) = 0.05524358
#
# Stress axis : x y z
#
# Youngs Moduli (GPa) = 24.66469 94.47630 83.80506
#
# Poissons Ratio (x) = -0.40868 0.36500
# Poissons Ratio (y) = -0.10669 0.32509
# Poissons Ratio (z) = 0.10742 0.36648
#
# Static dielectric constant tensor:
#      x y z
#    x 1.795560 0.000000 0.000000 
#    y 0.000000 1.800580 0.000000 
#    z 0.000000 0.000000 1.739710 
# 
# From -- ./inp_files/4953.got.cif
#   From: 2010.05.17/outbox.cif.g08.bks.cpg/sg31_3_cif.got.tgz:4953.got - 2010.06.03 17:08:30.
