data_PCOD9343954
_publ_section_title
;
Structure prediction by ZEFSAII (Michael W. Deem and Ramdas Pophale) SiO2 
 PCOD9343954
Probable space group: P B A 2
;
_chemical_formula_sum "Si O2"
_cell_formula_units_Z 30
_cell_length_a 8.688611
_cell_length_b 13.826644
_cell_length_c 11.672560
_cell_angle_alpha 90.000000
_cell_angle_beta 90.000000
_cell_angle_gamma 90.000000
_cell_volume 1402.275188
_symmetry_space_group_name_H-M "P B A 2"
_symmetry_group_IT_number 32
_symmetry_cell_setting 'orthorhombic'
loop_
_space_group_symop_operation_xyz
x,y,z
-x,-y,z
1/2-x,1/2+y,z
1/2+x,1/2-y,z
loop_
_atom_site_type_symbol
_atom_site_label
_atom_site_fract_x
_atom_site_fract_y
_atom_site_fract_z
Si Si1 0.500000 0.500000 0.103881
Si Si2 0.771800 0.158900 0.030955
Si Si3 0.595063 0.819317 0.633510
Si Si4 0.704244 0.165785 0.768553
Si Si5 0.674379 0.362844 0.279567
Si Si6 0.211671 0.003252 0.611492
Si Si7 0.510105 0.637155 0.508927
Si Si8 0.982122 0.308644 0.176023
O O1 0.605665 0.436127 0.187066
O O2 0.613523 0.568092 0.033514
O O3 0.733128 0.184132 0.900926
O O4 0.869663 0.244023 0.093927
O O5 0.610851 0.138186 0.098162
O O6 0.472246 0.834525 0.733006
O O7 0.721842 0.750512 0.691857
O O8 0.646656 0.924517 0.592230
O O9 0.533255 0.749569 0.532432
O O10 0.766793 0.062337 0.723431
O O11 0.601673 0.384234 0.403320
O O12 0.857641 0.359630 0.259124
O O13 0.591887 0.261341 0.249583
O O14 0.076690 0.084090 0.614192
O O15 0.168734 0.924182 0.512534
#
# Coordination Sequence:
#
# PCOD9343954 Si02
#       8
#     2   4   4   4   4   4   4   4
#     4  10  22  40  62  92 134 156 226 272 334 392
#     4  10  21  42  64  97 126 180 209 284 334 394
#     4  11  22  41  62  96 132 175 227 275 323 413
#     4  11  23  40  66  92 137 175 223 273 342 390
#     4  10  21  40  65  92 123 171 209 277 333 397
#     4  10  22  40  59  97 132 169 227 273 317 418
#     4  10  22  40  68  92 137 177 213 280 343 390
#     4   9  21  41  65  93 128 158 237 265 321 415
#
# _framework density 21.393803999999999
#
# number of rings (size 3 to 8) (size 9 to 14) (size 15 to 20)
#    0.000    1.867    1.333    2.000    1.867    2.667 
#   12.000    1.333    5.867    0.000    0.000    0.000 
#    0.000    0.000    0.000    0.000    0.000    0.000 
#
# Total GULP energy -167147.136438 kJ/mol
# GULP energy per Si atom -5571.571215 kJ/mol
# Density = 2.134511 g / cm^3
# Si number density = 21.393804 Si / 1000 Ang^3
#
#
#
# Elastic Constant Matrix: (Units=GPa)
#
#
# Indices 1 2 3 4 5 6 
#
# 1 109.9310 34.8024 19.0656 0.0000 0.0000 0.0000
# 2 34.8024 67.0787 22.3744 0.0000 0.0000 0.0000
# 3 19.0656 22.3744 65.5285 0.0000 0.0000 0.0000
# 4 0.0000 0.0000 0.0000 0.5468 0.0000 0.0000
# 5 0.0000 0.0000 0.0000 0.0000 -64.2054 0.0000
# 6 0.0000 0.0000 0.0000 0.0000 0.0000 36.0160
#
#
#
# Elastic Compliance Matrix: (Units=1/GPa)
#
#
# Indices 1 2 3 4 5 6 
#
# 1 0.010999 -0.005235 -0.001413 0.000000 0.000000 0.000000
# 2 -0.005235 0.019316 -0.005072 0.000000 0.000000 0.000000
# 3 -0.001413 -0.005072 0.017403 0.000000 0.000000 0.000000
# 4 0.000000 0.000000 0.000000 1.828876 0.000000 0.000000
# 5 0.000000 0.000000 0.000000 0.000000 -0.015575 0.000000
# 6 0.000000 0.000000 0.000000 0.000000 0.000000 0.027765
#
#
# Mechanical properties :
#
#
# Convention : Reuss Voigt Hill
#
# Bulk Modulus (GPa) = 41.18927 43.89147 42.54037
# Shear Modulus (GPa) = 2.60373 5.55786 4.08080
#
# Velocity S-wave (km/s) = 1.10440 1.61354 1.38261
# Velocity P-wave (km/s) = 4.57394 4.90223 4.74093
#
# Compressibility (1/GPa) = 0.02427817
#
# Stress axis : x y z
#
# Youngs Moduli (GPa) = 90.91674 51.77053 57.46008
#
# Poissons Ratio (x) = 0.27104 0.08117
# Poissons Ratio (y) = 0.47599 0.29144
# Poissons Ratio (z) = 0.12843 0.26259
#
# Static dielectric constant tensor:
#      x y z
#    x 1.930190 0.000000 0.000000 
#    y 0.000000 1.784620 0.000000 
#    z 0.000000 0.000000 1.763020 
# 
# From -- ./inp_files/3740.got.cif
#   From: 2010.05.17/outbox.cif.g08.bks.cpg/sg32_2_cif.got.tgz:3740.got - 2010.06.03 17:12:27.
