data_PCOD9343011
_publ_section_title
;
Structure prediction by ZEFSAII (Michael W. Deem and Ramdas Pophale) SiO2 
 PCOD9343011
Probable space group: P M N 21
;
_chemical_formula_sum "Si O2"
_cell_formula_units_Z 32
_cell_length_a 8.721332
_cell_length_b 12.120577
_cell_length_c 15.761298
_cell_angle_alpha 90.000000
_cell_angle_beta 90.000000
_cell_angle_gamma 90.000000
_cell_volume 1666.088607
_symmetry_space_group_name_H-M "P M N 21"
_symmetry_group_IT_number 31
_symmetry_cell_setting 'orthorhombic'
loop_
_space_group_symop_operation_xyz
x,y,z
1/2-x,-y,1/2+z
-x,y,z
1/2+x,-y,1/2+z
loop_
_atom_site_type_symbol
_atom_site_label
_atom_site_fract_x
_atom_site_fract_y
_atom_site_fract_z
Si Si1 0.814458 0.250820 0.183900
Si Si2 0.683218 0.748890 0.381856
Si Si3 0.184505 0.501519 0.932336
Si Si4 0.682940 0.725270 0.874457
Si Si5 0.686011 0.504143 0.630003
Si Si6 0.183521 0.860384 0.031651
Si Si7 0.682473 0.105260 0.033307
Si Si8 0.185176 0.726748 0.201928
O O1 0.774350 0.229038 0.281704
O O2 0.763854 0.375700 0.161002
O O3 0.743867 0.166902 0.117070
O O4 0.000000 0.247031 0.175851
O O5 0.500000 0.758692 0.387341
O O6 0.724042 0.621537 0.402710
O O7 0.757084 0.827165 0.452102
O O8 0.741229 0.772500 0.287352
O O9 0.266444 0.597789 0.880766
O O10 0.000000 0.515154 0.925950
O O11 0.227673 0.512589 0.031562
O O12 0.500000 0.732246 0.882926
O O13 0.760778 0.790556 0.951005
O O14 0.500000 0.504210 0.632979
O O15 0.737407 0.399503 0.684862
O O16 0.225134 0.796639 0.118389
O O17 0.000000 0.868419 0.029157
O O18 0.255268 0.981249 0.030435
O O19 0.500000 0.105006 0.033220
O O20 0.000000 0.727221 0.210366
#
# Coordination Sequence:
#
# PCOD9343011 Si02
#       8
#     4   4   4   4   4   4   4   4
#     4  10  21  40  64  90 125 165 200 243 306 369
#     4  11  23  40  64  92 126 164 202 250 306 367
#     4  10  19  36  62  90 124 166 205 244 301 367
#     4  11  23  38  63  96 128 161 202 253 303 361
#     4   9  16  34  62  89 122 162 200 241 298 364
#     4  11  24  44  67  87 119 166 207 252 308 366
#     4  12  26  43  64  90 120 156 207 264 305 358
#     4  10  21  39  64  92 122 160 203 249 305 364
#
# _framework density 19.206662000000001
#
# number of rings (size 3 to 8) (size 9 to 14) (size 15 to 20)
#    0.000    1.500    2.500    3.000    0.000    5.000 
#    0.000    1.875    0.000    0.000    0.000    0.000 
#    0.000    0.000    0.000    0.000    0.000    0.000 
#
# Total GULP energy -178892.601594 kJ/mol
# GULP energy per Si atom -5590.393800 kJ/mol
# Density = 1.916295 g / cm^3
# Si number density = 19.206662 Si / 1000 Ang^3
#
#
#
# Elastic Constant Matrix: (Units=GPa)
#
#
# Indices 1 2 3 4 5 6 
#
# 1 49.5974 44.6551 47.4856 0.0000 0.0000 0.0000
# 2 44.6551 121.5116 46.5951 0.0000 0.0000 0.0000
# 3 47.4856 46.5951 121.5083 0.0000 0.0000 0.0000
# 4 0.0000 0.0000 0.0000 -0.0950 0.0000 0.0000
# 5 0.0000 0.0000 0.0000 0.0000 26.0769 0.0000
# 6 0.0000 0.0000 0.0000 0.0000 0.0000 124.8162
#
#
#
# Elastic Compliance Matrix: (Units=1/GPa)
#
#
# Indices 1 2 3 4 5 6 
#
# 1 0.041166 -0.010504 -0.012060 0.000000 0.000000 0.000000
# 2 -0.010504 0.012329 -0.000623 0.000000 0.000000 0.000000
# 3 -0.012060 -0.000623 0.013182 0.000000 0.000000 0.000000
# 4 0.000000 0.000000 0.000000-10.525253 0.000000 0.000000
# 5 0.000000 0.000000 0.000000 0.000000 0.038348 0.000000
# 6 0.000000 0.000000 0.000000 0.000000 0.000000 0.008012
#
#
# Mechanical properties :
#
#
# Convention : Reuss Voigt Hill
#
# Bulk Modulus (GPa) = 49.25288 63.34322 56.29805
# Shear Modulus (GPa) = -0.48267 40.41837 19.96785
#
# Velocity S-wave (km/s) = -0.50184 4.59234 3.22783
# Velocity P-wave (km/s) = 5.03622 7.82118 6.57778
#
# Compressibility (1/GPa) = 0.02030338
#
# Stress axis : x y z
#
# Youngs Moduli (GPa) = 24.29204 81.11218 75.86299
#
# Poissons Ratio (x) = 0.85199 0.91489
# Poissons Ratio (y) = 0.25516 0.04724
# Poissons Ratio (z) = 0.29295 0.05051
#
# Static dielectric constant tensor:
#      x y z
#    x 1.642260 0.000000 0.000000 
#    y 0.000000 1.646290 0.000000 
#    z 0.000000 0.000000 1.656410 
# 
# From -- ./inp_files/4985.got.cif
#   From: 2010.05.17/outbox.cif.g08.bks.cpg/sg31_3_cif.got.tgz:4985.got - 2010.06.03 17:08:30.
