data_PCOD9343146
_publ_section_title
;
Structure prediction by ZEFSAII (Michael W. Deem and Ramdas Pophale) SiO2 
 PCOD9343146
Probable space group: P M N 21
;
_chemical_formula_sum "Si O2"
_cell_formula_units_Z 24
_cell_length_a 7.761433
_cell_length_b 12.426433
_cell_length_c 12.279522
_cell_angle_alpha 90.000000
_cell_angle_beta 90.000000
_cell_angle_gamma 90.000000
_cell_volume 1184.322164
_symmetry_space_group_name_H-M "P M N 21"
_symmetry_group_IT_number 31
_symmetry_cell_setting 'orthorhombic'
loop_
_space_group_symop_operation_xyz
x,y,z
1/2-x,-y,1/2+z
-x,y,z
1/2+x,-y,1/2+z
loop_
_atom_site_type_symbol
_atom_site_label
_atom_site_fract_x
_atom_site_fract_y
_atom_site_fract_z
Si Si1 0.794029 0.577340 0.214800
Si Si2 0.294336 0.717481 0.008493
Si Si3 0.208160 0.780873 0.347443
Si Si4 0.711829 0.662490 0.765224
Si Si5 0.205952 0.922162 0.147828
Si Si6 0.206723 0.159377 0.093311
O O1 0.759784 0.627686 0.096323
O O2 0.729148 0.665500 0.302088
O O3 0.728597 0.457044 0.232665
O O4 0.000000 0.572313 0.228043
O O5 0.500000 0.717984 0.005357
O O6 0.237883 0.832944 0.055254
O O7 0.231723 0.692315 0.887227
O O8 0.271065 0.870467 0.260944
O O9 0.256630 0.806561 0.470018
O O10 0.000000 0.779599 0.341298
O O11 0.500000 0.662285 0.764474
O O12 0.770083 0.751530 0.678585
O O13 0.000000 0.931953 0.159065
O O14 0.275196 0.039778 0.119050
O O15 0.000000 0.155497 0.105196
#
# Coordination Sequence:
#
# PCOD9343146 Si02
#       6
#     4   4   4   4   4   4
#     4   9  19  38  58  77 110 148 176 213 276 330
#     4  10  20  35  59  84 106 138 186 227 261 314
#     4   9  19  35  56  78 106 144 178 216 270 322
#     4   9  20  36  56  81 109 143 178 219 269 320
#     4   9  20  38  57  77 109 148 178 214 275 330
#     4  10  21  36  56  81 108 141 182 221 263 318
#
# _framework density 20.264755000000001
#
# number of rings (size 3 to 8) (size 9 to 14) (size 15 to 20)
#    0.000    2.667    0.000    1.500    4.667    3.333 
#    0.000    3.333    0.000    0.000    0.000    0.000 
#    0.000    0.000    0.000    0.000    0.000    0.000 
#
# Total GULP energy -133958.240775 kJ/mol
# GULP energy per Si atom -5581.593366 kJ/mol
# Density = 2.021863 g / cm^3
# Si number density = 20.264755 Si / 1000 Ang^3
#
#
#
# Elastic Constant Matrix: (Units=GPa)
#
#
# Indices 1 2 3 4 5 6 
#
# 1 24.3800 3.2575 1.8766 0.0000 0.0000 0.0000
# 2 3.2575 251.3045 135.6866 0.0000 0.0000 0.0000
# 3 1.8766 135.6866 212.8996 0.0000 0.0000 0.0000
# 4 0.0000 0.0000 0.0000 23.9155 0.0000 0.0000
# 5 0.0000 0.0000 0.0000 0.0000 28.5780 0.0000
# 6 0.0000 0.0000 0.0000 0.0000 0.0000 13.1218
#
#
#
# Elastic Compliance Matrix: (Units=1/GPa)
#
#
# Indices 1 2 3 4 5 6 
#
# 1 0.041089 -0.000514 -0.000035 0.000000 0.000000 0.000000
# 2 -0.000514 0.006073 -0.003866 0.000000 0.000000 0.000000
# 3 -0.000035 -0.003866 0.007161 0.000000 0.000000 0.000000
# 4 0.000000 0.000000 0.000000 0.041814 0.000000 0.000000
# 5 0.000000 0.000000 0.000000 0.000000 0.034992 0.000000
# 6 0.000000 0.000000 0.000000 0.000000 0.000000 0.076209
#
#
# Mechanical properties :
#
#
# Convention : Reuss Voigt Hill
#
# Bulk Modulus (GPa) = 21.98101 85.58062 53.78082
# Shear Modulus (GPa) = 21.61394 36.30728 28.96061
#
# Velocity S-wave (km/s) = 3.26939 4.23738 3.78446
# Velocity P-wave (km/s) = 5.01222 8.14023 6.75965
#
# Compressibility (1/GPa) = 0.04549381
#
# Stress axis : x y z
#
# Youngs Moduli (GPa) = 24.33769 164.65334 139.63792
#
# Poissons Ratio (x) = 0.08462 0.00484
# Poissons Ratio (y) = 0.01251 0.53987
# Poissons Ratio (z) = 0.00084 0.63658
#
# Static dielectric constant tensor:
#      x y z
#    x 1.747170 0.000000 0.000000 
#    y 0.000000 1.684030 0.000000 
#    z 0.000000 0.000000 1.674470 
# 
# From -- ./inp_files/3442.got.cif
#   From: 2010.05.17/outbox.cif.g08.bks.cpg/sg31_2_cif.got.tgz:3442.got - 2010.06.03 17:08:30.
