data_PCOD9343839
_publ_section_title
;
Structure prediction by ZEFSAII (Michael W. Deem and Ramdas Pophale) SiO2 
 PCOD9343839
Probable space group: P B A 2
;
_chemical_formula_sum "Si O2"
_cell_formula_units_Z 20
_cell_length_a 12.268516
_cell_length_b 13.269148
_cell_length_c 5.169269
_cell_angle_alpha 90.000000
_cell_angle_beta 90.000000
_cell_angle_gamma 90.000000
_cell_volume 841.519539
_symmetry_space_group_name_H-M "P B A 2"
_symmetry_group_IT_number 32
_symmetry_cell_setting 'orthorhombic'
loop_
_space_group_symop_operation_xyz
x,y,z
-x,-y,z
1/2-x,1/2+y,z
1/2+x,1/2-y,z
loop_
_atom_site_type_symbol
_atom_site_label
_atom_site_fract_x
_atom_site_fract_y
_atom_site_fract_z
Si Si1 0.339988 0.793245 0.522420
Si Si2 0.794668 0.254705 0.010159
Si Si3 0.949174 0.388005 0.312280
Si Si4 0.748183 0.982848 0.530749
Si Si5 0.376574 0.472971 0.014870
O O1 0.277196 0.753389 0.271123
O O2 0.465287 0.808958 0.435699
O O3 0.304296 0.907828 0.573812
O O4 0.292185 0.738259 0.775411
O O5 0.887216 0.338001 0.069006
O O6 0.856612 0.146872 0.987479
O O7 0.854103 0.409644 0.517723
O O8 0.000000 0.500000 0.251453
O O9 0.837415 0.974707 0.751749
O O10 0.803366 0.987391 0.250229
O O11 0.500000 0.500000 0.069884
#
# Coordination Sequence:
#
# PCOD9343839 Si02
#       5
#     4   4   4   4   4
#     4   9  21  40  61  89 132 172 215 280 345 401
#     4  10  22  40  61  94 132 171 223 281 346 419
#     4  10  22  43  70  99 134 182 236 294 349 413
#     4   9  20  37  61  92 124 168 227 273 325 408
#     4  10  20  38  62  92 131 173 216 272 341 411
#
# _framework density 23.766532999999999
#
# number of rings (size 3 to 8) (size 9 to 14) (size 15 to 20)
#    0.000    2.400    0.000    0.600    0.000    6.400 
#    0.000   17.000    0.000    0.000    0.000    0.000 
#    0.000    0.000    0.000    0.000    0.000    0.000 
#
# Total GULP energy -111774.412758 kJ/mol
# GULP energy per Si atom -5588.720638 kJ/mol
# Density = 2.371244 g / cm^3
# Si number density = 23.766533 Si / 1000 Ang^3
#
#
#
# Elastic Constant Matrix: (Units=GPa)
#
#
# Indices 1 2 3 4 5 6 
#
# 1 115.0825 46.9117 11.6038 0.0000 0.0000 0.0000
# 2 46.9117 123.1306 27.1846 0.0000 0.0000 0.0000
# 3 11.6038 27.1846 97.6020 0.0000 0.0000 0.0000
# 4 0.0000 0.0000 0.0000 369.5965 0.0000 0.0000
# 5 0.0000 0.0000 0.0000 0.0000 -136.3545 0.0000
# 6 0.0000 0.0000 0.0000 0.0000 0.0000 56.6376
#
#
#
# Elastic Compliance Matrix: (Units=1/GPa)
#
#
# Indices 1 2 3 4 5 6 
#
# 1 0.010289 -0.003889 -0.000140 0.000000 0.000000 0.000000
# 2 -0.003889 0.010124 -0.002357 0.000000 0.000000 0.000000
# 3 -0.000140 -0.002357 0.010919 0.000000 0.000000 0.000000
# 4 0.000000 0.000000 0.000000 0.002706 0.000000 0.000000
# 5 0.000000 0.000000 0.000000 0.000000 -0.007334 0.000000
# 6 0.000000 0.000000 0.000000 0.000000 0.000000 0.017656
#
#
# Mechanical properties :
#
#
# Convention : Reuss Voigt Hill
#
# Bulk Modulus (GPa) = 53.88346 56.35727 55.12037
# Shear Modulus (GPa) = 78.96608 74.65024 76.80816
#
# Velocity S-wave (km/s) = 5.77043 5.61053 5.69104
# Velocity P-wave (km/s) = 8.19258 8.10771 8.15026
#
# Compressibility (1/GPa) = 0.01855857
#
# Stress axis : x y z
#
# Youngs Moduli (GPa) = 97.19250 98.77910 91.58420
#
# Poissons Ratio (x) = 0.38416 0.01283
# Poissons Ratio (y) = 0.37799 0.21589
# Poissons Ratio (z) = 0.01361 0.23285
#
# Static dielectric constant tensor:
#      x y z
#    x 1.905750 0.000000 0.000000 
#    y 0.000000 1.993130 0.000000 
#    z 0.000000 0.000000 1.895320 
# 
# From -- ./inp_files/797.got.cif
#   From: 2010.05.17/outbox.cif.g08.bks.cpg/sg32_1_cif.got.tgz:797.got - 2010.06.03 17:12:27.
