data_PCOD9343632
_publ_section_title
;
Structure prediction by ZEFSAII (Michael W. Deem and Ramdas Pophale) SiO2 
 PCOD9343632
Probable space group: P B A 2
;
_chemical_formula_sum "Si O2"
_cell_formula_units_Z 26
_cell_length_a 13.097473
_cell_length_b 15.307081
_cell_length_c 5.191362
_cell_angle_alpha 90.000000
_cell_angle_beta 90.000000
_cell_angle_gamma 90.000000
_cell_volume 1040.785435
_symmetry_space_group_name_H-M "P B A 2"
_symmetry_group_IT_number 32
_symmetry_cell_setting 'orthorhombic'
loop_
_space_group_symop_operation_xyz
x,y,z
-x,-y,z
1/2-x,1/2+y,z
1/2+x,1/2-y,z
loop_
_atom_site_type_symbol
_atom_site_label
_atom_site_fract_x
_atom_site_fract_y
_atom_site_fract_z
Si Si1 0.921781 0.252746 0.692890
Si Si2 0.658933 0.469542 0.164616
Si Si3 0.310397 0.882423 0.026136
Si Si4 0.000000 0.500000 0.120733
Si Si5 0.934247 0.899221 0.658299
Si Si6 0.852555 0.716789 0.546915
Si Si7 0.146588 0.654112 0.214899
O O1 0.958355 0.152238 0.673235
O O2 0.029249 0.301763 0.629024
O O3 0.850535 0.282104 0.458919
O O4 0.885570 0.288507 0.967391
O O5 0.715891 0.560733 0.124425
O O6 0.595264 0.461653 0.424739
O O7 0.749159 0.397081 0.166695
O O8 0.589711 0.444247 0.924909
O O9 0.407025 0.947970 0.984351
O O10 0.338309 0.813850 0.253234
O O11 0.287710 0.835965 0.756467
O O12 0.063379 0.576689 0.261092
O O13 0.855058 0.819091 0.610305
#
# Coordination Sequence:
#
# PCOD9343632 Si02
#       7
#     4   4   4   2   4   4   4
#     4  10  19  33  51  64  95 139 184 183 226 306
#     4  11  22  32  48  78 114 124 160 225 258 270
#     4  11  20  30  47  76  99 135 167 200 234 303
#     4  10  16  28  40  66 104 132 144 184 236 278
#     4  10  20  36  50  66 102 148 164 206 252 286
#     4  10  19  33  51  64  95 139 184 183 226 306
#     4  11  20  30  47  76  99 135 167 200 234 303
#
# _framework density 24.981134000000001
#
# number of rings (size 3 to 8) (size 9 to 14) (size 15 to 20)
#    0.923    0.615    3.077    3.692    0.000    4.923 
#    0.000    0.000    0.000    0.000    0.000    0.000 
#    0.000   86.154    0.000    0.000    0.000    0.000 
#
# Total GULP energy -145427.298838 kJ/mol
# GULP energy per Si atom -5593.357648 kJ/mol
# Density = 2.492428 g / cm^3
# Si number density = 24.981134 Si / 1000 Ang^3
#
#
#
# Elastic Constant Matrix: (Units=GPa)
#
#
# Indices 1 2 3 4 5 6 
#
# 1 105.5887 36.5507 19.3145 0.0000 0.0000 0.0000
# 2 36.5507 100.9290 26.0575 0.0000 0.0000 0.0000
# 3 19.3145 26.0575 130.6339 0.0000 0.0000 0.0000
# 4 0.0000 0.0000 0.0000 41.7641 0.0000 0.0000
# 5 0.0000 0.0000 0.0000 0.0000 58.7825 0.0000
# 6 0.0000 0.0000 0.0000 0.0000 0.0000 53.2803
#
#
#
# Elastic Compliance Matrix: (Units=1/GPa)
#
#
# Indices 1 2 3 4 5 6 
#
# 1 0.010921 -0.003730 -0.000871 0.000000 0.000000 0.000000
# 2 -0.003730 0.011720 -0.001786 0.000000 0.000000 0.000000
# 3 -0.000871 -0.001786 0.008140 0.000000 0.000000 0.000000
# 4 0.000000 0.000000 0.000000 0.023944 0.000000 0.000000
# 5 0.000000 0.000000 0.000000 0.000000 0.017012 0.000000
# 6 0.000000 0.000000 0.000000 0.000000 0.000000 0.018769
#
#
# Mechanical properties :
#
#
# Convention : Reuss Voigt Hill
#
# Bulk Modulus (GPa) = 55.53423 55.66633 55.60028
# Shear Modulus (GPa) = 45.75298 47.78064 46.76681
#
# Velocity S-wave (km/s) = 4.28425 4.37815 4.33145
# Velocity P-wave (km/s) = 6.83753 6.92021 6.87899
#
# Compressibility (1/GPa) = 0.01800691
#
# Stress axis : x y z
#
# Youngs Moduli (GPa) = 91.56459 85.32405 122.84991
#
# Poissons Ratio (x) = 0.31828 0.10696
# Poissons Ratio (y) = 0.34156 0.21944
# Poissons Ratio (z) = 0.07972 0.15241
#
# Static dielectric constant tensor:
#      x y z
#    x 2.101670 0.000000 0.000000 
#    y 0.000000 1.967920 0.000000 
#    z 0.000000 0.000000 1.886890 
# 
# From -- ./inp_files/1499.got.cif
#   From: 2010.05.17/outbox.cif.g08.bks.cpg/sg32_1_cif.got.tgz:1499.got - 2010.06.03 17:12:27.
