data_PCOD9343740
_publ_section_title
;
Structure prediction by ZEFSAII (Michael W. Deem and Ramdas Pophale) SiO2 
 PCOD9343740
Probable space group: P B A 2
;
_chemical_formula_sum "Si O2"
_cell_formula_units_Z 20
_cell_length_a 12.924069
_cell_length_b 12.091907
_cell_length_c 5.129723
_cell_angle_alpha 90.000000
_cell_angle_beta 90.000000
_cell_angle_gamma 90.000000
_cell_volume 801.655877
_symmetry_space_group_name_H-M "P B A 2"
_symmetry_group_IT_number 32
_symmetry_cell_setting 'orthorhombic'
loop_
_space_group_symop_operation_xyz
x,y,z
-x,-y,z
1/2-x,1/2+y,z
1/2+x,1/2-y,z
loop_
_atom_site_type_symbol
_atom_site_label
_atom_site_fract_x
_atom_site_fract_y
_atom_site_fract_z
Si Si1 0.388969 0.942053 0.180830
Si Si2 0.483018 0.631725 0.366503
Si Si3 0.593428 0.632970 0.859787
Si Si4 0.692445 0.410269 0.015479
Si Si5 0.178286 0.305982 0.695750
O O1 0.359634 0.865934 0.430030
O O2 0.500000 0.000000 0.217433
O O3 0.387264 0.864533 0.926209
O O4 0.297234 0.031697 0.116048
O O5 0.500000 0.500000 0.398703
O O6 0.512534 0.677387 0.647088
O O7 0.561062 0.676494 0.144229
O O8 0.368119 0.644113 0.257768
O O9 0.611077 0.502766 0.916986
O O10 0.703207 0.656234 0.733884
O O11 0.697624 0.321192 0.787572
#
# Coordination Sequence:
#
# PCOD9343740 Si02
#       5
#     4   4   4   4   4
#     4  11  26  48  69 101 151 195 239 307 372 443
#     4  10  19  36  61  91 127 168 216 291 361 404
#     4  10  21  39  62  94 135 172 222 303 366 413
#     4  10  24  43  70 102 140 187 248 300 361 458
#     4  11  24  44  71 102 137 194 247 291 371 452
#
# _framework density 24.948357999999999
#
# number of rings (size 3 to 8) (size 9 to 14) (size 15 to 20)
#    0.000    1.600    0.000    6.000    0.000   11.200 
#    0.000   10.000    0.000    0.000    0.000    0.000 
#    0.000    0.000    0.000    0.000    0.000    0.000 
#
# Total GULP energy -111681.313268 kJ/mol
# GULP energy per Si atom -5584.065663 kJ/mol
# Density = 2.489157 g / cm^3
# Si number density = 24.948358 Si / 1000 Ang^3
#
#
#
# Elastic Constant Matrix: (Units=GPa)
#
#
# Indices 1 2 3 4 5 6 
#
# 1 152.2740 64.6941 73.8275 0.0000 0.0000 0.0000
# 2 64.6941 116.5843 64.0295 0.0000 0.0000 0.0000
# 3 73.8275 64.0295 230.3115 0.0000 0.0000 0.0000
# 4 0.0000 0.0000 0.0000 29.6424 0.0000 0.0000
# 5 0.0000 0.0000 0.0000 0.0000 33.2715 0.0000
# 6 0.0000 0.0000 0.0000 0.0000 0.0000 -1.1713
#
#
#
# Elastic Compliance Matrix: (Units=1/GPa)
#
#
# Indices 1 2 3 4 5 6 
#
# 1 0.009186 -0.004107 -0.001803 0.000000 0.000000 0.000000
# 2 -0.004107 0.011960 -0.002008 0.000000 0.000000 0.000000
# 3 -0.001803 -0.002008 0.005478 0.000000 0.000000 0.000000
# 4 0.000000 0.000000 0.000000 0.033735 0.000000 0.000000
# 5 0.000000 0.000000 0.000000 0.000000 0.030056 0.000000
# 6 0.000000 0.000000 0.000000 0.000000 0.000000 -0.853752
#
#
# Mechanical properties :
#
#
# Convention : Reuss Voigt Hill
#
# Bulk Modulus (GPa) = 92.70330 100.47467 96.58899
# Shear Modulus (GPa) = -6.72130 32.12310 12.70090
#
# Velocity S-wave (km/s) = -1.64315 3.59218 2.25874
# Velocity P-wave (km/s) = 5.79990 7.58720 6.75294
#
# Compressibility (1/GPa) = 0.01078710
#
# Stress axis : x y z
#
# Youngs Moduli (GPa) = 108.85880 83.61389 182.54291
#
# Poissons Ratio (x) = 0.34344 0.32908
# Poissons Ratio (y) = 0.44713 0.36660
# Poissons Ratio (z) = 0.19625 0.16792
#
# Static dielectric constant tensor:
#      x y z
#    x 2.076170 0.000000 0.000000 
#    y 0.000000 1.479360 0.000000 
#    z 0.000000 0.000000 2.025500 
# 
# From -- ./inp_files/1163.got.cif
#   From: 2010.05.17/outbox.cif.g08.bks.cpg/sg32_1_cif.got.tgz:1163.got - 2010.06.03 17:12:27.
