data_PCOD9343483
_publ_section_title
;
Structure prediction by ZEFSAII (Michael W. Deem and Ramdas Pophale) SiO2 
 PCOD9343483
Probable space group: P M N 21
;
_chemical_formula_sum "Si O2"
_cell_formula_units_Z 20
_cell_length_a 9.785630
_cell_length_b 7.990936
_cell_length_c 10.425790
_cell_angle_alpha 90.000000
_cell_angle_beta 90.000000
_cell_angle_gamma 90.000000
_cell_volume 815.258651
_symmetry_space_group_name_H-M "P M N 21"
_symmetry_group_IT_number 31
_symmetry_cell_setting 'orthorhombic'
loop_
_space_group_symop_operation_xyz
x,y,z
1/2-x,-y,1/2+z
-x,y,z
1/2+x,-y,1/2+z
loop_
_atom_site_type_symbol
_atom_site_label
_atom_site_fract_x
_atom_site_fract_y
_atom_site_fract_z
Si Si1 0.000000 0.054924 0.922820
Si Si2 0.219300 0.136009 0.414495
Si Si3 0.500000 0.292569 0.055598
Si Si4 0.000000 0.885683 0.304293
Si Si5 0.500000 0.898580 0.121052
Si Si6 0.000000 0.615366 0.120880
Si Si7 0.728745 0.449897 0.229980
Si Si8 0.500000 0.599111 0.390778
O O1 0.000000 0.114393 0.772794
O O2 0.137311 0.951864 0.942709
O O3 0.000000 0.240356 0.984675
O O4 0.129456 0.000822 0.335523
O O5 0.236846 0.298391 0.326797
O O6 0.131758 0.169887 0.543700
O O7 0.632456 0.379703 0.115886
O O8 0.500000 0.099224 0.099758
O O9 0.500000 0.271861 0.903011
O O10 0.000000 0.805982 0.165864
O O11 0.864319 0.530680 0.175967
O O12 0.000000 0.573157 0.971795
O O13 0.636373 0.582411 0.306807
#
# Coordination Sequence:
#
# PCOD9343483 Si02
#       8
#     2   4   2   2   2   2   4   2
#     4  12  22  42  69  98 136 184 231 276 335 410
#     4  10  22  41  72  98 130 177 238 272 341 394
#     4   9  20  43  69  90 134 178 216 274 339 386
#     4  10  24  45  65 103 129 180 223 276 337 408
#     4  10  22  41  67 102 130 177 221 289 334 384
#     4  12  27  42  71  99 140 177 223 277 338 411
#     4  11  23  46  64  98 138 174 223 285 328 403
#     4  11  29  43  63 104 137 182 220 268 359 401
#
# _framework density 24.532093
#
# number of rings (size 3 to 8) (size 9 to 14) (size 15 to 20)
#    0.000    1.600    2.000    3.000    8.400    3.200 
#    3.600    4.000    0.000    0.000    0.000    0.000 
#    0.000    0.000    0.000    0.000    0.000    0.000 
#
# Total GULP energy -112125.723347 kJ/mol
# GULP energy per Si atom -5606.286167 kJ/mol
# Density = 2.447626 g / cm^3
# Si number density = 24.532093 Si / 1000 Ang^3
#
#
#
# Elastic Constant Matrix: (Units=GPa)
#
#
# Indices 1 2 3 4 5 6 
#
# 1 205.9342 42.3280 46.8421 0.0000 0.0000 0.0000
# 2 42.3280 62.6616 13.6208 0.0000 0.0000 0.0000
# 3 46.8421 13.6208 80.8657 0.0000 0.0000 0.0000
# 4 0.0000 0.0000 0.0000 32.8880 0.0000 0.0000
# 5 0.0000 0.0000 0.0000 0.0000 50.7638 0.0000
# 6 0.0000 0.0000 0.0000 0.0000 0.0000 16.1250
#
#
#
# Elastic Compliance Matrix: (Units=1/GPa)
#
#
# Indices 1 2 3 4 5 6 
#
# 1 0.006283 -0.003584 -0.003036 0.000000 0.000000 0.000000
# 2 -0.003584 0.018610 -0.001058 0.000000 0.000000 0.000000
# 3 -0.003036 -0.001058 0.014303 0.000000 0.000000 0.000000
# 4 0.000000 0.000000 0.000000 0.030406 0.000000 0.000000
# 5 0.000000 0.000000 0.000000 0.000000 0.019699 0.000000
# 6 0.000000 0.000000 0.000000 0.000000 0.000000 0.062016
#
#
# Mechanical properties :
#
#
# Convention : Reuss Voigt Hill
#
# Bulk Modulus (GPa) = 41.94793 61.67148 51.80971
# Shear Modulus (GPa) = 28.63350 36.40006 32.51678
#
# Velocity S-wave (km/s) = 3.42012 3.85616 3.64466
# Velocity P-wave (km/s) = 5.72124 6.70971 6.23510
#
# Compressibility (1/GPa) = 0.02383908
#
# Stress axis : x y z
#
# Youngs Moduli (GPa) = 159.15455 53.73434 69.91553
#
# Poissons Ratio (x) = 0.19261 0.21225
# Poissons Ratio (y) = 0.57048 0.07399
# Poissons Ratio (z) = 0.48317 0.05687
#
# Static dielectric constant tensor:
#      x y z
#    x 1.749030 0.000000 0.000000 
#    y 0.000000 1.959780 0.000000 
#    z 0.000000 0.000000 2.025540 
# 
# From -- ./inp_files/3424.got.cif
#   From: 2010.05.17/outbox.cif.g08.bks.cpg/sg31_2_cif.got.tgz:3424.got - 2010.06.03 17:08:30.
