data_PCOD9343832
_publ_section_title
;
Structure prediction by ZEFSAII (Michael W. Deem and Ramdas Pophale) SiO2 
 PCOD9343832
Probable space group: P B A 2
;
_chemical_formula_sum "Si O2"
_cell_formula_units_Z 24
_cell_length_a 17.123717
_cell_length_b 8.225784
_cell_length_c 7.879829
_cell_angle_alpha 90.000000
_cell_angle_beta 90.000000
_cell_angle_gamma 90.000000
_cell_volume 1109.921172
_symmetry_space_group_name_H-M "P B A 2"
_symmetry_group_IT_number 32
_symmetry_cell_setting 'orthorhombic'
loop_
_space_group_symop_operation_xyz
x,y,z
-x,-y,z
1/2-x,1/2+y,z
1/2+x,1/2-y,z
loop_
_atom_site_type_symbol
_atom_site_label
_atom_site_fract_x
_atom_site_fract_y
_atom_site_fract_z
Si Si1 0.371875 0.900771 0.664160
Si Si2 0.724756 0.789526 0.548392
Si Si3 0.629053 0.115152 0.042069
Si Si4 0.380428 0.418578 0.355842
Si Si5 0.735837 0.402464 0.162956
Si Si6 0.965662 0.731831 0.356884
O O1 0.303258 0.765983 0.640786
O O2 0.436242 0.865356 0.521019
O O3 0.327174 0.070393 0.630898
O O4 0.403972 0.892811 0.853795
O O5 0.671426 0.630014 0.517662
O O6 0.746718 0.843270 0.355647
O O7 0.687485 0.269260 0.061468
O O8 0.684895 0.962463 0.079344
O O9 0.567040 0.142368 0.191052
O O10 0.322834 0.445303 0.196566
O O11 0.443780 0.275947 0.340099
O O12 0.423771 0.591106 0.370682
#
# Coordination Sequence:
#
# PCOD9343832 Si02
#       6
#     4   4   4   4   4   4
#     4  12  22  37  62  88 121 157 198 250 296 356
#     4  12  19  38  64  88 115 156 204 245 296 347
#     4  11  22  37  60  88 119 155 197 246 296 348
#     4  10  20  37  67  85 114 165 194 242 309 346
#     4  11  18  38  62  85 114 151 203 246 290 347
#     4  10  21  41  60  86 125 155 197 243 299 369
#
# _framework density 21.623159999999999
#
# number of rings (size 3 to 8) (size 9 to 14) (size 15 to 20)
#    0.000    1.000    8.333    1.000    0.000    0.667 
#    0.000    8.333    3.667    0.000    0.000    0.000 
#    0.000    0.000    0.000    0.000    0.000    0.000 
#
# Total GULP energy -134145.213851 kJ/mol
# GULP energy per Si atom -5589.383910 kJ/mol
# Density = 2.157394 g / cm^3
# Si number density = 21.623160 Si / 1000 Ang^3
#
#
#
# Elastic Constant Matrix: (Units=GPa)
#
#
# Indices 1 2 3 4 5 6 
#
# 1 66.3866 5.8028 19.6725 0.0000 0.0000 0.0000
# 2 5.8028 76.4362 20.4330 0.0000 0.0000 0.0000
# 3 19.6725 20.4330 148.4256 0.0000 0.0000 0.0000
# 4 0.0000 0.0000 0.0000 19.1435 0.0000 0.0000
# 5 0.0000 0.0000 0.0000 0.0000 -2.7975 0.0000
# 6 0.0000 0.0000 0.0000 0.0000 0.0000 43.6211
#
#
#
# Elastic Compliance Matrix: (Units=1/GPa)
#
#
# Indices 1 2 3 4 5 6 
#
# 1 0.015711 -0.000660 -0.001991 0.000000 0.000000 0.000000
# 2 -0.000660 0.013610 -0.001786 0.000000 0.000000 0.000000
# 3 -0.001991 -0.001786 0.007247 0.000000 0.000000 0.000000
# 4 0.000000 0.000000 0.000000 0.052237 0.000000 0.000000
# 5 0.000000 0.000000 0.000000 0.000000 -0.357456 0.000000
# 6 0.000000 0.000000 0.000000 0.000000 0.000000 0.022925
#
#
# Mechanical properties :
#
#
# Convention : Reuss Voigt Hill
#
# Bulk Modulus (GPa) = 36.11045 42.56275 39.33660
# Shear Modulus (GPa) = -21.96653 28.34943 3.19145
#
# Velocity S-wave (km/s) = -3.19074 3.62480 1.21620
# Velocity P-wave (km/s) = 1.77811 6.10291 4.49484
#
# Compressibility (1/GPa) = 0.02769282
#
# Stress axis : x y z
#
# Youngs Moduli (GPa) = 63.64911 73.47313 137.98391
#
# Poissons Ratio (x) = 0.04852 0.27479
# Poissons Ratio (y) = 0.04203 0.24646
# Poissons Ratio (z) = 0.12675 0.13123
#
# Static dielectric constant tensor:
#      x y z
#    x 1.808990 0.000000 0.000000 
#    y 0.000000 1.864710 0.000000 
#    z 0.000000 0.000000 1.739990 
# 
# From -- ./inp_files/2394.got.cif
#   From: 2010.05.17/outbox.cif.g08.bks.cpg/sg32_2_cif.got.tgz:2394.got - 2010.06.03 17:12:27.
