data_PCOD9343554
_publ_section_title
;
Structure prediction by ZEFSAII (Michael W. Deem and Ramdas Pophale) SiO2 
 PCOD9343554
Probable space group: P M N 21
;
_chemical_formula_sum "Si O2"
_cell_formula_units_Z 32
_cell_length_a 13.916910
_cell_length_b 12.106154
_cell_length_c 7.845620
_cell_angle_alpha 90.000000
_cell_angle_beta 90.000000
_cell_angle_gamma 90.000000
_cell_volume 1321.832063
_symmetry_space_group_name_H-M "P M N 21"
_symmetry_group_IT_number 31
_symmetry_cell_setting 'orthorhombic'
loop_
_space_group_symop_operation_xyz
x,y,z
1/2-x,-y,1/2+z
-x,y,z
1/2+x,-y,1/2+z
loop_
_atom_site_type_symbol
_atom_site_label
_atom_site_fract_x
_atom_site_fract_y
_atom_site_fract_z
Si Si1 0.115733 0.270278 0.146300
Si Si2 0.781721 0.747096 0.065512
Si Si3 0.391363 0.059929 0.421527
Si Si4 0.754542 0.448274 0.327733
Si Si5 0.885516 0.592275 0.553576
Si Si6 0.114998 0.816722 0.410630
Si Si7 0.113387 0.171629 0.775154
Si Si8 0.109304 0.042485 0.304536
O O1 0.175918 0.373888 0.209105
O O2 0.143537 0.165047 0.262644
O O3 0.000000 0.286336 0.160084
O O4 0.136111 0.235642 0.951161
O O5 0.825554 0.834354 0.932966
O O6 0.844537 0.764864 0.236063
O O7 0.675507 0.780137 0.124741
O O8 0.779270 0.626868 0.986138
O O9 0.500000 0.092075 0.374747
O O10 0.362917 0.957533 0.303424
O O11 0.393895 0.010505 0.614021
O O12 0.820735 0.544597 0.400586
O O13 0.658420 0.467888 0.218907
O O14 0.868109 0.725116 0.555131
O O15 0.000000 0.573929 0.533362
O O16 0.000000 0.826103 0.394015
O O17 0.152927 0.943393 0.419497
O O18 0.000000 0.180307 0.748188
O O19 0.000000 0.057821 0.367252
#
# Coordination Sequence:
#
# PCOD9343554 Si02
#       8
#     4   4   4   4   4   4   4   4
#     4   9  18  36  63  95 133 174 215 264 323 388
#     4  11  21  34  61  92 124 163 212 270 323 379
#     4   8  16  32  53  82 123 167 205 241 296 376
#     4  12  26  44  65  94 126 165 221 278 338 404
#     4  11  26  48  71  95 129 173 224 283 338 397
#     4   9  18  37  65  94 127 169 213 257 312 379
#     4   9  19  36  58  88 130 175 214 258 317 385
#     4   7  12  27  55  90 126 162 199 243 302 374
#
# _framework density 24.208824
#
# number of rings (size 3 to 8) (size 9 to 14) (size 15 to 20)
#    0.000    2.500    0.000    4.500    0.000    5.000 
#    0.000    5.000    0.000    6.000    0.000    0.000 
#    0.000    0.000    0.000    0.000    0.000    0.000 
#
# Total GULP energy -178952.255666 kJ/mol
# GULP energy per Si atom -5592.257990 kJ/mol
# Density = 2.415372 g / cm^3
# Si number density = 24.208824 Si / 1000 Ang^3
#
#
#
# Elastic Constant Matrix: (Units=GPa)
#
#
# Indices 1 2 3 4 5 6 
#
# 1 99.6425 14.0796 18.6614 0.0000 0.0000 0.0000
# 2 14.0796 62.6276 11.7358 0.0000 0.0000 0.0000
# 3 18.6614 11.7358 82.5416 0.0000 0.0000 0.0000
# 4 0.0000 0.0000 0.0000 5.9530 0.0000 0.0000
# 5 0.0000 0.0000 0.0000 0.0000 29.5531 0.0000
# 6 0.0000 0.0000 0.0000 0.0000 0.0000 29.0160
#
#
#
# Elastic Compliance Matrix: (Units=1/GPa)
#
#
# Indices 1 2 3 4 5 6 
#
# 1 0.010720 -0.002009 -0.002138 0.000000 0.000000 0.000000
# 2 -0.002009 0.016781 -0.001932 0.000000 0.000000 0.000000
# 3 -0.002138 -0.001932 0.012873 0.000000 0.000000 0.000000
# 4 0.000000 0.000000 0.000000 0.167981 0.000000 0.000000
# 5 0.000000 0.000000 0.000000 0.000000 0.033837 0.000000
# 6 0.000000 0.000000 0.000000 0.000000 0.000000 0.034464
#
#
# Mechanical properties :
#
#
# Convention : Reuss Voigt Hill
#
# Bulk Modulus (GPa) = 35.44043 37.08502 36.26273
# Shear Modulus (GPa) = 16.76612 26.26009 21.51310
#
# Velocity S-wave (km/s) = 2.63451 3.29710 2.98425
# Velocity P-wave (km/s) = 4.89137 5.46320 5.18517
#
# Compressibility (1/GPa) = 0.02821636
#
# Stress axis : x y z
#
# Youngs Moduli (GPa) = 93.28166 59.59074 77.68130
#
# Poissons Ratio (x) = 0.11974 0.16608
# Poissons Ratio (y) = 0.18744 0.15005
# Poissons Ratio (z) = 0.19943 0.11511
#
# Static dielectric constant tensor:
#      x y z
#    x 1.912690 0.000000 0.000000 
#    y 0.000000 2.033410 0.000000 
#    z 0.000000 0.000000 1.978240 
# 
# From -- ./inp_files/2599.got.cif
#   From: 2010.05.17/outbox.cif.g08.bks.cpg/sg31_2_cif.got.tgz:2599.got - 2010.06.03 17:08:30.
