data_PCOD9343326
_publ_section_title
;
Structure prediction by ZEFSAII (Michael W. Deem and Ramdas Pophale) SiO2 
 PCOD9343326
Probable space group: P M N 21
;
_chemical_formula_sum "Si O2"
_cell_formula_units_Z 16
_cell_length_a 10.088889
_cell_length_b 12.031253
_cell_length_c 5.299903
_cell_angle_alpha 90.000000
_cell_angle_beta 90.000000
_cell_angle_gamma 90.000000
_cell_volume 643.312699
_symmetry_space_group_name_H-M "P M N 21"
_symmetry_group_IT_number 31
_symmetry_cell_setting 'orthorhombic'
loop_
_space_group_symop_operation_xyz
x,y,z
1/2-x,-y,1/2+z
-x,y,z
1/2+x,-y,1/2+z
loop_
_atom_site_type_symbol
_atom_site_label
_atom_site_fract_x
_atom_site_fract_y
_atom_site_fract_z
Si Si1 0.137774 0.923317 0.013540
Si Si2 0.359491 0.265284 0.163759
Si Si3 0.839156 0.529385 0.984549
Si Si4 0.353370 0.828007 0.358660
O O1 0.266974 0.870911 0.129017
O O2 0.000000 0.889748 0.147622
O O3 0.129917 0.863662 0.743461
O O4 0.137646 0.055597 0.011625
O O5 0.500000 0.301173 0.044201
O O6 0.346870 0.339664 0.412861
O O7 0.227580 0.267116 0.000732
O O8 0.749213 0.489234 0.738733
O O9 0.000000 0.494811 0.997183
O O10 0.500000 0.791806 0.290675
#
# Coordination Sequence:
#
# PCOD9343326 Si02
#       4
#     4   4   4   4
#     4  10  21  37  57  85 125 169 211 255 315 394
#     4  10  23  43  65  88 124 173 214 260 334 406
#     4  11  26  49  76 104 138 182 234 296 359 418
#     4  11  22  35  58  91 125 164 211 265 316 378
#
# _framework density 24.871264
#
# number of rings (size 3 to 8) (size 9 to 14) (size 15 to 20)
#    0.000    1.500    2.500    1.500    3.500    4.000 
#    0.000    0.000    0.000    0.000    0.000    0.000 
#    0.000    0.000    0.000    0.000    0.000    0.000 
#
# Total GULP energy -89112.124155 kJ/mol
# GULP energy per Si atom -5569.507760 kJ/mol
# Density = 2.481466 g / cm^3
# Si number density = 24.871264 Si / 1000 Ang^3
#
#
#
# Elastic Constant Matrix: (Units=GPa)
#
#
# Indices 1 2 3 4 5 6 
#
# 1 278.6311 24.6803 76.1180 0.0000 0.0000 0.0000
# 2 24.6803 71.0069 15.1229 0.0000 0.0000 0.0000
# 3 76.1180 15.1229 85.4457 0.0000 0.0000 0.0000
# 4 0.0000 0.0000 0.0000 52.8072 0.0000 0.0000
# 5 0.0000 0.0000 0.0000 0.0000 30.2757 0.0000
# 6 0.0000 0.0000 0.0000 0.0000 0.0000 32.3263
#
#
#
# Elastic Compliance Matrix: (Units=1/GPa)
#
#
# Indices 1 2 3 4 5 6 
#
# 1 0.004785 -0.000785 -0.004124 0.000000 0.000000 0.000000
# 2 -0.000785 0.014764 -0.001914 0.000000 0.000000 0.000000
# 3 -0.004124 -0.001914 0.015716 0.000000 0.000000 0.000000
# 4 0.000000 0.000000 0.000000 0.018937 0.000000 0.000000
# 5 0.000000 0.000000 0.000000 0.000000 0.033030 0.000000
# 6 0.000000 0.000000 0.000000 0.000000 0.000000 0.030935
#
#
# Mechanical properties :
#
#
# Convention : Reuss Voigt Hill
#
# Bulk Modulus (GPa) = 46.25479 74.10291 60.17885
# Shear Modulus (GPa) = 35.96687 44.35932 40.16309
#
# Velocity S-wave (km/s) = 3.80692 4.22780 4.02287
# Velocity P-wave (km/s) = 6.16129 7.32746 6.76953
#
# Compressibility (1/GPa) = 0.02161938
#
# Stress axis : x y z
#
# Youngs Moduli (GPa) = 208.98402 67.73441 63.63082
#
# Poissons Ratio (x) = 0.05316 0.26240
# Poissons Ratio (y) = 0.16403 0.12177
# Poissons Ratio (z) = 0.86180 0.12963
#
# Static dielectric constant tensor:
#      x y z
#    x 2.106050 0.000000 0.000000 
#    y 0.000000 1.986210 0.000000 
#    z 0.000000 0.000000 2.005620 
# 
# From -- ./inp_files/296.got.cif
#   From: 2010.05.17/outbox.cif.g08.bks.cpg/sg31_1_cif.got.tgz:296.got - 2010.06.03 17:08:30.
