data_PCOD9343607
_publ_section_title
;
Structure prediction by ZEFSAII (Michael W. Deem and Ramdas Pophale) SiO2 
 PCOD9343607
Probable space group: P M N 21
;
_chemical_formula_sum "Si O2"
_cell_formula_units_Z 32
_cell_length_a 9.000000
_cell_length_b 12.000000
_cell_length_c 15.000000
_cell_angle_alpha 90.000000
_cell_angle_beta 90.000000
_cell_angle_gamma 90.000000
_cell_volume 1620.000000
_symmetry_space_group_name_H-M "P M N 21"
_symmetry_group_IT_number 31
_symmetry_cell_setting 'orthorhombic'
loop_
_space_group_symop_operation_xyz
x,y,z
1/2-x,-y,1/2+z
-x,y,z
1/2+x,-y,1/2+z
loop_
_atom_site_type_symbol
_atom_site_label
_atom_site_fract_x
_atom_site_fract_y
_atom_site_fract_z
Si Si1 0.324796 0.211327 0.750000
Si Si2 0.170419 0.772854 0.929082
Si Si3 0.825731 0.342152 0.588778
Si Si4 0.825634 0.420058 0.088789
Si Si5 0.174343 0.007695 0.001303
Si Si6 0.176339 0.997077 0.687230
Si Si7 0.325696 0.258604 0.224660
Si Si8 0.175149 0.251609 0.926485
O O1 0.500000 0.205042 0.743349
O O2 0.258575 0.276476 0.666412
O O3 0.272055 0.270916 0.839656
O O4 0.256555 0.087217 0.748454
O O5 0.186401 0.727111 0.830208
O O6 0.000000 0.751219 0.959459
O O7 0.282289 0.716598 0.996624
O O8 0.188669 0.906878 0.931481
O O9 0.768642 0.468168 0.585951
O O10 0.000000 0.336883 0.605323
O O11 0.773417 0.343881 0.170584
O O12 0.000000 0.446972 0.095229
O O13 0.802442 0.344549 0.001214
O O14 0.000000 0.011460 0.028511
O O15 0.273360 0.978513 0.086362
O O16 0.213377 0.129493 0.965401
O O17 0.217726 0.869026 0.704515
O O18 0.000000 0.008194 0.698609
O O19 0.500000 0.271514 0.199324
O O20 0.000000 0.249033 0.902771
#
# Coordination Sequence:
#
# PCOD9343607 Si02
#       8
#     4   4   4   4   4   4   4   4
#     4  12  25  41  64  93 126 165 210 260 311 368
#     4  10  21  39  64  92 126 165 204 249 305 369
#     4  12  26  44  65  89 121 162 209 264 314 368
#     4  11  24  43  67  92 122 163 208 258 310 368
#     4  10  19  36  63  93 128 167 201 245 307 372
#     4  11  21  36  62  95 130 166 204 249 309 371
#     4  10  22  40  64  94 129 167 204 250 305 367
#     4  10  22  41  65  94 128 165 204 251 311 373
#
# _framework density 19.753086
#
# number of rings (size 3 to 8) (size 9 to 14) (size 15 to 20)
#    0.000    1.250    2.500    3.750    0.000    5.500 
#    0.000    2.500    0.000    0.000    0.000    0.000 
#    0.000    0.000    0.000    0.000    0.000    0.000 
#
# Total GULP energy -178915.063041 kJ/mol
# GULP energy per Si atom -5591.095720 kJ/mol
# Density = 1.970813 g / cm^3
# Si number density = 19.753086 Si / 1000 Ang^3
#
#
#
# Elastic Constant Matrix: (Units=GPa)
#
#
# Indices 1 2 3 4 5 6 
#
# 1 52.5560 34.4959 29.7493 0.0000 0.0000 0.0000
# 2 34.4959 76.3072 14.9809 0.0000 0.0000 0.0000
# 3 29.7493 14.9809 48.5629 0.0000 0.0000 0.0000
# 4 0.0000 0.0000 0.0000 -12.0680 0.0000 0.0000
# 5 0.0000 0.0000 0.0000 0.0000 29.1006 0.0000
# 6 0.0000 0.0000 0.0000 0.0000 0.0000 34.6312
#
#
#
# Elastic Compliance Matrix: (Units=1/GPa)
#
#
# Indices 1 2 3 4 5 6 
#
# 1 0.039386 -0.013911 -0.019837 0.000000 0.000000 0.000000
# 2 -0.013911 0.018863 0.002703 0.000000 0.000000 0.000000
# 3 -0.019837 0.002703 0.031910 0.000000 0.000000 0.000000
# 4 0.000000 0.000000 0.000000 -0.082864 0.000000 0.000000
# 5 0.000000 0.000000 0.000000 0.000000 0.034364 0.000000
# 6 0.000000 0.000000 0.000000 0.000000 0.000000 0.028876
#
#
# Mechanical properties :
#
#
# Convention : Reuss Voigt Hill
#
# Bulk Modulus (GPa) = 35.62539 37.31982 36.47260
# Shear Modulus (GPa) = 35.21605 16.87942 26.04773
#
# Velocity S-wave (km/s) = 4.22692 2.92639 3.63528
# Velocity P-wave (km/s) = 6.47278 5.50931 6.01039
#
# Compressibility (1/GPa) = 0.02806987
#
# Stress axis : x y z
#
# Youngs Moduli (GPa) = 25.38944 53.01396 31.33828
#
# Poissons Ratio (x) = 0.73747 0.62165
# Poissons Ratio (y) = 0.35319 -0.08470
# Poissons Ratio (z) = 0.50364 -0.14329
#
# Static dielectric constant tensor:
#      x y z
#    x 1.674000 0.000000 0.000000 
#    y 0.000000 1.679480 0.000000 
#    z 0.000000 0.000000 1.692940 
# 
# From -- ./inp_files/4996.got.cif
#   From: 2010.05.17/outbox.ucp.g08.bks.cvg/sg31_3_cif.got.tgz:4996.got - 2010.06.11 10:34:26.
