data_PCOD9343854
_publ_section_title
;
Structure prediction by ZEFSAII (Michael W. Deem and Ramdas Pophale) SiO2 
 PCOD9343854
Probable space group: P B A 2
;
_chemical_formula_sum "Si O2"
_cell_formula_units_Z 26
_cell_length_a 8.716684
_cell_length_b 11.337121
_cell_length_c 11.824192
_cell_angle_alpha 90.000000
_cell_angle_beta 90.000000
_cell_angle_gamma 90.000000
_cell_volume 1168.491499
_symmetry_space_group_name_H-M "P B A 2"
_symmetry_group_IT_number 32
_symmetry_cell_setting 'orthorhombic'
loop_
_space_group_symop_operation_xyz
x,y,z
-x,-y,z
1/2-x,1/2+y,z
1/2+x,1/2-y,z
loop_
_atom_site_type_symbol
_atom_site_label
_atom_site_fract_x
_atom_site_fract_y
_atom_site_fract_z
Si Si1 0.684547 0.692589 0.951720
Si Si2 0.574114 0.629284 0.710389
Si Si3 0.150867 0.305359 0.570316
Si Si4 0.525255 0.137776 0.072846
Si Si5 0.365664 0.682462 0.251633
Si Si6 0.000000 0.000000 0.081140
Si Si7 0.406591 0.202016 0.405895
O O1 0.623858 0.696830 0.824731
O O2 0.630049 0.797272 0.034531
O O3 0.864054 0.673615 0.968298
O O4 0.609735 0.576286 0.004356
O O5 0.500000 0.500000 0.729322
O O6 0.737649 0.613957 0.645501
O O7 0.452995 0.712980 0.642485
O O8 0.277627 0.238513 0.495230
O O9 0.036216 0.364441 0.478798
O O10 0.607938 0.194260 0.183412
O O11 0.500000 0.000000 0.084280
O O12 0.406941 0.584719 0.162348
O O13 0.494912 0.690929 0.350137
O O14 0.199146 0.657225 0.303509
#
# Coordination Sequence:
#
# PCOD9343854 Si02
#       7
#     4   4   4   4   4   2   4
#     4  11  24  42  65 100 139 181 233 283 345 408
#     4  11  22  43  72  96 132 182 223 287 352 403
#     4   9  21  42  66  96 133 166 230 285 333 409
#     4  11  26  41  66 100 141 183 234 280 338 425
#     4  10  20  39  63  95 136 179 221 279 345 402
#     4  10  22  36  66  96 136 182 224 278 334 424
#     4   9  19  41  63  92 136 169 221 284 334 403
#
# _framework density 22.250910999999999
#
# number of rings (size 3 to 8) (size 9 to 14) (size 15 to 20)
#    0.000    1.846    0.769    2.769    6.462    1.231 
#   12.462    4.615    0.000    0.000    0.000    0.000 
#    0.000    0.000    0.000    0.000    0.000    0.000 
#
# Total GULP energy -145035.772820 kJ/mol
# GULP energy per Si atom -5578.298955 kJ/mol
# Density = 2.220027 g / cm^3
# Si number density = 22.250911 Si / 1000 Ang^3
#
#
#
# Elastic Constant Matrix: (Units=GPa)
#
#
# Indices 1 2 3 4 5 6 
#
# 1 147.2189 19.7736 44.5612 0.0000 0.0000 0.0000
# 2 19.7736 66.1050 1.4599 0.0000 0.0000 0.0000
# 3 44.5612 1.4599 97.5429 0.0000 0.0000 0.0000
# 4 0.0000 0.0000 0.0000 22.4404 0.0000 0.0000
# 5 0.0000 0.0000 0.0000 0.0000 54.6080 0.0000
# 6 0.0000 0.0000 0.0000 0.0000 0.0000 4.4385
#
#
#
# Elastic Compliance Matrix: (Units=1/GPa)
#
#
# Indices 1 2 3 4 5 6 
#
# 1 0.008241 -0.002383 -0.003729 0.000000 0.000000 0.000000
# 2 -0.002383 0.015821 0.000852 0.000000 0.000000 0.000000
# 3 -0.003729 0.000852 0.011943 0.000000 0.000000 0.000000
# 4 0.000000 0.000000 0.000000 0.044562 0.000000 0.000000
# 5 0.000000 0.000000 0.000000 0.000000 0.018312 0.000000
# 6 0.000000 0.000000 0.000000 0.000000 0.000000 0.225304
#
#
# Mechanical properties :
#
#
# Convention : Reuss Voigt Hill
#
# Bulk Modulus (GPa) = 39.23893 49.16179 44.20036
# Shear Modulus (GPa) = 14.56876 32.63552 23.60214
#
# Velocity S-wave (km/s) = 2.56158 3.83391 3.26041
# Velocity P-wave (km/s) = 5.14023 6.46071 5.83793
#
# Compressibility (1/GPa) = 0.02548489
#
# Stress axis : x y z
#
# Youngs Moduli (GPa) = 121.33744 63.20547 83.73213
#
# Poissons Ratio (x) = 0.15061 0.31227
# Poissons Ratio (y) = 0.28913 -0.07132
# Poissons Ratio (z) = 0.45251 -0.05384
#
# Static dielectric constant tensor:
#      x y z
#    x 1.784110 0.000000 0.000000 
#    y 0.000000 1.739530 0.000000 
#    z 0.000000 0.000000 1.898660 
# 
# From -- ./inp_files/3674.got.cif
#   From: 2010.05.17/outbox.cif.g08.bks.cpg/sg32_2_cif.got.tgz:3674.got - 2010.06.03 17:12:27.
