data_PCOD9343404
_publ_section_title
;
Structure prediction by ZEFSAII (Michael W. Deem and Ramdas Pophale) SiO2 
 PCOD9343404
Probable space group: P M N 21
;
_chemical_formula_sum "Si O2"
_cell_formula_units_Z 28
_cell_length_a 12.931897
_cell_length_b 20.208811
_cell_length_c 5.302502
_cell_angle_alpha 90.000000
_cell_angle_beta 90.000000
_cell_angle_gamma 90.000000
_cell_volume 1385.746659
_symmetry_space_group_name_H-M "P M N 21"
_symmetry_group_IT_number 31
_symmetry_cell_setting 'orthorhombic'
loop_
_space_group_symop_operation_xyz
x,y,z
1/2-x,-y,1/2+z
-x,y,z
1/2+x,-y,1/2+z
loop_
_atom_site_type_symbol
_atom_site_label
_atom_site_fract_x
_atom_site_fract_y
_atom_site_fract_z
Si Si1 0.239820 0.767124 0.777990
Si Si2 0.383962 0.984516 0.214524
Si Si3 0.889992 0.476347 0.621262
Si Si4 0.883149 0.353664 0.234037
Si Si5 0.291012 0.411525 0.866913
Si Si6 0.193405 0.083395 0.214355
Si Si7 0.123456 0.724423 0.260798
O O1 0.331799 0.714208 0.829835
O O2 0.286865 0.839010 0.730550
O O3 0.175146 0.745994 0.527356
O O4 0.167637 0.765812 0.025683
O O5 0.500000 0.010154 0.224633
O O6 0.361880 0.938880 0.457267
O O7 0.302450 0.044252 0.216713
O O8 0.366502 0.942985 0.959653
O O9 0.890954 0.413033 0.435674
O O10 0.777245 0.468490 0.740139
O O11 0.882368 0.548774 0.500557
O O12 0.000000 0.472854 0.767842
O O13 0.000000 0.341975 0.138021
O O14 0.799236 0.378402 0.033325
O O15 0.340516 0.351706 0.711022
O O16 0.000000 0.728515 0.277001
#
# Coordination Sequence:
#
# PCOD9343404 Si02
#       7
#     4   4   4   4   4   4   4
#     4  11  23  43  63  91 128 162 203 252 304 369
#     4  10  21  39  64  94 129 165 208 257 304 360
#     4  11  21  36  57  80 108 150 200 249 309 364
#     4  10  22  38  57  82 114 155 199 247 305 366
#     4  11  21  39  57  84 115 153 201 266 308 367
#     4  10  22  40  63  95 129 166 208 255 306 363
#     4  11  24  41  63  90 123 163 207 256 310 369
#
# _framework density 20.205714
#
# number of rings (size 3 to 8) (size 9 to 14) (size 15 to 20)
#    0.000    1.429    2.857    2.571    0.000    2.286 
#    0.000    1.429    0.000    0.000    0.000    0.000 
#    0.000    0.000    0.000    0.000    0.000    0.000 
#
# Total GULP energy -156162.411087 kJ/mol
# GULP energy per Si atom -5577.228967 kJ/mol
# Density = 2.015973 g / cm^3
# Si number density = 20.205714 Si / 1000 Ang^3
#
#
#
# Elastic Constant Matrix: (Units=GPa)
#
#
# Indices 1 2 3 4 5 6 
#
# 1 106.6796 1.6518 20.8753 0.0000 0.0000 0.0000
# 2 1.6518 57.7185 -6.5987 0.0000 0.0000 0.0000
# 3 20.8753 -6.5987 76.8990 0.0000 0.0000 0.0000
# 4 0.0000 0.0000 0.0000 16.9881 0.0000 0.0000
# 5 0.0000 0.0000 0.0000 0.0000 -10.4451 0.0000
# 6 0.0000 0.0000 0.0000 0.0000 0.0000 0.0070
#
#
#
# Elastic Compliance Matrix: (Units=1/GPa)
#
#
# Indices 1 2 3 4 5 6 
#
# 1 0.009920 -0.000598 -0.002744 0.000000 0.000000 0.000000
# 2 -0.000598 0.017533 0.001667 0.000000 0.000000 0.000000
# 3 -0.002744 0.001667 0.013892 0.000000 0.000000 0.000000
# 4 0.000000 0.000000 0.000000 0.058865 0.000000 0.000000
# 5 0.000000 0.000000 0.000000 0.000000 -0.095739 0.000000
# 6 0.000000 0.000000 0.000000 0.000000 0.000000143.393456
#
#
# Mechanical properties :
#
#
# Convention : Reuss Voigt Hill
#
# Bulk Modulus (GPa) = 26.31921 30.35043 28.33482
# Shear Modulus (GPa) = 0.03486 16.33457 8.18472
#
# Velocity S-wave (km/s) = 0.13150 2.84635 2.01482
# Velocity P-wave (km/s) = 3.61621 5.08484 4.41206
#
# Compressibility (1/GPa) = 0.03799506
#
# Stress axis : x y z
#
# Youngs Moduli (GPa) = 100.80530 57.03487 71.98358
#
# Poissons Ratio (x) = 0.03409 0.19754
# Poissons Ratio (y) = 0.06024 -0.11998
# Poissons Ratio (z) = 0.27663 -0.09506
#
# Static dielectric constant tensor:
#      x y z
#    x 1.700560 0.000000 0.000000 
#    y 0.000000 1.698930 0.000000 
#    z 0.000000 0.000000 1.812270 
# 
# From -- ./inp_files/412.got.cif
#   From: 2010.05.17/outbox.cif.g08.bks.cpg/sg31_1_cif.got.tgz:412.got - 2010.06.03 17:08:30.
