data_PCOD9343882
_publ_section_title
;
Structure prediction by ZEFSAII (Michael W. Deem and Ramdas Pophale) SiO2 
 PCOD9343882
Probable space group: P B A 2
;
_chemical_formula_sum "Si O2"
_cell_formula_units_Z 16
_cell_length_a 13.230333
_cell_length_b 11.988449
_cell_length_c 4.896115
_cell_angle_alpha 90.000000
_cell_angle_beta 90.000000
_cell_angle_gamma 90.000000
_cell_volume 776.578540
_symmetry_space_group_name_H-M "P B A 2"
_symmetry_group_IT_number 32
_symmetry_cell_setting 'orthorhombic'
loop_
_space_group_symop_operation_xyz
x,y,z
-x,-y,z
1/2-x,1/2+y,z
1/2+x,1/2-y,z
loop_
_atom_site_type_symbol
_atom_site_label
_atom_site_fract_x
_atom_site_fract_y
_atom_site_fract_z
Si Si1 0.591924 0.584060 0.394500
Si Si2 0.363540 0.191623 0.176045
Si Si3 0.225828 0.888414 0.923413
Si Si4 0.892804 0.458305 0.673573
O O1 0.500000 0.500000 0.404675
O O2 0.565188 0.706862 0.277462
O O3 0.642021 0.605155 0.686645
O O4 0.678941 0.544907 0.180970
O O5 0.341421 0.114543 0.435415
O O6 0.270460 0.262615 0.043993
O O7 0.410446 0.120473 0.934310
O O8 0.324224 0.941969 0.791187
O O9 0.000000 0.500000 0.564557
#
# Coordination Sequence:
#
# PCOD9343882 Si02
#       4
#     4   4   4   4
#     4  10  20  42  66  93 131 167 223 274 325 389
#     4  10  22  44  60  97 133 164 229 265 320 408
#     4  10  22  42  64  94 133 172 220 270 322 401
#     4  12  24  44  66  96 140 171 217 277 334 400
#
# _framework density 20.603196000000001
#
# number of rings (size 3 to 8) (size 9 to 14) (size 15 to 20)
#    1.500    0.000    2.500    3.000    0.000    0.000 
#   13.500    0.000    0.000    0.000    0.000    0.000 
#    0.000    0.000    0.000    0.000    0.000    0.000 
#
# Total GULP energy -89098.125947 kJ/mol
# GULP energy per Si atom -5568.632872 kJ/mol
# Density = 2.055630 g / cm^3
# Si number density = 20.603196 Si / 1000 Ang^3
#
#
#
# Elastic Constant Matrix: (Units=GPa)
#
#
# Indices 1 2 3 4 5 6 
#
# 1 56.1894 36.4731 16.5650 0.0000 0.0000 0.0000
# 2 36.4731 94.2544 37.9222 0.0000 0.0000 0.0000
# 3 16.5650 37.9222 140.2563 0.0000 0.0000 0.0000
# 4 0.0000 0.0000 0.0000 -110.2982 0.0000 0.0000
# 5 0.0000 0.0000 0.0000 0.0000 15.9473 0.0000
# 6 0.0000 0.0000 0.0000 0.0000 0.0000 19.0866
#
#
#
# Elastic Compliance Matrix: (Units=1/GPa)
#
#
# Indices 1 2 3 4 5 6 
#
# 1 0.023783 -0.009058 -0.000360 0.000000 0.000000 0.000000
# 2 -0.009058 0.015355 -0.003082 0.000000 0.000000 0.000000
# 3 -0.000360 -0.003082 0.008006 0.000000 0.000000 0.000000
# 4 0.000000 0.000000 0.000000 -0.009066 0.000000 0.000000
# 5 0.000000 0.000000 0.000000 0.000000 0.062707 0.000000
# 6 0.000000 0.000000 0.000000 0.000000 0.000000 0.052393
#
#
# Mechanical properties :
#
#
# Convention : Reuss Voigt Hill
#
# Bulk Modulus (GPa) = 45.15999 52.51341 48.83670
# Shear Modulus (GPa) = 26.94589 -1.73687 12.60451
#
# Velocity S-wave (km/s) = 3.62034 -0.91915 2.47609
# Velocity P-wave (km/s) = 6.28032 4.94134 5.65063
#
# Compressibility (1/GPa) = 0.02214349
#
# Stress axis : x y z
#
# Youngs Moduli (GPa) = 42.04698 65.12630 124.91376
#
# Poissons Ratio (x) = 0.58994 0.04493
# Poissons Ratio (y) = 0.38088 0.38495
# Poissons Ratio (z) = 0.01512 0.20070
#
# Static dielectric constant tensor:
#      x y z
#    x 1.738560 0.000000 0.000000 
#    y 0.000000 1.950100 0.000000 
#    z 0.000000 0.000000 1.742830 
# 
# From -- ./inp_files/683.got.cif
#   From: 2010.05.17/outbox.cif.g08.bks.cpg/sg32_1_cif.got.tgz:683.got - 2010.06.03 17:12:27.
