data_PCOD9343465
_publ_section_title
;
Structure prediction by ZEFSAII (Michael W. Deem and Ramdas Pophale) SiO2 
 PCOD9343465
Probable space group: P M N 21
;
_chemical_formula_sum "Si O2"
_cell_formula_units_Z 32
_cell_length_a 16.572986
_cell_length_b 15.619094
_cell_length_c 5.553182
_cell_angle_alpha 90.000000
_cell_angle_beta 90.000000
_cell_angle_gamma 90.000000
_cell_volume 1437.469072
_symmetry_space_group_name_H-M "P M N 21"
_symmetry_group_IT_number 31
_symmetry_cell_setting 'orthorhombic'
loop_
_space_group_symop_operation_xyz
x,y,z
1/2-x,-y,1/2+z
-x,y,z
1/2+x,-y,1/2+z
loop_
_atom_site_type_symbol
_atom_site_label
_atom_site_fract_x
_atom_site_fract_y
_atom_site_fract_z
Si Si1 0.289163 0.102090 0.765290
Si Si2 0.865615 0.047075 0.964773
Si Si3 0.340143 0.434164 0.560186
Si Si4 0.907065 0.757703 0.043969
Si Si5 0.083801 0.896849 0.650933
Si Si6 0.406896 0.716215 0.168187
Si Si7 0.592574 0.778989 0.673469
Si Si8 0.351791 0.531902 0.062369
O O1 0.338151 0.183238 0.665335
O O2 0.312713 0.016921 0.623620
O O3 0.193888 0.100274 0.791101
O O4 0.331860 0.093775 0.021773
O O5 0.906992 0.120054 0.121168
O O6 0.918774 0.978923 0.824462
O O7 0.375418 0.338621 0.554402
O O8 0.366385 0.483481 0.807290
O O9 0.242311 0.438057 0.563032
O O10 0.364567 0.476610 0.304844
O O11 0.914067 0.806319 0.787665
O O12 0.000000 0.759983 0.139850
O O13 0.000000 0.901079 0.502629
O O14 0.500000 0.748181 0.189451
O O15 0.368156 0.760192 0.931887
O O16 0.403753 0.616948 0.099300
O O17 0.371717 0.731870 0.436452
O O18 0.500000 0.748199 0.694878
#
# Coordination Sequence:
#
# PCOD9343465 Si02
#       8
#     4   4   4   4   4   4   4   4
#     4  11  23  40  62  91 127 164 220 273 320 390
#     4  11  23  39  61  91 123 168 220 264 324 387
#     4  10  23  41  66  94 128 164 218 261 321 400
#     4  10  24  42  63  96 128 170 219 266 332 397
#     4  10  22  41  63  88 130 170 211 274 330 385
#     4  10  22  40  62  92 126 160 206 257 315 376
#     4  10  23  39  61  93 125 164 211 256 313 386
#     4  10  22  42  64  95 127 166 209 267 327 383
#
# _framework density 22.261348000000002
#
# number of rings (size 3 to 8) (size 9 to 14) (size 15 to 20)
#    0.000    1.750    1.250    1.500    5.250    3.500 
#    0.000    0.000    0.000    0.000    0.000    0.000 
#    0.000    0.000    0.000    0.000    0.000    0.000 
#
# Total GULP energy -178350.970286 kJ/mol
# GULP energy per Si atom -5573.467821 kJ/mol
# Density = 2.221068 g / cm^3
# Si number density = 22.261348 Si / 1000 Ang^3
#
#
#
# Elastic Constant Matrix: (Units=GPa)
#
#
# Indices 1 2 3 4 5 6 
#
# 1 37.2827 28.9675 26.2898 0.0000 0.0000 0.0000
# 2 28.9675 138.5043 53.8342 0.0000 0.0000 0.0000
# 3 26.2898 53.8342 129.3263 0.0000 0.0000 0.0000
# 4 0.0000 0.0000 0.0000 19.4628 0.0000 0.0000
# 5 0.0000 0.0000 0.0000 0.0000 11.8567 0.0000
# 6 0.0000 0.0000 0.0000 0.0000 0.0000 32.8609
#
#
#
# Elastic Compliance Matrix: (Units=1/GPa)
#
#
# Indices 1 2 3 4 5 6 
#
# 1 0.034317 -0.005328 -0.004758 0.000000 0.000000 0.000000
# 2 -0.005328 0.009441 -0.002847 0.000000 0.000000 0.000000
# 3 -0.004758 -0.002847 0.009885 0.000000 0.000000 0.000000
# 4 0.000000 0.000000 0.000000 0.051380 0.000000 0.000000
# 5 0.000000 0.000000 0.000000 0.000000 0.084340 0.000000
# 6 0.000000 0.000000 0.000000 0.000000 0.000000 0.030431
#
#
# Mechanical properties :
#
#
# Convention : Reuss Voigt Hill
#
# Bulk Modulus (GPa) = 36.00147 58.14402 47.07275
# Shear Modulus (GPa) = 19.61411 25.90420 22.75916
#
# Velocity S-wave (km/s) = 2.97153 3.41492 3.20091
# Velocity P-wave (km/s) = 5.28967 6.45944 5.90360
#
# Compressibility (1/GPa) = 0.02777664
#
# Stress axis : x y z
#
# Youngs Moduli (GPa) = 29.14021 105.92347 101.16649
#
# Poissons Ratio (x) = 0.56433 0.48138
# Poissons Ratio (y) = 0.15525 0.28801
# Poissons Ratio (z) = 0.13866 0.30155
#
# Static dielectric constant tensor:
#      x y z
#    x 1.625430 0.000000 0.000000 
#    y 0.000000 1.781490 0.000000 
#    z 0.000000 0.000000 1.919940 
# 
# From -- ./inp_files/857.got.cif
#   From: 2010.05.17/outbox.cif.g08.bks.cpg/sg31_1_cif.got.tgz:857.got - 2010.06.03 17:08:30.
