data_PCOD9343458
_publ_section_title
;
Structure prediction by ZEFSAII (Michael W. Deem and Ramdas Pophale) SiO2 
 PCOD9343458
Probable space group: P M N 21
;
_chemical_formula_sum "Si O2"
_cell_formula_units_Z 32
_cell_length_a 7.797006
_cell_length_b 10.974956
_cell_length_c 14.263669
_cell_angle_alpha 90.000000
_cell_angle_beta 90.000000
_cell_angle_gamma 90.000000
_cell_volume 1220.567799
_symmetry_space_group_name_H-M "P M N 21"
_symmetry_group_IT_number 31
_symmetry_cell_setting 'orthorhombic'
loop_
_space_group_symop_operation_xyz
x,y,z
1/2-x,-y,1/2+z
-x,y,z
1/2+x,-y,1/2+z
loop_
_atom_site_type_symbol
_atom_site_label
_atom_site_fract_x
_atom_site_fract_y
_atom_site_fract_z
Si Si1 0.298630 0.292876 0.620670
Si Si2 0.301988 0.948092 0.228443
Si Si3 0.693870 0.445107 0.088529
Si Si4 0.697792 0.528286 0.379782
Si Si5 0.208315 0.164970 0.437756
Si Si6 0.196566 0.299089 0.263922
Si Si7 0.206068 0.209597 0.884753
Si Si8 0.793626 0.928821 0.552438
O O1 0.500000 0.286362 0.641567
O O2 0.203428 0.180041 0.670147
O O3 0.225748 0.426074 0.641076
O O4 0.270739 0.268185 0.509706
O O5 0.500000 0.980129 0.245462
O O6 0.218280 0.902300 0.324396
O O7 0.225370 0.046182 0.156641
O O8 0.500000 0.438456 0.054733
O O9 0.720647 0.340916 0.166571
O O10 0.801750 0.457535 0.993060
O O11 0.500000 0.514069 0.349795
O O12 0.795652 0.416625 0.333442
O O13 0.769275 0.660385 0.349509
O O14 0.269422 0.193379 0.332331
O O15 0.268725 0.041592 0.487992
O O16 0.000000 0.165624 0.436341
O O17 0.000000 0.271873 0.242996
O O18 0.000000 0.210006 0.874247
O O19 0.245057 0.188256 0.993343
O O20 0.000000 0.934723 0.557812
#
# Coordination Sequence:
#
# PCOD9343458 Si02
#       8
#     4   4   4   4   4   4   4   4
#     4  11  20  32  57  88 116 148 196 247 289 349
#     4   9  19  38  61  86 117 156 198 244 305 357
#     4  12  24  38  56  83 122 164 200 242 298 359
#     4  11  23  40  61  89 123 160 202 250 305 362
#     4   9  19  37  59  83 115 150 187 239 300 349
#     4  11  22  38  62  90 121 157 198 244 302 365
#     4  10  22  40  61  85 118 157 198 250 300 353
#     4   9  19  37  61  86 116 152 193 242 295 360
#
# _framework density 26.217306000000001
#
# number of rings (size 3 to 8) (size 9 to 14) (size 15 to 20)
#    0.000    1.750    1.250    4.500    0.000    5.000 
#    2.250    0.000    0.000    0.000    0.000    0.000 
#    0.000    0.000    0.000    0.000    0.000    0.000 
#
# Total GULP energy -179062.949260 kJ/mol
# GULP energy per Si atom -5595.717164 kJ/mol
# Density = 2.615763 g / cm^3
# Si number density = 26.217306 Si / 1000 Ang^3
#
#
#
# Elastic Constant Matrix: (Units=GPa)
#
#
# Indices 1 2 3 4 5 6 
#
# 1 88.3319 4.5883 -0.2994 0.0000 0.0000 0.0000
# 2 4.5883 69.4449 24.1079 0.0000 0.0000 0.0000
# 3 -0.2994 24.1079 143.5073 0.0000 0.0000 0.0000
# 4 0.0000 0.0000 0.0000 57.6793 0.0000 0.0000
# 5 0.0000 0.0000 0.0000 0.0000 61.5325 0.0000
# 6 0.0000 0.0000 0.0000 0.0000 0.0000 8.7610
#
#
#
# Elastic Compliance Matrix: (Units=1/GPa)
#
#
# Indices 1 2 3 4 5 6 
#
# 1 0.011363 -0.000806 0.000159 0.000000 0.000000 0.000000
# 2 -0.000806 0.015349 -0.002580 0.000000 0.000000 0.000000
# 3 0.000159 -0.002580 0.007402 0.000000 0.000000 0.000000
# 4 0.000000 0.000000 0.000000 0.017337 0.000000 0.000000
# 5 0.000000 0.000000 0.000000 0.000000 0.016252 0.000000
# 6 0.000000 0.000000 0.000000 0.000000 0.000000 0.114142
#
#
# Mechanical properties :
#
#
# Convention : Reuss Voigt Hill
#
# Bulk Modulus (GPa) = 36.15310 39.78641 37.96976
# Shear Modulus (GPa) = 25.31401 43.78706 34.55054
#
# Velocity S-wave (km/s) = 3.11069 4.09119 3.63416
# Velocity P-wave (km/s) = 5.16930 6.12582 5.66777
#
# Compressibility (1/GPa) = 0.02766014
#
# Stress axis : x y z
#
# Youngs Moduli (GPa) = 88.00226 65.15145 135.09753
#
# Poissons Ratio (x) = 0.05251 -0.02150
# Poissons Ratio (y) = 0.07093 0.34857
# Poissons Ratio (z) = -0.01400 0.16810
#
# Static dielectric constant tensor:
#      x y z
#    x 1.892000 0.000000 0.000000 
#    y 0.000000 2.107980 0.000000 
#    z 0.000000 0.000000 2.142450 
# 
# From -- ./inp_files/5011.got.cif
#   From: 2010.05.17/outbox.cif.g08.bks.cpg/sg31_3_cif.got.tgz:5011.got - 2010.06.03 17:08:30.
