data_PCOD9343118
_publ_section_title
;
Structure prediction by ZEFSAII (Michael W. Deem and Ramdas Pophale) SiO2 
 PCOD9343118
Probable space group: P M N 21
;
_chemical_formula_sum "Si O2"
_cell_formula_units_Z 32
_cell_length_a 9.070758
_cell_length_b 12.165477
_cell_length_c 13.479804
_cell_angle_alpha 90.000000
_cell_angle_beta 90.000000
_cell_angle_gamma 90.000000
_cell_volume 1487.497690
_symmetry_space_group_name_H-M "P M N 21"
_symmetry_group_IT_number 31
_symmetry_cell_setting 'orthorhombic'
loop_
_space_group_symop_operation_xyz
x,y,z
1/2-x,-y,1/2+z
-x,y,z
1/2+x,-y,1/2+z
loop_
_atom_site_type_symbol
_atom_site_label
_atom_site_fract_x
_atom_site_fract_y
_atom_site_fract_z
Si Si1 0.333601 0.122749 0.502720
Si Si2 0.674080 0.407997 0.847139
Si Si3 0.673083 0.997504 0.841509
Si Si4 0.833970 0.354813 0.257048
Si Si5 0.331868 0.543057 0.537214
Si Si6 0.320707 0.324926 0.636340
Si Si7 0.165770 0.127650 0.997725
Si Si8 0.327295 0.152931 0.193546
O O1 0.500000 0.153563 0.464651
O O2 0.210265 0.101578 0.419403
O O3 0.289942 0.208670 0.586330
O O4 0.250510 0.896729 0.393906
O O5 0.500000 0.386629 0.855977
O O6 0.693977 0.538176 0.823436
O O7 0.750162 0.389865 0.952034
O O8 0.730767 0.344851 0.749085
O O9 0.500000 0.014708 0.828967
O O10 0.649449 0.997793 0.538046
O O11 0.752381 0.953365 0.743729
O O12 0.715997 0.258627 0.259573
O O13 0.000000 0.311987 0.276900
O O14 0.834509 0.400524 0.144551
O O15 0.500000 0.528643 0.503035
O O16 0.267347 0.422438 0.563589
O O17 0.500000 0.336827 0.641005
O O18 0.262242 0.178223 0.084718
O O19 0.000000 0.173728 0.987183
O O20 0.500000 0.136249 0.188080
#
# Coordination Sequence:
#
# PCOD9343118 Si02
#       8
#     4   4   4   4   4   4   4   4
#     4   8  16  32  54  77 102 134 174 216 264 319
#     4   9  18  32  52  76 105 141 179 222 270 324
#     4  10  20  35  55  81 111 139 174 221 272 326
#     4   9  20  37  53  77 111 147 185 226 277 328
#     4   9  18  33  53  75 107 144 176 219 273 324
#     4   8  15  31  52  74 102 138 174 212 265 325
#     4   9  19  36  56  80 109 140 175 225 277 325
#     4  12  23  36  57  82 109 147 189 231 276 327
#
# _framework density 21.512637999999999
#
# number of rings (size 3 to 8) (size 9 to 14) (size 15 to 20)
#    0.750    2.000    0.000    3.750    1.750    1.000 
#    0.000    3.750    0.000    4.500    0.000    0.000 
#    0.000    0.000    0.000    0.000    0.000    0.000 
#
# Total GULP energy -178259.846238 kJ/mol
# GULP energy per Si atom -5570.620195 kJ/mol
# Density = 2.146367 g / cm^3
# Si number density = 21.512638 Si / 1000 Ang^3
#
#
#
# Elastic Constant Matrix: (Units=GPa)
#
#
# Indices 1 2 3 4 5 6 
#
# 1 99.6820 -1.7595 23.8191 0.0000 0.0000 0.0000
# 2 -1.7595 23.2722 -6.2999 0.0000 0.0000 0.0000
# 3 23.8191 -6.2999 74.5197 0.0000 0.0000 0.0000
# 4 0.0000 0.0000 0.0000 23.6493 0.0000 0.0000
# 5 0.0000 0.0000 0.0000 0.0000 25.8281 0.0000
# 6 0.0000 0.0000 0.0000 0.0000 0.0000 64.4581
#
#
#
# Elastic Compliance Matrix: (Units=1/GPa)
#
#
# Indices 1 2 3 4 5 6 
#
# 1 0.010862 -0.000121 -0.003482 0.000000 0.000000 0.000000
# 2 -0.000121 0.043978 0.003757 0.000000 0.000000 0.000000
# 3 -0.003482 0.003757 0.014850 0.000000 0.000000 0.000000
# 4 0.000000 0.000000 0.000000 0.042285 0.000000 0.000000
# 5 0.000000 0.000000 0.000000 0.000000 0.038718 0.000000
# 6 0.000000 0.000000 0.000000 0.000000 0.000000 0.015514
#
#
# Mechanical properties :
#
#
# Convention : Reuss Voigt Hill
#
# Bulk Modulus (GPa) = 14.28660 25.44368 19.86514
# Shear Modulus (GPa) = 26.42277 34.90138 30.66207
#
# Velocity S-wave (km/s) = 3.50843 4.03223 3.77942
# Velocity P-wave (km/s) = 4.80287 5.79064 5.31973
#
# Compressibility (1/GPa) = 0.06999568
#
# Stress axis : x y z
#
# Youngs Moduli (GPa) = 92.06577 22.73886 67.34069
#
# Poissons Ratio (x) = 0.00276 0.23449
# Poissons Ratio (y) = 0.01118 -0.25298
# Poissons Ratio (z) = 0.32058 -0.08542
#
# Static dielectric constant tensor:
#      x y z
#    x 1.765420 0.000000 0.000000 
#    y 0.000000 1.872530 0.000000 
#    z 0.000000 0.000000 1.809410 
# 
# From -- ./inp_files/5131.got.cif
#   From: 2010.05.17/outbox.cif.g08.bks.cpg/sg31_3_cif.got.tgz:5131.got - 2010.06.03 17:08:30.
