data_PCOD9343789
_publ_section_title
;
Structure prediction by ZEFSAII (Michael W. Deem and Ramdas Pophale) SiO2 
 PCOD9343789
Probable space group: P B A 2
;
_chemical_formula_sum "Si O2"
_cell_formula_units_Z 30
_cell_length_a 16.215500
_cell_length_b 18.563434
_cell_length_c 5.133524
_cell_angle_alpha 90.000000
_cell_angle_beta 90.000000
_cell_angle_gamma 90.000000
_cell_volume 1545.269596
_symmetry_space_group_name_H-M "P B A 2"
_symmetry_group_IT_number 32
_symmetry_cell_setting 'orthorhombic'
loop_
_space_group_symop_operation_xyz
x,y,z
-x,-y,z
1/2-x,1/2+y,z
1/2+x,1/2-y,z
loop_
_atom_site_type_symbol
_atom_site_label
_atom_site_fract_x
_atom_site_fract_y
_atom_site_fract_z
Si Si1 0.500000 0.000000 0.547781
Si Si2 0.010725 0.776810 0.793074
Si Si3 0.559706 0.876878 0.809809
Si Si4 0.386929 0.302260 0.260285
Si Si5 0.660443 0.974562 0.198754
Si Si6 0.668464 0.230069 0.656551
Si Si7 0.286334 0.862532 0.170263
Si Si8 0.697049 0.833337 0.409938
O O1 0.512489 0.070715 0.719184
O O2 0.417983 0.010829 0.384005
O O3 0.915508 0.773841 0.712238
O O4 0.021008 0.695716 0.912419
O O5 0.065899 0.794748 0.536783
O O6 0.048381 0.821105 0.033492
O O7 0.615547 0.849906 0.574287
O O8 0.618890 0.928458 0.970432
O O9 0.309535 0.355892 0.256278
O O10 0.337321 0.226045 0.205594
O O11 0.722073 0.913081 0.313845
O O12 0.694368 0.053029 0.134006
O O13 0.663305 0.176243 0.406559
O O14 0.736945 0.289478 0.577124
O O15 0.695775 0.183026 0.907195
#
# Coordination Sequence:
#
# PCOD9343789 Si02
#       8
#     2   4   4   4   4   4   4   4
#     4  10  22  32  48  84 122 160 188 238 294 382
#     4  11  21  37  61  85 113 161 196 254 294 357
#     4  10  20  34  53  80 122 156 193 232 301 375
#     4  10  20  40  57  82 117 155 203 242 307 352
#     4  11  22  35  58  83 123 166 200 242 315 377
#     4  11  24  39  62  91 121 153 214 254 304 355
#     4  11  24  38  59  91 122 159 198 260 301 376
#     4   9  21  38  57  82 115 165 202 247 292 380
#
# _framework density 19.414088
#
# number of rings (size 3 to 8) (size 9 to 14) (size 15 to 20)
#    0.000    1.600    1.333    4.400    9.333    0.000 
#    0.000    0.000    0.000    0.800    0.000    0.000 
#    0.000    0.000    0.000    0.000    0.000    0.000 
#
# Total GULP energy -167018.518975 kJ/mol
# GULP energy per Si atom -5567.283966 kJ/mol
# Density = 1.936990 g / cm^3
# Si number density = 19.414088 Si / 1000 Ang^3
#
#
#
# Elastic Constant Matrix: (Units=GPa)
#
#
# Indices 1 2 3 4 5 6 
#
# 1 50.5614 24.1914 6.3290 0.0000 0.0000 0.0000
# 2 24.1914 86.4530 16.7616 0.0000 0.0000 0.0000
# 3 6.3290 16.7616 83.7367 0.0000 0.0000 0.0000
# 4 0.0000 0.0000 0.0000 22.5605 0.0000 0.0000
# 5 0.0000 0.0000 0.0000 0.0000 156.4538 0.0000
# 6 0.0000 0.0000 0.0000 0.0000 0.0000 28.4003
#
#
#
# Elastic Compliance Matrix: (Units=1/GPa)
#
#
# Indices 1 2 3 4 5 6 
#
# 1 0.022853 -0.006304 -0.000465 0.000000 0.000000 0.000000
# 2 -0.006304 0.013773 -0.002280 0.000000 0.000000 0.000000
# 3 -0.000465 -0.002280 0.012434 0.000000 0.000000 0.000000
# 4 0.000000 0.000000 0.000000 0.044325 0.000000 0.000000
# 5 0.000000 0.000000 0.000000 0.000000 0.006392 0.000000
# 6 0.000000 0.000000 0.000000 0.000000 0.000000 0.035211
#
#
# Mechanical properties :
#
#
# Convention : Reuss Voigt Hill
#
# Bulk Modulus (GPa) = 32.30055 35.03503 33.66779
# Shear Modulus (GPa) = 30.59832 53.04753 41.82293
#
# Velocity S-wave (km/s) = 3.97431 5.23293 4.64643
# Velocity P-wave (km/s) = 6.14280 7.38896 6.79451
#
# Compressibility (1/GPa) = 0.03095923
#
# Stress axis : x y z
#
# Youngs Moduli (GPa) = 43.75875 72.60455 80.42556
#
# Poissons Ratio (x) = 0.45773 0.03742
# Poissons Ratio (y) = 0.27587 0.18341
# Poissons Ratio (z) = 0.02036 0.16557
#
# Static dielectric constant tensor:
#      x y z
#    x 1.590590 0.000000 0.000000 
#    y 0.000000 1.673580 0.000000 
#    z 0.000000 0.000000 1.795180 
# 
# From -- ./inp_files/1278.got.cif
#   From: 2010.05.17/outbox.cif.g08.bks.cpg/sg32_1_cif.got.tgz:1278.got - 2010.06.03 17:12:27.
