data_PCOD9343484
_publ_section_title
;
Structure prediction by ZEFSAII (Michael W. Deem and Ramdas Pophale) SiO2 
 PCOD9343484
Probable space group: P M N 21
;
_chemical_formula_sum "Si O2"
_cell_formula_units_Z 32
_cell_length_a 15.793455
_cell_length_b 9.934826
_cell_length_c 9.753094
_cell_angle_alpha 90.000000
_cell_angle_beta 90.000000
_cell_angle_gamma 90.000000
_cell_volume 1530.311432
_symmetry_space_group_name_H-M "P M N 21"
_symmetry_group_IT_number 31
_symmetry_cell_setting 'orthorhombic'
loop_
_space_group_symop_operation_xyz
x,y,z
1/2-x,-y,1/2+z
-x,y,z
1/2+x,-y,1/2+z
loop_
_atom_site_type_symbol
_atom_site_label
_atom_site_fract_x
_atom_site_fract_y
_atom_site_fract_z
Si Si1 0.210866 0.370970 0.858210
Si Si2 0.819202 0.774172 0.155461
Si Si3 0.850474 0.421577 0.380880
Si Si4 0.254631 0.151585 0.371333
Si Si5 0.594563 0.170123 0.157583
Si Si6 0.404936 0.040249 0.857463
Si Si7 0.402462 0.514021 0.585443
Si Si8 0.909471 0.510680 0.653581
O O1 0.241706 0.246317 0.764858
O O2 0.297552 0.441256 0.901322
O O3 0.166321 0.468074 0.749293
O O4 0.148085 0.380902 0.987660
O O5 0.892370 0.843041 0.244677
O O6 0.851891 0.629275 0.096099
O O7 0.790469 0.862614 0.025962
O O8 0.784450 0.301178 0.370703
O O9 0.900059 0.431210 0.239983
O O10 0.904854 0.420471 0.517624
O O11 0.330412 0.136752 0.262680
O O12 0.174267 0.058566 0.339048
O O13 0.500000 0.137402 0.212960
O O14 0.595358 0.330279 0.130444
O O15 0.603302 0.099032 0.010927
O O16 0.500000 0.981844 0.844360
O O17 0.500000 0.492942 0.543582
O O18 0.000000 0.483562 0.721974
#
# Coordination Sequence:
#
# PCOD9343484 Si02
#       8
#     4   4   4   4   4   4   4   4
#     4  11  20  37  59  91 126 155 195 250 311 384
#     4  11  23  41  65  92 123 170 212 263 317 379
#     4  11  21  36  58  89 125 163 203 246 321 380
#     4  12  23  42  66  91 127 170 213 270 323 372
#     4  10  22  41  67  95 124 166 218 265 312 381
#     4  11  26  44  64  90 122 167 225 273 319 375
#     4  11  22  36  60  93 128 160 202 256 312 381
#     4  11  20  35  60  91 123 157 199 251 310 378
#
# _framework density 20.910778000000001
#
# number of rings (size 3 to 8) (size 9 to 14) (size 15 to 20)
#    0.000    1.000    3.750    4.125    1.750    4.000 
#    0.000    0.000    0.000    0.750    0.000    0.000 
#    0.000    0.000    0.000    0.000    0.000    0.000 
#
# Total GULP energy -178575.484626 kJ/mol
# GULP energy per Si atom -5580.483895 kJ/mol
# Density = 2.086318 g / cm^3
# Si number density = 20.910778 Si / 1000 Ang^3
#
#
#
# Elastic Constant Matrix: (Units=GPa)
#
#
# Indices 1 2 3 4 5 6 
#
# 1 150.1155 24.7297 62.0253 0.0000 0.0000 0.0000
# 2 24.7297 21.9888 19.1373 0.0000 0.0000 0.0000
# 3 62.0253 19.1373 106.1531 0.0000 0.0000 0.0000
# 4 0.0000 0.0000 0.0000 20.1327 0.0000 0.0000
# 5 0.0000 0.0000 0.0000 0.0000 -54.4798 0.0000
# 6 0.0000 0.0000 0.0000 0.0000 0.0000 30.3665
#
#
#
# Elastic Compliance Matrix: (Units=1/GPa)
#
#
# Indices 1 2 3 4 5 6 
#
# 1 0.009618 -0.007029 -0.004353 0.000000 0.000000 0.000000
# 2 -0.007029 0.059077 -0.006544 0.000000 0.000000 0.000000
# 3 -0.004353 -0.006544 0.013143 0.000000 0.000000 0.000000
# 4 0.000000 0.000000 0.000000 0.049670 0.000000 0.000000
# 5 0.000000 0.000000 0.000000 0.000000 -0.018355 0.000000
# 6 0.000000 0.000000 0.000000 0.000000 0.000000 0.032931
#
#
# Mechanical properties :
#
#
# Convention : Reuss Voigt Hill
#
# Bulk Modulus (GPa) = 21.74440 54.44909 38.09675
# Shear Modulus (GPa) = 25.34677 10.69488 18.02082
#
# Velocity S-wave (km/s) = 3.48536 2.26399 2.93882
# Velocity P-wave (km/s) = 5.15928 5.73842 5.45654
#
# Compressibility (1/GPa) = 0.04598884
#
# Stress axis : x y z
#
# Youngs Moduli (GPa) = 103.97366 16.92695 76.08454
#
# Poissons Ratio (x) = 0.11897 0.33116
# Poissons Ratio (y) = 0.73078 0.49788
# Poissons Ratio (z) = 0.45255 0.11077
#
# Static dielectric constant tensor:
#      x y z
#    x 1.719360 0.000000 0.000000 
#    y 0.000000 1.763280 0.000000 
#    z 0.000000 0.000000 1.769250 
# 
# From -- ./inp_files/2572.got.cif
#   From: 2010.05.17/outbox.cif.g08.bks.cpg/sg31_2_cif.got.tgz:2572.got - 2010.06.03 17:08:30.
