data_PCOD9343643
_publ_section_title
;
Structure prediction by ZEFSAII (Michael W. Deem and Ramdas Pophale) SiO2 
 PCOD9343643
Probable space group: P B A 2
;
_chemical_formula_sum "Si O2"
_cell_formula_units_Z 24
_cell_length_a 8.729569
_cell_length_b 17.693947
_cell_length_c 7.187100
_cell_angle_alpha 90.000000
_cell_angle_beta 90.000000
_cell_angle_gamma 90.000000
_cell_volume 1110.123284
_symmetry_space_group_name_H-M "P B A 2"
_symmetry_group_IT_number 32
_symmetry_cell_setting 'orthorhombic'
loop_
_space_group_symop_operation_xyz
x,y,z
-x,-y,z
1/2-x,1/2+y,z
1/2+x,1/2-y,z
loop_
_atom_site_type_symbol
_atom_site_label
_atom_site_fract_x
_atom_site_fract_y
_atom_site_fract_z
Si Si1 0.228254 0.188462 0.873770
Si Si2 0.242590 0.359503 0.176255
Si Si3 0.703269 0.154205 0.728924
Si Si4 0.017247 0.747937 0.141726
Si Si5 0.176447 0.973568 0.458854
Si Si6 0.898219 0.430562 0.685926
O O1 0.236474 0.255919 0.720422
O O2 0.259539 0.105720 0.800399
O O3 0.074820 0.204586 0.986216
O O4 0.359007 0.201160 0.027029
O O5 0.095736 0.310459 0.239123
O O6 0.386568 0.310127 0.248838
O O7 0.267412 0.440162 0.263134
O O8 0.227746 0.360843 0.951500
O O9 0.801940 0.095429 0.608112
O O10 0.527474 0.134497 0.672590
O O11 0.305934 0.035193 0.512793
O O12 0.000000 0.000000 0.456799
O O13 0.000000 0.500000 0.765406
#
# Coordination Sequence:
#
# PCOD9343643 Si02
#       6
#     4   4   4   4   4   4
#     4  10  16  37  70 101 118 171 223 283 333 394
#     4  10  20  44  62  97 133 168 224 283 332 398
#     4   9  21  43  69  92 129 173 232 279 330 401
#     4   8  18  35  69  98 122 161 235 279 330 387
#     4  11  26  42  60  98 142 178 220 267 342 421
#     4  10  21  41  60  96 138 167 217 270 346 404
#
# _framework density 21.619221
#
# number of rings (size 3 to 8) (size 9 to 14) (size 15 to 20)
#    0.000    2.667    3.333    0.000    4.667    0.667 
#   12.000   14.167    0.000    0.000    0.000    0.000 
#    0.000    0.000    0.000    0.000    0.000    0.000 
#
# Total GULP energy -133622.959519 kJ/mol
# GULP energy per Si atom -5567.623313 kJ/mol
# Density = 2.157001 g / cm^3
# Si number density = 21.619221 Si / 1000 Ang^3
#
#
#
# Elastic Constant Matrix: (Units=GPa)
#
#
# Indices 1 2 3 4 5 6 
#
# 1 81.1698 21.1072 21.6499 0.0000 0.0000 0.0000
# 2 21.1072 53.2369 17.2172 0.0000 0.0000 0.0000
# 3 21.6499 17.2172 51.6696 0.0000 0.0000 0.0000
# 4 0.0000 0.0000 0.0000 45.7034 0.0000 0.0000
# 5 0.0000 0.0000 0.0000 0.0000 -1.8931 0.0000
# 6 0.0000 0.0000 0.0000 0.0000 0.0000 35.4794
#
#
#
# Elastic Compliance Matrix: (Units=1/GPa)
#
#
# Indices 1 2 3 4 5 6 
#
# 1 0.014698 -0.004299 -0.004726 0.000000 0.000000 0.000000
# 2 -0.004299 0.022310 -0.005633 0.000000 0.000000 0.000000
# 3 -0.004726 -0.005633 0.023211 0.000000 0.000000 0.000000
# 4 0.000000 0.000000 0.000000 0.021880 0.000000 0.000000
# 5 0.000000 0.000000 0.000000 0.000000 -0.528231 0.000000
# 6 0.000000 0.000000 0.000000 0.000000 0.000000 0.028185
#
#
# Mechanical properties :
#
#
# Convention : Reuss Voigt Hill
#
# Bulk Modulus (GPa) = 32.35892 34.00278 33.18085
# Shear Modulus (GPa) = -13.21601 24.26474 5.52437
#
# Velocity S-wave (km/s) = -2.47515 3.35381 1.60027
# Velocity P-wave (km/s) = 2.61375 5.54613 4.33539
#
# Compressibility (1/GPa) = 0.03090338
#
# Stress axis : x y z
#
# Youngs Moduli (GPa) = 68.03485 44.82272 43.08310
#
# Poissons Ratio (x) = 0.19270 0.20362
# Poissons Ratio (y) = 0.29249 0.24268
# Poissons Ratio (z) = 0.32155 0.25248
#
# Static dielectric constant tensor:
#      x y z
#    x 1.860510 0.000000 0.000000 
#    y 0.000000 1.887540 0.000000 
#    z 0.000000 0.000000 1.829770 
# 
# From -- ./inp_files/2396.got.cif
#   From: 2010.05.17/outbox.cif.g08.bks.cpg/sg32_2_cif.got.tgz:2396.got - 2010.06.03 17:12:27.
