data_PCOD9343694
_publ_section_title
;
Structure prediction by ZEFSAII (Michael W. Deem and Ramdas Pophale) SiO2 
 PCOD9343694
Probable space group: P B A 2
;
_chemical_formula_sum "Si O2"
_cell_formula_units_Z 32
_cell_length_a 25.261395
_cell_length_b 9.180439
_cell_length_c 5.463474
_cell_angle_alpha 90.000000
_cell_angle_beta 90.000000
_cell_angle_gamma 90.000000
_cell_volume 1267.038057
_symmetry_space_group_name_H-M "P B A 2"
_symmetry_group_IT_number 32
_symmetry_cell_setting 'orthorhombic'
loop_
_space_group_symop_operation_xyz
x,y,z
-x,-y,z
1/2-x,1/2+y,z
1/2+x,1/2-y,z
loop_
_atom_site_type_symbol
_atom_site_label
_atom_site_fract_x
_atom_site_fract_y
_atom_site_fract_z
Si Si1 0.132630 0.423166 0.764580
Si Si2 0.992708 0.747020 0.264581
Si Si3 0.822079 0.099092 0.264584
Si Si4 0.053535 0.149325 0.764581
Si Si5 0.743113 0.331317 0.264585
Si Si6 0.359223 0.408073 0.764584
Si Si7 0.739349 0.975079 0.764585
Si Si8 0.586765 0.968541 0.264580
O O1 0.097601 0.278405 0.764580
O O2 0.195755 0.397099 0.764583
O O3 0.118311 0.509858 0.517565
O O4 0.118311 0.509859 0.011593
O O5 0.980093 0.831891 0.516033
O O6 0.952619 0.609142 0.264581
O O7 0.049827 0.672679 0.264582
O O8 0.980093 0.831890 0.013127
O O9 0.813700 0.920317 0.264584
O O10 0.854123 0.156860 0.496648
O O11 0.761573 0.162008 0.264584
O O12 0.854123 0.156860 0.032520
O O13 0.088947 0.006090 0.764583
O O14 0.768072 0.384386 0.518378
O O15 0.768073 0.384387 0.010792
O O16 0.300614 0.483123 0.764585
#
# Coordination Sequence:
#
# PCOD9343694 Si02
#       8
#     4   4   4   4   4   4   4   4
#     4  10  19  31  50  77 110 148 185 223 275 336
#     4   9  17  30  49  75 109 145 180 225 283 340
#     4  10  21  36  54  75 103 142 186 229 273 316
#     4  10  19  31  50  77 110 148 185 223 275 336
#     4  10  21  36  54  75 103 142 186 229 273 316
#     4  10  21  34  50  74 107 145 187 223 259 311
#     4  10  21  34  50  74 107 145 187 223 259 311
#     4   9  17  30  49  75 109 145 180 225 283 340
#
# _framework density 25.255752999999999
#
# number of rings (size 3 to 8) (size 9 to 14) (size 15 to 20)
#    0.000    2.250    0.000    3.000    0.000   11.000 
#    0.000    2.500    0.000    0.000    0.000    0.000 
#    0.000   70.000    0.000    0.000    0.000    0.000 
#
# Total GULP energy -178635.411767 kJ/mol
# GULP energy per Si atom -5582.356618 kJ/mol
# Density = 2.519827 g / cm^3
# Si number density = 25.255753 Si / 1000 Ang^3
#
#
#
# Elastic Constant Matrix: (Units=GPa)
#
#
# Indices 1 2 3 4 5 6 
#
# 1 93.2099 32.6788 40.2593 0.0000 0.0000 0.0000
# 2 32.6788 75.2543 26.5081 0.0000 0.0000 0.0000
# 3 40.2593 26.5081 256.8121 0.0000 0.0000 0.0000
# 4 0.0000 0.0000 0.0000 -3.4735 0.0000 0.0000
# 5 0.0000 0.0000 0.0000 0.0000 37.6359 0.0000
# 6 0.0000 0.0000 0.0000 0.0000 0.0000 55.0366
#
#
#
# Elastic Compliance Matrix: (Units=1/GPa)
#
#
# Indices 1 2 3 4 5 6 
#
# 1 0.013214 -0.005197 -0.001535 0.000000 0.000000 0.000000
# 2 -0.005197 0.015834 -0.000820 0.000000 0.000000 0.000000
# 3 -0.001535 -0.000820 0.004219 0.000000 0.000000 0.000000
# 4 0.000000 0.000000 0.000000 -0.287897 0.000000 0.000000
# 5 0.000000 0.000000 0.000000 0.000000 0.026570 0.000000
# 6 0.000000 0.000000 0.000000 0.000000 0.000000 0.018170
#
#
# Mechanical properties :
#
#
# Convention : Reuss Voigt Hill
#
# Bulk Modulus (GPa) = 55.05730 69.35208 62.20469
# Shear Modulus (GPa) = -26.49260 39.56183 6.53461
#
# Velocity S-wave (km/s) = -3.24230 3.96213 1.61028
# Velocity P-wave (km/s) = 2.79831 6.96066 5.30478
#
# Compressibility (1/GPa) = 0.01816290
#
# Stress axis : x y z
#
# Youngs Moduli (GPa) = 75.67970 63.15581 237.01566
#
# Poissons Ratio (x) = 0.32824 0.36381
# Poissons Ratio (y) = 0.39333 0.19426
# Poissons Ratio (z) = 0.11617 0.05176
#
# Static dielectric constant tensor:
#      x y z
#    x 1.950280 0.000000 0.000000 
#    y 0.000000 2.006470 0.000000 
#    z 0.000000 0.000000 2.122480 
# 
# From -- ./inp_files/1685.got.cif
#   From: 2010.05.17/outbox.cif.g08.bks.cpg/sg32_1_cif.got.tgz:1685.got - 2010.06.03 17:12:27.
