data_PCOD9343036
_publ_section_title
;
Structure prediction by ZEFSAII (Michael W. Deem and Ramdas Pophale) SiO2 
 PCOD9343036
Probable space group: P M N 21
;
_chemical_formula_sum "Si O2"
_cell_formula_units_Z 20
_cell_length_a 14.638850
_cell_length_b 7.435547
_cell_length_c 7.321893
_cell_angle_alpha 90.000000
_cell_angle_beta 90.000000
_cell_angle_gamma 90.000000
_cell_volume 796.972364
_symmetry_space_group_name_H-M "P M N 21"
_symmetry_group_IT_number 31
_symmetry_cell_setting 'orthorhombic'
loop_
_space_group_symop_operation_xyz
x,y,z
1/2-x,-y,1/2+z
-x,y,z
1/2+x,-y,1/2+z
loop_
_atom_site_type_symbol
_atom_site_label
_atom_site_fract_x
_atom_site_fract_y
_atom_site_fract_z
Si Si1 0.671616 0.947135 0.068660
Si Si2 0.363610 0.115728 0.457850
Si Si3 0.604390 0.488357 0.262635
Si Si4 0.242786 0.667631 0.507281
Si Si5 0.594904 0.796143 0.730024
O O1 0.642422 0.999842 0.270554
O O2 0.700080 0.136468 0.974496
O O3 0.765618 0.839244 0.046622
O O4 0.599658 0.852998 0.939794
O O5 0.401284 0.304874 0.384573
O O6 0.404466 0.977970 0.605919
O O7 0.500000 0.556667 0.246194
O O8 0.682488 0.605801 0.361409
O O9 0.654334 0.444433 0.069940
O O10 0.311522 0.695444 0.680438
O O11 0.500000 0.696758 0.688916
#
# Coordination Sequence:
#
# PCOD9343036 Si02
#       5
#     4   4   4   4   4
#     4  10  19  38  64  91 126 165 207 266 323 372
#     4  10  20  38  64  93 124 167 212 265 319 382
#     4  11  23  42  65  92 130 174 214 262 329 389
#     4  10  24  41  65  90 135 163 216 268 323 384
#     4  11  22  39  64  96 127 165 215 265 326 387
#
# _framework density 25.094971999999999
#
# number of rings (size 3 to 8) (size 9 to 14) (size 15 to 20)
#    0.000    1.600    6.000    1.200    2.800    4.000 
#    0.000    2.000    0.000    0.000    0.000    0.000 
#    0.000    0.000    0.000    0.000    0.000    0.000 
#
# Total GULP energy -111613.672692 kJ/mol
# GULP energy per Si atom -5580.683635 kJ/mol
# Density = 2.503785 g / cm^3
# Si number density = 25.094972 Si / 1000 Ang^3
#
#
#
# Elastic Constant Matrix: (Units=GPa)
#
#
# Indices 1 2 3 4 5 6 
#
# 1 167.2046 21.2890 27.3375 0.0000 0.0000 0.0000
# 2 21.2890 65.8296 14.5948 0.0000 0.0000 0.0000
# 3 27.3375 14.5948 79.4025 0.0000 0.0000 0.0000
# 4 0.0000 0.0000 0.0000 34.1576 0.0000 0.0000
# 5 0.0000 0.0000 0.0000 0.0000 -3.0635 0.0000
# 6 0.0000 0.0000 0.0000 0.0000 0.0000 14.1930
#
#
#
# Elastic Compliance Matrix: (Units=1/GPa)
#
#
# Indices 1 2 3 4 5 6 
#
# 1 0.006510 -0.001677 -0.001933 0.000000 0.000000 0.000000
# 2 -0.001677 0.016268 -0.002413 0.000000 0.000000 0.000000
# 3 -0.001933 -0.002413 0.013703 0.000000 0.000000 0.000000
# 4 0.000000 0.000000 0.000000 0.029276 0.000000 0.000000
# 5 0.000000 0.000000 0.000000 0.000000 -0.326427 0.000000
# 6 0.000000 0.000000 0.000000 0.000000 0.000000 0.070457
#
#
# Mechanical properties :
#
#
# Convention : Reuss Voigt Hill
#
# Bulk Modulus (GPa) = 40.92388 48.76438 44.84413
# Shear Modulus (GPa) = -29.40805 25.67180 -1.86812
#
# Velocity S-wave (km/s) = -3.42697 3.20188 -0.86373
# Velocity P-wave (km/s) = 0.82713 5.75704 4.11264
#
# Compressibility (1/GPa) = 0.02443561
#
# Stress axis : x y z
#
# Youngs Moduli (GPa) = 153.60362 61.47060 72.97588
#
# Poissons Ratio (x) = 0.10307 0.14108
# Poissons Ratio (y) = 0.25756 0.17608
# Poissons Ratio (z) = 0.29695 0.14832
#
# Static dielectric constant tensor:
#      x y z
#    x 2.036490 0.000000 0.000000 
#    y 0.000000 2.059180 0.000000 
#    z 0.000000 0.000000 1.994180 
# 
# From -- ./inp_files/2377.got.cif
#   From: 2010.05.17/outbox.cif.g08.bks.cpg/sg31_2_cif.got.tgz:2377.got - 2010.06.03 17:08:30.
