data_PCOD9343046
_publ_section_title
;
Structure prediction by ZEFSAII (Michael W. Deem and Ramdas Pophale) SiO2 
 PCOD9343046
Probable space group: P M N 21
;
_chemical_formula_sum "Si O2"
_cell_formula_units_Z 32
_cell_length_a 9.243486
_cell_length_b 21.069275
_cell_length_c 6.967406
_cell_angle_alpha 90.000000
_cell_angle_beta 90.000000
_cell_angle_gamma 90.000000
_cell_volume 1356.927042
_symmetry_space_group_name_H-M "P M N 21"
_symmetry_group_IT_number 31
_symmetry_cell_setting 'orthorhombic'
loop_
_space_group_symop_operation_xyz
x,y,z
1/2-x,-y,1/2+z
-x,y,z
1/2+x,-y,1/2+z
loop_
_atom_site_type_symbol
_atom_site_label
_atom_site_fract_x
_atom_site_fract_y
_atom_site_fract_z
Si Si1 0.335252 0.660282 0.080590
Si Si2 0.333698 0.701789 0.534384
Si Si3 0.837150 0.581882 0.631145
Si Si4 0.827050 0.200040 0.511606
Si Si5 0.662472 0.082955 0.393687
Si Si6 0.674238 0.177204 0.921728
Si Si7 0.661272 0.041551 0.836718
Si Si8 0.338940 0.456359 0.687427
O O1 0.500000 0.640955 0.034496
O O2 0.334998 0.680395 0.307960
O O3 0.298679 0.725745 0.972112
O O4 0.229475 0.600586 0.063050
O O5 0.500000 0.714598 0.587600
O O6 0.265594 0.642721 0.647146
O O7 0.238771 0.765551 0.546262
O O8 0.500000 0.407777 0.203761
O O9 0.764403 0.516926 0.699650
O O10 0.849585 0.570708 0.401678
O O11 0.759486 0.145751 0.378217
O O12 0.752355 0.188948 0.717816
O O13 0.000000 0.192181 0.525628
O O14 0.500000 0.094317 0.321950
O O15 0.732451 0.017520 0.324459
O O16 0.651505 0.069052 0.622419
O O17 0.500000 0.182940 0.906235
O O18 0.705557 0.102674 0.964690
O O19 0.500000 0.020072 0.895849
O O20 0.500000 0.474856 0.622058
#
# Coordination Sequence:
#
# PCOD9343046 Si02
#       8
#     4   4   4   4   4   4   4   4
#     4   8  15  27  44  67  93 122 155 193 236 279
#     4   9  16  27  45  69  95 123 158 198 239 282
#     4  10  20  33  50  72  99 130 161 197 241 286
#     4   9  16  27  45  68  94 124 157 196 241 283
#     4  10  20  32  49  73  98 127 162 198 239 287
#     4   9  16  27  44  68  96 123 157 200 240 280
#     4   9  19  33  48  70  99 128 159 196 237 284
#     4  10  20  32  49  73  98 127 161 196 237 285
#
# _framework density 23.582697
#
# number of rings (size 3 to 8) (size 9 to 14) (size 15 to 20)
#    0.000    2.750    0.000    3.750    0.000    8.000 
#    0.000    0.000    0.000    1.500    0.000    8.750 
#    0.000    0.000    0.000    0.000    0.000    0.000 
#
# Total GULP energy -178890.201134 kJ/mol
# GULP energy per Si atom -5590.318785 kJ/mol
# Density = 2.352902 g / cm^3
# Si number density = 23.582697 Si / 1000 Ang^3
#
#
#
# Elastic Constant Matrix: (Units=GPa)
#
#
# Indices 1 2 3 4 5 6 
#
# 1 160.9071 110.1094 9.9659 0.0000 0.0000 0.0000
# 2 110.1094 174.8686 18.3427 0.0000 0.0000 0.0000
# 3 9.9659 18.3427 57.7588 0.0000 0.0000 0.0000
# 4 0.0000 0.0000 0.0000 45.7401 0.0000 0.0000
# 5 0.0000 0.0000 0.0000 0.0000 14.4973 0.0000
# 6 0.0000 0.0000 0.0000 0.0000 0.0000 47.2802
#
#
#
# Elastic Compliance Matrix: (Units=1/GPa)
#
#
# Indices 1 2 3 4 5 6 
#
# 1 0.010925 -0.006912 0.000310 0.000000 0.000000 0.000000
# 2 -0.006912 0.010288 -0.002075 0.000000 0.000000 0.000000
# 3 0.000310 -0.002075 0.017919 0.000000 0.000000 0.000000
# 4 0.000000 0.000000 0.000000 0.021863 0.000000 0.000000
# 5 0.000000 0.000000 0.000000 0.000000 0.068978 0.000000
# 6 0.000000 0.000000 0.000000 0.000000 0.000000 0.021151
#
#
# Mechanical properties :
#
#
# Convention : Reuss Voigt Hill
#
# Bulk Modulus (GPa) = 45.91534 74.48562 60.20048
# Shear Modulus (GPa) = 28.45159 38.51130 33.48144
#
# Velocity S-wave (km/s) = 3.47718 4.04546 3.77204
# Velocity P-wave (km/s) = 5.96936 7.31262 6.67487
#
# Compressibility (1/GPa) = 0.02177921
#
# Stress axis : x y z
#
# Youngs Moduli (GPa) = 91.52958 97.19654 55.80735
#
# Poissons Ratio (x) = 0.67181 -0.01730
# Poissons Ratio (y) = 0.63265 0.11579
# Poissons Ratio (z) = -0.02837 0.20166
#
# Static dielectric constant tensor:
#      x y z
#    x 1.881340 0.000000 0.000000 
#    y 0.000000 1.855780 0.000000 
#    z 0.000000 0.000000 2.036110 
# 
# From -- ./inp_files/3766.got.cif
#   From: 2010.05.17/outbox.cif.g08.bks.cpg/sg31_2_cif.got.tgz:3766.got - 2010.06.03 17:08:30.
