data_PCOD9343547
_publ_section_title
;
Structure prediction by ZEFSAII (Michael W. Deem and Ramdas Pophale) SiO2 
 PCOD9343547
Probable space group: P M N 21
;
_chemical_formula_sum "Si O2"
_cell_formula_units_Z 24
_cell_length_a 20.411621
_cell_length_b 11.614573
_cell_length_c 5.024940
_cell_angle_alpha 90.000000
_cell_angle_beta 90.000000
_cell_angle_gamma 90.000000
_cell_volume 1191.273893
_symmetry_space_group_name_H-M "P M N 21"
_symmetry_group_IT_number 31
_symmetry_cell_setting 'orthorhombic'
loop_
_space_group_symop_operation_xyz
x,y,z
1/2-x,-y,1/2+z
-x,y,z
1/2+x,-y,1/2+z
loop_
_atom_site_type_symbol
_atom_site_label
_atom_site_fract_x
_atom_site_fract_y
_atom_site_fract_z
Si Si1 0.625178 0.625512 0.113610
Si Si2 0.000000 0.692542 0.222376
Si Si3 0.691373 0.394238 0.062818
Si Si4 0.247794 0.925583 0.908844
Si Si5 0.671865 0.732282 0.620627
Si Si6 0.640618 0.264011 0.553899
Si Si7 0.000000 0.529319 0.728482
O O1 0.682570 0.529291 0.104319
O O2 0.643998 0.723837 0.324532
O O3 0.562288 0.552473 0.190173
O O4 0.619968 0.677607 0.821584
O O5 0.000000 0.632922 0.511441
O O6 0.066984 0.760097 0.153702
O O7 0.000000 0.585482 0.017926
O O8 0.763589 0.348147 0.117984
O O9 0.643997 0.329476 0.272874
O O10 0.670294 0.351303 0.772228
O O11 0.301642 0.848712 0.753596
O O12 0.188845 0.844517 0.015528
O O13 0.225312 0.010689 0.671255
#
# Coordination Sequence:
#
# PCOD9343547 Si02
#       7
#     4   2   4   4   4   4   2
#     4  12  21  37  55  88 124 166 192 232 290 367
#     4  12  20  40  56  89 124 161 198 242 290 377
#     4  11  20  36  55  91 122 158 187 240 296 370
#     4  11  23  42  64  88 115 156 210 274 328 351
#     4  11  23  36  60  86 118 154 202 247 304 360
#     4  11  21  36  62  88 121 156 200 247 312 363
#     4  12  24  36  60  81 132 173 196 226 286 371
#
# _framework density 20.146501000000001
#
# number of rings (size 3 to 8) (size 9 to 14) (size 15 to 20)
#    0.000    0.667    3.333    8.000    0.000    0.000 
#    0.000    0.000    0.000    6.000    0.000    0.000 
#    0.000    0.000    0.000    0.000    0.000    0.000 
#
# Total GULP energy -134117.089565 kJ/mol
# GULP energy per Si atom -5588.212065 kJ/mol
# Density = 2.010065 g / cm^3
# Si number density = 20.146501 Si / 1000 Ang^3
#
#
#
# Elastic Constant Matrix: (Units=GPa)
#
#
# Indices 1 2 3 4 5 6 
#
# 1 54.3208 8.8425 11.9116 0.0000 0.0000 0.0000
# 2 8.8425 60.3720 24.0895 0.0000 0.0000 0.0000
# 3 11.9116 24.0895 105.1263 0.0000 0.0000 0.0000
# 4 0.0000 0.0000 0.0000 38.3381 0.0000 0.0000
# 5 0.0000 0.0000 0.0000 0.0000 23.7904 0.0000
# 6 0.0000 0.0000 0.0000 0.0000 0.0000 17.1528
#
#
#
# Elastic Compliance Matrix: (Units=1/GPa)
#
#
# Indices 1 2 3 4 5 6 
#
# 1 0.019124 -0.002131 -0.001679 0.000000 0.000000 0.000000
# 2 -0.002131 0.018468 -0.003991 0.000000 0.000000 0.000000
# 3 -0.001679 -0.003991 0.010617 0.000000 0.000000 0.000000
# 4 0.000000 0.000000 0.000000 0.026084 0.000000 0.000000
# 5 0.000000 0.000000 0.000000 0.000000 0.042034 0.000000
# 6 0.000000 0.000000 0.000000 0.000000 0.000000 0.058300
#
#
# Mechanical properties :
#
#
# Convention : Reuss Voigt Hill
#
# Bulk Modulus (GPa) = 30.66650 34.38960 32.52805
# Shear Modulus (GPa) = 24.86364 27.52130 26.19247
#
# Velocity S-wave (km/s) = 3.51685 3.70003 3.60960
# Velocity P-wave (km/s) = 5.63434 5.94647 5.79250
#
# Compressibility (1/GPa) = 0.03260887
#
# Stress axis : x y z
#
# Youngs Moduli (GPa) = 52.28991 54.14653 94.18877
#
# Poissons Ratio (x) = 0.11540 0.15810
# Poissons Ratio (y) = 0.11144 0.37586
# Poissons Ratio (z) = 0.08777 0.21607
#
# Static dielectric constant tensor:
#      x y z
#    x 1.754270 0.000000 0.000000 
#    y 0.000000 1.722360 0.000000 
#    z 0.000000 0.000000 1.714040 
# 
# From -- ./inp_files/963.got.cif
#   From: 2010.05.17/outbox.cif.g08.bks.cpg/sg31_1_cif.got.tgz:963.got - 2010.06.03 17:08:30.
