data_PCOD9343731
_publ_section_title
;
Structure prediction by ZEFSAII (Michael W. Deem and Ramdas Pophale) SiO2 
 PCOD9343731
Probable space group: P B A 2
;
_chemical_formula_sum "Si O2"
_cell_formula_units_Z 30
_cell_length_a 8.733341
_cell_length_b 20.437632
_cell_length_c 8.351275
_cell_angle_alpha 90.000000
_cell_angle_beta 90.000000
_cell_angle_gamma 90.000000
_cell_volume 1490.609132
_symmetry_space_group_name_H-M "P B A 2"
_symmetry_group_IT_number 32
_symmetry_cell_setting 'orthorhombic'
loop_
_space_group_symop_operation_xyz
x,y,z
-x,-y,z
1/2-x,1/2+y,z
1/2+x,1/2-y,z
loop_
_atom_site_type_symbol
_atom_site_label
_atom_site_fract_x
_atom_site_fract_y
_atom_site_fract_z
Si Si1 0.888610 0.841838 0.844120
Si Si2 0.746706 0.952668 0.633435
Si Si3 0.365763 0.839181 0.114028
Si Si4 0.871087 0.249269 0.963011
Si Si5 0.956641 0.423242 0.353458
Si Si6 0.348346 0.573488 0.155041
Si Si7 0.500000 0.500000 0.405619
Si Si8 0.668070 0.026527 0.954099
O O1 0.852454 0.895679 0.709914
O O2 0.746290 0.792928 0.862174
O O3 0.893861 0.878399 0.015314
O O4 0.041203 0.799309 0.842068
O O5 0.605312 0.920752 0.536098
O O6 0.849180 0.995718 0.512791
O O7 0.696105 0.999506 0.777010
O O8 0.221162 0.791394 0.098125
O O9 0.507119 0.795938 0.050209
O O10 0.412503 0.876416 0.278944
O O11 0.335875 0.897080 0.986076
O O12 0.806197 0.406466 0.247655
O O13 0.000000 0.500000 0.335021
O O14 0.477960 0.560938 0.286143
O O15 0.296403 0.506820 0.065434
O O16 0.500000 0.000000 0.998919
#
# Coordination Sequence:
#
# PCOD9343731 Si02
#       8
#     4   4   4   4   4   4   2   4
#     4  10  21  41  62  87 122 165 217 263 303 373
#     4  10  24  37  61  95 131 156 194 266 336 386
#     4  11  20  38  61  88 123 159 218 255 295 371
#     4  10  23  36  62  88 114 169 229 253 291 359
#     4  11  19  37  61  93 126 153 195 260 328 384
#     4  10  19  35  61  89 121 155 198 260 313 378
#     4  10  24  36  54  96 132 154 186 246 356 378
#     4  11  19  36  65  92 115 157 203 252 316 377
#
# _framework density 20.126000000000001
#
# number of rings (size 3 to 8) (size 9 to 14) (size 15 to 20)
#    0.000    1.600    4.000    1.200    3.733    1.067 
#    0.000    1.333    0.000    0.000    0.000    0.000 
#    0.000    0.000    0.000    0.000    0.000    0.000 
#
# Total GULP energy -167354.837839 kJ/mol
# GULP energy per Si atom -5578.494595 kJ/mol
# Density = 2.008019 g / cm^3
# Si number density = 20.126000 Si / 1000 Ang^3
#
#
#
# Elastic Constant Matrix: (Units=GPa)
#
#
# Indices 1 2 3 4 5 6 
#
# 1 76.4126 42.0654 28.6333 0.0000 0.0000 0.0000
# 2 42.0654 99.9501 29.3498 0.0000 0.0000 0.0000
# 3 28.6333 29.3498 106.2798 0.0000 0.0000 0.0000
# 4 0.0000 0.0000 0.0000 6.8261 0.0000 0.0000
# 5 0.0000 0.0000 0.0000 0.0000 18.7564 0.0000
# 6 0.0000 0.0000 0.0000 0.0000 0.0000 34.0681
#
#
#
# Elastic Compliance Matrix: (Units=1/GPa)
#
#
# Indices 1 2 3 4 5 6 
#
# 1 0.017859 -0.006642 -0.002977 0.000000 0.000000 0.000000
# 2 -0.006642 0.013358 -0.001900 0.000000 0.000000 0.000000
# 3 -0.002977 -0.001900 0.010736 0.000000 0.000000 0.000000
# 4 0.000000 0.000000 0.000000 0.146498 0.000000 0.000000
# 5 0.000000 0.000000 0.000000 0.000000 0.053315 0.000000
# 6 0.000000 0.000000 0.000000 0.000000 0.000000 0.029353
#
#
# Mechanical properties :
#
#
# Convention : Reuss Voigt Hill
#
# Bulk Modulus (GPa) = 52.86671 53.63772 53.25221
# Shear Modulus (GPa) = 16.64110 24.10303 20.37207
#
# Velocity S-wave (km/s) = 2.87861 3.46440 3.18500
# Velocity P-wave (km/s) = 6.11338 6.53541 6.32791
#
# Compressibility (1/GPa) = 0.01891550
#
# Stress axis : x y z
#
# Youngs Moduli (GPa) = 55.99464 74.86088 93.14634
#
# Poissons Ratio (x) = 0.49722 0.27732
# Poissons Ratio (y) = 0.37191 0.17693
# Poissons Ratio (z) = 0.16671 0.14220
#
# Static dielectric constant tensor:
#      x y z
#    x 1.776270 0.000000 0.000000 
#    y 0.000000 1.733120 0.000000 
#    z 0.000000 0.000000 1.726480 
# 
# From -- ./inp_files/2552.got.cif
#   From: 2010.05.17/outbox.cif.g08.bks.cpg/sg32_2_cif.got.tgz:2552.got - 2010.06.03 17:12:27.
