data_PCOD9343225
_publ_section_title
;
Structure prediction by ZEFSAII (Michael W. Deem and Ramdas Pophale) SiO2 
 PCOD9343225
Probable space group: P M N 21
;
_chemical_formula_sum "Si O2"
_cell_formula_units_Z 32
_cell_length_a 8.632965
_cell_length_b 16.059512
_cell_length_c 11.399732
_cell_angle_alpha 90.000000
_cell_angle_beta 90.000000
_cell_angle_gamma 90.000000
_cell_volume 1580.472581
_symmetry_space_group_name_H-M "P M N 21"
_symmetry_group_IT_number 31
_symmetry_cell_setting 'orthorhombic'
loop_
_space_group_symop_operation_xyz
x,y,z
1/2-x,-y,1/2+z
-x,y,z
1/2+x,-y,1/2+z
loop_
_atom_site_type_symbol
_atom_site_label
_atom_site_fract_x
_atom_site_fract_y
_atom_site_fract_z
Si Si1 0.184962 0.163659 0.924360
Si Si2 0.818577 0.157316 0.584848
Si Si3 0.816775 0.467082 0.693672
Si Si4 0.815544 0.014409 0.749709
Si Si5 0.818220 0.160528 0.197386
Si Si6 0.179973 0.708871 0.256603
Si Si7 0.687032 0.445191 0.437770
Si Si8 0.817764 0.744696 0.887578
O O1 0.228532 0.081685 0.849368
O O2 0.269587 0.245247 0.875317
O O3 0.000000 0.174736 0.906359
O O4 0.216262 0.152325 0.060088
O O5 0.785524 0.064198 0.627919
O O6 0.715935 0.220302 0.661017
O O7 0.777830 0.184458 0.455135
O O8 0.000000 0.172122 0.609932
O O9 0.779530 0.371320 0.724571
O O10 0.747516 0.481831 0.562315
O O11 0.761025 0.515594 0.812199
O O12 0.000000 0.481548 0.684844
O O13 0.000000 0.998524 0.759471
O O14 0.727230 0.928330 0.752000
O O15 0.721661 0.235861 0.253493
O O16 0.000000 0.176943 0.212383
O O17 0.000000 0.686161 0.255505
O O18 0.500000 0.451315 0.440863
O O19 0.728516 0.347055 0.430335
O O20 0.000000 0.754611 0.909012
#
# Coordination Sequence:
#
# PCOD9343225 Si02
#       8
#     4   4   4   4   4   4   4   4
#     4   9  21  41  59  82 119 160 204 258 311 368
#     4  10  20  37  62  90 118 153 199 248 300 360
#     4  11  23  41  67  97 131 170 211 266 325 386
#     4   9  20  38  59  85 117 155 199 253 310 365
#     4  11  24  39  58  87 122 161 209 257 311 374
#     4  11  21  36  62  92 119 155 201 249 304 369
#     4  10  24  44  65  95 130 166 217 270 323 390
#     4  11  23  40  62  88 124 164 204 255 312 374
#
# _framework density 20.247108999999998
#
# number of rings (size 3 to 8) (size 9 to 14) (size 15 to 20)
#    0.000    1.750    1.250    3.375    1.750    6.000 
#    0.000    2.500    0.000    0.000    0.000    0.000 
#    0.000    0.000    0.000    0.000    0.000    0.000 
#
# Total GULP energy -178581.289218 kJ/mol
# GULP energy per Si atom -5580.665288 kJ/mol
# Density = 2.020103 g / cm^3
# Si number density = 20.247109 Si / 1000 Ang^3
#
#
#
# Elastic Constant Matrix: (Units=GPa)
#
#
# Indices 1 2 3 4 5 6 
#
# 1 15.5173 7.9442 32.3882 0.0000 0.0000 0.0000
# 2 7.9442 49.1973 43.0236 0.0000 0.0000 0.0000
# 3 32.3882 43.0236 124.3292 0.0000 0.0000 0.0000
# 4 0.0000 0.0000 0.0000 26.5617 0.0000 0.0000
# 5 0.0000 0.0000 0.0000 0.0000 34.1551 0.0000
# 6 0.0000 0.0000 0.0000 0.0000 0.0000 21.7919
#
#
#
# Elastic Compliance Matrix: (Units=1/GPa)
#
#
# Indices 1 2 3 4 5 6 
#
# 1 0.147719 0.014052 -0.043344 0.000000 0.000000 0.000000
# 2 0.014052 0.030483 -0.014209 0.000000 0.000000 0.000000
# 3 -0.043344 -0.014209 0.024251 0.000000 0.000000 0.000000
# 4 0.000000 0.000000 0.000000 0.037648 0.000000 0.000000
# 5 0.000000 0.000000 0.000000 0.000000 0.029278 0.000000
# 6 0.000000 0.000000 0.000000 0.000000 0.000000 0.045889
#
#
# Mechanical properties :
#
#
# Convention : Reuss Voigt Hill
#
# Bulk Modulus (GPa) = 8.66166 39.52842 24.09504
# Shear Modulus (GPa) = 11.34415 23.54761 17.44588
#
# Velocity S-wave (km/s) = 2.36960 3.41399 2.93857
# Velocity P-wave (km/s) = 3.43132 5.92502 4.84148
#
# Compressibility (1/GPa) = 0.11545129
#
# Stress axis : x y z
#
# Youngs Moduli (GPa) = 6.76959 32.80478 41.23465
#
# Poissons Ratio (x) = -0.46096 1.78727
# Poissons Ratio (y) = -0.09512 0.58591
# Poissons Ratio (z) = 0.29342 0.46613
#
# Static dielectric constant tensor:
#      x y z
#    x 1.692810 0.000000 0.000000 
#    y 0.000000 1.682450 0.000000 
#    z 0.000000 0.000000 1.804810 
# 
# From -- ./inp_files/3589.got.cif
#   From: 2010.05.17/outbox.cif.g08.bks.cpg/sg31_2_cif.got.tgz:3589.got - 2010.06.03 17:08:30.
