data_PCOD9343255
_publ_section_title
;
Structure prediction by ZEFSAII (Michael W. Deem and Ramdas Pophale) SiO2 
 PCOD9343255
Probable space group: P M N 21
;
_chemical_formula_sum "Si O2"
_cell_formula_units_Z 32
_cell_length_a 29.146951
_cell_length_b 6.548383
_cell_length_c 8.093638
_cell_angle_alpha 90.000000
_cell_angle_beta 90.000000
_cell_angle_gamma 90.000000
_cell_volume 1544.795442
_symmetry_space_group_name_H-M "P M N 21"
_symmetry_group_IT_number 31
_symmetry_cell_setting 'orthorhombic'
loop_
_space_group_symop_operation_xyz
x,y,z
1/2-x,-y,1/2+z
-x,y,z
1/2+x,-y,1/2+z
loop_
_atom_site_type_symbol
_atom_site_label
_atom_site_fract_x
_atom_site_fract_y
_atom_site_fract_z
Si Si1 0.390912 0.015724 0.963990
Si Si2 0.210649 0.253185 0.167408
Si Si3 0.135002 0.332967 0.722669
Si Si4 0.319719 0.191378 0.701457
Si Si5 0.267333 0.546649 0.315564
Si Si6 0.871896 0.449463 0.079069
Si Si7 0.052601 0.608239 0.597078
Si Si8 0.050753 0.315533 0.279563
O O1 0.420254 0.879972 0.836064
O O2 0.351729 0.135014 0.859959
O O3 0.371293 0.860916 0.103729
O O4 0.425965 0.174011 0.049027
O O5 0.249166 0.314591 0.299475
O O6 0.161177 0.347145 0.217759
O O7 0.201395 0.018689 0.136581
O O8 0.223938 0.371962 0.999617
O O9 0.186483 0.424107 0.708159
O O10 0.093076 0.491097 0.695123
O O11 0.132242 0.304956 0.920240
O O12 0.275549 0.322045 0.752456
O O13 0.350915 0.322698 0.573416
O O14 0.923223 0.439452 0.138668
O O15 0.049058 0.468767 0.433832
O O16 0.000000 0.621962 0.664622
O O17 0.000000 0.253672 0.230984
#
# Coordination Sequence:
#
# PCOD9343255 Si02
#       8
#     4   4   4   4   4   4   4   4
#     4  11  22  39  66  92 120 166 215 260 320 389
#     4  10  23  40  60  86 125 159 211 255 307 373
#     4  10  25  40  64  90 135 162 206 267 332 377
#     4  11  23  37  68  86 128 167 219 258 317 387
#     4  10  25  38  61  93 125 166 208 260 315 382
#     4  10  21  43  58  90 122 164 202 261 319 382
#     4  10  22  41  65  94 125 166 217 266 322 394
#     4  10  20  38  65  91 121 160 209 263 320 386
#
# _framework density 20.714718000000001
#
# number of rings (size 3 to 8) (size 9 to 14) (size 15 to 20)
#    0.000    1.750    2.500    0.375    5.250    5.000 
#    0.000    0.000    0.000    0.000    0.000    0.000 
#    0.000    0.000    0.000    0.000    0.000    0.000 
#
# Total GULP energy -178306.611760 kJ/mol
# GULP energy per Si atom -5572.081618 kJ/mol
# Density = 2.066757 g / cm^3
# Si number density = 20.714718 Si / 1000 Ang^3
#
#
#
# Elastic Constant Matrix: (Units=GPa)
#
#
# Indices 1 2 3 4 5 6 
#
# 1 164.8082 38.8035 33.4588 0.0000 0.0000 0.0000
# 2 38.8035 85.8234 10.1343 0.0000 0.0000 0.0000
# 3 33.4588 10.1343 41.4299 0.0000 0.0000 0.0000
# 4 0.0000 0.0000 0.0000 19.3470 0.0000 0.0000
# 5 0.0000 0.0000 0.0000 0.0000 26.8882 0.0000
# 6 0.0000 0.0000 0.0000 0.0000 0.0000 23.0827
#
#
#
# Elastic Compliance Matrix: (Units=1/GPa)
#
#
# Indices 1 2 3 4 5 6 
#
# 1 0.007903 -0.002903 -0.005672 0.000000 0.000000 0.000000
# 2 -0.002903 0.013065 -0.000851 0.000000 0.000000 0.000000
# 3 -0.005672 -0.000851 0.028926 0.000000 0.000000 0.000000
# 4 0.000000 0.000000 0.000000 0.051688 0.000000 0.000000
# 5 0.000000 0.000000 0.000000 0.000000 0.037191 0.000000
# 6 0.000000 0.000000 0.000000 0.000000 0.000000 0.043322
#
#
# Mechanical properties :
#
#
# Convention : Reuss Voigt Hill
#
# Bulk Modulus (GPa) = 32.21563 50.76160 41.48862
# Shear Modulus (GPa) = 23.66359 27.84125 25.75242
#
# Velocity S-wave (km/s) = 3.38354 3.67008 3.52972
# Velocity P-wave (km/s) = 5.55430 6.52055 6.05673
#
# Compressibility (1/GPa) = 0.03104083
#
# Stress axis : x y z
#
# Youngs Moduli (GPa) = 126.53809 76.54026 34.57078
#
# Poissons Ratio (x) = 0.22222 0.19609
# Poissons Ratio (y) = 0.36738 0.02943
# Poissons Ratio (z) = 0.71773 0.06515
#
# Static dielectric constant tensor:
#      x y z
#    x 1.804180 0.000000 0.000000 
#    y 0.000000 1.781890 0.000000 
#    z 0.000000 0.000000 1.783550 
# 
# From -- ./inp_files/3201.got.cif
#   From: 2010.05.17/outbox.cif.g08.bks.cpg/sg31_2_cif.got.tgz:3201.got - 2010.06.03 17:08:30.
