data_PCOD9343422
_publ_section_title
;
Structure prediction by ZEFSAII (Michael W. Deem and Ramdas Pophale) SiO2 
 PCOD9343422
Probable space group: P M N 21
;
_chemical_formula_sum "Si O2"
_cell_formula_units_Z 32
_cell_length_a 14.650824
_cell_length_b 8.181239
_cell_length_c 12.899675
_cell_angle_alpha 90.000000
_cell_angle_beta 90.000000
_cell_angle_gamma 90.000000
_cell_volume 1546.179461
_symmetry_space_group_name_H-M "P M N 21"
_symmetry_group_IT_number 31
_symmetry_cell_setting 'orthorhombic'
loop_
_space_group_symop_operation_xyz
x,y,z
1/2-x,-y,1/2+z
-x,y,z
1/2+x,-y,1/2+z
loop_
_atom_site_type_symbol
_atom_site_label
_atom_site_fract_x
_atom_site_fract_y
_atom_site_fract_z
Si Si1 0.852599 0.968462 0.842320
Si Si2 0.895826 0.085992 0.617565
Si Si3 0.099286 0.202136 0.023744
Si Si4 0.230341 0.626821 0.847565
Si Si5 0.391653 0.542897 0.191963
Si Si6 0.840014 0.932857 0.410444
Si Si7 0.597609 0.808744 0.757299
Si Si8 0.205536 0.617110 0.505107
O O1 0.836404 0.779125 0.867376
O O2 0.888456 0.989420 0.726059
O O3 0.753339 0.050857 0.847018
O O4 0.901695 0.068227 0.932822
O O5 0.879501 0.274416 0.647671
O O6 0.000000 0.070437 0.579242
O O7 0.834033 0.016980 0.524646
O O8 0.103204 0.128431 0.139498
O O9 0.000000 0.290872 0.016150
O O10 0.192865 0.305926 0.017289
O O11 0.170162 0.487188 0.792806
O O12 0.314301 0.696980 0.779434
O O13 0.277536 0.553263 0.948234
O O14 0.500000 0.518635 0.209591
O O15 0.349807 0.415298 0.109703
O O16 0.852852 0.743151 0.435152
O O17 0.902947 0.044572 0.339701
O O18 0.500000 0.719142 0.767625
#
# Coordination Sequence:
#
# PCOD9343422 Si02
#       8
#     4   4   4   4   4   4   4   4
#     4  10  22  37  62  89 121 160 211 255 312 374
#     4  11  23  41  65  93 124 165 216 266 311 375
#     4  10  21  41  65  89 126 174 219 260 312 384
#     4  11  23  41  61  96 130 165 204 266 324 384
#     4  11  23  39  62  93 130 167 209 264 328 377
#     4  10  22  37  62  89 121 160 211 255 312 374
#     4  10  21  41  65  89 126 174 219 260 312 384
#     4  11  23  41  61  96 130 165 204 266 324 384
#
# _framework density 20.696173999999999
#
# number of rings (size 3 to 8) (size 9 to 14) (size 15 to 20)
#    0.000    1.500    1.250    4.500    5.250    6.000 
#    2.250    0.000    0.000    3.000    0.000    0.000 
#    0.000    0.000    0.000    0.000    0.000    0.000 
#
# Total GULP energy -178428.522134 kJ/mol
# GULP energy per Si atom -5575.891317 kJ/mol
# Density = 2.064907 g / cm^3
# Si number density = 20.696174 Si / 1000 Ang^3
#
#
#
# Elastic Constant Matrix: (Units=GPa)
#
#
# Indices 1 2 3 4 5 6 
#
# 1 101.3191 11.0072 15.3680 0.0000 0.0000 0.0000
# 2 11.0072 58.3003 7.7012 0.0000 0.0000 0.0000
# 3 15.3680 7.7012 91.5582 0.0000 0.0000 0.0000
# 4 0.0000 0.0000 0.0000 30.0019 0.0000 0.0000
# 5 0.0000 0.0000 0.0000 0.0000 22.6469 0.0000
# 6 0.0000 0.0000 0.0000 0.0000 0.0000 80.1772
#
#
#
# Elastic Compliance Matrix: (Units=1/GPa)
#
#
# Indices 1 2 3 4 5 6 
#
# 1 0.010298 -0.001735 -0.001583 0.000000 0.000000 0.000000
# 2 -0.001735 0.017638 -0.001192 0.000000 0.000000 0.000000
# 3 -0.001583 -0.001192 0.011288 0.000000 0.000000 0.000000
# 4 0.000000 0.000000 0.000000 0.033331 0.000000 0.000000
# 5 0.000000 0.000000 0.000000 0.000000 0.044156 0.000000
# 6 0.000000 0.000000 0.000000 0.000000 0.000000 0.012472
#
#
# Mechanical properties :
#
#
# Convention : Reuss Voigt Hill
#
# Bulk Modulus (GPa) = 33.10862 35.48117 34.29489
# Shear Modulus (GPa) = 33.72182 41.03862 37.38022
#
# Velocity S-wave (km/s) = 4.04093 4.45782 4.25448
# Velocity P-wave (km/s) = 6.14852 6.60887 6.38285
#
# Compressibility (1/GPa) = 0.03020361
#
# Stress axis : x y z
#
# Youngs Moduli (GPa) = 97.10269 56.69670 88.59012
#
# Poissons Ratio (x) = 0.09839 0.14020
# Poissons Ratio (y) = 0.16850 0.10563
# Poissons Ratio (z) = 0.15368 0.06760
#
# Static dielectric constant tensor:
#      x y z
#    x 1.791690 0.000000 0.000000 
#    y 0.000000 1.742490 0.000000 
#    z 0.000000 0.000000 1.728860 
# 
# From -- ./inp_files/4280.got.cif
#   From: 2010.05.17/outbox.cif.g08.bks.cpg/sg31_3_cif.got.tgz:4280.got - 2010.06.03 17:08:30.
