data_PCOD9343849
_publ_section_title
;
Structure prediction by ZEFSAII (Michael W. Deem and Ramdas Pophale) SiO2 
 PCOD9343849
Probable space group: P B A 2
;
_chemical_formula_sum "Si O2"
_cell_formula_units_Z 32
_cell_length_a 14.649590
_cell_length_b 9.089765
_cell_length_c 11.067459
_cell_angle_alpha 90.000000
_cell_angle_beta 90.000000
_cell_angle_gamma 90.000000
_cell_volume 1473.757565
_symmetry_space_group_name_H-M "P B A 2"
_symmetry_group_IT_number 32
_symmetry_cell_setting 'orthorhombic'
loop_
_space_group_symop_operation_xyz
x,y,z
-x,-y,z
1/2-x,1/2+y,z
1/2+x,1/2-y,z
loop_
_atom_site_type_symbol
_atom_site_label
_atom_site_fract_x
_atom_site_fract_y
_atom_site_fract_z
Si Si1 0.805509 0.945612 0.361280
Si Si2 0.840434 0.264606 0.250977
Si Si3 0.304393 0.268139 0.980838
Si Si4 0.513262 0.324761 0.939319
Si Si5 0.900286 0.925942 0.612996
Si Si6 0.259358 0.518580 0.820784
Si Si7 0.461414 0.668045 0.204688
Si Si8 0.422101 0.877743 0.718968
O O1 0.705325 0.880658 0.340573
O O2 0.839055 0.963497 0.497573
O O3 0.877557 0.834871 0.295991
O O4 0.815218 0.102064 0.296658
O O5 0.950758 0.266409 0.239803
O O6 0.794553 0.280957 0.118470
O O7 0.412631 0.263853 0.962375
O O8 0.274390 0.431706 0.946276
O O9 0.259895 0.179254 0.871453
O O10 0.500000 0.500000 0.915560
O O11 0.552445 0.224209 0.834350
O O12 0.566474 0.304472 0.065728
O O13 0.845403 0.981854 0.731287
O O14 0.911191 0.748823 0.618541
O O15 0.000000 0.000000 0.605626
O O16 0.171952 0.459634 0.749065
O O17 0.500000 0.500000 0.204170
O O18 0.500000 0.000000 0.697449
#
# Coordination Sequence:
#
# PCOD9343849 Si02
#       8
#     4   4   4   4   4   4   4   4
#     4  11  24  45  69  97 131 183 233 286 336 412
#     4  10  22  41  68 100 135 169 228 284 345 411
#     4  11  22  40  66 101 138 178 218 287 352 421
#     4  10  20  38  67  97 137 177 224 277 352 424
#     4  12  28  48  71  93 134 196 239 284 341 415
#     4  12  25  41  65 100 139 176 229 276 350 410
#     4   8  18  39  65  94 126 178 219 271 339 418
#     4  12  25  43  66 103 138 175 224 291 340 411
#
# _framework density 21.713206
#
# number of rings (size 3 to 8) (size 9 to 14) (size 15 to 20)
#    0.000    1.250    2.500    4.500    3.500    0.000 
#    2.250    0.625    0.000    0.000    0.000    0.000 
#    0.000    0.000    0.000    0.000    0.000    0.000 
#
# Total GULP energy -178793.685036 kJ/mol
# GULP energy per Si atom -5587.302657 kJ/mol
# Density = 2.166379 g / cm^3
# Si number density = 21.713206 Si / 1000 Ang^3
#
#
#
# Elastic Constant Matrix: (Units=GPa)
#
#
# Indices 1 2 3 4 5 6 
#
# 1 50.3592 14.3043 13.9442 0.0000 0.0000 0.0000
# 2 14.3043 56.0231 10.9665 0.0000 0.0000 0.0000
# 3 13.9442 10.9665 76.9057 0.0000 0.0000 0.0000
# 4 0.0000 0.0000 0.0000 15.5081 0.0000 0.0000
# 5 0.0000 0.0000 0.0000 0.0000 29.9570 0.0000
# 6 0.0000 0.0000 0.0000 0.0000 0.0000 36.2919
#
#
#
# Elastic Compliance Matrix: (Units=1/GPa)
#
#
# Indices 1 2 3 4 5 6 
#
# 1 0.022200 -0.005020 -0.003309 0.000000 0.000000 0.000000
# 2 -0.005020 0.019498 -0.001870 0.000000 0.000000 0.000000
# 3 -0.003309 -0.001870 0.013870 0.000000 0.000000 0.000000
# 4 0.000000 0.000000 0.000000 0.064482 0.000000 0.000000
# 5 0.000000 0.000000 0.000000 0.000000 0.033381 0.000000
# 6 0.000000 0.000000 0.000000 0.000000 0.000000 0.027554
#
#
# Mechanical properties :
#
#
# Convention : Reuss Voigt Hill
#
# Bulk Modulus (GPa) = 28.43525 29.07976 28.75751
# Shear Modulus (GPa) = 23.46241 25.95628 24.70934
#
# Velocity S-wave (km/s) = 3.29075 3.46123 3.37707
# Velocity P-wave (km/s) = 5.25005 5.42173 5.33658
#
# Compressibility (1/GPa) = 0.03516761
#
# Stress axis : x y z
#
# Youngs Moduli (GPa) = 45.04570 51.28808 72.10005
#
# Poissons Ratio (x) = 0.25749 0.23860
# Poissons Ratio (y) = 0.22615 0.13483
# Poissons Ratio (z) = 0.14907 0.09591
#
# Static dielectric constant tensor:
#      x y z
#    x 1.810720 0.000000 0.000000 
#    y 0.000000 1.788970 0.000000 
#    z 0.000000 0.000000 1.793920 
# 
# From -- ./inp_files/3762.got.cif
#   From: 2010.05.17/outbox.cif.g08.bks.cpg/sg32_2_cif.got.tgz:3762.got - 2010.06.03 17:12:27.
