data_PCOD9343572
_publ_section_title
;
Structure prediction by ZEFSAII (Michael W. Deem and Ramdas Pophale) SiO2 
 PCOD9343572
Probable space group: P M N 21
;
_chemical_formula_sum "Si O2"
_cell_formula_units_Z 20
_cell_length_a 28.348401
_cell_length_b 5.526053
_cell_length_c 4.891654
_cell_angle_alpha 90.000000
_cell_angle_beta 90.000000
_cell_angle_gamma 90.000000
_cell_volume 766.300915
_symmetry_space_group_name_H-M "P M N 21"
_symmetry_group_IT_number 31
_symmetry_cell_setting 'orthorhombic'
loop_
_space_group_symop_operation_xyz
x,y,z
1/2-x,-y,1/2+z
-x,y,z
1/2+x,-y,1/2+z
loop_
_atom_site_type_symbol
_atom_site_label
_atom_site_fract_x
_atom_site_fract_y
_atom_site_fract_z
Si Si1 0.050427 0.247967 0.799480
Si Si2 0.751152 0.634489 0.242894
Si Si3 0.549778 0.258688 0.957785
Si Si4 0.651362 0.863377 0.261448
Si Si5 0.648835 0.144915 0.744987
O O1 0.047976 0.493733 0.626501
O O2 0.104817 0.256099 0.896576
O O3 0.000000 0.243265 0.960803
O O4 0.050479 0.990960 0.634539
O O5 0.750186 0.387877 0.416917
O O6 0.702062 0.754954 0.327965
O O7 0.801044 0.745188 0.328449
O O8 0.500000 0.248170 0.796088
O O9 0.598889 0.267745 0.800999
O O10 0.651216 0.116657 0.420038
O O11 0.646520 0.904640 0.938228
#
# Coordination Sequence:
#
# PCOD9343572 Si02
#       5
#     4   4   4   4   4
#     4   9  19  38  64  95 132 174 220 271 328 391
#     4  12  24  40  64  94 130 172 222 276 336 400
#     4   9  19  38  64  95 132 174 220 271 328 391
#     4  11  23  41  64  92 130 174 222 274 333 397
#     4  11  23  41  64  92 130 174 222 274 333 397
#
# _framework density 26.099405999999998
#
# number of rings (size 3 to 8) (size 9 to 14) (size 15 to 20)
#    0.000    1.600    0.000    4.800    0.000    4.000 
#    0.000    0.000    0.000   22.800    0.000    0.000 
#    0.000    0.000    0.000    0.000    0.000    0.000 
#
# Total GULP energy -111483.827324 kJ/mol
# GULP energy per Si atom -5574.191366 kJ/mol
# Density = 2.604000 g / cm^3
# Si number density = 26.099406 Si / 1000 Ang^3
#
#
#
# Elastic Constant Matrix: (Units=GPa)
#
#
# Indices 1 2 3 4 5 6 
#
# 1 322.5503 28.0944 31.3969 0.0000 0.0000 0.0000
# 2 28.0944 102.4753 21.4036 0.0000 0.0000 0.0000
# 3 31.3969 21.4036 82.4555 0.0000 0.0000 0.0000
# 4 0.0000 0.0000 0.0000 37.2495 0.0000 0.0000
# 5 0.0000 0.0000 0.0000 0.0000 5.8774 0.0000
# 6 0.0000 0.0000 0.0000 0.0000 0.0000 81.0292
#
#
#
# Elastic Compliance Matrix: (Units=1/GPa)
#
#
# Indices 1 2 3 4 5 6 
#
# 1 0.003263 -0.000671 -0.001068 0.000000 0.000000 0.000000
# 2 -0.000671 0.010456 -0.002458 0.000000 0.000000 0.000000
# 3 -0.001068 -0.002458 0.013173 0.000000 0.000000 0.000000
# 4 0.000000 0.000000 0.000000 0.026846 0.000000 0.000000
# 5 0.000000 0.000000 0.000000 0.000000 0.170142 0.000000
# 6 0.000000 0.000000 0.000000 0.000000 0.000000 0.012341
#
#
# Mechanical properties :
#
#
# Convention : Reuss Voigt Hill
#
# Bulk Modulus (GPa) = 54.06748 74.36343 64.21546
# Shear Modulus (GPa) = 19.93763 53.27031 36.60397
#
# Velocity S-wave (km/s) = 2.76689 4.52270 3.74904
# Velocity P-wave (km/s) = 5.56494 7.47177 6.58771
#
# Compressibility (1/GPa) = 0.01849541
#
# Stress axis : x y z
#
# Youngs Moduli (GPa) = 306.49095 95.63868 75.91506
#
# Poissons Ratio (x) = 0.06421 0.08108
# Poissons Ratio (y) = 0.20578 0.18664
# Poissons Ratio (z) = 0.32736 0.23513
#
# Static dielectric constant tensor:
#      x y z
#    x 2.132950 0.000000 0.000000 
#    y 0.000000 2.045480 0.000000 
#    z 0.000000 0.000000 2.067490 
# 
# From -- ./inp_files/1183.got.cif
#   From: 2010.05.17/outbox.cif.g08.bks.cpg/sg31_1_cif.got.tgz:1183.got - 2010.06.03 17:08:30.
