data_PCOD9343267
_publ_section_title
;
Structure prediction by ZEFSAII (Michael W. Deem and Ramdas Pophale) SiO2 
 PCOD9343267
Probable space group: P M N 21
;
_chemical_formula_sum "Si O2"
_cell_formula_units_Z 24
_cell_length_a 8.426512
_cell_length_b 10.388452
_cell_length_c 14.328146
_cell_angle_alpha 90.000000
_cell_angle_beta 90.000000
_cell_angle_gamma 90.000000
_cell_volume 1254.263197
_symmetry_space_group_name_H-M "P M N 21"
_symmetry_group_IT_number 31
_symmetry_cell_setting 'orthorhombic'
loop_
_space_group_symop_operation_xyz
x,y,z
1/2-x,-y,1/2+z
-x,y,z
1/2+x,-y,1/2+z
loop_
_atom_site_type_symbol
_atom_site_label
_atom_site_fract_x
_atom_site_fract_y
_atom_site_fract_z
Si Si1 0.691829 0.279990 0.514390
Si Si2 0.314323 0.128010 0.820310
Si Si3 0.190544 0.375827 0.712786
Si Si4 0.693219 0.360412 0.309393
Si Si5 0.187460 0.898222 0.701595
Si Si6 0.312184 0.978282 0.512270
O O1 0.500000 0.282712 0.516537
O O2 0.753743 0.348946 0.607187
O O3 0.744860 0.344642 0.416988
O O4 0.738627 0.128752 0.513367
O O5 0.500000 0.136617 0.840836
O O6 0.253335 0.260705 0.777308
O O7 0.282051 0.017734 0.744103
O O8 0.222677 0.083089 0.912337
O O9 0.246387 0.511163 0.756468
O O10 0.000000 0.374094 0.713690
O O11 0.500000 0.363121 0.310731
O O12 0.738280 0.232876 0.252065
O O13 0.220792 0.900618 0.592004
O O14 0.000000 0.917025 0.719875
O O15 0.500000 0.974691 0.531117
#
# Coordination Sequence:
#
# PCOD9343267 Si02
#       6
#     4   4   4   4   4   4
#     4  10  20  39  63  87 121 162 203 251 310 368
#     4  12  24  39  60  90 124 161 207 252 300 359
#     4  11  23  40  63  91 124 162 205 252 309 369
#     4   9  21  41  63  88 122 163 203 250 307 368
#     4  11  21  39  64  91 123 158 201 254 307 362
#     4  11  22  38  63  93 124 160 205 255 309 364
#
# _framework density 19.134737999999999
#
# number of rings (size 3 to 8) (size 9 to 14) (size 15 to 20)
#    0.000    1.333    3.333    3.000    0.000    2.000 
#    0.000    8.333    0.000    0.000    0.000    0.000 
#    0.000    0.000    0.000    0.000    0.000    0.000 
#
# Total GULP energy -134128.521774 kJ/mol
# GULP energy per Si atom -5588.688407 kJ/mol
# Density = 1.909119 g / cm^3
# Si number density = 19.134738 Si / 1000 Ang^3
#
#
#
# Elastic Constant Matrix: (Units=GPa)
#
#
# Indices 1 2 3 4 5 6 
#
# 1 34.6832 27.5591 10.7527 0.0000 0.0000 0.0000
# 2 27.5591 102.8891 37.2175 0.0000 0.0000 0.0000
# 3 10.7527 37.2175 105.6667 0.0000 0.0000 0.0000
# 4 0.0000 0.0000 0.0000 32.4054 0.0000 0.0000
# 5 0.0000 0.0000 0.0000 0.0000 36.9969 0.0000
# 6 0.0000 0.0000 0.0000 0.0000 0.0000 -11.1206
#
#
#
# Elastic Compliance Matrix: (Units=1/GPa)
#
#
# Indices 1 2 3 4 5 6 
#
# 1 0.036637 -0.009701 -0.000311 0.000000 0.000000 0.000000
# 2 -0.009701 0.013707 -0.003841 0.000000 0.000000 0.000000
# 3 -0.000311 -0.003841 0.010848 0.000000 0.000000 0.000000
# 4 0.000000 0.000000 0.000000 0.030859 0.000000 0.000000
# 5 0.000000 0.000000 0.000000 0.000000 0.027029 0.000000
# 6 0.000000 0.000000 0.000000 0.000000 0.000000 -0.089923
#
#
# Mechanical properties :
#
#
# Convention : Reuss Voigt Hill
#
# Bulk Modulus (GPa) = 29.86277 43.81084 36.83680
# Shear Modulus (GPa) = 73.50275 22.83699 48.16987
#
# Velocity S-wave (km/s) = 6.20457 3.45843 5.02282
# Velocity P-wave (km/s) = 8.18348 6.23645 7.27539
#
# Compressibility (1/GPa) = 0.03348652
#
# Stress axis : x y z
#
# Youngs Moduli (GPa) = 27.29474 72.95653 92.18169
#
# Poissons Ratio (x) = 0.70773 0.02871
# Poissons Ratio (y) = 0.26478 0.35403
# Poissons Ratio (z) = 0.00850 0.28020
#
# Static dielectric constant tensor:
#      x y z
#    x 1.652680 0.000000 0.000000 
#    y 0.000000 1.638740 0.000000 
#    z 0.000000 0.000000 1.650440 
# 
# From -- ./inp_files/4724.got.cif
#   From: 2010.05.17/outbox.cif.g08.bks.cpg/sg31_3_cif.got.tgz:4724.got - 2010.06.03 17:08:30.
