data_PCOD9343179
_publ_section_title
;
Structure prediction by ZEFSAII (Michael W. Deem and Ramdas Pophale) SiO2 
 PCOD9343179
Probable space group: P M N 21
;
_chemical_formula_sum "Si O2"
_cell_formula_units_Z 32
_cell_length_a 8.135609
_cell_length_b 14.997783
_cell_length_c 12.904453
_cell_angle_alpha 90.000000
_cell_angle_beta 90.000000
_cell_angle_gamma 90.000000
_cell_volume 1574.551006
_symmetry_space_group_name_H-M "P M N 21"
_symmetry_group_IT_number 31
_symmetry_cell_setting 'orthorhombic'
loop_
_space_group_symop_operation_xyz
x,y,z
1/2-x,-y,1/2+z
-x,y,z
1/2+x,-y,1/2+z
loop_
_atom_site_type_symbol
_atom_site_label
_atom_site_fract_x
_atom_site_fract_y
_atom_site_fract_z
Si Si1 0.808382 0.316662 0.538450
Si Si2 0.695319 0.242240 0.747386
Si Si3 0.304010 0.636945 0.423672
Si Si4 0.300774 0.055703 0.650058
Si Si5 0.690225 0.138988 0.445711
Si Si6 0.198547 0.860962 0.717204
Si Si7 0.801253 0.665692 0.655969
Si Si8 0.800837 0.556122 0.861838
O O1 0.772793 0.308592 0.660900
O O2 0.699516 0.238573 0.488737
O O3 0.764411 0.401767 0.469321
O O4 0.000000 0.296683 0.523267
O O5 0.500000 0.244257 0.732170
O O6 0.735439 0.278251 0.861223
O O7 0.750682 0.140176 0.722120
O O8 0.500000 0.641593 0.418872
O O9 0.253728 0.631226 0.543884
O O10 0.250119 0.547116 0.363864
O O11 0.500000 0.056713 0.650348
O O12 0.236240 0.079205 0.535556
O O13 0.243976 0.956905 0.674154
O O14 0.500000 0.112328 0.434281
O O15 0.767240 0.138043 0.333806
O O16 0.254983 0.768967 0.665040
O O17 0.000000 0.854319 0.719446
O O18 0.746731 0.610246 0.758527
O O19 0.000000 0.663317 0.657846
O O20 0.000000 0.560799 0.864353
#
# Coordination Sequence:
#
# PCOD9343179 Si02
#       8
#     4   4   4   4   4   4   4   4
#     4  11  21  34  60  92 117 148 199 258 302 349
#     4  10  22  42  63  85 122 167 203 244 309 370
#     4  11  25  41  62  94 126 161 207 257 305 359
#     4   9  20  36  58  86 117 155 202 252 307 361
#     4   9  18  37  57  78 112 158 201 244 304 363
#     4  10  20  36  61  86 115 158 204 248 305 365
#     4  10  22  42  64  87 123 166 203 247 310 376
#     4  10  22  42  63  86 122 163 201 246 304 369
#
# _framework density 20.323253999999999
#
# number of rings (size 3 to 8) (size 9 to 14) (size 15 to 20)
#    0.000    2.000    1.250    2.625    1.750    6.000 
#    0.000    2.500    0.000    0.000    0.000    0.000 
#    0.000    0.000    0.000    0.000    0.000    0.000 
#
# Total GULP energy -178441.166991 kJ/mol
# GULP energy per Si atom -5576.286468 kJ/mol
# Density = 2.027700 g / cm^3
# Si number density = 20.323254 Si / 1000 Ang^3
#
#
#
# Elastic Constant Matrix: (Units=GPa)
#
#
# Indices 1 2 3 4 5 6 
#
# 1 22.8915 10.9693 13.5554 0.0000 0.0000 0.0000
# 2 10.9693 107.9139 56.2693 0.0000 0.0000 0.0000
# 3 13.5554 56.2693 78.3178 0.0000 0.0000 0.0000
# 4 0.0000 0.0000 0.0000 18.3940 0.0000 0.0000
# 5 0.0000 0.0000 0.0000 0.0000 18.5804 0.0000
# 6 0.0000 0.0000 0.0000 0.0000 0.0000 17.1878
#
#
#
# Elastic Compliance Matrix: (Units=1/GPa)
#
#
# Indices 1 2 3 4 5 6 
#
# 1 0.048726 -0.000888 -0.007795 0.000000 0.000000 0.000000
# 2 -0.000888 0.014834 -0.010504 0.000000 0.000000 0.000000
# 3 -0.007795 -0.010504 0.021665 0.000000 0.000000 0.000000
# 4 0.000000 0.000000 0.000000 0.054366 0.000000 0.000000
# 5 0.000000 0.000000 0.000000 0.000000 0.053820 0.000000
# 6 0.000000 0.000000 0.000000 0.000000 0.000000 0.058181
#
#
# Mechanical properties :
#
#
# Convention : Reuss Voigt Hill
#
# Bulk Modulus (GPa) = 21.34508 41.19015 31.26762
# Shear Modulus (GPa) = 16.36215 19.38773 17.87494
#
# Velocity S-wave (km/s) = 2.84050 3.09199 2.96891
# Velocity P-wave (km/s) = 4.61340 5.74967 5.21259
#
# Compressibility (1/GPa) = 0.04684919
#
# Stress axis : x y z
#
# Youngs Moduli (GPa) = 20.52291 67.41213 46.15791
#
# Poissons Ratio (x) = 0.05987 0.35982
# Poissons Ratio (y) = 0.01823 0.48485
# Poissons Ratio (z) = 0.15999 0.70811
#
# Static dielectric constant tensor:
#      x y z
#    x 1.726180 0.000000 0.000000 
#    y 0.000000 1.744320 0.000000 
#    z 0.000000 0.000000 1.781290 
# 
# From -- ./inp_files/3664.got.cif
#   From: 2010.05.17/outbox.cif.g08.bks.cpg/sg31_2_cif.got.tgz:3664.got - 2010.06.03 17:08:30.
