data_PCOD9343916
_publ_section_title
;
Structure prediction by ZEFSAII (Michael W. Deem and Ramdas Pophale) SiO2 
 PCOD9343916
Probable space group: P B A 2
;
_chemical_formula_sum "Si O2"
_cell_formula_units_Z 32
_cell_length_a 13.312013
_cell_length_b 9.152554
_cell_length_c 12.320932
_cell_angle_alpha 90.000000
_cell_angle_beta 90.000000
_cell_angle_gamma 90.000000
_cell_volume 1501.169022
_symmetry_space_group_name_H-M "P B A 2"
_symmetry_group_IT_number 32
_symmetry_cell_setting 'orthorhombic'
loop_
_space_group_symop_operation_xyz
x,y,z
-x,-y,z
1/2-x,1/2+y,z
1/2+x,1/2-y,z
loop_
_atom_site_type_symbol
_atom_site_label
_atom_site_fract_x
_atom_site_fract_y
_atom_site_fract_z
Si Si1 0.686652 0.497644 0.255190
Si Si2 0.395910 0.022698 0.363022
Si Si3 0.750297 0.244296 0.113087
Si Si4 0.332906 0.870841 0.577938
Si Si5 0.107087 0.573751 0.749314
Si Si6 0.002278 0.161906 0.664140
Si Si7 0.875216 0.156869 0.453760
Si Si8 0.120692 0.500921 0.999107
O O1 0.801646 0.522026 0.292831
O O2 0.684995 0.340233 0.199233
O O3 0.674215 0.628589 0.170002
O O4 0.626715 0.526408 0.365966
O O5 0.382613 0.191765 0.390397
O O6 0.500000 0.000000 0.303294
O O7 0.397253 0.930814 0.475335
O O8 0.819124 0.365419 0.054444
O O9 0.675781 0.147579 0.038688
O O10 0.390927 0.743988 0.644797
O O11 0.228095 0.834432 0.521972
O O12 0.318938 0.006002 0.660709
O O13 0.077569 0.741050 0.731292
O O14 0.000000 0.500000 0.720343
O O15 0.133021 0.526432 0.870009
O O16 0.960528 0.149314 0.542452
O O17 0.000000 0.000000 0.711442
O O18 0.000000 0.500000 0.020026
#
# Coordination Sequence:
#
# PCOD9343916 Si02
#       8
#     4   4   4   4   4   4   4   4
#     4  10  22  38  60  89 131 159 211 282 317 387
#     4  11  19  37  63  89 124 181 219 253 323 401
#     4  10  22  44  66  95 125 161 229 289 333 411
#     4  10  21  37  60  86 132 172 211 255 313 388
#     4   9  19  42  64  90 123 172 215 259 331 407
#     4  11  23  36  57  95 135 166 213 264 308 389
#     4  11  22  36  59  91 129 174 214 254 313 388
#     4  10  23  46  74  93 128 173 218 288 359 398
#
# _framework density 21.316721000000001
#
# number of rings (size 3 to 8) (size 9 to 14) (size 15 to 20)
#    0.000    1.750    3.750    0.375    3.500    3.000 
#    0.000   11.250    0.000    0.000    0.000    0.000 
#    0.000    0.000    0.000    0.000    0.000    0.000 
#
# Total GULP energy -178618.631225 kJ/mol
# GULP energy per Si atom -5581.832226 kJ/mol
# Density = 2.126820 g / cm^3
# Si number density = 21.316721 Si / 1000 Ang^3
#
#
#
# Elastic Constant Matrix: (Units=GPa)
#
#
# Indices 1 2 3 4 5 6 
#
# 1 61.6110 33.5621 25.4309 0.0000 0.0000 0.0000
# 2 33.5621 143.4439 41.0236 0.0000 0.0000 0.0000
# 3 25.4309 41.0236 84.1113 0.0000 0.0000 0.0000
# 4 0.0000 0.0000 0.0000 31.4999 0.0000 0.0000
# 5 0.0000 0.0000 0.0000 0.0000 26.5916 0.0000
# 6 0.0000 0.0000 0.0000 0.0000 0.0000 28.6773
#
#
#
# Elastic Compliance Matrix: (Units=1/GPa)
#
#
# Indices 1 2 3 4 5 6 
#
# 1 0.019883 -0.003408 -0.004349 0.000000 0.000000 0.000000
# 2 -0.003408 0.008686 -0.003206 0.000000 0.000000 0.000000
# 3 -0.004349 -0.003206 0.014768 0.000000 0.000000 0.000000
# 4 0.000000 0.000000 0.000000 0.031746 0.000000 0.000000
# 5 0.000000 0.000000 0.000000 0.000000 0.037606 0.000000
# 6 0.000000 0.000000 0.000000 0.000000 0.000000 0.034871
#
#
# Mechanical properties :
#
#
# Convention : Reuss Voigt Hill
#
# Bulk Modulus (GPa) = 46.70832 54.35550 50.53191
# Shear Modulus (GPa) = 28.30912 29.96372 29.13642
#
# Velocity S-wave (km/s) = 3.64816 3.75326 3.70108
# Velocity P-wave (km/s) = 6.30116 6.65860 6.48234
#
# Compressibility (1/GPa) = 0.02140946
#
# Stress axis : x y z
#
# Youngs Moduli (GPa) = 50.29506 115.13285 67.71606
#
# Poissons Ratio (x) = 0.39239 0.29451
# Poissons Ratio (y) = 0.17142 0.21708
# Poissons Ratio (z) = 0.21874 0.36909
#
# Static dielectric constant tensor:
#      x y z
#    x 1.778070 0.000000 0.000000 
#    y 0.000000 1.837070 0.000000 
#    z 0.000000 0.000000 1.773210 
# 
# From -- ./inp_files/3944.got.cif
#   From: 2010.05.17/outbox.cif.g08.bks.cpg/sg32_2_cif.got.tgz:3944.got - 2010.06.03 17:12:27.
