data_PCOD9343386
_publ_section_title
;
Structure prediction by ZEFSAII (Michael W. Deem and Ramdas Pophale) SiO2 
 PCOD9343386
Probable space group: P M N 21
;
_chemical_formula_sum "Si O2"
_cell_formula_units_Z 20
_cell_length_a 29.476097
_cell_length_b 5.212100
_cell_length_c 4.829525
_cell_angle_alpha 90.000000
_cell_angle_beta 90.000000
_cell_angle_gamma 90.000000
_cell_volume 741.971348
_symmetry_space_group_name_H-M "P M N 21"
_symmetry_group_IT_number 31
_symmetry_cell_setting 'orthorhombic'
loop_
_space_group_symop_operation_xyz
x,y,z
1/2-x,-y,1/2+z
-x,y,z
1/2+x,-y,1/2+z
loop_
_atom_site_type_symbol
_atom_site_label
_atom_site_fract_x
_atom_site_fract_y
_atom_site_fract_z
Si Si1 0.720700 0.992906 0.001630
Si Si2 0.548737 0.652605 0.672992
Si Si3 0.856476 0.359948 0.332406
Si Si4 0.451373 0.283643 0.174322
Si Si5 0.143182 0.708091 0.825376
O O1 0.751316 0.873932 0.250968
O O2 0.686025 0.158060 0.187264
O O3 0.689335 0.798950 0.827258
O O4 0.500000 0.780679 0.730667
O O5 0.596894 0.779272 0.742067
O O6 0.548034 0.538063 0.367225
O O7 0.550129 0.395824 0.866126
O O8 0.861043 0.447678 0.647212
O O9 0.852600 0.611919 0.137907
O O10 0.500000 0.151866 0.222239
O O11 0.404534 0.150986 0.260360
#
# Coordination Sequence:
#
# PCOD9343386 Si02
#       5
#     4   4   4   4   4
#     4  12  26  42  61  88 121 160 214 272 314 364
#     4   8  14  27  51  82 114 149 189 236 294 364
#     4  10  21  39  62  87 119 159 201 250 312 374
#     4   8  14  27  51  82 114 149 189 236 294 364
#     4  10  21  39  62  87 119 159 201 250 312 374
#
# _framework density 26.955221999999999
#
# number of rings (size 3 to 8) (size 9 to 14) (size 15 to 20)
#    0.000    2.400    0.000    2.400    0.000    3.200 
#    0.000    1.000    0.000    0.000    0.000   30.800 
#    0.000    0.000    0.000    0.000    0.000    1.200 
#
# Total GULP energy -111750.664569 kJ/mol
# GULP energy per Si atom -5587.533228 kJ/mol
# Density = 2.689387 g / cm^3
# Si number density = 26.955222 Si / 1000 Ang^3
#
#
#
# Elastic Constant Matrix: (Units=GPa)
#
#
# Indices 1 2 3 4 5 6 
#
# 1 216.9200 33.0969 48.2351 0.0000 0.0000 0.0000
# 2 33.0969 48.3742 22.6751 0.0000 0.0000 0.0000
# 3 48.2351 22.6751 105.1175 0.0000 0.0000 0.0000
# 4 0.0000 0.0000 0.0000 51.7643 0.0000 0.0000
# 5 0.0000 0.0000 0.0000 0.0000 49.3113 0.0000
# 6 0.0000 0.0000 0.0000 0.0000 0.0000 65.4519
#
#
#
# Elastic Compliance Matrix: (Units=1/GPa)
#
#
# Indices 1 2 3 4 5 6 
#
# 1 0.005466 -0.002853 -0.001893 0.000000 0.000000 0.000000
# 2 -0.002853 0.024486 -0.003973 0.000000 0.000000 0.000000
# 3 -0.001893 -0.003973 0.011239 0.000000 0.000000 0.000000
# 4 0.000000 0.000000 0.000000 0.019318 0.000000 0.000000
# 5 0.000000 0.000000 0.000000 0.000000 0.020279 0.000000
# 6 0.000000 0.000000 0.000000 0.000000 0.000000 0.015278
#
#
# Mechanical properties :
#
#
# Convention : Reuss Voigt Hill
#
# Bulk Modulus (GPa) = 42.09790 64.26956 53.18373
# Shear Modulus (GPa) = 41.17864 51.06580 46.12222
#
# Velocity S-wave (km/s) = 3.91278 4.35727 4.14099
# Velocity P-wave (km/s) = 6.00539 7.01493 6.52970
#
# Compressibility (1/GPa) = 0.02375416
#
# Stress axis : x y z
#
# Youngs Moduli (GPa) = 182.94431 40.83935 88.97765
#
# Poissons Ratio (x) = 0.11650 0.16843
# Poissons Ratio (y) = 0.52186 0.35351
# Poissons Ratio (z) = 0.34630 0.16225
#
# Static dielectric constant tensor:
#      x y z
#    x 2.261220 0.000000 0.000000 
#    y 0.000000 2.156380 0.000000 
#    z 0.000000 0.000000 1.988850 
# 
# From -- ./inp_files/1298.got.cif
#   From: 2010.05.17/outbox.cif.g08.bks.cpg/sg31_1_cif.got.tgz:1298.got - 2010.06.03 17:08:30.
