data_PCOD9343222
_publ_section_title
;
Structure prediction by ZEFSAII (Michael W. Deem and Ramdas Pophale) SiO2 
 PCOD9343222
Probable space group: P M N 21
;
_chemical_formula_sum "Si O2"
_cell_formula_units_Z 24
_cell_length_a 9.005228
_cell_length_b 10.201541
_cell_length_c 14.434977
_cell_angle_alpha 90.000000
_cell_angle_beta 90.000000
_cell_angle_gamma 90.000000
_cell_volume 1326.100957
_symmetry_space_group_name_H-M "P M N 21"
_symmetry_group_IT_number 31
_symmetry_cell_setting 'orthorhombic'
loop_
_space_group_symop_operation_xyz
x,y,z
1/2-x,-y,1/2+z
-x,y,z
1/2+x,-y,1/2+z
loop_
_atom_site_type_symbol
_atom_site_label
_atom_site_fract_x
_atom_site_fract_y
_atom_site_fract_z
Si Si1 0.321545 0.370091 0.816930
Si Si2 0.672936 0.131325 0.306635
Si Si3 0.326771 0.866965 0.425522
Si Si4 0.679287 0.714348 0.125453
Si Si5 0.821509 0.362608 0.419727
Si Si6 0.679142 0.024026 0.109969
O O1 0.500000 0.366658 0.811428
O O2 0.262274 0.251184 0.879464
O O3 0.253707 0.351461 0.714606
O O4 0.275438 0.505044 0.867266
O O5 0.500000 0.171302 0.305496
O O6 0.763543 0.238616 0.362541
O O7 0.721819 0.104010 0.201820
O O8 0.682040 0.992117 0.358007
O O9 0.500000 0.831671 0.435594
O O10 0.257372 0.913458 0.521845
O O11 0.500000 0.705074 0.134692
O O12 0.716719 0.869794 0.121278
O O13 0.725424 0.650557 0.027296
O O14 0.000000 0.359207 0.420772
O O15 0.500000 0.030262 0.099856
#
# Coordination Sequence:
#
# PCOD9343222 Si02
#       6
#     4   4   4   4   4   4
#     4  11  24  40  60  89 123 159 201 245 295 359
#     4  10  21  37  59  88 118 149 197 247 294 353
#     4  11  22  38  60  90 120 153 200 245 293 353
#     4  10  20  39  63  85 117 160 200 246 303 356
#     4  10  23  41  61  87 120 158 201 245 299 359
#     4  10  20  37  61  89 120 157 199 246 298 352
#
# _framework density 18.098168999999999
#
# number of rings (size 3 to 8) (size 9 to 14) (size 15 to 20)
#    0.000    1.667    3.333    1.000    0.000    5.333 
#    0.000    5.000    0.000    0.000    0.000    0.000 
#    0.000    0.000    0.000    0.000    0.000    0.000 
#
# Total GULP energy -134036.539928 kJ/mol
# GULP energy per Si atom -5584.855830 kJ/mol
# Density = 1.805698 g / cm^3
# Si number density = 18.098169 Si / 1000 Ang^3
#
#
#
# Elastic Constant Matrix: (Units=GPa)
#
#
# Indices 1 2 3 4 5 6 
#
# 1 24.9118 28.0306 34.4334 0.0000 0.0000 0.0000
# 2 28.0306 87.6516 35.2940 0.0000 0.0000 0.0000
# 3 34.4334 35.2940 134.0883 0.0000 0.0000 0.0000
# 4 0.0000 0.0000 0.0000 27.2831 0.0000 0.0000
# 5 0.0000 0.0000 0.0000 0.0000 32.6689 0.0000
# 6 0.0000 0.0000 0.0000 0.0000 0.0000 16.9242
#
#
#
# Elastic Compliance Matrix: (Units=1/GPa)
#
#
# Indices 1 2 3 4 5 6 
#
# 1 0.087120 -0.021087 -0.016822 0.000000 0.000000 0.000000
# 2 -0.021087 0.017865 0.000713 0.000000 0.000000 0.000000
# 3 -0.016822 0.000713 0.011590 0.000000 0.000000 0.000000
# 4 0.000000 0.000000 0.000000 0.036653 0.000000 0.000000
# 5 0.000000 0.000000 0.000000 0.000000 0.030610 0.000000
# 6 0.000000 0.000000 0.000000 0.000000 0.000000 0.059087
#
#
# Mechanical properties :
#
#
# Convention : Reuss Voigt Hill
#
# Bulk Modulus (GPa) = 23.70621 49.12976 36.41799
# Shear Modulus (GPa) = 15.08848 25.30147 20.19498
#
# Velocity S-wave (km/s) = 2.89052 3.74306 3.34407
# Velocity P-wave (km/s) = 4.92618 6.77391 5.92255
#
# Compressibility (1/GPa) = 0.04218303
#
# Stress axis : x y z
#
# Youngs Moduli (GPa) = 11.47842 55.97402 86.28180
#
# Poissons Ratio (x) = 1.18033 1.45140
# Poissons Ratio (y) = 0.24205 -0.06149
# Poissons Ratio (z) = 0.19309 -0.03989
#
# Static dielectric constant tensor:
#      x y z
#    x 1.616800 0.000000 0.000000 
#    y 0.000000 1.591560 0.000000 
#    z 0.000000 0.000000 1.612860 
# 
# From -- ./inp_files/3448.got.cif
#   From: 2010.05.17/outbox.cif.g08.bks.cpg/sg31_2_cif.got.tgz:3448.got - 2010.06.03 17:08:30.
