data_PCOD9343002
_publ_section_title
;
Structure prediction by ZEFSAII (Michael W. Deem and Ramdas Pophale) SiO2 
 PCOD9343002
Probable space group: P M N 21
;
_chemical_formula_sum "Si O2"
_cell_formula_units_Z 32
_cell_length_a 8.455246
_cell_length_b 14.890848
_cell_length_c 12.675217
_cell_angle_alpha 90.000000
_cell_angle_beta 90.000000
_cell_angle_gamma 90.000000
_cell_volume 1595.883121
_symmetry_space_group_name_H-M "P M N 21"
_symmetry_group_IT_number 31
_symmetry_cell_setting 'orthorhombic'
loop_
_space_group_symop_operation_xyz
x,y,z
1/2-x,-y,1/2+z
-x,y,z
1/2+x,-y,1/2+z
loop_
_atom_site_type_symbol
_atom_site_label
_atom_site_fract_x
_atom_site_fract_y
_atom_site_fract_z
Si Si1 0.308660 0.358484 0.181020
Si Si2 0.818635 0.866391 0.962365
Si Si3 0.188647 0.771138 0.505235
Si Si4 0.689356 0.669475 0.913668
Si Si5 0.807147 0.446612 0.615469
Si Si6 0.312305 0.052286 0.885884
Si Si7 0.678304 0.862980 0.182407
Si Si8 0.317577 0.674255 0.303913
O O1 0.500000 0.355252 0.186573
O O2 0.245345 0.363102 0.299410
O O3 0.264756 0.448978 0.117999
O O4 0.251037 0.272339 0.113880
O O5 0.749486 0.770960 0.927718
O O6 0.000000 0.873197 0.928911
O O7 0.724336 0.952295 0.921376
O O8 0.800544 0.869287 0.088322
O O9 0.243876 0.870150 0.468594
O O10 0.227661 0.702661 0.409587
O O11 0.000000 0.777046 0.515241
O O12 0.500000 0.669374 0.917393
O O13 0.746595 0.608042 0.012115
O O14 0.752499 0.401933 0.725875
O O15 0.000000 0.440005 0.617092
O O16 0.500000 0.065107 0.870820
O O17 0.222762 0.071971 0.777348
O O18 0.500000 0.880129 0.142781
O O19 0.681471 0.763439 0.231304
O O20 0.500000 0.653305 0.331748
#
# Coordination Sequence:
#
# PCOD9343002 Si02
#       8
#     4   4   4   4   4   4   4   4
#     4  10  22  40  60  87 126 166 202 249 307 368
#     4  12  24  39  61  89 120 161 207 257 314 371
#     4   9  20  37  58  85 120 157 197 248 303 357
#     4  11  23  42  63  89 123 161 206 255 310 369
#     4   9  19  37  60  85 118 158 197 246 305 360
#     4  10  21  38  59  87 120 160 209 258 311 375
#     4  10  19  36  59  85 118 155 199 253 308 364
#     4   9  17  33  58  83 111 150 195 246 298 352
#
# _framework density 20.051593
#
# number of rings (size 3 to 8) (size 9 to 14) (size 15 to 20)
#    0.000    2.000    1.250    2.250    1.750    2.500 
#    0.000    5.000    0.000    0.000    0.000    0.000 
#    0.000    0.000    0.000    0.000    0.000    0.000 
#
# Total GULP energy -178614.049524 kJ/mol
# GULP energy per Si atom -5581.689048 kJ/mol
# Density = 2.000595 g / cm^3
# Si number density = 20.051593 Si / 1000 Ang^3
#
#
#
# Elastic Constant Matrix: (Units=GPa)
#
#
# Indices 1 2 3 4 5 6 
#
# 1 17.8997 8.0171 -4.6580 0.0000 0.0000 0.0000
# 2 8.0171 96.7343 38.1010 0.0000 0.0000 0.0000
# 3 -4.6580 38.1010 61.6117 0.0000 0.0000 0.0000
# 4 0.0000 0.0000 0.0000 16.7758 0.0000 0.0000
# 5 0.0000 0.0000 0.0000 0.0000 31.7251 0.0000
# 6 0.0000 0.0000 0.0000 0.0000 0.0000 17.8840
#
#
#
# Elastic Compliance Matrix: (Units=1/GPa)
#
#
# Indices 1 2 3 4 5 6 
#
# 1 0.062796 -0.009352 0.010531 0.000000 0.000000 0.000000
# 2 -0.009352 0.015059 -0.010020 0.000000 0.000000 0.000000
# 3 0.010531 -0.010020 0.023223 0.000000 0.000000 0.000000
# 4 0.000000 0.000000 0.000000 0.059610 0.000000 0.000000
# 5 0.000000 0.000000 0.000000 0.000000 0.031521 0.000000
# 6 0.000000 0.000000 0.000000 0.000000 0.000000 0.055916
#
#
# Mechanical properties :
#
#
# Convention : Reuss Voigt Hill
#
# Bulk Modulus (GPa) = 11.99092 28.79622 20.39357
# Shear Modulus (GPa) = 17.02965 22.26268 19.64617
#
# Velocity S-wave (km/s) = 2.91742 3.33569 3.13354
# Velocity P-wave (km/s) = 4.16431 5.40629 4.82543
#
# Compressibility (1/GPa) = 0.08339646
#
# Stress axis : x y z
#
# Youngs Moduli (GPa) = 15.92455 66.40458 43.06052
#
# Poissons Ratio (x) = 0.62103 -0.45347
# Poissons Ratio (y) = 0.14893 0.43146
# Poissons Ratio (z) = -0.16770 0.66536
#
# Static dielectric constant tensor:
#      x y z
#    x 1.689020 0.000000 0.000000 
#    y 0.000000 1.718050 0.000000 
#    z 0.000000 0.000000 1.704220 
# 
# From -- ./inp_files/3681.got.cif
#   From: 2010.05.17/outbox.cif.g08.bks.cpg/sg31_2_cif.got.tgz:3681.got - 2010.06.03 17:08:30.
