data_PCOD9343701
_publ_section_title
;
Structure prediction by ZEFSAII (Michael W. Deem and Ramdas Pophale) SiO2 
 PCOD9343701
Probable space group: P B A 2
;
_chemical_formula_sum "Si O2"
_cell_formula_units_Z 32
_cell_length_a 17.312288
_cell_length_b 7.762394
_cell_length_c 10.864816
_cell_angle_alpha 90.000000
_cell_angle_beta 90.000000
_cell_angle_gamma 90.000000
_cell_volume 1460.066131
_symmetry_space_group_name_H-M "P B A 2"
_symmetry_group_IT_number 32
_symmetry_cell_setting 'orthorhombic'
loop_
_space_group_symop_operation_xyz
x,y,z
-x,-y,z
1/2-x,1/2+y,z
1/2+x,1/2-y,z
loop_
_atom_site_type_symbol
_atom_site_label
_atom_site_fract_x
_atom_site_fract_y
_atom_site_fract_z
Si Si1 0.129037 0.362824 0.819080
Si Si2 0.380070 0.392935 0.586915
Si Si3 0.373361 0.915519 0.081481
Si Si4 0.795765 0.017620 0.826056
Si Si5 0.207932 0.785729 0.079646
Si Si6 0.458170 0.774772 0.311446
Si Si7 0.122219 0.901361 0.315279
Si Si8 0.043025 0.275175 0.583381
O O1 0.203079 0.487808 0.817642
O O2 0.077972 0.375843 0.697942
O O3 0.165901 0.170302 0.822829
O O4 0.086688 0.390120 0.949078
O O5 0.325753 0.384185 0.704750
O O6 0.343553 0.369251 0.451621
O O7 0.416430 0.586074 0.584772
O O8 0.452651 0.265594 0.598225
O O9 0.300833 0.782907 0.082990
O O10 0.426909 0.882920 0.197746
O O11 0.332204 0.100545 0.082502
O O12 0.814499 0.114154 0.954153
O O13 0.180099 0.877031 0.203851
O O14 0.413025 0.592641 0.309610
O O15 0.548218 0.724686 0.301195
O O16 0.443020 0.850550 0.447434
#
# Coordination Sequence:
#
# PCOD9343701 Si02
#       8
#     4   4   4   4   4   4   4   4
#     4  10  19  33  53  76 103 134 170 211 257 306
#     4   8  16  32  54  78 102 131 169 209 249 301
#     4  11  22  36  53  75 105 138 176 217 258 305
#     4  10  19  33  53  76 103 134 170 211 257 306
#     4  11  22  36  53  75 105 138 176 217 258 305
#     4   9  18  35  57  79 105 137 172 210 255 307
#     4   9  18  35  57  79 105 137 172 210 255 307
#     4   8  16  32  54  78 102 131 169 209 249 301
#
# _framework density 21.916816000000001
#
# number of rings (size 3 to 8) (size 9 to 14) (size 15 to 20)
#    0.000    2.500    0.000    6.000    0.000    2.500 
#    0.000    7.500    0.000    5.250    0.000    0.000 
#    0.000    0.000    0.000    0.000    0.000    0.000 
#
# Total GULP energy -178832.564558 kJ/mol
# GULP energy per Si atom -5588.517642 kJ/mol
# Density = 2.186693 g / cm^3
# Si number density = 21.916816 Si / 1000 Ang^3
#
#
#
# Elastic Constant Matrix: (Units=GPa)
#
#
# Indices 1 2 3 4 5 6 
#
# 1 38.0057 9.1066 66.1247 0.0000 0.0000 0.0000
# 2 9.1066 82.7173 35.5628 0.0000 0.0000 0.0000
# 3 66.1247 35.5628 222.7593 0.0000 0.0000 0.0000
# 4 0.0000 0.0000 0.0000 6.0305 0.0000 0.0000
# 5 0.0000 0.0000 0.0000 0.0000 36.3852 0.0000
# 6 0.0000 0.0000 0.0000 0.0000 0.0000 26.2626
#
#
#
# Elastic Compliance Matrix: (Units=1/GPa)
#
#
# Indices 1 2 3 4 5 6 
#
# 1 0.054497 0.001026 -0.016341 0.000000 0.000000 0.000000
# 2 0.001026 0.013000 -0.002380 0.000000 0.000000 0.000000
# 3 -0.016341 -0.002380 0.009720 0.000000 0.000000 0.000000
# 4 0.000000 0.000000 0.000000 0.165824 0.000000 0.000000
# 5 0.000000 0.000000 0.000000 0.000000 0.027484 0.000000
# 6 0.000000 0.000000 0.000000 0.000000 0.000000 0.038077
#
#
# Mechanical properties :
#
#
# Convention : Reuss Voigt Hill
#
# Bulk Modulus (GPa) = 23.90838 62.78562 43.34700
# Shear Modulus (GPa) = 13.96909 29.24822 21.60865
#
# Velocity S-wave (km/s) = 2.52735 3.65706 3.14337
# Velocity P-wave (km/s) = 4.41011 6.82214 5.74415
#
# Compressibility (1/GPa) = 0.04182633
#
# Stress axis : x y z
#
# Youngs Moduli (GPa) = 18.34969 76.92546 102.88330
#
# Poissons Ratio (x) = -0.07890 1.68120
# Poissons Ratio (y) = -0.01882 0.24484
# Poissons Ratio (z) = 0.29985 0.18307
#
# Static dielectric constant tensor:
#      x y z
#    x 1.753430 0.000000 0.000000 
#    y 0.000000 1.851230 0.000000 
#    z 0.000000 0.000000 1.808160 
# 
# From -- ./inp_files/4005.got.cif
#   From: 2010.05.17/outbox.cif.g08.bks.cpg/sg32_3_cif.got.tgz:4005.got - 2010.06.03 17:12:27.
