data_PCOD9343176
_publ_section_title
;
Structure prediction by ZEFSAII (Michael W. Deem and Ramdas Pophale) SiO2 
 PCOD9343176
Probable space group: P M N 21
;
_chemical_formula_sum "Si O2"
_cell_formula_units_Z 32
_cell_length_a 9.023956
_cell_length_b 12.715185
_cell_length_c 14.274006
_cell_angle_alpha 90.000000
_cell_angle_beta 90.000000
_cell_angle_gamma 90.000000
_cell_volume 1637.817576
_symmetry_space_group_name_H-M "P M N 21"
_symmetry_group_IT_number 31
_symmetry_cell_setting 'orthorhombic'
loop_
_space_group_symop_operation_xyz
x,y,z
1/2-x,-y,1/2+z
-x,y,z
1/2+x,-y,1/2+z
loop_
_atom_site_type_symbol
_atom_site_label
_atom_site_fract_x
_atom_site_fract_y
_atom_site_fract_z
Si Si1 0.167429 0.063521 0.084190
Si Si2 0.328974 0.910183 0.358603
Si Si3 0.673571 0.239316 0.190246
Si Si4 0.674716 0.870910 0.851949
Si Si5 0.320350 0.316797 0.845664
Si Si6 0.823869 0.612496 0.144588
Si Si7 0.326416 0.166519 0.547506
Si Si8 0.678253 0.419552 0.044236
O O1 0.289859 0.137406 0.127946
O O2 0.000000 0.092297 0.116255
O O3 0.193634 0.941130 0.104638
O O4 0.170207 0.077642 0.972041
O O5 0.500000 0.908130 0.326886
O O6 0.248621 0.799908 0.337977
O O7 0.248640 0.016797 0.325157
O O8 0.500000 0.246799 0.211701
O O9 0.766311 0.219564 0.283390
O O10 0.718920 0.337106 0.126005
O O11 0.500000 0.881705 0.847459
O O12 0.726640 0.841954 0.956023
O O13 0.500000 0.306297 0.845990
O O14 0.278213 0.384805 0.753956
O O15 0.274651 0.373041 0.943105
O O16 0.797635 0.729793 0.106225
O O17 0.744605 0.529613 0.077420
O O18 0.000000 0.592150 0.141277
O O19 0.500000 0.166798 0.517800
O O20 0.500000 0.426581 0.041166
#
# Coordination Sequence:
#
# PCOD9343176 Si02
#       8
#     4   4   4   4   4   4   4   4
#     4   9  18  33  56  86 121 157 196 242 300 365
#     4  10  20  36  59  90 124 159 200 249 303 365
#     4  11  22  37  58  88 123 161 205 253 304 357
#     4  11  23  37  58  88 124 168 208 250 304 366
#     4  10  21  40  63  90 119 156 203 255 307 361
#     4  10  23  41  65  91 120 160 205 253 309 367
#     4   9  20  40  59  86 125 160 199 251 307 361
#     4  10  23  42  62  87 124 161 204 257 304 360
#
# _framework density 19.538197
#
# number of rings (size 3 to 8) (size 9 to 14) (size 15 to 20)
#    0.000    2.000    1.250    2.625    1.750    5.500 
#    0.000    2.500    0.000    0.000    0.000    0.000 
#    0.000    0.000    0.000    0.000    0.000    0.000 
#
# Total GULP energy -178686.389114 kJ/mol
# GULP energy per Si atom -5583.949660 kJ/mol
# Density = 1.949373 g / cm^3
# Si number density = 19.538197 Si / 1000 Ang^3
#
#
#
# Elastic Constant Matrix: (Units=GPa)
#
#
# Indices 1 2 3 4 5 6 
#
# 1 38.9914 17.0807 15.7569 0.0000 0.0000 0.0000
# 2 17.0807 66.9398 8.7724 0.0000 0.0000 0.0000
# 3 15.7569 8.7724 58.0847 0.0000 0.0000 0.0000
# 4 0.0000 0.0000 0.0000 20.3674 0.0000 0.0000
# 5 0.0000 0.0000 0.0000 0.0000 61.4970 0.0000
# 6 0.0000 0.0000 0.0000 0.0000 0.0000 30.9866
#
#
#
# Elastic Compliance Matrix: (Units=1/GPa)
#
#
# Indices 1 2 3 4 5 6 
#
# 1 0.031824 -0.007130 -0.007556 0.000000 0.000000 0.000000
# 2 -0.007130 0.016838 -0.000609 0.000000 0.000000 0.000000
# 3 -0.007556 -0.000609 0.019358 0.000000 0.000000 0.000000
# 4 0.000000 0.000000 0.000000 0.049098 0.000000 0.000000
# 5 0.000000 0.000000 0.000000 0.000000 0.016261 0.000000
# 6 0.000000 0.000000 0.000000 0.000000 0.000000 0.032272
#
#
# Mechanical properties :
#
#
# Convention : Reuss Voigt Hill
#
# Bulk Modulus (GPa) = 26.71684 27.47068 27.09376
# Shear Modulus (GPa) = 23.95587 30.73059 27.34323
#
# Velocity S-wave (km/s) = 3.50538 3.97022 3.74501
# Velocity P-wave (km/s) = 5.48520 5.92514 5.70941
#
# Compressibility (1/GPa) = 0.03742957
#
# Stress axis : x y z
#
# Youngs Moduli (GPa) = 31.42317 59.38971 51.65835
#
# Poissons Ratio (x) = 0.42345 0.39034
# Poissons Ratio (y) = 0.22405 0.03145
# Poissons Ratio (z) = 0.23744 0.03616
#
# Static dielectric constant tensor:
#      x y z
#    x 1.645600 0.000000 0.000000 
#    y 0.000000 1.661670 0.000000 
#    z 0.000000 0.000000 1.716340 
# 
# From -- ./inp_files/4948.got.cif
#   From: 2010.05.17/outbox.cif.g08.bks.cpg/sg31_3_cif.got.tgz:4948.got - 2010.06.03 17:08:30.
