data_PCOD9343799
_publ_section_title
;
Structure prediction by ZEFSAII (Michael W. Deem and Ramdas Pophale) SiO2 
 PCOD9343799
Probable space group: P B A 2
;
_chemical_formula_sum "Si O2"
_cell_formula_units_Z 32
_cell_length_a 20.529250
_cell_length_b 8.753458
_cell_length_c 10.262866
_cell_angle_alpha 90.000000
_cell_angle_beta 90.000000
_cell_angle_gamma 90.000000
_cell_volume 1844.256803
_symmetry_space_group_name_H-M "P B A 2"
_symmetry_group_IT_number 32
_symmetry_cell_setting 'orthorhombic'
loop_
_space_group_symop_operation_xyz
x,y,z
-x,-y,z
1/2-x,1/2+y,z
1/2+x,1/2-y,z
loop_
_atom_site_type_symbol
_atom_site_label
_atom_site_fract_x
_atom_site_fract_y
_atom_site_fract_z
Si Si1 0.178918 0.316691 0.778320
Si Si2 0.424359 0.317117 0.577502
Si Si3 0.320581 0.815921 0.078910
Si Si4 0.821083 0.316692 0.778322
Si Si5 0.179419 0.684078 0.078911
Si Si6 0.424850 0.815658 0.293694
Si Si7 0.075150 0.684342 0.293695
Si Si8 0.075642 0.182880 0.577501
O O1 0.181082 0.500000 0.770760
O O2 0.250001 0.250001 0.744642
O O3 0.124088 0.253596 0.682638
O O4 0.165211 0.272044 0.928987
O O5 0.375913 0.246399 0.682639
O O6 0.408117 0.256723 0.432982
O O7 0.419600 0.499998 0.579897
O O8 0.500001 0.274281 0.603165
O O9 0.250000 0.750000 0.113959
O O10 0.375855 0.766296 0.180115
O O11 0.317281 1.000000 0.082655
O O12 0.834790 0.272045 0.928988
O O13 0.124144 0.733704 0.180117
O O14 0.500000 0.775885 0.263299
O O15 0.408117 0.743274 0.432981
O O16 0.421218 1.000000 0.305135
#
# Coordination Sequence:
#
# PCOD9343799 Si02
#       8
#     4   4   4   4   4   4   4   4
#     4  10  20  35  55  78 105 137 173 213 258 307
#     4  10  21  36  53  76 106 138 174 215 257 304
#     4   9  19  34  53  77 103 132 167 209 255 305
#     4  10  20  35  55  78 105 137 173 213 258 307
#     4   9  19  34  53  77 103 132 167 209 255 305
#     4   9  18  34  54  75 101 134 172 212 254 302
#     4   9  18  34  54  75 101 134 172 212 254 302
#     4  10  21  36  53  76 106 138 174 215 257 304
#
# _framework density 17.351163
#
# number of rings (size 3 to 8) (size 9 to 14) (size 15 to 20)
#    0.000    2.500    0.000    1.500    0.000    5.500 
#    0.000    5.000    0.000    3.000    0.000    0.000 
#    0.000    0.000    0.000    0.000    0.000    0.000 
#
# Total GULP energy -178544.253498 kJ/mol
# GULP energy per Si atom -5579.507922 kJ/mol
# Density = 1.731167 g / cm^3
# Si number density = 17.351163 Si / 1000 Ang^3
#
#
#
# Elastic Constant Matrix: (Units=GPa)
#
#
# Indices 1 2 3 4 5 6 
#
# 1 142.3433 44.4656 128.6252 0.0000 0.0000 0.0000
# 2 44.4656 31.3917 43.3707 0.0000 0.0000 0.0000
# 3 128.6252 43.3707 139.3790 0.0000 0.0000 0.0000
# 4 0.0000 0.0000 0.0000 21.4457 0.0000 0.0000
# 5 0.0000 0.0000 0.0000 0.0000 45.2575 0.0000
# 6 0.0000 0.0000 0.0000 0.0000 0.0000 30.8949
#
#
#
# Elastic Compliance Matrix: (Units=1/GPa)
#
#
# Indices 1 2 3 4 5 6 
#
# 1 0.044365 -0.011010 -0.037516 0.000000 0.000000 0.000000
# 2 -0.011010 0.058611 -0.008077 0.000000 0.000000 0.000000
# 3 -0.037516 -0.008077 0.044310 0.000000 0.000000 0.000000
# 4 0.000000 0.000000 0.000000 0.046629 0.000000 0.000000
# 5 0.000000 0.000000 0.000000 0.000000 0.022096 0.000000
# 6 0.000000 0.000000 0.000000 0.000000 0.000000 0.032368
#
#
# Mechanical properties :
#
#
# Convention : Reuss Voigt Hill
#
# Bulk Modulus (GPa) = 29.34411 82.89300 56.11855
# Shear Modulus (GPa) = 13.40677 25.96314 19.68495
#
# Velocity S-wave (km/s) = 2.78271 3.87244 3.37189
# Velocity P-wave (km/s) = 5.22238 8.23844 6.89729
#
# Compressibility (1/GPa) = 0.03407839
#
# Stress axis : x y z
#
# Youngs Moduli (GPa) = 22.54007 17.06176 22.56832
#
# Poissons Ratio (x) = 0.18785 0.84668
# Poissons Ratio (y) = 0.24817 0.18229
# Poissons Ratio (z) = 0.84562 0.13781
#
# Static dielectric constant tensor:
#      x y z
#    x 1.566660 0.000000 0.000000 
#    y 0.000000 1.583570 0.000000 
#    z 0.000000 0.000000 1.569230 
# 
# From -- ./inp_files/4004.got.cif
#   From: 2010.05.17/outbox.cif.g08.bks.cpg/sg32_3_cif.got.tgz:4004.got - 2010.06.03 17:12:27.
