data_PCOD9343704
_publ_section_title
;
Structure prediction by ZEFSAII (Michael W. Deem and Ramdas Pophale) SiO2 
 PCOD9343704
Probable space group: P B A 2
;
_chemical_formula_sum "Si O2"
_cell_formula_units_Z 26
_cell_length_a 26.773632
_cell_length_b 5.572250
_cell_length_c 7.622337
_cell_angle_alpha 90.000000
_cell_angle_beta 90.000000
_cell_angle_gamma 90.000000
_cell_volume 1137.171662
_symmetry_space_group_name_H-M "P B A 2"
_symmetry_group_IT_number 32
_symmetry_cell_setting 'orthorhombic'
loop_
_space_group_symop_operation_xyz
x,y,z
-x,-y,z
1/2-x,1/2+y,z
1/2+x,1/2-y,z
loop_
_atom_site_type_symbol
_atom_site_label
_atom_site_fract_x
_atom_site_fract_y
_atom_site_fract_z
Si Si1 0.235439 0.469502 0.206450
Si Si2 0.500000 0.500000 0.935949
Si Si3 0.554564 0.113012 0.770277
Si Si4 0.178000 0.968925 0.922566
Si Si5 0.583830 0.574660 0.185844
Si Si6 0.440203 0.945879 0.365791
Si Si7 0.342973 0.971928 0.913318
O O1 0.249689 0.719944 0.299149
O O2 0.272262 0.472081 0.037376
O O3 0.181510 0.466697 0.109442
O O4 0.535167 0.640133 0.070068
O O5 0.541537 0.385894 0.811848
O O6 0.570637 0.079509 0.572422
O O7 0.597312 0.028705 0.901728
O O8 0.500000 0.000000 0.798293
O O9 0.131969 0.957665 0.061675
O O10 0.175277 0.716745 0.824367
O O11 0.172976 0.221097 0.825891
O O12 0.573061 0.312269 0.275366
O O13 0.587983 0.810505 0.306220
O O14 0.500000 0.000000 0.350918
#
# Coordination Sequence:
#
# PCOD9343704 Si02
#       7
#     4   2   4   4   4   4   4
#     4   8  16  30  52  83 114 140 180 251 312 346
#     4  12  24  36  64  88 120 154 218 264 286 352
#     4  11  26  38  59  88 127 165 209 253 305 362
#     4  10  19  33  57  89 114 142 197 258 302 347
#     4  12  23  39  60  86 122 160 207 247 308 360
#     4  11  25  41  55  80 129 176 196 239 311 382
#     4  10  19  35  56  87 117 147 195 254 303 346
#
# _framework density 22.863741999999998
#
# number of rings (size 3 to 8) (size 9 to 14) (size 15 to 20)
#    0.000    1.538    3.077    1.846    6.462    0.000 
#    0.000    0.000    0.000    0.000    0.000   58.154 
#    0.000    0.000    0.000    0.000    0.000    0.000 
#
# Total GULP energy -144892.735836 kJ/mol
# GULP energy per Si atom -5572.797532 kJ/mol
# Density = 2.281170 g / cm^3
# Si number density = 22.863742 Si / 1000 Ang^3
#
#
#
# Elastic Constant Matrix: (Units=GPa)
#
#
# Indices 1 2 3 4 5 6 
#
# 1 94.7379 14.4000 30.6895 0.0000 0.0000 0.0000
# 2 14.4000 214.7246 37.1366 0.0000 0.0000 0.0000
# 3 30.6895 37.1366 63.5849 0.0000 0.0000 0.0000
# 4 0.0000 0.0000 0.0000 20.4585 0.0000 0.0000
# 5 0.0000 0.0000 0.0000 0.0000 0.0040 0.0000
# 6 0.0000 0.0000 0.0000 0.0000 0.0000 43.4244
#
#
#
# Elastic Compliance Matrix: (Units=1/GPa)
#
#
# Indices 1 2 3 4 5 6 
#
# 1 0.012522 0.000229 -0.006177 0.000000 0.000000 0.000000
# 2 0.000229 0.005185 -0.003138 0.000000 0.000000 0.000000
# 3 -0.006177 -0.003138 0.020541 0.000000 0.000000 0.000000
# 4 0.000000 0.000000 0.000000 0.048880 0.000000 0.000000
# 5 0.000000 0.000000 0.000000 0.000000248.759020 0.000000
# 6 0.000000 0.000000 0.000000 0.000000 0.000000 0.023029
#
#
# Mechanical properties :
#
#
# Convention : Reuss Voigt Hill
#
# Bulk Modulus (GPa) = 49.81614 59.72219 54.76916
# Shear Modulus (GPa) = 0.02009 32.16546 16.09277
#
# Velocity S-wave (km/s) = 0.09384 3.75485 2.65591
# Velocity P-wave (km/s) = 4.67411 6.70642 5.78029
#
# Compressibility (1/GPa) = 0.02007382
#
# Stress axis : x y z
#
# Youngs Moduli (GPa) = 79.86117 192.87965 48.68213
#
# Poissons Ratio (x) = -0.04409 0.30072
# Poissons Ratio (y) = -0.01826 0.15278
# Poissons Ratio (z) = 0.49332 0.60533
#
# Static dielectric constant tensor:
#      x y z
#    x 1.868250 0.000000 0.000000 
#    y 0.000000 2.197990 0.000000 
#    z 0.000000 0.000000 1.784060 
# 
# From -- ./inp_files/2022.got.cif
#   From: 2010.05.17/outbox.cif.g08.bks.cpg/sg32_2_cif.got.tgz:2022.got - 2010.06.03 17:12:27.
