data_PCOD9343719
_publ_section_title
;
Structure prediction by ZEFSAII (Michael W. Deem and Ramdas Pophale) SiO2 
 PCOD9343719
Probable space group: P B A 2
;
_chemical_formula_sum "Si O2"
_cell_formula_units_Z 26
_cell_length_a 7.648384
_cell_length_b 14.976471
_cell_length_c 9.941989
_cell_angle_alpha 90.000000
_cell_angle_beta 90.000000
_cell_angle_gamma 90.000000
_cell_volume 1138.813095
_symmetry_space_group_name_H-M "P B A 2"
_symmetry_group_IT_number 32
_symmetry_cell_setting 'orthorhombic'
loop_
_space_group_symop_operation_xyz
x,y,z
-x,-y,z
1/2-x,1/2+y,z
1/2+x,1/2-y,z
loop_
_atom_site_type_symbol
_atom_site_label
_atom_site_fract_x
_atom_site_fract_y
_atom_site_fract_z
Si Si1 0.535362 0.369672 0.350000
Si Si2 0.500000 0.500000 0.574873
Si Si3 0.131435 0.330929 0.408330
Si Si4 0.853963 0.577628 0.688359
Si Si5 0.206694 0.889299 0.961768
Si Si6 0.999969 0.393032 0.147323
Si Si7 0.148787 0.096232 0.047078
O O1 0.592809 0.432070 0.472104
O O2 0.325598 0.363315 0.368711
O O3 0.614706 0.273117 0.377979
O O4 0.583203 0.406257 0.202798
O O5 0.658073 0.540108 0.659975
O O6 0.100197 0.359551 0.561859
O O7 0.994685 0.374641 0.305035
O O8 0.823185 0.625188 0.830649
O O9 0.000000 0.500000 0.699446
O O10 0.321086 0.855729 0.086737
O O11 0.006636 0.857623 0.964665
O O12 0.183079 0.997127 0.987186
O O13 0.000000 0.500000 0.131641
O O14 0.835988 0.357789 0.063133
#
# Coordination Sequence:
#
# PCOD9343719 Si02
#       7
#     4   2   4   4   4   4   4
#     4  11  23  40  65 100 131 171 224 292 349 407
#     4  10  24  40  64  94 126 172 232 274 336 412
#     4  11  24  40  64  98 138 172 224 287 352 421
#     4  11  24  40  66  97 134 182 228 273 344 423
#     4  10  20  38  62  97 128 169 223 272 325 412
#     4  10  20  35  64  97 127 167 221 279 337 397
#     4  10  19  34  66  89 128 167 222 285 331 387
#
# _framework density 22.830787999999998
#
# number of rings (size 3 to 8) (size 9 to 14) (size 15 to 20)
#    0.000    1.538    1.538    4.615   10.769    0.000 
#    0.000    0.000   10.154    0.000    0.000    0.000 
#    0.000    0.000    0.000    0.000    0.000    0.000 
#
# Total GULP energy -145235.429571 kJ/mol
# GULP energy per Si atom -5585.978060 kJ/mol
# Density = 2.277882 g / cm^3
# Si number density = 22.830788 Si / 1000 Ang^3
#
#
#
# Elastic Constant Matrix: (Units=GPa)
#
#
# Indices 1 2 3 4 5 6 
#
# 1 83.3636 5.8838 22.7610 0.0000 0.0000 0.0000
# 2 5.8838 45.7907 7.9650 0.0000 0.0000 0.0000
# 3 22.7610 7.9650 131.7182 0.0000 0.0000 0.0000
# 4 0.0000 0.0000 0.0000 7.5163 0.0000 0.0000
# 5 0.0000 0.0000 0.0000 0.0000 38.1949 0.0000
# 6 0.0000 0.0000 0.0000 0.0000 0.0000 20.5617
#
#
#
# Elastic Compliance Matrix: (Units=1/GPa)
#
#
# Indices 1 2 3 4 5 6 
#
# 1 0.012661 -0.001260 -0.002112 0.000000 0.000000 0.000000
# 2 -0.001260 0.022196 -0.001125 0.000000 0.000000 0.000000
# 3 -0.002112 -0.001125 0.008025 0.000000 0.000000 0.000000
# 4 0.000000 0.000000 0.000000 0.133045 0.000000 0.000000
# 5 0.000000 0.000000 0.000000 0.000000 0.026181 0.000000
# 6 0.000000 0.000000 0.000000 0.000000 0.000000 0.048634
#
#
# Mechanical properties :
#
#
# Convention : Reuss Voigt Hill
#
# Bulk Modulus (GPa) = 29.50690 37.12133 33.31412
# Shear Modulus (GPa) = 18.44810 28.20541 23.32676
#
# Velocity S-wave (km/s) = 2.84568 3.51865 3.19991
# Velocity P-wave (km/s) = 4.87334 5.72735 5.31752
#
# Compressibility (1/GPa) = 0.03389038
#
# Stress axis : x y z
#
# Youngs Moduli (GPa) = 78.98209 45.05325 124.61266
#
# Poissons Ratio (x) = 0.05675 0.26314
# Poissons Ratio (y) = 0.09948 0.14013
# Poissons Ratio (z) = 0.16678 0.05066
#
# Static dielectric constant tensor:
#      x y z
#    x 1.917710 0.000000 0.000000 
#    y 0.000000 1.921030 0.000000 
#    z 0.000000 0.000000 1.840370 
# 
# From -- ./inp_files/2461.got.cif
#   From: 2010.05.17/outbox.cif.g08.bks.cpg/sg32_2_cif.got.tgz:2461.got - 2010.06.03 17:12:27.
