data_PCOD9343296
_publ_section_title
;
Structure prediction by ZEFSAII (Michael W. Deem and Ramdas Pophale) SiO2 
 PCOD9343296
Probable space group: P M N 21
;
_chemical_formula_sum "Si O2"
_cell_formula_units_Z 24
_cell_length_a 23.387866
_cell_length_b 5.429879
_cell_length_c 8.237769
_cell_angle_alpha 90.000000
_cell_angle_beta 90.000000
_cell_angle_gamma 90.000000
_cell_volume 1046.141325
_symmetry_space_group_name_H-M "P M N 21"
_symmetry_group_IT_number 31
_symmetry_cell_setting 'orthorhombic'
loop_
_space_group_symop_operation_xyz
x,y,z
1/2-x,-y,1/2+z
-x,y,z
1/2+x,-y,1/2+z
loop_
_atom_site_type_symbol
_atom_site_label
_atom_site_fract_x
_atom_site_fract_y
_atom_site_fract_z
Si Si1 0.064757 0.948609 0.036060
Si Si2 0.066093 0.447464 0.246832
Si Si3 0.767774 0.054860 0.309343
Si Si4 0.649788 0.345291 0.341448
Si Si5 0.159552 0.372151 0.525419
Si Si6 0.776923 0.329827 0.003847
O O1 0.068429 0.712203 0.156581
O O2 0.000000 0.958738 0.972334
O O3 0.073736 0.204565 0.132115
O O4 0.106533 0.869685 0.889150
O O5 0.113430 0.443213 0.388552
O O6 0.000000 0.425253 0.308768
O O7 0.712029 0.226654 0.314412
O O8 0.814261 0.113046 0.451060
O O9 0.739593 0.792007 0.332460
O O10 0.790271 0.113796 0.131467
O O11 0.666948 0.508586 0.496637
O O12 0.633146 0.535630 0.197717
O O13 0.218920 0.521916 0.529863
#
# Coordination Sequence:
#
# PCOD9343296 Si02
#       6
#     4   4   4   4   4   4
#     4  10  23  43  66  92 123 166 216 261 318 382
#     4  10  23  43  66  93 123 166 215 261 318 382
#     4  10  21  35  58  88 126 170 209 264 318 393
#     4  10  22  38  59  90 127 163 214 263 324 382
#     4  10  22  38  58  92 125 165 211 266 321 386
#     4  10  21  37  57  89 128 166 213 257 325 385
#
# _framework density 22.941451000000001
#
# number of rings (size 3 to 8) (size 9 to 14) (size 15 to 20)
#    0.000    2.000    0.000    2.000    7.000    3.333 
#    0.000    0.000    0.000    6.000    0.000    0.000 
#    0.000    0.000    0.000    0.000    0.000    0.000 
#
# Total GULP energy -133631.400060 kJ/mol
# GULP energy per Si atom -5567.975003 kJ/mol
# Density = 2.288923 g / cm^3
# Si number density = 22.941451 Si / 1000 Ang^3
#
#
#
# Elastic Constant Matrix: (Units=GPa)
#
#
# Indices 1 2 3 4 5 6 
#
# 1 87.9084 9.9015 30.8930 0.0000 0.0000 0.0000
# 2 9.9015 93.0837 16.6760 0.0000 0.0000 0.0000
# 3 30.8930 16.6760 60.5499 0.0000 0.0000 0.0000
# 4 0.0000 0.0000 0.0000 32.0572 0.0000 0.0000
# 5 0.0000 0.0000 0.0000 0.0000 32.5213 0.0000
# 6 0.0000 0.0000 0.0000 0.0000 0.0000 28.8371
#
#
#
# Elastic Compliance Matrix: (Units=1/GPa)
#
#
# Indices 1 2 3 4 5 6 
#
# 1 0.013865 -0.000218 -0.007014 0.000000 0.000000 0.000000
# 2 -0.000218 0.011304 -0.003002 0.000000 0.000000 0.000000
# 3 -0.007014 -0.003002 0.020921 0.000000 0.000000 0.000000
# 4 0.000000 0.000000 0.000000 0.031194 0.000000 0.000000
# 5 0.000000 0.000000 0.000000 0.000000 0.030749 0.000000
# 6 0.000000 0.000000 0.000000 0.000000 0.000000 0.034678
#
#
# Mechanical properties :
#
#
# Convention : Reuss Voigt Hill
#
# Bulk Modulus (GPa) = 39.02975 39.60920 39.31948
# Shear Modulus (GPa) = 29.11737 30.95455 30.03596
#
# Velocity S-wave (km/s) = 3.56645 3.67725 3.62227
# Velocity P-wave (km/s) = 5.83174 5.94410 5.88819
#
# Compressibility (1/GPa) = 0.02562148
#
# Stress axis : x y z
#
# Youngs Moduli (GPa) = 72.12466 88.46410 47.79994
#
# Poissons Ratio (x) = 0.01931 0.33526
# Poissons Ratio (y) = 0.01574 0.14349
# Poissons Ratio (z) = 0.50587 0.26556
#
# Static dielectric constant tensor:
#      x y z
#    x 1.857430 0.000000 0.000000 
#    y 0.000000 1.938420 0.000000 
#    z 0.000000 0.000000 1.992140 
# 
# From -- ./inp_files/3032.got.cif
#   From: 2010.05.17/outbox.cif.g08.bks.cpg/sg31_2_cif.got.tgz:3032.got - 2010.06.03 17:08:30.
