data_PCOD9343826
_publ_section_title
;
Structure prediction by ZEFSAII (Michael W. Deem and Ramdas Pophale) SiO2 
 PCOD9343826
Probable space group: P B A 2
;
_chemical_formula_sum "Si O2"
_cell_formula_units_Z 32
_cell_length_a 7.911723
_cell_length_b 13.723246
_cell_length_c 12.693612
_cell_angle_alpha 90.000000
_cell_angle_beta 90.000000
_cell_angle_gamma 90.000000
_cell_volume 1378.202843
_symmetry_space_group_name_H-M "P B A 2"
_symmetry_group_IT_number 32
_symmetry_cell_setting 'orthorhombic'
loop_
_space_group_symop_operation_xyz
x,y,z
-x,-y,z
1/2-x,1/2+y,z
1/2+x,1/2-y,z
loop_
_atom_site_type_symbol
_atom_site_label
_atom_site_fract_x
_atom_site_fract_y
_atom_site_fract_z
Si Si1 0.320997 0.883115 0.112450
Si Si2 0.612134 0.811762 0.868168
Si Si3 0.765571 0.101417 0.890132
Si Si4 0.048861 0.710926 0.640480
Si Si5 0.324468 0.059425 0.491700
Si Si6 0.284002 0.161913 0.084575
Si Si7 0.303534 0.409888 0.657160
Si Si8 0.816358 0.967483 0.267221
O O1 0.522668 0.871050 0.104438
O O2 0.241630 0.775967 0.107312
O O3 0.280187 0.940639 0.217599
O O4 0.241904 0.938240 0.009446
O O5 0.426888 0.857313 0.881697
O O6 0.613394 0.695799 0.888140
O O7 0.650050 0.822153 0.745832
O O8 0.734898 0.851768 0.958568
O O9 0.801625 0.049977 0.778221
O O10 0.142282 0.664459 0.541819
O O11 0.052381 0.828009 0.640537
O O12 0.867260 0.657457 0.647988
O O13 0.500000 0.000000 0.492453
O O14 0.208057 0.993281 0.569265
O O15 0.269355 0.070968 0.371932
O O16 0.171904 0.106746 0.169486
O O17 0.000000 0.000000 0.299752
#
# Coordination Sequence:
#
# PCOD9343826 Si02
#       8
#     4   4   4   4   4   4   4   4
#     4  10  20  37  61  87 116 148 183 226 279 335
#     4   8  15  29  53  84 113 140 172 214 268 331
#     4   8  15  29  53  84 113 140 172 214 268 331
#     4   9  18  34  57  83 111 142 176 218 271 329
#     4  10  22  39  56  76 106 145 189 232 275 326
#     4  10  20  37  61  87 116 148 183 226 279 335
#     4   9  18  34  57  83 111 142 176 218 271 329
#     4  12  26  41  56  78 110 149 197 242 279 326
#
# _framework density 23.218643
#
# number of rings (size 3 to 8) (size 9 to 14) (size 15 to 20)
#    0.000    2.500    0.000    1.875    0.000    4.000 
#    0.000    6.250    0.000    1.500    0.000    0.000 
#    0.000    0.000    0.000    0.000    0.000    0.000 
#
# Total GULP energy -178660.450892 kJ/mol
# GULP energy per Si atom -5583.139090 kJ/mol
# Density = 2.316580 g / cm^3
# Si number density = 23.218643 Si / 1000 Ang^3
#
#
#
# Elastic Constant Matrix: (Units=GPa)
#
#
# Indices 1 2 3 4 5 6 
#
# 1 41.2569 0.5423 15.1233 0.0000 0.0000 0.0000
# 2 0.5423 42.0696 1.6117 0.0000 0.0000 0.0000
# 3 15.1233 1.6117 113.3578 0.0000 0.0000 0.0000
# 4 0.0000 0.0000 0.0000 31.5272 0.0000 0.0000
# 5 0.0000 0.0000 0.0000 0.0000 10.6562 0.0000
# 6 0.0000 0.0000 0.0000 0.0000 0.0000 24.1064
#
#
#
# Elastic Compliance Matrix: (Units=1/GPa)
#
#
# Indices 1 2 3 4 5 6 
#
# 1 0.025486 -0.000198 -0.003397 0.000000 0.000000 0.000000
# 2 -0.000198 0.023785 -0.000312 0.000000 0.000000 0.000000
# 3 -0.003397 -0.000312 0.009279 0.000000 0.000000 0.000000
# 4 0.000000 0.000000 0.000000 0.031719 0.000000 0.000000
# 5 0.000000 0.000000 0.000000 0.000000 0.093842 0.000000
# 6 0.000000 0.000000 0.000000 0.000000 0.000000 0.041483
#
#
# Mechanical properties :
#
#
# Convention : Reuss Voigt Hill
#
# Bulk Modulus (GPa) = 19.71009 25.69320 22.70164
# Shear Modulus (GPa) = 19.97444 25.21845 22.59644
#
# Velocity S-wave (km/s) = 2.93623 3.29922 3.12300
# Velocity P-wave (km/s) = 4.47242 5.05994 4.77522
#
# Compressibility (1/GPa) = 0.05073544
#
# Stress axis : x y z
#
# Youngs Moduli (GPa) = 39.23671 42.04396 107.76668
#
# Poissons Ratio (x) = 0.00834 0.36612
# Poissons Ratio (y) = 0.00778 0.03359
# Poissons Ratio (z) = 0.13330 0.01311
#
# Static dielectric constant tensor:
#      x y z
#    x 1.898210 0.000000 0.000000 
#    y 0.000000 1.903920 0.000000 
#    z 0.000000 0.000000 1.885950 
# 
# From -- ./inp_files/3757.got.cif
#   From: 2010.05.17/outbox.cif.g08.bks.cpg/sg32_2_cif.got.tgz:3757.got - 2010.06.03 17:12:27.
