data_PCOD9343522
_publ_section_title
;
Structure prediction by ZEFSAII (Michael W. Deem and Ramdas Pophale) SiO2 
 PCOD9343522
Probable space group: P M N 21
;
_chemical_formula_sum "Si O2"
_cell_formula_units_Z 28
_cell_length_a 26.080907
_cell_length_b 5.157336
_cell_length_c 8.708627
_cell_angle_alpha 90.000000
_cell_angle_beta 90.000000
_cell_angle_gamma 90.000000
_cell_volume 1171.380006
_symmetry_space_group_name_H-M "P M N 21"
_symmetry_group_IT_number 31
_symmetry_cell_setting 'orthorhombic'
loop_
_space_group_symop_operation_xyz
x,y,z
1/2-x,-y,1/2+z
-x,y,z
1/2+x,-y,1/2+z
loop_
_atom_site_type_symbol
_atom_site_label
_atom_site_fract_x
_atom_site_fract_y
_atom_site_fract_z
Si Si1 0.500000 0.708394 0.579540
Si Si2 0.354587 0.191090 0.929621
Si Si3 0.500000 0.203193 0.362481
Si Si4 0.781816 0.471594 0.623894
Si Si5 0.102745 0.996050 0.729301
Si Si6 0.856043 0.491460 0.863704
Si Si7 0.788357 0.184564 0.320947
Si Si8 0.108374 0.433778 0.206875
O O1 0.500000 0.475022 0.453037
O O2 0.447674 0.679574 0.677034
O O3 0.500000 0.982521 0.493979
O O4 0.332333 0.406283 0.045777
O O5 0.393885 0.306960 0.808619
O O6 0.301634 0.116716 0.840294
O O7 0.379890 0.999307 0.052952
O O8 0.450825 0.146572 0.258175
O O9 0.805006 0.369736 0.785285
O O10 0.765836 0.278542 0.486696
O O11 0.743365 0.694191 0.682088
O O12 0.102686 0.284716 0.796987
O O13 0.139938 0.795842 0.820658
O O14 0.865492 0.485552 0.043304
O O15 0.847970 0.266120 0.291522
#
# Coordination Sequence:
#
# PCOD9343522 Si02
#       8
#     2   4   2   4   4   4   4   4
#     4  12  26  43  69 106 138 176 243 292 357 421
#     4  10  25  43  65 100 144 180 235 296 357 428
#     4  12  22  43  71 102 132 184 243 290 349 429
#     4  10  23  42  66  99 136 181 236 283 356 422
#     4  11  22  43  69  95 139 180 232 288 347 411
#     4  11  22  42  68 100 137 180 225 293 343 414
#     4  11  23  44  66  96 139 182 234 289 355 424
#     4  11  25  43  67 102 136 184 232 296 354 419
#
# _framework density 23.903433
#
# number of rings (size 3 to 8) (size 9 to 14) (size 15 to 20)
#    0.000    1.143    4.286    0.857    4.000    4.000 
#    2.571    0.714    0.000    0.000    0.000    0.000 
#    0.000    0.000    0.000    0.000    0.000    0.000 
#
# Total GULP energy -156082.947832 kJ/mol
# GULP energy per Si atom -5574.390994 kJ/mol
# Density = 2.384903 g / cm^3
# Si number density = 23.903433 Si / 1000 Ang^3
#
#
#
# Elastic Constant Matrix: (Units=GPa)
#
#
# Indices 1 2 3 4 5 6 
#
# 1 91.3363 2.4574 39.6640 0.0000 0.0000 0.0000
# 2 2.4574 71.0411 21.6854 0.0000 0.0000 0.0000
# 3 39.6640 21.6854 126.3847 0.0000 0.0000 0.0000
# 4 0.0000 0.0000 0.0000 21.9428 0.0000 0.0000
# 5 0.0000 0.0000 0.0000 0.0000 41.6532 0.0000
# 6 0.0000 0.0000 0.0000 0.0000 0.0000 24.5196
#
#
#
# Elastic Compliance Matrix: (Units=1/GPa)
#
#
# Indices 1 2 3 4 5 6 
#
# 1 0.012721 0.000822 -0.004133 0.000000 0.000000 0.000000
# 2 0.000822 0.014907 -0.002816 0.000000 0.000000 0.000000
# 3 -0.004133 -0.002816 0.009693 0.000000 0.000000 0.000000
# 4 0.000000 0.000000 0.000000 0.045573 0.000000 0.000000
# 5 0.000000 0.000000 0.000000 0.000000 0.024008 0.000000
# 6 0.000000 0.000000 0.000000 0.000000 0.000000 0.040784
#
#
# Mechanical properties :
#
#
# Convention : Reuss Voigt Hill
#
# Bulk Modulus (GPa) = 39.89365 46.26395 43.07880
# Shear Modulus (GPa) = 29.70944 32.62013 31.16478
#
# Velocity S-wave (km/s) = 3.52930 3.69814 3.61470
# Velocity P-wave (km/s) = 5.77353 6.13446 5.95673
#
# Compressibility (1/GPa) = 0.02506665
#
# Stress axis : x y z
#
# Youngs Moduli (GPa) = 78.60749 67.08059 103.17050
#
# Poissons Ratio (x) = -0.05512 0.42645
# Poissons Ratio (y) = -0.06459 0.29050
# Poissons Ratio (z) = 0.32492 0.18888
#
# Static dielectric constant tensor:
#      x y z
#    x 1.979940 0.000000 0.000000 
#    y 0.000000 2.252090 0.000000 
#    z 0.000000 0.000000 1.947400 
# 
# From -- ./inp_files/3143.got.cif
#   From: 2010.05.17/outbox.cif.g08.bks.cpg/sg31_2_cif.got.tgz:3143.got - 2010.06.03 17:08:30.
