data_PCOD9343348
_publ_section_title
;
Structure prediction by ZEFSAII (Michael W. Deem and Ramdas Pophale) SiO2 
 PCOD9343348
Probable space group: P M N 21
;
_chemical_formula_sum "Si O2"
_cell_formula_units_Z 32
_cell_length_a 7.542169
_cell_length_b 11.057047
_cell_length_c 14.421801
_cell_angle_alpha 90.000000
_cell_angle_beta 90.000000
_cell_angle_gamma 90.000000
_cell_volume 1202.693362
_symmetry_space_group_name_H-M "P M N 21"
_symmetry_group_IT_number 31
_symmetry_cell_setting 'orthorhombic'
loop_
_space_group_symop_operation_xyz
x,y,z
1/2-x,-y,1/2+z
-x,y,z
1/2+x,-y,1/2+z
loop_
_atom_site_type_symbol
_atom_site_label
_atom_site_fract_x
_atom_site_fract_y
_atom_site_fract_z
Si Si1 0.283737 0.160223 0.618490
Si Si2 0.797735 0.701587 0.288017
Si Si3 0.287401 0.929159 0.500445
Si Si4 0.711799 0.206268 0.168935
Si Si5 0.784854 0.944310 0.827450
Si Si6 0.214052 0.702970 0.940323
Si Si7 0.796364 0.534765 0.677657
Si Si8 0.207755 0.443005 0.964746
O O1 0.500000 0.155803 0.622513
O O2 0.216649 0.194107 0.721064
O O3 0.221467 0.041044 0.564102
O O4 0.235908 0.266860 0.546376
O O5 0.792621 0.582280 0.221600
O O6 0.723923 0.661482 0.387530
O O7 0.000000 0.733460 0.304730
O O8 0.500000 0.937378 0.496825
O O9 0.221068 0.950672 0.396268
O O10 0.244233 0.812737 0.560453
O O11 0.500000 0.210545 0.181639
O O12 0.782385 0.090085 0.225691
O O13 0.781037 0.334056 0.205235
O O14 0.736258 0.819575 0.880974
O O15 0.000000 0.954843 0.823119
O O16 0.270035 0.568150 0.915436
O O17 0.000000 0.703873 0.935252
O O18 0.796335 0.549131 0.565820
O O19 0.000000 0.526817 0.710427
O O20 0.000000 0.451703 0.986962
#
# Coordination Sequence:
#
# PCOD9343348 Si02
#       8
#     4   4   4   4   4   4   4   4
#     4   8  15  31  55  79 103 137 180 228 284 335
#     4  11  21  36  58  86 119 153 189 235 292 354
#     4   9  18  35  60  83 104 139 190 238 280 341
#     4  10  21  38  57  80 115 152 187 235 293 344
#     4   8  15  31  57  82 103 138 187 230 276 335
#     4   8  13  27  53  78 101 136 182 226 269 325
#     4  11  23  39  58  84 118 157 195 238 291 350
#     4  11  21  35  56  84 117 156 194 232 283 348
#
# _framework density 26.606947999999999
#
# number of rings (size 3 to 8) (size 9 to 14) (size 15 to 20)
#    0.000    2.500    1.250    3.375    0.000    3.000 
#    2.250    1.875    0.000    0.000    0.000    0.000 
#    0.000    0.000    0.000    0.000    0.000    0.000 
#
# Total GULP energy -178781.884614 kJ/mol
# GULP energy per Si atom -5586.933894 kJ/mol
# Density = 2.654639 g / cm^3
# Si number density = 26.606948 Si / 1000 Ang^3
#
#
#
# Elastic Constant Matrix: (Units=GPa)
#
#
# Indices 1 2 3 4 5 6 
#
# 1 77.1981 5.0078 -3.8699 0.0000 0.0000 0.0000
# 2 5.0078 75.2444 25.9070 0.0000 0.0000 0.0000
# 3 -3.8699 25.9070 152.1062 0.0000 0.0000 0.0000
# 4 0.0000 0.0000 0.0000 57.3673 0.0000 0.0000
# 5 0.0000 0.0000 0.0000 0.0000 33.2447 0.0000
# 6 0.0000 0.0000 0.0000 0.0000 0.0000 14.9900
#
#
#
# Elastic Compliance Matrix: (Units=1/GPa)
#
#
# Indices 1 2 3 4 5 6 
#
# 1 0.013047 -0.001044 0.000510 0.000000 0.000000 0.000000
# 2 -0.001044 0.014201 -0.002445 0.000000 0.000000 0.000000
# 3 0.000510 -0.002445 0.007004 0.000000 0.000000 0.000000
# 4 0.000000 0.000000 0.000000 0.017432 0.000000 0.000000
# 5 0.000000 0.000000 0.000000 0.000000 0.030080 0.000000
# 6 0.000000 0.000000 0.000000 0.000000 0.000000 0.066711
#
#
# Mechanical properties :
#
#
# Convention : Reuss Voigt Hill
#
# Bulk Modulus (GPa) = 35.34406 39.84871 37.59638
# Shear Modulus (GPa) = 30.51298 39.62066 35.06682
#
# Velocity S-wave (km/s) = 3.39012 3.86308 3.63431
# Velocity P-wave (km/s) = 5.35131 5.90823 5.63665
#
# Compressibility (1/GPa) = 0.02829330
#
# Stress axis : x y z
#
# Youngs Moduli (GPa) = 76.64622 70.41539 142.77916
#
# Poissons Ratio (x) = 0.07350 -0.07278
# Poissons Ratio (y) = 0.08000 0.34915
# Poissons Ratio (z) = -0.03907 0.17219
#
# Static dielectric constant tensor:
#      x y z
#    x 1.978870 0.000000 0.000000 
#    y 0.000000 2.124990 0.000000 
#    z 0.000000 0.000000 2.125560 
# 
# From -- ./inp_files/4994.got.cif
#   From: 2010.05.17/outbox.cif.g08.bks.cpg/sg31_3_cif.got.tgz:4994.got - 2010.06.03 17:08:30.
