data_PCOD9343990
_publ_section_title
;
Structure prediction by ZEFSAII (Michael W. Deem and Ramdas Pophale) SiO2 
 PCOD9343990
Probable space group: P B A 2
;
_chemical_formula_sum "Si O2"
_cell_formula_units_Z 26
_cell_length_a 14.186242
_cell_length_b 13.623859
_cell_length_c 5.656843
_cell_angle_alpha 90.000000
_cell_angle_beta 90.000000
_cell_angle_gamma 90.000000
_cell_volume 1093.305744
_symmetry_space_group_name_H-M "P B A 2"
_symmetry_group_IT_number 32
_symmetry_cell_setting 'orthorhombic'
loop_
_space_group_symop_operation_xyz
x,y,z
-x,-y,z
1/2-x,1/2+y,z
1/2+x,1/2-y,z
loop_
_atom_site_type_symbol
_atom_site_label
_atom_site_fract_x
_atom_site_fract_y
_atom_site_fract_z
Si Si1 0.435611 0.335405 0.625000
Si Si2 0.727977 0.816627 0.553337
Si Si3 0.500000 0.500000 0.316100
Si Si4 0.205022 0.250537 0.074758
Si Si5 0.825192 0.058941 0.010144
Si Si6 0.473379 0.839170 0.910748
Si Si7 0.862012 0.475064 0.827578
O O1 0.501654 0.397442 0.455524
O O2 0.353150 0.265910 0.528816
O O3 0.494551 0.259783 0.783344
O O4 0.380169 0.419751 0.767605
O O5 0.782682 0.814419 0.307721
O O6 0.896675 0.696648 0.097967
O O7 0.673653 0.918091 0.598166
O O8 0.782152 0.793082 0.805321
O O9 0.596283 0.511033 0.171471
O O10 0.285834 0.334316 0.083079
O O11 0.730941 0.997959 0.974489
O O12 0.414159 0.922791 0.769381
O O13 0.567873 0.900852 0.966445
#
# Coordination Sequence:
#
# PCOD9343990 Si02
#       7
#     4   4   2   4   4   4   4
#     4  10  22  42  68 105 150 195 251 316 377 454
#     4  10  21  43  71 106 153 199 244 310 377 442
#     4  12  22  40  72 106 148 196 264 302 378 456
#     4  10  21  43  71 106 153 199 244 310 377 442
#     4  10  22  42  68 105 150 195 251 316 377 454
#     4   9  20  44  75 108 151 200 255 317 384 461
#     4   9  20  44  75 108 151 200 255 317 384 461
#
# _framework density 23.781086999999999
#
# number of rings (size 3 to 8) (size 9 to 14) (size 15 to 20)
#    0.000    2.154    1.538    0.462    0.000    2.462 
#   11.077    3.077    0.000    7.385    0.000    0.000 
#    0.000    0.000    0.000    0.000    0.000    0.000 
#
# Total GULP energy -145120.301101 kJ/mol
# GULP energy per Si atom -5581.550042 kJ/mol
# Density = 2.372696 g / cm^3
# Si number density = 23.781087 Si / 1000 Ang^3
#
#
#
# Elastic Constant Matrix: (Units=GPa)
#
#
# Indices 1 2 3 4 5 6 
#
# 1 142.5536 35.4782 43.7227 0.0000 0.0000 0.0000
# 2 35.4782 66.2130 21.3021 0.0000 0.0000 0.0000
# 3 43.7227 21.3021 70.8134 0.0000 0.0000 0.0000
# 4 0.0000 0.0000 0.0000 -6.0626 0.0000 0.0000
# 5 0.0000 0.0000 0.0000 0.0000 52.5206 0.0000
# 6 0.0000 0.0000 0.0000 0.0000 0.0000 2.5915
#
#
#
# Elastic Compliance Matrix: (Units=1/GPa)
#
#
# Indices 1 2 3 4 5 6 
#
# 1 0.009326 -0.003482 -0.004711 0.000000 0.000000 0.000000
# 2 -0.003482 0.018021 -0.003271 0.000000 0.000000 0.000000
# 3 -0.004711 -0.003271 0.018014 0.000000 0.000000 0.000000
# 4 0.000000 0.000000 0.000000 -0.164945 0.000000 0.000000
# 5 0.000000 0.000000 0.000000 0.000000 0.019040 0.000000
# 6 0.000000 0.000000 0.000000 0.000000 0.000000 0.385870
#
#
# Mechanical properties :
#
#
# Convention : Reuss Voigt Hill
#
# Bulk Modulus (GPa) = 44.57612 53.39846 48.98729
# Shear Modulus (GPa) = 15.83621 21.74837 18.79229
#
# Velocity S-wave (km/s) = 2.58333 3.02739 2.81413
# Velocity P-wave (km/s) = 5.26148 5.89263 5.58598
#
# Compressibility (1/GPa) = 0.02243354
#
# Stress axis : x y z
#
# Youngs Moduli (GPa) = 107.22335 55.49166 55.51084
#
# Poissons Ratio (x) = 0.19320 0.26152
# Poissons Ratio (y) = 0.37331 0.18160
# Poissons Ratio (z) = 0.50514 0.18153
#
# Static dielectric constant tensor:
#      x y z
#    x 1.731400 0.000000 0.000000 
#    y 0.000000 1.955870 0.000000 
#    z 0.000000 0.000000 1.959850 
# 
# From -- ./inp_files/1227.got.cif
#   From: 2010.05.17/outbox.cif.g08.bks.cpg/sg32_1_cif.got.tgz:1227.got - 2010.06.03 17:12:27.
