data_PCOD9343181
_publ_section_title
;
Structure prediction by ZEFSAII (Michael W. Deem and Ramdas Pophale) SiO2 
 PCOD9343181
Probable space group: P M N 21
;
_chemical_formula_sum "Si O2"
_cell_formula_units_Z 32
_cell_length_a 9.434005
_cell_length_b 16.166498
_cell_length_c 10.590059
_cell_angle_alpha 90.000000
_cell_angle_beta 90.000000
_cell_angle_gamma 90.000000
_cell_volume 1615.140974
_symmetry_space_group_name_H-M "P M N 21"
_symmetry_group_IT_number 31
_symmetry_cell_setting 'orthorhombic'
loop_
_space_group_symop_operation_xyz
x,y,z
1/2-x,-y,1/2+z
-x,y,z
1/2+x,-y,1/2+z
loop_
_atom_site_type_symbol
_atom_site_label
_atom_site_fract_x
_atom_site_fract_y
_atom_site_fract_z
Si Si1 0.670796 0.077859 0.782310
Si Si2 0.653365 0.680256 0.998895
Si Si3 0.339734 0.190533 0.381307
Si Si4 0.169949 0.234071 0.860255
Si Si5 0.336307 0.010534 0.507021
Si Si6 0.838025 0.410240 0.762707
Si Si7 0.660419 0.576003 0.743266
Si Si8 0.169295 0.251975 0.146372
O O1 0.500000 0.084334 0.787859
O O2 0.744459 0.168198 0.777438
O O3 0.704284 0.024517 0.654794
O O4 0.734808 0.039177 0.911472
O O5 0.500000 0.724481 0.000594
O O6 0.661992 0.624836 0.121216
O O7 0.777409 0.745037 0.981711
O O8 0.655716 0.621175 0.878182
O O9 0.500000 0.212279 0.347064
O O10 0.337830 0.101334 0.444240
O O11 0.244487 0.200942 0.256556
O O12 0.213069 0.329683 0.839286
O O13 0.000000 0.229046 0.834228
O O14 0.194272 0.216575 0.008051
O O15 0.500000 0.977973 0.503389
O O16 0.749947 0.493782 0.760178
O O17 0.000000 0.427774 0.802846
O O18 0.500000 0.554832 0.703147
O O19 0.715047 0.651138 0.654977
O O20 0.000000 0.252453 0.169257
#
# Coordination Sequence:
#
# PCOD9343181 Si02
#       8
#     4   4   4   4   4   4   4   4
#     4  11  25  43  66  95 126 164 209 256 310 370
#     4   9  19  36  54  77 111 146 187 235 291 356
#     4  10  20  36  61  88 114 148 195 247 294 349
#     4  10  22  40  61  86 122 162 202 253 308 365
#     4  10  24  44  64  93 131 162 201 255 309 371
#     4  10  21  35  56  82 110 151 197 240 292 356
#     4   9  19  34  52  78 113 153 192 241 294 347
#     4   9  20  38  58  83 121 162 197 241 304 366
#
# _framework density 19.812512000000002
#
# number of rings (size 3 to 8) (size 9 to 14) (size 15 to 20)
#    0.000    2.250    0.000    2.250    3.500    5.500 
#    0.000    0.000    0.000    0.000    0.000    0.000 
#    0.000    0.000    0.000    0.000    0.000    0.000 
#
# Total GULP energy -178491.452920 kJ/mol
# GULP energy per Si atom -5577.857904 kJ/mol
# Density = 1.976742 g / cm^3
# Si number density = 19.812512 Si / 1000 Ang^3
#
#
#
# Elastic Constant Matrix: (Units=GPa)
#
#
# Indices 1 2 3 4 5 6 
#
# 1 60.8001 35.4898 29.8916 0.0000 0.0000 0.0000
# 2 35.4898 68.0308 24.2790 0.0000 0.0000 0.0000
# 3 29.8916 24.2790 96.6469 0.0000 0.0000 0.0000
# 4 0.0000 0.0000 0.0000 12.9364 0.0000 0.0000
# 5 0.0000 0.0000 0.0000 0.0000 19.0193 0.0000
# 6 0.0000 0.0000 0.0000 0.0000 0.0000 28.2521
#
#
#
# Elastic Compliance Matrix: (Units=1/GPa)
#
#
# Indices 1 2 3 4 5 6 
#
# 1 0.025698 -0.011610 -0.005031 0.000000 0.000000 0.000000
# 2 -0.011610 0.021392 -0.001783 0.000000 0.000000 0.000000
# 3 -0.005031 -0.001783 0.012351 0.000000 0.000000 0.000000
# 4 0.000000 0.000000 0.000000 0.077301 0.000000 0.000000
# 5 0.000000 0.000000 0.000000 0.000000 0.052578 0.000000
# 6 0.000000 0.000000 0.000000 0.000000 0.000000 0.035396
#
#
# Mechanical properties :
#
#
# Convention : Reuss Voigt Hill
#
# Bulk Modulus (GPa) = 44.26397 44.97762 44.62080
# Shear Modulus (GPa) = 18.58067 21.09607 19.83837
#
# Velocity S-wave (km/s) = 3.06572 3.26664 3.16777
# Velocity P-wave (km/s) = 5.90943 6.08102 5.99584
#
# Compressibility (1/GPa) = 0.02259174
#
# Stress axis : x y z
#
# Youngs Moduli (GPa) = 38.91339 46.74559 80.96489
#
# Poissons Ratio (x) = 0.54273 0.40737
# Poissons Ratio (y) = 0.45180 0.14437
# Poissons Ratio (z) = 0.19579 0.08335
#
# Static dielectric constant tensor:
#      x y z
#    x 1.696230 0.000000 0.000000 
#    y 0.000000 1.723210 0.000000 
#    z 0.000000 0.000000 1.733570 
# 
# From -- ./inp_files/3660.got.cif
#   From: 2010.05.17/outbox.cif.g08.bks.cpg/sg31_2_cif.got.tgz:3660.got - 2010.06.03 17:08:30.
