data_PCOD9343503
_publ_section_title
;
Structure prediction by ZEFSAII (Michael W. Deem and Ramdas Pophale) SiO2 
 PCOD9343503
Probable space group: P M N 21
;
_chemical_formula_sum "Si O2"
_cell_formula_units_Z 20
_cell_length_a 27.383888
_cell_length_b 4.956082
_cell_length_c 5.445024
_cell_angle_alpha 90.000000
_cell_angle_beta 90.000000
_cell_angle_gamma 90.000000
_cell_volume 738.981203
_symmetry_space_group_name_H-M "P M N 21"
_symmetry_group_IT_number 31
_symmetry_cell_setting 'orthorhombic'
loop_
_space_group_symop_operation_xyz
x,y,z
1/2-x,-y,1/2+z
-x,y,z
1/2+x,-y,1/2+z
loop_
_atom_site_type_symbol
_atom_site_label
_atom_site_fract_x
_atom_site_fract_y
_atom_site_fract_z
Si Si1 0.845430 0.842772 0.345370
Si Si2 0.742883 0.669851 0.355604
Si Si3 0.419867 0.354403 0.495006
Si Si4 0.500000 0.075679 0.766922
Si Si5 0.137592 0.312221 0.676227
Si Si6 0.500000 0.014672 0.269981
O O1 0.787003 0.884049 0.339573
O O2 0.868312 0.767718 0.083364
O O3 0.853800 0.589989 0.527759
O O4 0.871642 0.095839 0.466450
O O5 0.745909 0.523745 0.620139
O O6 0.687885 0.765633 0.311501
O O7 0.454218 0.277438 0.726260
O O8 0.404462 0.637171 0.376034
O O9 0.452488 0.206249 0.290713
O O10 0.500000 0.873721 0.532499
O O11 0.500000 0.895421 0.005379
#
# Coordination Sequence:
#
# PCOD9343503 Si02
#       6
#     4   4   4   2   4   2
#     4  11  24  42  68  98 142 189 239 292 361 427
#     4  10  22  44  66  98 140 186 240 296 350 428
#     4   9  20  40  68 104 138 184 236 295 354 434
#     4   8  18  36  70  99 140 177 235 295 360 426
#     4  11  24  42  68  98 142 189 239 292 361 427
#     4   8  18  36  70  99 140 177 235 295 360 426
#
# _framework density 27.064285000000002
#
# number of rings (size 3 to 8) (size 9 to 14) (size 15 to 20)
#    1.200    0.800    2.000    1.200    0.000    8.000 
#    0.000    4.000    0.000   12.000    0.000    0.000 
#    0.000    0.000    0.000    0.000    0.000    0.000 
#
# Total GULP energy -111793.955912 kJ/mol
# GULP energy per Si atom -5589.697796 kJ/mol
# Density = 2.700269 g / cm^3
# Si number density = 27.064285 Si / 1000 Ang^3
#
#
#
# Elastic Constant Matrix: (Units=GPa)
#
#
# Indices 1 2 3 4 5 6 
#
# 1 123.0194 15.2106 16.1266 0.0000 0.0000 0.0000
# 2 15.2106 71.7238 37.7442 0.0000 0.0000 0.0000
# 3 16.1266 37.7442 182.4681 0.0000 0.0000 0.0000
# 4 0.0000 0.0000 0.0000 40.0749 0.0000 0.0000
# 5 0.0000 0.0000 0.0000 0.0000 19.0979 0.0000
# 6 0.0000 0.0000 0.0000 0.0000 0.0000 26.8963
#
#
#
# Elastic Compliance Matrix: (Units=1/GPa)
#
#
# Indices 1 2 3 4 5 6 
#
# 1 0.008376 -0.001556 -0.000418 0.000000 0.000000 0.000000
# 2 -0.001556 0.015935 -0.003159 0.000000 0.000000 0.000000
# 3 -0.000418 -0.003159 0.006171 0.000000 0.000000 0.000000
# 4 0.000000 0.000000 0.000000 0.024953 0.000000 0.000000
# 5 0.000000 0.000000 0.000000 0.000000 0.052362 0.000000
# 6 0.000000 0.000000 0.000000 0.000000 0.000000 0.037180
#
#
# Mechanical properties :
#
#
# Convention : Reuss Voigt Hill
#
# Bulk Modulus (GPa) = 49.46792 57.26380 53.36586
# Shear Modulus (GPa) = 30.86783 37.75581 34.31182
#
# Velocity S-wave (km/s) = 3.38085 3.73908 3.56447
# Velocity P-wave (km/s) = 5.79291 6.31231 6.05818
#
# Compressibility (1/GPa) = 0.02021512
#
# Stress axis : x y z
#
# Youngs Moduli (GPa) = 119.38795 62.75667 162.05484
#
# Poissons Ratio (x) = 0.09766 0.06780
# Poissons Ratio (y) = 0.18579 0.51186
# Poissons Ratio (z) = 0.04995 0.19822
#
# Static dielectric constant tensor:
#      x y z
#    x 2.116810 0.000000 0.000000 
#    y 0.000000 2.042200 0.000000 
#    z 0.000000 0.000000 2.132790 
# 
# From -- ./inp_files/1288.got.cif
#   From: 2010.05.17/outbox.cif.g08.bks.cpg/sg31_1_cif.got.tgz:1288.got - 2010.06.03 17:08:30.
