data_PCOD9343163
_publ_section_title
;
Structure prediction by ZEFSAII (Michael W. Deem and Ramdas Pophale) SiO2 
 PCOD9343163
Probable space group: P M N 21
;
_chemical_formula_sum "Si O2"
_cell_formula_units_Z 32
_cell_length_a 7.955003
_cell_length_b 13.674081
_cell_length_c 13.415550
_cell_angle_alpha 90.000000
_cell_angle_beta 90.000000
_cell_angle_gamma 90.000000
_cell_volume 1459.308050
_symmetry_space_group_name_H-M "P M N 21"
_symmetry_group_IT_number 31
_symmetry_cell_setting 'orthorhombic'
loop_
_space_group_symop_operation_xyz
x,y,z
1/2-x,-y,1/2+z
-x,y,z
1/2+x,-y,1/2+z
loop_
_atom_site_type_symbol
_atom_site_label
_atom_site_fract_x
_atom_site_fract_y
_atom_site_fract_z
Si Si1 0.308998 0.959016 0.081890
Si Si2 0.302448 0.125470 0.930167
Si Si3 0.793021 0.406402 0.109075
Si Si4 0.692552 0.660573 0.397287
Si Si5 0.701863 0.752900 0.770523
Si Si6 0.299644 0.378997 0.672626
Si Si7 0.191243 0.027210 0.277329
Si Si8 0.298263 0.240689 0.492432
O O1 0.500000 0.943751 0.116111
O O2 0.264423 0.870275 0.008914
O O3 0.189646 0.966457 0.175768
O O4 0.299212 0.064944 0.031345
O O5 0.500000 0.146236 0.905626
O O6 0.205957 0.225980 0.927315
O O7 0.226069 0.046647 0.854111
O O8 0.736236 0.320305 0.184372
O O9 0.738824 0.511343 0.150638
O O10 0.000000 0.403252 0.107390
O O11 0.734244 0.393473 0.994772
O O12 0.500000 0.629177 0.388145
O O13 0.767532 0.648518 0.287317
O O14 0.500000 0.756039 0.758834
O O15 0.765936 0.865044 0.762453
O O16 0.740915 0.721163 0.884132
O O17 0.500000 0.380324 0.659537
O O18 0.236114 0.304022 0.587488
O O19 0.000000 0.042462 0.314538
O O20 0.500000 0.239861 0.492779
#
# Coordination Sequence:
#
# PCOD9343163 Si02
#       8
#     4   4   4   4   4   4   4   4
#     4  11  22  37  58  86 120 159 203 246 288 350
#     4  10  21  38  57  81 120 161 191 233 297 355
#     4   9  21  41  65  89 119 159 200 250 312 362
#     4  11  23  40  64  93 121 154 205 257 294 357
#     4  10  20  39  64  89 121 161 204 250 303 363
#     4  10  23  43  63  87 122 164 199 245 313 367
#     4  10  20  36  57  84 120 160 196 240 299 355
#     4  11  23  38  60  89 125 164 202 249 304 361
#
# _framework density 21.9282
#
# number of rings (size 3 to 8) (size 9 to 14) (size 15 to 20)
#    0.000    1.750    1.250    2.625    1.750    7.000 
#    0.000    2.500    0.000    0.000    0.000    0.000 
#    0.000    0.000    0.000    0.000    0.000    0.000 
#
# Total GULP energy -178619.985599 kJ/mol
# GULP energy per Si atom -5581.874550 kJ/mol
# Density = 2.187829 g / cm^3
# Si number density = 21.928200 Si / 1000 Ang^3
#
#
#
# Elastic Constant Matrix: (Units=GPa)
#
#
# Indices 1 2 3 4 5 6 
#
# 1 21.8762 -7.5249 -2.9478 0.0000 0.0000 0.0000
# 2 -7.5249 55.1790 14.0700 0.0000 0.0000 0.0000
# 3 -2.9478 14.0700 110.5374 0.0000 0.0000 0.0000
# 4 0.0000 0.0000 0.0000 29.5683 0.0000 0.0000
# 5 0.0000 0.0000 0.0000 0.0000 15.5460 0.0000
# 6 0.0000 0.0000 0.0000 0.0000 0.0000 15.7237
#
#
#
# Elastic Compliance Matrix: (Units=1/GPa)
#
#
# Indices 1 2 3 4 5 6 
#
# 1 0.047984 0.006426 0.000462 0.000000 0.000000 0.000000
# 2 0.006426 0.019591 -0.002322 0.000000 0.000000 0.000000
# 3 0.000462 -0.002322 0.009355 0.000000 0.000000 0.000000
# 4 0.000000 0.000000 0.000000 0.033820 0.000000 0.000000
# 5 0.000000 0.000000 0.000000 0.000000 0.064325 0.000000
# 6 0.000000 0.000000 0.000000 0.000000 0.000000 0.063598
#
#
# Mechanical properties :
#
#
# Convention : Reuss Voigt Hill
#
# Bulk Modulus (GPa) = 11.61964 21.64301 16.63133
# Shear Modulus (GPa) = 19.36258 24.43397 21.89828
#
# Velocity S-wave (km/s) = 2.97475 3.34169 3.16355
# Velocity P-wave (km/s) = 4.13634 4.97801 4.57657
#
# Compressibility (1/GPa) = 0.08606115
#
# Stress axis : x y z
#
# Youngs Moduli (GPa) = 20.84011 51.04295 106.89895
#
# Poissons Ratio (x) = -0.32800 -0.04936
# Poissons Ratio (y) = -0.13392 0.24826
# Poissons Ratio (z) = -0.00962 0.11854
#
# Static dielectric constant tensor:
#      x y z
#    x 1.803740 0.000000 0.000000 
#    y 0.000000 1.797120 0.000000 
#    z 0.000000 0.000000 1.821510 
# 
# From -- ./inp_files/3741.got.cif
#   From: 2010.05.17/outbox.cif.g08.bks.cpg/sg31_2_cif.got.tgz:3741.got - 2010.06.03 17:08:30.
