data_PCOD9343115
_publ_section_title
;
Structure prediction by ZEFSAII (Michael W. Deem and Ramdas Pophale) SiO2 
 PCOD9343115
Probable space group: P M N 21
;
_chemical_formula_sum "Si O2"
_cell_formula_units_Z 32
_cell_length_a 7.422821
_cell_length_b 14.622484
_cell_length_c 12.876886
_cell_angle_alpha 90.000000
_cell_angle_beta 90.000000
_cell_angle_gamma 90.000000
_cell_volume 1397.658253
_symmetry_space_group_name_H-M "P M N 21"
_symmetry_group_IT_number 31
_symmetry_cell_setting 'orthorhombic'
loop_
_space_group_symop_operation_xyz
x,y,z
1/2-x,-y,1/2+z
-x,y,z
1/2+x,-y,1/2+z
loop_
_atom_site_type_symbol
_atom_site_label
_atom_site_fract_x
_atom_site_fract_y
_atom_site_fract_z
Si Si1 0.721087 0.726409 0.490980
Si Si2 0.289665 0.833961 0.291146
Si Si3 0.795575 0.144077 0.402442
Si Si4 0.289676 0.642260 0.171638
Si Si5 0.282277 0.956434 0.108048
Si Si6 0.298203 0.347956 0.440661
Si Si7 0.720557 0.543632 0.376257
Si Si8 0.287415 0.845362 0.673873
O O1 0.500000 0.727389 0.488530
O O2 0.782374 0.798575 0.401695
O O3 0.775402 0.624423 0.455745
O O4 0.780984 0.761873 0.603330
O O5 0.500000 0.856432 0.310259
O O6 0.280579 0.743893 0.218813
O O7 0.213478 0.912754 0.216786
O O8 0.715613 0.094925 0.504154
O O9 0.799620 0.252561 0.423152
O O10 0.709931 0.135639 0.288373
O O11 0.000000 0.107761 0.395041
O O12 0.500000 0.622751 0.151903
O O13 0.224549 0.576251 0.262235
O O14 0.192495 0.636845 0.063602
O O15 0.500000 0.945020 0.110101
O O16 0.235708 0.062521 0.107982
O O17 0.500000 0.336594 0.397699
O O18 0.216926 0.441425 0.397416
O O19 0.500000 0.542568 0.379527
O O20 0.500000 0.827618 0.689517
#
# Coordination Sequence:
#
# PCOD9343115 Si02
#       8
#     4   4   4   4   4   4   4   4
#     4   8  15  31  53  77 104 136 179 223 266 318
#     4   8  14  28  53  75  93 129 179 219 255 320
#     4  10  22  40  56  77 112 151 183 214 273 346
#     4   9  16  33  55  73 100 143 185 219 267 334
#     4  10  20  35  55  77 104 141 181 217 267 334
#     4  11  21  33  54  86 114 138 181 238 278 310
#     4   8  17  32  53  79 108 144 185 225 269 325
#     4  10  22  36  55  82 109 140 181 227 271 319
#
# _framework density 22.895439
#
# number of rings (size 3 to 8) (size 9 to 14) (size 15 to 20)
#    0.000    2.750    1.250    1.875    1.750    2.000 
#    0.000    2.500    0.000    4.500    0.000    0.000 
#    0.000    0.000    0.000    0.000    0.000    0.000 
#
# Total GULP energy -178559.387981 kJ/mol
# GULP energy per Si atom -5579.980874 kJ/mol
# Density = 2.284333 g / cm^3
# Si number density = 22.895439 Si / 1000 Ang^3
#
#
#
# Elastic Constant Matrix: (Units=GPa)
#
#
# Indices 1 2 3 4 5 6 
#
# 1 67.1092 -10.0497 -5.3644 0.0000 0.0000 0.0000
# 2 -10.0497 84.8500 36.5155 0.0000 0.0000 0.0000
# 3 -5.3644 36.5155 72.3313 0.0000 0.0000 0.0000
# 4 0.0000 0.0000 0.0000 13.8344 0.0000 0.0000
# 5 0.0000 0.0000 0.0000 0.0000 -3.9929 0.0000
# 6 0.0000 0.0000 0.0000 0.0000 0.0000 2.7599
#
#
#
# Elastic Compliance Matrix: (Units=1/GPa)
#
#
# Indices 1 2 3 4 5 6 
#
# 1 0.015175 0.001677 0.000279 0.000000 0.000000 0.000000
# 2 0.001677 0.015242 -0.007570 0.000000 0.000000 0.000000
# 3 0.000279 -0.007570 0.017668 0.000000 0.000000 0.000000
# 4 0.000000 0.000000 0.000000 0.072284 0.000000 0.000000
# 5 0.000000 0.000000 0.000000 0.000000 -0.250444 0.000000
# 6 0.000000 0.000000 0.000000 0.000000 0.000000 0.362326
#
#
# Mechanical properties :
#
#
# Convention : Reuss Voigt Hill
#
# Bulk Modulus (GPa) = 27.13291 29.61037 28.37164
# Shear Modulus (GPa) = 19.54926 16.06622 17.80774
#
# Velocity S-wave (km/s) = 2.92524 2.65188 2.79191
# Velocity P-wave (km/s) = 4.82555 4.72626 4.77616
#
# Compressibility (1/GPa) = 0.03685561
#
# Stress axis : x y z
#
# Youngs Moduli (GPa) = 65.89986 65.60773 56.60037
#
# Poissons Ratio (x) = -0.11005 -0.01577
# Poissons Ratio (y) = -0.11054 0.42849
# Poissons Ratio (z) = -0.01836 0.49667
#
# Static dielectric constant tensor:
#      x y z
#    x 1.866870 0.000000 0.000000 
#    y 0.000000 1.820690 0.000000 
#    z 0.000000 0.000000 1.860790 
# 
# From -- ./inp_files/3646.got.cif
#   From: 2010.05.17/outbox.cif.g08.bks.cpg/sg31_2_cif.got.tgz:3646.got - 2010.06.03 17:08:30.
