data_PCOD9343407
_publ_section_title
;
Structure prediction by ZEFSAII (Michael W. Deem and Ramdas Pophale) SiO2 
 PCOD9343407
Probable space group: P M N 21
;
_chemical_formula_sum "Si O2"
_cell_formula_units_Z 16
_cell_length_a 18.284161
_cell_length_b 6.889805
_cell_length_c 5.237901
_cell_angle_alpha 90.000000
_cell_angle_beta 90.000000
_cell_angle_gamma 90.000000
_cell_volume 659.840932
_symmetry_space_group_name_H-M "P M N 21"
_symmetry_group_IT_number 31
_symmetry_cell_setting 'orthorhombic'
loop_
_space_group_symop_operation_xyz
x,y,z
1/2-x,-y,1/2+z
-x,y,z
1/2+x,-y,1/2+z
loop_
_atom_site_type_symbol
_atom_site_label
_atom_site_fract_x
_atom_site_fract_y
_atom_site_fract_z
Si Si1 0.658284 0.358562 0.188570
Si Si2 0.720122 0.895438 0.563433
Si Si3 0.582320 0.693995 0.441996
Si Si4 0.918512 0.708187 0.187027
O O1 0.741675 0.316261 0.117860
O O2 0.629118 0.577770 0.225244
O O3 0.637662 0.257444 0.456384
O O4 0.611168 0.256298 0.967289
O O5 0.752174 0.974839 0.298089
O O6 0.866114 0.139984 0.048186
O O7 0.500000 0.745808 0.360503
O O8 0.575337 0.526263 0.655339
O O9 0.000000 0.787900 0.143661
#
# Coordination Sequence:
#
# PCOD9343407 Si02
#       4
#     4   4   4   4
#     4  10  21  39  69  94 126 172 231 276 317 392
#     4  12  28  44  64 101 145 181 213 273 353 411
#     4   9  23  44  71  97 128 177 234 281 324 391
#     4   9  18  35  66 100 121 158 224 286 318 360
#
# _framework density 24.248265
#
# number of rings (size 3 to 8) (size 9 to 14) (size 15 to 20)
#    1.500    0.500    0.000    3.000    7.000    0.000 
#    0.000   10.000    0.000    0.000    0.000    0.000 
#    0.000    0.000    0.000    0.000    0.000    0.000 
#
# Total GULP energy -89233.732219 kJ/mol
# GULP energy per Si atom -5577.108264 kJ/mol
# Density = 2.419307 g / cm^3
# Si number density = 24.248265 Si / 1000 Ang^3
#
#
#
# Elastic Constant Matrix: (Units=GPa)
#
#
# Indices 1 2 3 4 5 6 
#
# 1 151.0864 36.6990 16.5450 0.0000 0.0000 0.0000
# 2 36.6990 53.6325 3.2363 0.0000 0.0000 0.0000
# 3 16.5450 3.2363 136.1487 0.0000 0.0000 0.0000
# 4 0.0000 0.0000 0.0000 24.2751 0.0000 0.0000
# 5 0.0000 0.0000 0.0000 0.0000 25.8154 0.0000
# 6 0.0000 0.0000 0.0000 0.0000 0.0000 29.7412
#
#
#
# Elastic Compliance Matrix: (Units=1/GPa)
#
#
# Indices 1 2 3 4 5 6 
#
# 1 0.008034 -0.005447 -0.000847 0.000000 0.000000 0.000000
# 2 -0.005447 0.022364 0.000130 0.000000 0.000000 0.000000
# 3 -0.000847 0.000130 0.007445 0.000000 0.000000 0.000000
# 4 0.000000 0.000000 0.000000 0.041195 0.000000 0.000000
# 5 0.000000 0.000000 0.000000 0.000000 0.038737 0.000000
# 6 0.000000 0.000000 0.000000 0.000000 0.000000 0.033623
#
#
# Mechanical properties :
#
#
# Convention : Reuss Voigt Hill
#
# Bulk Modulus (GPa) = 39.18925 50.42536 44.80730
# Shear Modulus (GPa) = 29.03089 34.92550 31.97819
#
# Velocity S-wave (km/s) = 3.46386 3.79928 3.63544
# Velocity P-wave (km/s) = 5.67402 6.33140 6.01171
#
# Compressibility (1/GPa) = 0.02551720
#
# Stress axis : x y z
#
# Youngs Moduli (GPa) = 124.46395 44.71373 134.32318
#
# Poissons Ratio (x) = 0.24354 0.11376
# Poissons Ratio (y) = 0.67791 -0.01750
# Poissons Ratio (z) = 0.10541 -0.00582
#
# Static dielectric constant tensor:
#      x y z
#    x 1.951910 0.000000 0.000000 
#    y 0.000000 2.008080 0.000000 
#    z 0.000000 0.000000 1.869320 
# 
# From -- ./inp_files/744.got.cif
#   From: 2010.05.17/outbox.cif.g08.bks.cpg/sg31_1_cif.got.tgz:744.got - 2010.06.03 17:08:30.
