data_PCOD9343951
_publ_section_title
;
Structure prediction by ZEFSAII (Michael W. Deem and Ramdas Pophale) SiO2 
 PCOD9343951
Probable space group: P B A 2
;
_chemical_formula_sum "Si O2"
_cell_formula_units_Z 32
_cell_length_a 9.311931
_cell_length_b 10.190693
_cell_length_c 16.893091
_cell_angle_alpha 90.000000
_cell_angle_beta 90.000000
_cell_angle_gamma 90.000000
_cell_volume 1603.070378
_symmetry_space_group_name_H-M "P B A 2"
_symmetry_group_IT_number 32
_symmetry_cell_setting 'orthorhombic'
loop_
_space_group_symop_operation_xyz
x,y,z
-x,-y,z
1/2-x,1/2+y,z
1/2+x,1/2-y,z
loop_
_atom_site_type_symbol
_atom_site_label
_atom_site_fract_x
_atom_site_fract_y
_atom_site_fract_z
Si Si1 0.708136 0.067551 0.729590
Si Si2 0.000181 0.648397 0.952251
Si Si3 0.329258 0.015661 0.554117
Si Si4 0.514916 0.658425 0.348096
Si Si5 0.249903 0.748407 0.061053
Si Si6 0.085128 0.698601 0.783917
Si Si7 0.264624 0.763476 0.452793
Si Si8 0.501814 0.651165 0.171989
O O1 0.731109 0.011449 0.641497
O O2 0.830688 0.173258 0.752553
O O3 0.557367 0.149560 0.736622
O O4 0.686796 0.932857 0.780805
O O5 0.031229 0.729552 0.873008
O O6 0.000000 0.500000 0.924632
O O7 0.133191 0.665384 0.012260
O O8 0.850762 0.678293 0.996831
O O9 0.274952 0.900509 0.497582
O O10 0.500000 0.000000 0.560168
O O11 0.291431 0.154002 0.514094
O O12 0.500000 0.500000 0.350807
O O13 0.412405 0.714226 0.416013
O O14 0.668106 0.709929 0.376053
O O15 0.488659 0.713306 0.259266
O O16 0.368255 0.679461 0.115230
O O17 0.147287 0.822509 0.123191
O O18 0.500000 0.500000 0.189506
#
# Coordination Sequence:
#
# PCOD9343951 Si02
#       8
#     4   4   4   4   4   4   4   4
#     4  11  24  44  65  94 128 170 208 265 316 384
#     4  11  21  38  64  90 126 165 207 267 312 379
#     4  12  24  42  67  94 130 166 212 268 319 383
#     4  11  23  40  63  93 130 168 214 264 319 380
#     4  10  22  38  62  93 120 165 214 255 321 372
#     4  11  23  43  65  94 131 166 214 259 321 378
#     4  12  24  41  65  97 126 170 213 263 321 379
#     4  10  21  40  61  89 127 164 206 262 313 380
#
# _framework density 19.961693
#
# number of rings (size 3 to 8) (size 9 to 14) (size 15 to 20)
#    0.000    1.000    5.000    3.000    0.000    0.500 
#    0.000    0.000    2.750    0.000    0.000    0.000 
#    0.000    0.000    0.000    0.000    0.000    0.000 
#
# Total GULP energy -178430.789352 kJ/mol
# GULP energy per Si atom -5575.962167 kJ/mol
# Density = 1.991626 g / cm^3
# Si number density = 19.961693 Si / 1000 Ang^3
#
#
#
# Elastic Constant Matrix: (Units=GPa)
#
#
# Indices 1 2 3 4 5 6 
#
# 1 61.2509 4.7906 8.0691 0.0000 0.0000 0.0000
# 2 4.7906 52.7828 2.9374 0.0000 0.0000 0.0000
# 3 8.0691 2.9374 95.7185 0.0000 0.0000 0.0000
# 4 0.0000 0.0000 0.0000 76.7513 0.0000 0.0000
# 5 0.0000 0.0000 0.0000 0.0000 32.1243 0.0000
# 6 0.0000 0.0000 0.0000 0.0000 0.0000 19.7139
#
#
#
# Elastic Compliance Matrix: (Units=1/GPa)
#
#
# Indices 1 2 3 4 5 6 
#
# 1 0.016617 -0.001433 -0.001357 0.000000 0.000000 0.000000
# 2 -0.001433 0.019102 -0.000465 0.000000 0.000000 0.000000
# 3 -0.001357 -0.000465 0.010576 0.000000 0.000000 0.000000
# 4 0.000000 0.000000 0.000000 0.013029 0.000000 0.000000
# 5 0.000000 0.000000 0.000000 0.000000 0.031129 0.000000
# 6 0.000000 0.000000 0.000000 0.000000 0.000000 0.050726
#
#
# Mechanical properties :
#
#
# Convention : Reuss Voigt Hill
#
# Bulk Modulus (GPa) = 25.13529 26.81626 25.97578
# Shear Modulus (GPa) = 31.06557 38.64823 34.85690
#
# Velocity S-wave (km/s) = 3.94923 4.40491 4.18328
# Velocity P-wave (km/s) = 5.78051 6.27168 6.03110
#
# Compressibility (1/GPa) = 0.03978470
#
# Stress axis : x y z
#
# Youngs Moduli (GPa) = 60.17896 52.35189 94.55402
#
# Poissons Ratio (x) = 0.07500 0.12830
# Poissons Ratio (y) = 0.08622 0.04401
# Poissons Ratio (z) = 0.08165 0.02437
#
# Static dielectric constant tensor:
#      x y z
#    x 1.694590 0.000000 0.000000 
#    y 0.000000 1.674790 0.000000 
#    z 0.000000 0.000000 1.722960 
# 
# From -- ./inp_files/4148.got.cif
#   From: 2010.05.17/outbox.cif.g08.bks.cpg/sg32_3_cif.got.tgz:4148.got - 2010.06.03 17:12:27.
