data_PCOD9343936
_publ_section_title
;
Structure prediction by ZEFSAII (Michael W. Deem and Ramdas Pophale) SiO2 
 PCOD9343936
Probable space group: P B A 2
;
_chemical_formula_sum "Si O2"
_cell_formula_units_Z 28
_cell_length_a 20.504050
_cell_length_b 10.196763
_cell_length_c 5.442033
_cell_angle_alpha 90.000000
_cell_angle_beta 90.000000
_cell_angle_gamma 90.000000
_cell_volume 1137.792714
_symmetry_space_group_name_H-M "P B A 2"
_symmetry_group_IT_number 32
_symmetry_cell_setting 'orthorhombic'
loop_
_space_group_symop_operation_xyz
x,y,z
-x,-y,z
1/2-x,1/2+y,z
1/2+x,1/2-y,z
loop_
_atom_site_type_symbol
_atom_site_label
_atom_site_fract_x
_atom_site_fract_y
_atom_site_fract_z
Si Si1 0.585721 0.200662 0.187980
Si Si2 0.448431 0.884436 0.685915
Si Si3 0.429850 0.293841 0.619462
Si Si4 0.720273 0.556284 0.831876
Si Si5 0.700078 0.838726 0.626226
Si Si6 0.460653 0.371693 0.118354
Si Si7 0.686790 0.426419 0.333964
O O1 0.586839 0.105586 0.422921
O O2 0.511538 0.253345 0.155426
O O3 0.632273 0.321995 0.254528
O O4 0.597087 0.138867 0.920760
O O5 0.496390 0.758387 0.651334
O O6 0.500000 0.000000 0.731953
O O7 0.375417 0.184957 0.568827
O O8 0.430011 0.388625 0.385825
O O9 0.413914 0.344119 0.891727
O O10 0.725877 0.709160 0.768879
O O11 0.785118 0.468730 0.782389
O O12 0.677819 0.492387 0.604503
O O13 0.697778 0.523995 0.106960
O O14 0.744562 0.851564 0.383878
O O15 0.500000 0.500000 0.048714
#
# Coordination Sequence:
#
# PCOD9343936 Si02
#       7
#     4   4   4   4   4   4   4
#     4  10  21  39  60  90 123 158 220 257 327 387
#     4  10  21  40  61  92 127 170 213 271 329 399
#     4  10  23  38  62  90 128 162 213 267 328 390
#     4  10  25  40  67  90 135 164 229 266 345 391
#     4  10  26  43  66  98 132 178 222 282 336 408
#     4  10  22  36  61  91 122 160 203 257 326 386
#     4  10  24  42  65  94 127 176 220 279 331 407
#
# _framework density 24.60905
#
# number of rings (size 3 to 8) (size 9 to 14) (size 15 to 20)
#    0.857    1.143    0.000    1.714    8.000    1.143 
#    0.000    0.000    0.000    0.000    0.000    0.000 
#    0.000    0.000    0.000    0.000    0.000    0.000 
#
# Total GULP energy -156332.471981 kJ/mol
# GULP energy per Si atom -5583.302571 kJ/mol
# Density = 2.455304 g / cm^3
# Si number density = 24.609050 Si / 1000 Ang^3
#
#
#
# Elastic Constant Matrix: (Units=GPa)
#
#
# Indices 1 2 3 4 5 6 
#
# 1 69.0494 9.3160 43.6610 0.0000 0.0000 0.0000
# 2 9.3160 83.1302 43.8951 0.0000 0.0000 0.0000
# 3 43.6610 43.8951 213.9874 0.0000 0.0000 0.0000
# 4 0.0000 0.0000 0.0000 10.3660 0.0000 0.0000
# 5 0.0000 0.0000 0.0000 0.0000 31.5746 0.0000
# 6 0.0000 0.0000 0.0000 0.0000 0.0000 49.3778
#
#
#
# Elastic Compliance Matrix: (Units=1/GPa)
#
#
# Indices 1 2 3 4 5 6 
#
# 1 0.016628 -0.000081 -0.003376 0.000000 0.000000 0.000000
# 2 -0.000081 0.013491 -0.002751 0.000000 0.000000 0.000000
# 3 -0.003376 -0.002751 0.005926 0.000000 0.000000 0.000000
# 4 0.000000 0.000000 0.000000 0.096469 0.000000 0.000000
# 5 0.000000 0.000000 0.000000 0.000000 0.031671 0.000000
# 6 0.000000 0.000000 0.000000 0.000000 0.000000 0.020252
#
#
# Mechanical properties :
#
#
# Convention : Reuss Voigt Hill
#
# Bulk Modulus (GPa) = 42.31956 62.21235 52.26595
# Shear Modulus (GPa) = 24.42248 36.21667 30.31958
#
# Velocity S-wave (km/s) = 3.15369 3.84041 3.51386
# Velocity P-wave (km/s) = 5.52223 6.70822 6.14391
#
# Compressibility (1/GPa) = 0.02362974
#
# Stress axis : x y z
#
# Youngs Moduli (GPa) = 60.13929 74.12390 168.73873
#
# Poissons Ratio (x) = 0.00598 0.56969
# Poissons Ratio (y) = 0.00485 0.46419
# Poissons Ratio (z) = 0.20304 0.20391
#
# Static dielectric constant tensor:
#      x y z
#    x 2.007740 0.000000 0.000000 
#    y 0.000000 1.999420 0.000000 
#    z 0.000000 0.000000 1.975580 
# 
# From -- ./inp_files/1563.got.cif
#   From: 2010.05.17/outbox.cif.g08.bks.cpg/sg32_1_cif.got.tgz:1563.got - 2010.06.03 17:12:27.
