data_PCOD9343855
_publ_section_title
;
Structure prediction by ZEFSAII (Michael W. Deem and Ramdas Pophale) SiO2 
 PCOD9343855
Probable space group: P B A 2
;
_chemical_formula_sum "Si O2"
_cell_formula_units_Z 18
_cell_length_a 5.505388
_cell_length_b 15.786499
_cell_length_c 8.101041
_cell_angle_alpha 90.000000
_cell_angle_beta 90.000000
_cell_angle_gamma 90.000000
_cell_volume 704.067972
_symmetry_space_group_name_H-M "P B A 2"
_symmetry_group_IT_number 32
_symmetry_cell_setting 'orthorhombic'
loop_
_space_group_symop_operation_xyz
x,y,z
-x,-y,z
1/2-x,1/2+y,z
1/2+x,1/2-y,z
loop_
_atom_site_type_symbol
_atom_site_label
_atom_site_fract_x
_atom_site_fract_y
_atom_site_fract_z
Si Si1 0.505295 0.678611 0.050360
Si Si2 0.008341 0.641788 0.934164
Si Si3 0.415114 0.716920 0.420001
Si Si4 0.748656 0.471499 0.357897
Si Si5 0.000000 0.500000 0.665292
O O1 0.485097 0.727420 0.224906
O O2 0.751611 0.627389 0.025091
O O3 0.508222 0.755544 0.917438
O O4 0.259229 0.626147 0.031690
O O5 0.025894 0.582415 0.776894
O O6 0.691161 0.726319 0.490028
O O7 0.287809 0.625289 0.411066
O O8 0.500000 0.500000 0.276886
O O9 0.000000 0.500000 0.274065
O O10 0.781652 0.516726 0.536711
#
# Coordination Sequence:
#
# PCOD9343855 Si02
#       5
#     4   4   4   4   2
#     4  10  20  40  61  98 119 163 208 273 329 374
#     4  10  20  39  64  87 130 158 211 265 320 386
#     4  12  21  43  70  95 132 166 228 275 327 397
#     4  10  25  46  62  94 135 180 220 270 325 390
#     4  10  26  44  62  90 136 174 226 252 326 392
#
# _framework density 25.565714
#
# number of rings (size 3 to 8) (size 9 to 14) (size 15 to 20)
#    0.667    0.889    4.444    1.333    3.111    0.000 
#   14.000    0.000    0.000    0.000    0.000    0.000 
#    0.000    0.000    0.000    0.000    0.000    0.000 
#
# Total GULP energy -100281.965003 kJ/mol
# GULP energy per Si atom -5571.220278 kJ/mol
# Density = 2.550753 g / cm^3
# Si number density = 25.565714 Si / 1000 Ang^3
#
#
#
# Elastic Constant Matrix: (Units=GPa)
#
#
# Indices 1 2 3 4 5 6 
#
# 1 291.5201 26.1662 22.0738 0.0000 0.0000 0.0000
# 2 26.1662 88.3561 14.1363 0.0000 0.0000 0.0000
# 3 22.0738 14.1363 42.0104 0.0000 0.0000 0.0000
# 4 0.0000 0.0000 0.0000 37.1214 0.0000 0.0000
# 5 0.0000 0.0000 0.0000 0.0000 21.0334 0.0000
# 6 0.0000 0.0000 0.0000 0.0000 0.0000 36.9873
#
#
#
# Elastic Compliance Matrix: (Units=1/GPa)
#
#
# Indices 1 2 3 4 5 6 
#
# 1 0.003627 -0.000813 -0.001632 0.000000 0.000000 0.000000
# 2 -0.000813 0.012144 -0.003659 0.000000 0.000000 0.000000
# 3 -0.001632 -0.003659 0.025893 0.000000 0.000000 0.000000
# 4 0.000000 0.000000 0.000000 0.026939 0.000000 0.000000
# 5 0.000000 0.000000 0.000000 0.000000 0.047543 0.000000
# 6 0.000000 0.000000 0.000000 0.000000 0.000000 0.027036
#
#
# Mechanical properties :
#
#
# Convention : Reuss Voigt Hill
#
# Bulk Modulus (GPa) = 33.95040 60.73771 47.34406
# Shear Modulus (GPa) = 30.26477 42.99578 36.63028
#
# Velocity S-wave (km/s) = 3.44438 4.10539 3.78933
# Velocity P-wave (km/s) = 5.39692 6.80304 6.14037
#
# Compressibility (1/GPa) = 0.02945473
#
# Stress axis : x y z
#
# Youngs Moduli (GPa) = 275.72152 82.34491 38.62118
#
# Poissons Ratio (x) = 0.06694 0.06303
# Poissons Ratio (y) = 0.22415 0.14133
# Poissons Ratio (z) = 0.45001 0.30132
#
# Static dielectric constant tensor:
#      x y z
#    x 2.135280 0.000000 0.000000 
#    y 0.000000 2.044180 0.000000 
#    z 0.000000 0.000000 2.010950 
# 
# From -- ./inp_files/1906.got.cif
#   From: 2010.05.17/outbox.cif.g08.bks.cpg/sg32_1_cif.got.tgz:1906.got - 2010.06.03 17:12:27.
