data_PCOD9343785
_publ_section_title
;
Structure prediction by ZEFSAII (Michael W. Deem and Ramdas Pophale) SiO2 
 PCOD9343785
Probable space group: P B A 2
;
_chemical_formula_sum "Si O2"
_cell_formula_units_Z 26
_cell_length_a 5.511236
_cell_length_b 27.562148
_cell_length_c 6.995255
_cell_angle_alpha 90.000000
_cell_angle_beta 90.000000
_cell_angle_gamma 90.000000
_cell_volume 1062.589743
_symmetry_space_group_name_H-M "P B A 2"
_symmetry_group_IT_number 32
_symmetry_cell_setting 'orthorhombic'
loop_
_space_group_symop_operation_xyz
x,y,z
-x,-y,z
1/2-x,1/2+y,z
1/2+x,1/2-y,z
loop_
_atom_site_type_symbol
_atom_site_label
_atom_site_fract_x
_atom_site_fract_y
_atom_site_fract_z
Si Si1 0.818977 0.222709 0.562780
Si Si2 0.000000 0.000000 0.023472
Si Si3 0.701086 0.923820 0.827418
Si Si4 0.830318 0.369953 0.236169
Si Si5 0.168419 0.901460 0.209968
Si Si6 0.298186 0.379188 0.771773
Si Si7 0.333326 0.241829 0.143734
O O1 0.585223 0.256090 0.609188
O O2 0.776891 0.171688 0.665289
O O3 0.822922 0.223063 0.329151
O O4 0.213964 0.022983 0.894803
O O5 0.882222 0.042996 0.148271
O O6 0.438522 0.913217 0.739032
O O7 0.942671 0.903602 0.726244
O O8 0.685965 0.893448 0.025277
O O9 0.569667 0.383744 0.319218
O O10 0.845301 0.312616 0.221814
O O11 0.078662 0.392295 0.315044
O O12 0.189963 0.872896 0.005425
O O13 0.581319 0.252208 0.035923
#
# Coordination Sequence:
#
# PCOD9343785 Si02
#       7
#     4   2   4   4   4   4   4
#     4  10  20  33  49  66  91 128 176 211 237 283
#     4   8  16  30  48  74 100 136 156 182 244 312
#     4   9  18  29  48  70 103 126 154 195 244 300
#     4   9  17  31  44  68  98 129 158 200 246 277
#     4   9  18  29  48  70 103 126 154 195 244 300
#     4   9  17  31  44  68  98 129 158 200 246 277
#     4  10  20  33  49  66  91 128 176 211 237 283
#
# _framework density 24.468519000000001
#
# number of rings (size 3 to 8) (size 9 to 14) (size 15 to 20)
#    0.000    3.077    0.000    1.846    0.000    9.846 
#    0.000   18.462    0.000    0.000    0.000    0.000 
#    0.000  512.000    0.000    0.000    0.000    0.000 
#
# Total GULP energy -145201.528342 kJ/mol
# GULP energy per Si atom -5584.674167 kJ/mol
# Density = 2.441283 g / cm^3
# Si number density = 24.468519 Si / 1000 Ang^3
#
#
#
# Elastic Constant Matrix: (Units=GPa)
#
#
# Indices 1 2 3 4 5 6 
#
# 1 269.8491 45.0245 8.9579 0.0000 0.0000 0.0000
# 2 45.0245 99.4564 0.5944 0.0000 0.0000 0.0000
# 3 8.9579 0.5944 91.9800 0.0000 0.0000 0.0000
# 4 0.0000 0.0000 0.0000 59.7257 0.0000 0.0000
# 5 0.0000 0.0000 0.0000 0.0000 -21.8898 0.0000
# 6 0.0000 0.0000 0.0000 0.0000 0.0000 42.2767
#
#
#
# Elastic Compliance Matrix: (Units=1/GPa)
#
#
# Indices 1 2 3 4 5 6 
#
# 1 0.004022 -0.001818 -0.000380 0.000000 0.000000 0.000000
# 2 -0.001818 0.010877 0.000107 0.000000 0.000000 0.000000
# 3 -0.000380 0.000107 0.010908 0.000000 0.000000 0.000000
# 4 0.000000 0.000000 0.000000 0.016743 0.000000 0.000000
# 5 0.000000 0.000000 0.000000 0.000000 -0.045683 0.000000
# 6 0.000000 0.000000 0.000000 0.000000 0.000000 0.023654
#
#
# Mechanical properties :
#
#
# Convention : Reuss Voigt Hill
#
# Bulk Modulus (GPa) = 46.24454 63.38212 54.81333
# Shear Modulus (GPa) = 156.68176 43.13645 99.90911
#
# Velocity S-wave (km/s) = 8.01081 4.20329 6.39690
# Velocity P-wave (km/s) = 10.22275 7.03680 8.77557
#
# Compressibility (1/GPa) = 0.02162417
#
# Stress axis : x y z
#
# Youngs Moduli (GPa) = 248.64545 91.93518 91.67386
#
# Poissons Ratio (x) = 0.16718 0.03483
# Poissons Ratio (y) = 0.45214 -0.00979
# Poissons Ratio (z) = 0.09447 -0.00982
#
# Static dielectric constant tensor:
#      x y z
#    x 2.088450 0.000000 0.000000 
#    y 0.000000 1.897190 0.000000 
#    z 0.000000 0.000000 1.938620 
# 
# From -- ./inp_files/2007.got.cif
#   From: 2010.05.17/outbox.cif.g08.bks.cpg/sg32_2_cif.got.tgz:2007.got - 2010.06.03 17:12:27.
