data_PCOD9343765
_publ_section_title
;
Structure prediction by ZEFSAII (Michael W. Deem and Ramdas Pophale) SiO2 
 PCOD9343765
Probable space group: P B A 2
;
_chemical_formula_sum "Si O2"
_cell_formula_units_Z 28
_cell_length_a 9.931415
_cell_length_b 12.491188
_cell_length_c 10.989593
_cell_angle_alpha 90.000000
_cell_angle_beta 90.000000
_cell_angle_gamma 90.000000
_cell_volume 1363.315848
_symmetry_space_group_name_H-M "P B A 2"
_symmetry_group_IT_number 32
_symmetry_cell_setting 'orthorhombic'
loop_
_space_group_symop_operation_xyz
x,y,z
-x,-y,z
1/2-x,1/2+y,z
1/2+x,1/2-y,z
loop_
_atom_site_type_symbol
_atom_site_label
_atom_site_fract_x
_atom_site_fract_y
_atom_site_fract_z
Si Si1 0.000000 0.000000 0.870301
Si Si2 0.969877 0.876919 0.520988
Si Si3 0.359890 0.374153 0.087421
Si Si4 0.096267 0.270564 0.018389
Si Si5 0.271864 0.260878 0.632186
Si Si6 0.597022 0.081910 0.790440
Si Si7 0.500000 0.500000 0.286880
Si Si8 0.256142 0.615723 0.849792
O O1 0.099821 0.075427 0.797060
O O2 0.908253 0.071794 0.959989
O O3 0.834483 0.814121 0.560351
O O4 0.098900 0.805250 0.560768
O O5 0.000000 0.000000 0.564885
O O6 0.962042 0.902378 0.376253
O O7 0.387546 0.456393 0.195529
O O8 0.204714 0.341872 0.088126
O O9 0.468435 0.275983 0.089489
O O10 0.054490 0.332136 0.893523
O O11 0.194178 0.175400 0.969510
O O12 0.190891 0.358926 0.694162
O O13 0.312321 0.191700 0.751096
O O14 0.500000 0.000000 0.719139
O O15 0.669972 0.989198 0.868863
#
# Coordination Sequence:
#
# PCOD9343765 Si02
#       8
#     2   4   4   4   4   4   2   4
#     4   9  18  31  56  78 128 161 194 227 306 374
#     4  10  24  45  63  89 121 165 216 286 315 377
#     4  10  19  39  59  89 113 168 200 260 311 373
#     4  10  21  34  61  89 130 155 206 241 318 388
#     4  11  23  37  65  90 124 169 215 253 331 380
#     4  11  21  34  55  94 134 165 198 249 307 401
#     4   9  24  43  68  78 120 167 224 269 334 354
#     4  10  20  32  56  90 125 166 195 237 298 400
#
# _framework density 20.538160999999999
#
# number of rings (size 3 to 8) (size 9 to 14) (size 15 to 20)
#    0.429    1.429    1.429    2.571    3.000    3.429 
#    0.000    0.000    0.000    1.714    0.000    0.000 
#    0.000    0.000    0.000    0.000    0.000    0.000 
#
# Total GULP energy -155874.879773 kJ/mol
# GULP energy per Si atom -5566.959992 kJ/mol
# Density = 2.049142 g / cm^3
# Si number density = 20.538161 Si / 1000 Ang^3
#
#
#
# Elastic Constant Matrix: (Units=GPa)
#
#
# Indices 1 2 3 4 5 6 
#
# 1 94.2081 42.5596 34.0113 0.0000 0.0000 0.0000
# 2 42.5596 90.5797 18.6354 0.0000 0.0000 0.0000
# 3 34.0113 18.6354 63.0534 0.0000 0.0000 0.0000
# 4 0.0000 0.0000 0.0000 -1.7753 0.0000 0.0000
# 5 0.0000 0.0000 0.0000 0.0000 8.9104 0.0000
# 6 0.0000 0.0000 0.0000 0.0000 0.0000 45.8140
#
#
#
# Elastic Compliance Matrix: (Units=1/GPa)
#
#
# Indices 1 2 3 4 5 6 
#
# 1 0.015763 -0.006023 -0.006722 0.000000 0.000000 0.000000
# 2 -0.006023 0.014056 -0.000905 0.000000 0.000000 0.000000
# 3 -0.006722 -0.000905 0.019753 0.000000 0.000000 0.000000
# 4 0.000000 0.000000 0.000000 -0.563289 0.000000 0.000000
# 5 0.000000 0.000000 0.000000 0.000000 0.112228 0.000000
# 6 0.000000 0.000000 0.000000 0.000000 0.000000 0.021827
#
#
# Mechanical properties :
#
#
# Convention : Reuss Voigt Hill
#
# Bulk Modulus (GPa) = 44.90264 48.69486 46.79875
# Shear Modulus (GPa) = -14.49545 20.76548 3.13501
#
# Velocity S-wave (km/s) = -2.65954 3.18318 1.23683
# Velocity P-wave (km/s) = 3.53265 6.10501 4.98752
#
# Compressibility (1/GPa) = 0.02227040
#
# Stress axis : x y z
#
# Youngs Moduli (GPa) = 63.44046 71.14221 50.62464
#
# Poissons Ratio (x) = 0.42851 0.34032
# Poissons Ratio (y) = 0.38212 0.04583
# Poissons Ratio (z) = 0.42647 0.06441
#
# Static dielectric constant tensor:
#      x y z
#    x 1.904480 0.000000 0.000000 
#    y 0.000000 1.814540 0.000000 
#    z 0.000000 0.000000 1.731970 
# 
# From -- ./inp_files/3868.got.cif
#   From: 2010.05.17/outbox.cif.g08.bks.cpg/sg32_2_cif.got.tgz:3868.got - 2010.06.03 17:12:27.
