data_PCOD9343397
_publ_section_title
;
Structure prediction by ZEFSAII (Michael W. Deem and Ramdas Pophale) SiO2 
 PCOD9343397
Probable space group: P M N 21
;
_chemical_formula_sum "Si O2"
_cell_formula_units_Z 32
_cell_length_a 14.567505
_cell_length_b 18.695255
_cell_length_c 5.463057
_cell_angle_alpha 90.000000
_cell_angle_beta 90.000000
_cell_angle_gamma 90.000000
_cell_volume 1487.826538
_symmetry_space_group_name_H-M "P M N 21"
_symmetry_group_IT_number 31
_symmetry_cell_setting 'orthorhombic'
loop_
_space_group_symop_operation_xyz
x,y,z
1/2-x,-y,1/2+z
-x,y,z
1/2+x,-y,1/2+z
loop_
_atom_site_type_symbol
_atom_site_label
_atom_site_fract_x
_atom_site_fract_y
_atom_site_fract_z
Si Si1 0.309816 0.081848 0.513800
Si Si2 0.100269 0.773078 0.966632
Si Si3 0.690184 0.918153 0.517557
Si Si4 0.396195 0.353423 0.117675
Si Si5 0.249999 0.544488 0.765611
Si Si6 0.396196 0.646572 0.913557
Si Si7 0.749998 0.693123 0.265614
Si Si8 0.899732 0.226923 0.064610
O O1 0.386933 0.142280 0.481242
O O2 0.249992 0.089360 0.265692
O O3 0.344177 0.000000 0.515669
O O4 0.250008 0.091957 0.765690
O O5 0.100806 0.728756 0.712952
O O6 0.000000 0.753968 0.078871
O O7 0.192212 0.743399 0.088124
O O8 0.613067 0.857719 0.550056
O O9 0.500000 0.377389 0.078936
O O10 0.339585 0.404537 0.299639
O O11 0.329392 0.352924 0.888044
O O12 0.238386 0.500000 0.515611
O O13 0.339586 0.595461 0.731586
O O14 0.500000 0.622604 0.952299
O O15 0.399196 0.728750 0.818278
O O16 0.329393 0.647073 0.143187
O O17 0.692209 0.743400 0.443100
O O18 0.000000 0.246028 0.952359
#
# Coordination Sequence:
#
# PCOD9343397 Si02
#       8
#     4   4   4   4   4   4   4   4
#     4  10  21  39  63  93 135 183 224 275 342 401
#     4  11  23  38  66  99 131 178 228 282 342 404
#     4  10  21  39  63  93 135 183 224 275 342 401
#     4  11  25  44  70 102 134 177 231 281 340 413
#     4  12  27  48  72 101 142 186 220 280 353 408
#     4  11  25  44  70 102 134 177 231 281 340 413
#     4  12  19  42  68  95 134 176 222 290 335 400
#     4  11  23  38  66  99 131 178 228 282 342 404
#
# _framework density 21.507885999999999
#
# number of rings (size 3 to 8) (size 9 to 14) (size 15 to 20)
#    0.000    1.000    3.750    3.000    0.000    1.500 
#    0.000    0.000    0.000    4.500    0.000    0.000 
#    0.000    0.000    0.000    0.000    0.000    0.000 
#
# Total GULP energy -178379.310862 kJ/mol
# GULP energy per Si atom -5574.353464 kJ/mol
# Density = 2.145893 g / cm^3
# Si number density = 21.507886 Si / 1000 Ang^3
#
#
#
# Elastic Constant Matrix: (Units=GPa)
#
#
# Indices 1 2 3 4 5 6 
#
# 1 184.7538 41.6394 36.6721 0.0000 0.0000 0.0000
# 2 41.6394 112.8723 29.7184 0.0000 0.0000 0.0000
# 3 36.6721 29.7184 92.9634 0.0000 0.0000 0.0000
# 4 0.0000 0.0000 0.0000 5.1632 0.0000 0.0000
# 5 0.0000 0.0000 0.0000 0.0000 23.1220 0.0000
# 6 0.0000 0.0000 0.0000 0.0000 0.0000 -0.4443
#
#
#
# Elastic Compliance Matrix: (Units=1/GPa)
#
#
# Indices 1 2 3 4 5 6 
#
# 1 0.006187 -0.001791 -0.001868 0.000000 0.000000 0.000000
# 2 -0.001791 0.010192 -0.002552 0.000000 0.000000 0.000000
# 3 -0.001868 -0.002552 0.012310 0.000000 0.000000 0.000000
# 4 0.000000 0.000000 0.000000 0.193678 0.000000 0.000000
# 5 0.000000 0.000000 0.000000 0.000000 0.043249 0.000000
# 6 0.000000 0.000000 0.000000 0.000000 0.000000 -2.250773
#
#
# Mechanical properties :
#
#
# Convention : Reuss Voigt Hill
#
# Bulk Modulus (GPa) = 61.47252 67.40549 64.43901
# Shear Modulus (GPa) = -2.54154 24.40549 10.93198
#
# Velocity S-wave (km/s) = -1.08823 3.37222 2.25695
# Velocity P-wave (km/s) = 5.20235 6.82425 6.06774
#
# Compressibility (1/GPa) = 0.01626743
#
# Stress axis : x y z
#
# Youngs Moduli (GPa) = 161.62956 98.11631 81.23697
#
# Poissons Ratio (x) = 0.17568 0.15177
# Poissons Ratio (y) = 0.28940 0.20730
# Poissons Ratio (z) = 0.30196 0.25038
#
# Static dielectric constant tensor:
#      x y z
#    x 1.769500 0.000000 0.000000 
#    y 0.000000 1.877900 0.000000 
#    z 0.000000 0.000000 1.875100 
# 
# From -- ./inp_files/682.got.cif
#   From: 2010.05.17/outbox.cif.g08.bks.cpg/sg31_1_cif.got.tgz:682.got - 2010.06.03 17:08:30.
