data_PCOD9343144
_publ_section_title
;
Structure prediction by ZEFSAII (Michael W. Deem and Ramdas Pophale) SiO2 
 PCOD9343144
Probable space group: P M N 21
;
_chemical_formula_sum "Si O2"
_cell_formula_units_Z 32
_cell_length_a 9.192996
_cell_length_b 12.593669
_cell_length_c 14.049583
_cell_angle_alpha 90.000000
_cell_angle_beta 90.000000
_cell_angle_gamma 90.000000
_cell_volume 1626.570082
_symmetry_space_group_name_H-M "P M N 21"
_symmetry_group_IT_number 31
_symmetry_cell_setting 'orthorhombic'
loop_
_space_group_symop_operation_xyz
x,y,z
1/2-x,-y,1/2+z
-x,y,z
1/2+x,-y,1/2+z
loop_
_atom_site_type_symbol
_atom_site_label
_atom_site_fract_x
_atom_site_fract_y
_atom_site_fract_z
Si Si1 0.174779 0.692370 0.005090
Si Si2 0.329092 0.427099 0.309160
Si Si3 0.831125 0.080587 0.495543
Si Si4 0.326975 0.376591 0.713133
Si Si5 0.668610 0.863222 0.507606
Si Si6 0.832399 0.045524 0.267492
Si Si7 0.831875 0.166043 0.780751
Si Si8 0.829983 0.764470 0.663842
O O1 0.203526 0.621842 0.099190
O O2 0.000000 0.712538 0.999791
O O3 0.216689 0.630886 0.907710
O O4 0.255640 0.805891 0.015040
O O5 0.500000 0.454784 0.320245
O O6 0.240676 0.529013 0.275133
O O7 0.315899 0.342674 0.223459
O O8 0.830026 0.064968 0.381023
O O9 0.000000 0.079276 0.526901
O O10 0.743221 0.976820 0.530711
O O11 0.500000 0.375562 0.724737
O O12 0.257496 0.267220 0.748349
O O13 0.500000 0.863964 0.536001
O O14 0.674040 0.844475 0.395012
O O15 0.755796 0.770654 0.561125
O O16 0.755466 0.145764 0.221435
O O17 0.000000 0.033774 0.239090
O O18 0.742638 0.940457 0.243064
O O19 0.000000 0.174075 0.751895
O O20 0.000000 0.790573 0.656666
#
# Coordination Sequence:
#
# PCOD9343144 Si02
#       8
#     4   4   4   4   4   4   4   4
#     4  10  22  42  64  88 120 161 204 252 312 372
#     4  10  23  44  66  88 122 164 209 257 309 375
#     4  10  20  35  59  91 124 160 206 256 304 364
#     4  11  25  42  65  93 122 160 208 262 313 369
#     4  10  22  38  59  88 127 171 208 253 311 373
#     4  10  20  35  58  89 125 161 201 253 309 365
#     4  10  22  41  62  86 123 167 207 252 311 371
#     4  11  22  37  61  91 123 164 209 255 307 367
#
# _framework density 19.673299
#
# number of rings (size 3 to 8) (size 9 to 14) (size 15 to 20)
#    0.000    1.750    1.250    2.250    1.750    6.000 
#    0.000    3.750    0.000    0.000    0.000    0.000 
#    0.000    0.000    0.000    0.000    0.000    0.000 
#
# Total GULP energy -178808.068041 kJ/mol
# GULP energy per Si atom -5587.752126 kJ/mol
# Density = 1.962852 g / cm^3
# Si number density = 19.673299 Si / 1000 Ang^3
#
#
#
# Elastic Constant Matrix: (Units=GPa)
#
#
# Indices 1 2 3 4 5 6 
#
# 1 80.4093 40.8205 18.5317 0.0000 0.0000 0.0000
# 2 40.8205 76.6804 16.2314 0.0000 0.0000 0.0000
# 3 18.5317 16.2314 66.5104 0.0000 0.0000 0.0000
# 4 0.0000 0.0000 0.0000 14.5198 0.0000 0.0000
# 5 0.0000 0.0000 0.0000 0.0000 31.3575 0.0000
# 6 0.0000 0.0000 0.0000 0.0000 0.0000 34.9502
#
#
#
# Elastic Compliance Matrix: (Units=1/GPa)
#
#
# Indices 1 2 3 4 5 6 
#
# 1 0.017505 -0.008737 -0.002745 0.000000 0.000000 0.000000
# 2 -0.008737 0.018113 -0.001986 0.000000 0.000000 0.000000
# 3 -0.002745 -0.001986 0.016285 0.000000 0.000000 0.000000
# 4 0.000000 0.000000 0.000000 0.068871 0.000000 0.000000
# 5 0.000000 0.000000 0.000000 0.000000 0.031890 0.000000
# 6 0.000000 0.000000 0.000000 0.000000 0.000000 0.028612
#
#
# Mechanical properties :
#
#
# Convention : Reuss Voigt Hill
#
# Bulk Modulus (GPa) = 40.05499 41.64080 40.84789
# Shear Modulus (GPa) = 23.09102 26.03326 24.56214
#
# Velocity S-wave (km/s) = 3.42968 3.64164 3.53725
# Velocity P-wave (km/s) = 6.00732 6.23652 6.12299
#
# Compressibility (1/GPa) = 0.02496568
#
# Stress axis : x y z
#
# Youngs Moduli (GPa) = 57.12766 55.20941 61.40738
#
# Poissons Ratio (x) = 0.48239 0.16856
# Poissons Ratio (y) = 0.49915 0.12194
# Poissons Ratio (z) = 0.15681 0.10963
#
# Static dielectric constant tensor:
#      x y z
#    x 1.657850 0.000000 0.000000 
#    y 0.000000 1.637990 0.000000 
#    z 0.000000 0.000000 1.753940 
# 
# From -- ./inp_files/5081.got.cif
#   From: 2010.05.17/outbox.cif.g08.bks.cpg/sg31_3_cif.got.tgz:5081.got - 2010.06.03 17:08:30.
