data_PCOD9343923
_publ_section_title
;
Structure prediction by ZEFSAII (Michael W. Deem and Ramdas Pophale) SiO2 
 PCOD9343923
Probable space group: P B A 2
;
_chemical_formula_sum "Si O2"
_cell_formula_units_Z 32
_cell_length_a 5.111800
_cell_length_b 17.909796
_cell_length_c 15.321857
_cell_angle_alpha 90.000000
_cell_angle_beta 90.000000
_cell_angle_gamma 90.000000
_cell_volume 1402.735853
_symmetry_space_group_name_H-M "P B A 2"
_symmetry_group_IT_number 32
_symmetry_cell_setting 'orthorhombic'
loop_
_space_group_symop_operation_xyz
x,y,z
-x,-y,z
1/2-x,1/2+y,z
1/2+x,1/2-y,z
loop_
_atom_site_type_symbol
_atom_site_label
_atom_site_fract_x
_atom_site_fract_y
_atom_site_fract_z
Si Si1 0.209513 0.298932 0.485380
Si Si2 0.438021 0.413639 0.620207
Si Si3 0.553770 0.587793 0.977276
Si Si4 0.246911 0.447501 0.801413
Si Si5 0.805965 0.302199 0.704833
Si Si6 0.188149 0.699237 0.911007
Si Si7 0.774462 0.698755 0.277939
Si Si8 0.749950 0.554502 0.158545
O O1 0.420776 0.233093 0.502995
O O2 0.299311 0.369132 0.542600
O O3 0.225830 0.315275 0.382305
O O4 0.500000 0.500000 0.600013
O O5 0.257014 0.408959 0.707480
O O6 0.705444 0.372266 0.649240
O O7 0.500000 0.500000 0.976637
O O8 0.700749 0.598680 0.067574
O O9 0.711538 0.602318 0.887219
O O10 0.278181 0.629456 0.968463
O O11 0.500000 0.500000 0.796576
O O12 0.000000 0.500000 0.812021
O O13 0.073843 0.258272 0.689895
O O14 0.801235 0.322271 0.808169
O O15 0.924754 0.742990 0.928799
O O16 0.520980 0.748619 0.256434
O O17 0.779352 0.619297 0.230047
O O18 0.500000 0.500000 0.174385
O O19 0.000000 0.500000 0.152754
#
# Coordination Sequence:
#
# PCOD9343923 Si02
#       8
#     4   4   4   4   4   4   4   4
#     4  10  23  44  68  92 125 168 206 253 322 389
#     4  11  23  39  61  93 123 162 212 263 308 364
#     4  10  22  42  62  88 126 173 210 254 316 383
#     4  10  22  37  54  81 119 161 204 248 297 357
#     4  10  21  38  56  78 113 158 201 251 305 357
#     4  10  22  37  56  84 114 154 210 263 304 349
#     4  10  22  44  72  98 128 171 216 260 326 402
#     4  11  24  41  66 100 134 169 212 268 333 385
#
# _framework density 22.812563000000001
#
# number of rings (size 3 to 8) (size 9 to 14) (size 15 to 20)
#    0.000    1.750    1.250    1.875    0.000    9.500 
#    0.000    0.625    0.000    0.000    0.000    0.000 
#    0.000    0.000    0.000    0.000    0.000    0.000 
#
# Total GULP energy -179243.370024 kJ/mol
# GULP energy per Si atom -5601.355313 kJ/mol
# Density = 2.276064 g / cm^3
# Si number density = 22.812563 Si / 1000 Ang^3
#
#
#
# Elastic Constant Matrix: (Units=GPa)
#
#
# Indices 1 2 3 4 5 6 
#
# 1 127.5618 25.6905 6.9849 0.0000 0.0000 0.0000
# 2 25.6905 128.3383 31.8361 0.0000 0.0000 0.0000
# 3 6.9849 31.8361 92.8191 0.0000 0.0000 0.0000
# 4 0.0000 0.0000 0.0000 37.1051 0.0000 0.0000
# 5 0.0000 0.0000 0.0000 0.0000 17.7405 0.0000
# 6 0.0000 0.0000 0.0000 0.0000 0.0000 43.2687
#
#
#
# Elastic Compliance Matrix: (Units=1/GPa)
#
#
# Indices 1 2 3 4 5 6 
#
# 1 0.008169 -0.001621 -0.000059 0.000000 0.000000 0.000000
# 2 -0.001621 0.008838 -0.002909 0.000000 0.000000 0.000000
# 3 -0.000059 -0.002909 0.011776 0.000000 0.000000 0.000000
# 4 0.000000 0.000000 0.000000 0.026950 0.000000 0.000000
# 5 0.000000 0.000000 0.000000 0.000000 0.056368 0.000000
# 6 0.000000 0.000000 0.000000 0.000000 0.000000 0.023111
#
#
# Mechanical properties :
#
#
# Convention : Reuss Voigt Hill
#
# Bulk Modulus (GPa) = 51.00707 53.08247 52.04477
# Shear Modulus (GPa) = 33.12883 38.57003 35.84943
#
# Velocity S-wave (km/s) = 3.81493 4.11632 3.96849
# Velocity P-wave (km/s) = 6.46627 6.77581 6.62285
#
# Compressibility (1/GPa) = 0.01960512
#
# Stress axis : x y z
#
# Youngs Moduli (GPa) = 122.41467 113.14725 84.91862
#
# Poissons Ratio (x) = 0.18337 0.00500
# Poissons Ratio (y) = 0.19839 0.24706
# Poissons Ratio (z) = 0.00721 0.32919
#
# Static dielectric constant tensor:
#      x y z
#    x 1.819270 0.000000 0.000000 
#    y 0.000000 1.771520 0.000000 
#    z 0.000000 0.000000 1.893790 
# 
# From -- ./inp_files/4113.got.cif
#   From: 2010.05.17/outbox.cif.g08.bks.cpg/sg32_3_cif.got.tgz:4113.got - 2010.06.03 17:12:27.
