data_PCOD9343864
_publ_section_title
;
Structure prediction by ZEFSAII (Michael W. Deem and Ramdas Pophale) SiO2 
 PCOD9343864
Probable space group: P B A 2
;
_chemical_formula_sum "Si O2"
_cell_formula_units_Z 20
_cell_length_a 9.590378
_cell_length_b 11.437757
_cell_length_c 8.166754
_cell_angle_alpha 90.000000
_cell_angle_beta 90.000000
_cell_angle_gamma 90.000000
_cell_volume 895.830953
_symmetry_space_group_name_H-M "P B A 2"
_symmetry_group_IT_number 32
_symmetry_cell_setting 'orthorhombic'
loop_
_space_group_symop_operation_xyz
x,y,z
-x,-y,z
1/2-x,1/2+y,z
1/2+x,1/2-y,z
loop_
_atom_site_type_symbol
_atom_site_label
_atom_site_fract_x
_atom_site_fract_y
_atom_site_fract_z
Si Si1 0.026472 0.138753 0.962820
Si Si2 0.554728 0.271154 0.602918
Si Si3 0.620578 0.911846 0.449360
Si Si4 0.283172 0.249482 0.150359
Si Si5 0.199987 0.882245 0.449869
O O1 0.067700 0.170598 0.777896
O O2 0.146814 0.187627 0.081616
O O3 0.000000 0.000000 0.980455
O O4 0.888527 0.212215 0.009262
O O5 0.450375 0.159315 0.597181
O O6 0.698159 0.214568 0.536478
O O7 0.461487 0.356270 0.487185
O O8 0.651631 0.833745 0.290487
O O9 0.500000 0.000000 0.396800
O O10 0.751329 0.989733 0.503065
O O11 0.263034 0.366836 0.258701
#
# Coordination Sequence:
#
# PCOD9343864 Si02
#       5
#     4   4   4   4   4
#     4  12  26  42  62  95 132 166 202 257 319 369
#     4  10  22  38  59  87 122 157 203 249 300 370
#     4   9  19  39  65  89 116 161 211 256 305 363
#     4  11  23  41  65  93 126 161 210 259 308 376
#     4  10  20  40  64  88 118 161 208 255 303 362
#
# _framework density 22.32564
#
# number of rings (size 3 to 8) (size 9 to 14) (size 15 to 20)
#    0.000    1.600    0.000    6.000    0.000    4.800 
#    0.000   17.000    0.000    0.000    0.000    0.000 
#    0.000    0.000    0.000    0.000    0.000    0.000 
#
# Total GULP energy -111643.641488 kJ/mol
# GULP energy per Si atom -5582.182074 kJ/mol
# Density = 2.227483 g / cm^3
# Si number density = 22.325640 Si / 1000 Ang^3
#
#
#
# Elastic Constant Matrix: (Units=GPa)
#
#
# Indices 1 2 3 4 5 6 
#
# 1 100.9407 16.7671 13.2594 0.0000 0.0000 0.0000
# 2 16.7671 69.1200 0.3386 0.0000 0.0000 0.0000
# 3 13.2594 0.3386 81.5089 0.0000 0.0000 0.0000
# 4 0.0000 0.0000 0.0000 30.6931 0.0000 0.0000
# 5 0.0000 0.0000 0.0000 0.0000 35.6495 0.0000
# 6 0.0000 0.0000 0.0000 0.0000 0.0000 36.8141
#
#
#
# Elastic Compliance Matrix: (Units=1/GPa)
#
#
# Indices 1 2 3 4 5 6 
#
# 1 0.010555 -0.002552 -0.001706 0.000000 0.000000 0.000000
# 2 -0.002552 0.015085 0.000352 0.000000 0.000000 0.000000
# 3 -0.001706 0.000352 0.012545 0.000000 0.000000 0.000000
# 4 0.000000 0.000000 0.000000 0.032581 0.000000 0.000000
# 5 0.000000 0.000000 0.000000 0.000000 0.028051 0.000000
# 6 0.000000 0.000000 0.000000 0.000000 0.000000 0.027164
#
#
# Mechanical properties :
#
#
# Convention : Reuss Voigt Hill
#
# Bulk Modulus (GPa) = 32.92438 34.69997 33.81217
# Shear Modulus (GPa) = 34.74257 35.37831 35.06044
#
# Velocity S-wave (km/s) = 3.94912 3.98508 3.96714
# Velocity P-wave (km/s) = 5.96434 6.06225 6.01350
#
# Compressibility (1/GPa) = 0.03037263
#
# Stress axis : x y z
#
# Youngs Moduli (GPa) = 94.74304 66.29131 79.71477
#
# Poissons Ratio (x) = 0.16918 0.13603
# Poissons Ratio (y) = 0.24179 -0.02810
# Poissons Ratio (z) = 0.16167 -0.02337
#
# Static dielectric constant tensor:
#      x y z
#    x 1.855130 0.000000 0.000000 
#    y 0.000000 1.939730 0.000000 
#    z 0.000000 0.000000 1.777140 
# 
# From -- ./inp_files/2190.got.cif
#   From: 2010.05.17/outbox.cif.g08.bks.cpg/sg32_2_cif.got.tgz:2190.got - 2010.06.03 17:12:27.
