data_PCOD9343168
_publ_section_title
;
Structure prediction by ZEFSAII (Michael W. Deem and Ramdas Pophale) SiO2 
 PCOD9343168
Probable space group: P M N 21
;
_chemical_formula_sum "Si O2"
_cell_formula_units_Z 20
_cell_length_a 11.780947
_cell_length_b 9.498135
_cell_length_c 7.570741
_cell_angle_alpha 90.000000
_cell_angle_beta 90.000000
_cell_angle_gamma 90.000000
_cell_volume 847.143395
_symmetry_space_group_name_H-M "P M N 21"
_symmetry_group_IT_number 31
_symmetry_cell_setting 'orthorhombic'
loop_
_space_group_symop_operation_xyz
x,y,z
1/2-x,-y,1/2+z
-x,y,z
1/2+x,-y,1/2+z
loop_
_atom_site_type_symbol
_atom_site_label
_atom_site_fract_x
_atom_site_fract_y
_atom_site_fract_z
Si Si1 0.803318 0.669296 0.794600
Si Si2 0.878732 0.161860 0.120643
Si Si3 0.625631 0.768264 0.241629
Si Si4 0.378410 0.502050 0.980609
Si Si5 0.875231 0.840879 0.115030
O O1 0.719272 0.798025 0.752196
O O2 0.863779 0.628093 0.613350
O O3 0.723719 0.537156 0.849340
O O4 0.873499 0.724847 0.960046
O O5 0.000000 0.178886 0.212800
O O6 0.872825 0.002896 0.049852
O O7 0.875431 0.262205 0.950691
O O8 0.500000 0.842355 0.212587
O O9 0.620333 0.635646 0.112409
O O10 0.752915 0.828578 0.211174
O O11 0.500000 0.492665 0.887506
O O12 0.000000 0.827422 0.207611
#
# Coordination Sequence:
#
# PCOD9343168 Si02
#       5
#     4   4   4   4   4
#     4  11  21  37  59  84 116 151 189 235 287 343
#     4  10  20  36  58  84 114 151 195 240 287 339
#     4   9  19  37  58  81 113 152 192 235 287 344
#     4  10  21  37  57  83 114 149 191 236 285 341
#     4  10  21  37  58  86 118 151 192 240 287 339
#
# _framework density 23.608753
#
# number of rings (size 3 to 8) (size 9 to 14) (size 15 to 20)
#    0.000    2.000    0.000    3.600    0.000    0.800 
#    0.000   17.000    0.000    0.000    0.000    0.000 
#    0.000    0.000    0.000    0.000    0.000    0.000 
#
# Total GULP energy -111440.971421 kJ/mol
# GULP energy per Si atom -5572.048571 kJ/mol
# Density = 2.355502 g / cm^3
# Si number density = 23.608753 Si / 1000 Ang^3
#
#
#
# Elastic Constant Matrix: (Units=GPa)
#
#
# Indices 1 2 3 4 5 6 
#
# 1 204.6971 22.4967 27.6409 0.0000 0.0000 0.0000
# 2 22.4967 47.3597 -2.7255 0.0000 0.0000 0.0000
# 3 27.6409 -2.7255 33.2761 0.0000 0.0000 0.0000
# 4 0.0000 0.0000 0.0000 30.3354 0.0000 0.0000
# 5 0.0000 0.0000 0.0000 0.0000 13.3634 0.0000
# 6 0.0000 0.0000 0.0000 0.0000 0.0000 19.8916
#
#
#
# Elastic Compliance Matrix: (Units=1/GPa)
#
#
# Indices 1 2 3 4 5 6 
#
# 1 0.005927 -0.003113 -0.005178 0.000000 0.000000 0.000000
# 2 -0.003113 0.022850 0.004458 0.000000 0.000000 0.000000
# 3 -0.005178 0.004458 0.034718 0.000000 0.000000 0.000000
# 4 0.000000 0.000000 0.000000 0.032965 0.000000 0.000000
# 5 0.000000 0.000000 0.000000 0.000000 0.074831 0.000000
# 6 0.000000 0.000000 0.000000 0.000000 0.000000 0.050272
#
#
# Mechanical properties :
#
#
# Convention : Reuss Voigt Hill
#
# Bulk Modulus (GPa) = 17.91229 42.23967 30.07598
# Shear Modulus (GPa) = 20.17436 28.57949 24.37692
#
# Velocity S-wave (km/s) = 2.92640 3.48307 3.21680
# Velocity P-wave (km/s) = 4.36143 5.84004 5.15403
#
# Compressibility (1/GPa) = 0.05582758
#
# Stress axis : x y z
#
# Youngs Moduli (GPa) = 168.73040 43.76299 28.80371
#
# Poissons Ratio (x) = 0.13624 0.14914
# Poissons Ratio (y) = 0.52530 -0.12840
# Poissons Ratio (z) = 0.87368 -0.19508
#
# Static dielectric constant tensor:
#      x y z
#    x 1.997340 0.000000 0.000000 
#    y 0.000000 1.899270 0.000000 
#    z 0.000000 0.000000 1.863410 
# 
# From -- ./inp_files/1600.got.cif
#   From: 2010.05.17/outbox.cif.g08.bks.cpg/sg31_1_cif.got.tgz:1600.got - 2010.06.03 17:08:30.
