data_PCOD9343398
_publ_section_title
;
Structure prediction by ZEFSAII (Michael W. Deem and Ramdas Pophale) SiO2 
 PCOD9343398
Probable space group: P M N 21
;
_chemical_formula_sum "Si O2"
_cell_formula_units_Z 32
_cell_length_a 9.008143
_cell_length_b 12.745083
_cell_length_c 14.335031
_cell_angle_alpha 90.000000
_cell_angle_beta 90.000000
_cell_angle_gamma 90.000000
_cell_volume 1645.798175
_symmetry_space_group_name_H-M "P M N 21"
_symmetry_group_IT_number 31
_symmetry_cell_setting 'orthorhombic'
loop_
_space_group_symop_operation_xyz
x,y,z
1/2-x,-y,1/2+z
-x,y,z
1/2+x,-y,1/2+z
loop_
_atom_site_type_symbol
_atom_site_label
_atom_site_fract_x
_atom_site_fract_y
_atom_site_fract_z
Si Si1 0.675446 0.323544 0.011970
Si Si2 0.173446 0.734122 0.146679
Si Si3 0.328926 0.583531 0.818920
Si Si4 0.832346 0.442704 0.543499
Si Si5 0.321135 0.824863 0.810297
Si Si6 0.821266 0.123775 0.104682
Si Si7 0.821182 0.913136 0.998935
Si Si8 0.675638 0.633073 0.313514
O O1 0.500000 0.308035 0.998268
O O2 0.694072 0.435273 0.062896
O O3 0.746909 0.228781 0.067189
O O4 0.753244 0.337171 0.912295
O O5 0.209098 0.630553 0.087049
O O6 0.216299 0.830112 0.080247
O O7 0.268903 0.717884 0.238965
O O8 0.000000 0.742272 0.169938
O O9 0.500000 0.573058 0.786171
O O10 0.275477 0.701959 0.798764
O O11 0.235562 0.483135 0.785777
O O12 0.330996 0.573124 0.931805
O O13 0.000000 0.413951 0.576066
O O14 0.500000 0.823341 0.821794
O O15 0.284553 0.885865 0.714625
O O16 0.251047 0.876752 0.902024
O O17 0.000000 0.133208 0.099392
O O18 0.776752 0.026419 0.039356
O O19 0.000000 0.911743 0.987720
O O20 0.500000 0.630099 0.320427
#
# Coordination Sequence:
#
# PCOD9343398 Si02
#       8
#     4   4   4   4   4   4   4   4
#     4  10  22  41  61  87 123 159 201 252 306 366
#     4  11  22  36  57  86 122 166 207 249 303 360
#     4   9  18  35  57  86 121 156 201 255 305 363
#     4   9  18  34  56  84 119 152 193 250 303 359
#     4  10  21  39  64  90 118 158 206 254 307 364
#     4  10  23  42  63  91 123 160 206 254 307 365
#     4  10  23  42  62  89 126 162 207 259 302 359
#     4  11  23  37  58  89 126 167 205 249 307 370
#
# _framework density 19.443453000000002
#
# number of rings (size 3 to 8) (size 9 to 14) (size 15 to 20)
#    0.000    2.000    1.250    2.625    1.750    5.500 
#    0.000    1.250    0.000    0.000    0.000    0.000 
#    0.000    0.000    0.000    0.000    0.000    0.000 
#
# Total GULP energy -178697.507842 kJ/mol
# GULP energy per Si atom -5584.297120 kJ/mol
# Density = 1.939920 g / cm^3
# Si number density = 19.443453 Si / 1000 Ang^3
#
#
#
# Elastic Constant Matrix: (Units=GPa)
#
#
# Indices 1 2 3 4 5 6 
#
# 1 35.8255 29.5452 19.4898 0.0000 0.0000 0.0000
# 2 29.5452 91.1581 34.4137 0.0000 0.0000 0.0000
# 3 19.4898 34.4137 63.8977 0.0000 0.0000 0.0000
# 4 0.0000 0.0000 0.0000 22.8391 0.0000 0.0000
# 5 0.0000 0.0000 0.0000 0.0000 30.4636 0.0000
# 6 0.0000 0.0000 0.0000 0.0000 0.0000 29.5911
#
#
#
# Elastic Compliance Matrix: (Units=1/GPa)
#
#
# Indices 1 2 3 4 5 6 
#
# 1 0.040186 -0.010540 -0.006581 0.000000 0.000000 0.000000
# 2 -0.010540 0.016534 -0.005690 0.000000 0.000000 0.000000
# 3 -0.006581 -0.005690 0.020722 0.000000 0.000000 0.000000
# 4 0.000000 0.000000 0.000000 0.043785 0.000000 0.000000
# 5 0.000000 0.000000 0.000000 0.000000 0.032826 0.000000
# 6 0.000000 0.000000 0.000000 0.000000 0.000000 0.033794
#
#
# Mechanical properties :
#
#
# Convention : Reuss Voigt Hill
#
# Bulk Modulus (GPa) = 31.42686 39.75320 35.59003
# Shear Modulus (GPa) = 20.48558 23.74093 22.11325
#
# Velocity S-wave (km/s) = 3.24944 3.49811 3.37606
# Velocity P-wave (km/s) = 5.50243 6.06676 5.79147
#
# Compressibility (1/GPa) = 0.03181992
#
# Stress axis : x y z
#
# Youngs Moduli (GPa) = 24.88456 60.48059 48.25865
#
# Poissons Ratio (x) = 0.63748 0.31757
# Poissons Ratio (y) = 0.26229 0.27459
# Poissons Ratio (z) = 0.16375 0.34413
#
# Static dielectric constant tensor:
#      x y z
#    x 1.656170 0.000000 0.000000 
#    y 0.000000 1.674710 0.000000 
#    z 0.000000 0.000000 1.694690 
# 
# From -- ./inp_files/5028.got.cif
#   From: 2010.05.17/outbox.cif.g08.bks.cpg/sg31_3_cif.got.tgz:5028.got - 2010.06.03 17:08:30.
