data_PCOD9343964
_publ_section_title
;
Structure prediction by ZEFSAII (Michael W. Deem and Ramdas Pophale) SiO2 
 PCOD9343964
Probable space group: P B A 2
;
_chemical_formula_sum "Si O2"
_cell_formula_units_Z 24
_cell_length_a 8.209501
_cell_length_b 14.034113
_cell_length_c 8.247725
_cell_angle_alpha 90.000000
_cell_angle_beta 90.000000
_cell_angle_gamma 90.000000
_cell_volume 950.245674
_symmetry_space_group_name_H-M "P B A 2"
_symmetry_group_IT_number 32
_symmetry_cell_setting 'orthorhombic'
loop_
_space_group_symop_operation_xyz
x,y,z
-x,-y,z
1/2-x,1/2+y,z
1/2+x,1/2-y,z
loop_
_atom_site_type_symbol
_atom_site_label
_atom_site_fract_x
_atom_site_fract_y
_atom_site_fract_z
Si Si1 0.276728 0.623553 0.504260
Si Si2 0.341880 0.858357 0.822637
Si Si3 0.000000 0.000000 0.113951
Si Si4 0.460667 0.251403 0.341348
Si Si5 0.218769 0.376988 0.182682
Si Si6 0.540196 0.357690 0.825249
Si Si7 0.500000 0.000000 0.570832
O O1 0.427430 0.660149 0.396101
O O2 0.349945 0.602126 0.680350
O O3 0.154660 0.536879 0.471148
O O4 0.157507 0.715791 0.484696
O O5 0.404536 0.750958 0.837019
O O6 0.150341 0.862453 0.782952
O O7 0.441759 0.915791 0.689985
O O8 0.352238 0.897360 0.005620
O O9 0.845156 0.037625 0.211961
O O10 0.058991 0.083301 0.990795
O O11 0.344276 0.285917 0.195041
O O12 0.573847 0.162340 0.293158
#
# Coordination Sequence:
#
# PCOD9343964 Si02
#       7
#     4   4   2   4   4   4   2
#     4  11  23  41  62  94 130 169 220 259 320 385
#     4  11  23  41  70  97 127 166 212 275 326 374
#     4  10  22  38  66  98 124 162 216 274 322 374
#     4  10  23  42  65  89 130 180 211 257 314 393
#     4  10  21  41  63  93 127 168 219 258 320 382
#     4  11  22  41  68  96 128 166 212 273 329 375
#     4  12  26  42  66 100 128 164 220 276 320 374
#
# _framework density 25.256627000000002
#
# number of rings (size 3 to 8) (size 9 to 14) (size 15 to 20)
#    0.000    1.333    0.000    7.000    0.000    2.667 
#    0.000    8.333    0.000    0.000    0.000    0.000 
#    0.000    0.000    0.000    0.000    0.000    0.000 
#
# Total GULP energy -134225.126826 kJ/mol
# GULP energy per Si atom -5592.713618 kJ/mol
# Density = 2.519914 g / cm^3
# Si number density = 25.256627 Si / 1000 Ang^3
#
#
#
# Elastic Constant Matrix: (Units=GPa)
#
#
# Indices 1 2 3 4 5 6 
#
# 1 129.5117 36.9682 61.8996 0.0000 0.0000 0.0000
# 2 36.9682 101.0611 24.5694 0.0000 0.0000 0.0000
# 3 61.8996 24.5694 92.8361 0.0000 0.0000 0.0000
# 4 0.0000 0.0000 0.0000 44.7716 0.0000 0.0000
# 5 0.0000 0.0000 0.0000 0.0000 15.3360 0.0000
# 6 0.0000 0.0000 0.0000 0.0000 0.0000 11.2780
#
#
#
# Elastic Compliance Matrix: (Units=1/GPa)
#
#
# Indices 1 2 3 4 5 6 
#
# 1 0.011939 -0.002599 -0.007273 0.000000 0.000000 0.000000
# 2 -0.002599 0.011141 -0.001215 0.000000 0.000000 0.000000
# 3 -0.007273 -0.001215 0.015943 0.000000 0.000000 0.000000
# 4 0.000000 0.000000 0.000000 0.022336 0.000000 0.000000
# 5 0.000000 0.000000 0.000000 0.000000 0.065206 0.000000
# 6 0.000000 0.000000 0.000000 0.000000 0.000000 0.088668
#
#
# Mechanical properties :
#
#
# Convention : Reuss Voigt Hill
#
# Bulk Modulus (GPa) = 59.35384 63.36482 61.35933
# Shear Modulus (GPa) = 20.57411 27.60856 24.09134
#
# Velocity S-wave (km/s) = 2.85722 3.30983 3.09182
# Velocity P-wave (km/s) = 5.86824 6.30472 6.09039
#
# Compressibility (1/GPa) = 0.01684811
#
# Stress axis : x y z
#
# Youngs Moduli (GPa) = 83.75757 89.75591 62.72531
#
# Poissons Ratio (x) = 0.23330 0.45618
# Poissons Ratio (y) = 0.21771 0.07624
# Poissons Ratio (z) = 0.60914 0.10910
#
# Static dielectric constant tensor:
#      x y z
#    x 1.949890 0.000000 0.000000 
#    y 0.000000 2.012720 0.000000 
#    z 0.000000 0.000000 1.982200 
# 
# From -- ./inp_files/2336.got.cif
#   From: 2010.05.17/outbox.cif.g08.bks.cpg/sg32_2_cif.got.tgz:2336.got - 2010.06.03 17:12:27.
