data_PCOD9343889
_publ_section_title
;
Structure prediction by ZEFSAII (Michael W. Deem and Ramdas Pophale) SiO2 
 PCOD9343889
Probable space group: P B A 2
;
_chemical_formula_sum "Si O2"
_cell_formula_units_Z 24
_cell_length_a 8.886025
_cell_length_b 14.284937
_cell_length_c 8.403666
_cell_angle_alpha 90.000000
_cell_angle_beta 90.000000
_cell_angle_gamma 90.000000
_cell_volume 1066.730330
_symmetry_space_group_name_H-M "P B A 2"
_symmetry_group_IT_number 32
_symmetry_cell_setting 'orthorhombic'
loop_
_space_group_symop_operation_xyz
x,y,z
-x,-y,z
1/2-x,1/2+y,z
1/2+x,1/2-y,z
loop_
_atom_site_type_symbol
_atom_site_label
_atom_site_fract_x
_atom_site_fract_y
_atom_site_fract_z
Si Si1 0.500000 0.000000 0.949821
Si Si2 0.500000 0.500000 0.435686
Si Si3 0.940666 0.181977 0.639504
Si Si4 0.755625 0.743602 0.165107
Si Si5 0.270252 0.048874 0.222209
Si Si6 0.508253 0.818264 0.354278
Si Si7 0.136772 0.316625 0.826551
O O1 0.472447 0.906347 0.847658
O O2 0.644457 0.990511 0.067599
O O3 0.496328 0.591212 0.548752
O O4 0.354672 0.494831 0.320977
O O5 0.949987 0.267191 0.514457
O O6 0.772004 0.165877 0.702472
O O7 0.046038 0.223199 0.778751
O O8 0.805610 0.852326 0.172295
O O9 0.581987 0.757265 0.210349
O O10 0.835811 0.685428 0.305763
O O11 0.787054 0.699851 0.996973
O O12 0.404531 0.084861 0.338215
#
# Coordination Sequence:
#
# PCOD9343889 Si02
#       7
#     2   2   4   4   4   4   4
#     4  12  26  44  68 112 142 194 242 314 356 436
#     4  12  26  44  68 112 142 194 242 314 356 436
#     4  12  26  45  71 103 148 189 234 294 375 431
#     4  10  20  43  68  96 130 187 236 288 349 427
#     4  10  24  40  70 102 140 178 268 290 366 412
#     4  10  20  43  68  96 130 187 236 288 349 427
#     4  12  26  45  71 103 148 189 234 294 375 431
#
# _framework density 22.498659
#
# number of rings (size 3 to 8) (size 9 to 14) (size 15 to 20)
#    1.000    0.000    3.333    4.000    2.333    6.667 
#    0.000    0.000    0.000    0.000    0.000    0.000 
#    0.000    0.000    0.000    0.000    0.000    0.000 
#
# Total GULP energy -133981.926111 kJ/mol
# GULP energy per Si atom -5582.580255 kJ/mol
# Density = 2.244745 g / cm^3
# Si number density = 22.498659 Si / 1000 Ang^3
#
#
#
# Elastic Constant Matrix: (Units=GPa)
#
#
# Indices 1 2 3 4 5 6 
#
# 1 100.6917 55.0324 27.3974 0.0000 0.0000 0.0000
# 2 55.0324 71.9131 27.9809 0.0000 0.0000 0.0000
# 3 27.3974 27.9809 86.1418 0.0000 0.0000 0.0000
# 4 0.0000 0.0000 0.0000 38.9490 0.0000 0.0000
# 5 0.0000 0.0000 0.0000 0.0000 22.9483 0.0000
# 6 0.0000 0.0000 0.0000 0.0000 0.0000 42.3808
#
#
#
# Elastic Compliance Matrix: (Units=1/GPa)
#
#
# Indices 1 2 3 4 5 6 
#
# 1 0.017211 -0.012639 -0.001369 0.000000 0.000000 0.000000
# 2 -0.012639 0.025198 -0.004165 0.000000 0.000000 0.000000
# 3 -0.001369 -0.004165 0.013397 0.000000 0.000000 0.000000
# 4 0.000000 0.000000 0.000000 0.025675 0.000000 0.000000
# 5 0.000000 0.000000 0.000000 0.000000 0.043576 0.000000
# 6 0.000000 0.000000 0.000000 0.000000 0.000000 0.023596
#
#
# Mechanical properties :
#
#
# Convention : Reuss Voigt Hill
#
# Bulk Modulus (GPa) = 51.38387 53.28533 52.33460
# Shear Modulus (GPa) = 26.11170 30.74468 28.42819
#
# Velocity S-wave (km/s) = 3.41044 3.70065 3.55850
# Velocity P-wave (km/s) = 6.19648 6.48035 6.34000
#
# Compressibility (1/GPa) = 0.01946136
#
# Stress axis : x y z
#
# Youngs Moduli (GPa) = 58.10164 39.68548 74.64317
#
# Poissons Ratio (x) = 0.50157 0.10217
# Poissons Ratio (y) = 0.73432 0.31091
# Poissons Ratio (z) = 0.07953 0.16530
#
# Static dielectric constant tensor:
#      x y z
#    x 1.868510 0.000000 0.000000 
#    y 0.000000 1.853140 0.000000 
#    z 0.000000 0.000000 1.832380 
# 
# From -- ./inp_files/2350.got.cif
#   From: 2010.05.17/outbox.cif.g08.bks.cpg/sg32_2_cif.got.tgz:2350.got - 2010.06.03 17:12:27.
