data_PCOD9343794
_publ_section_title
;
Structure prediction by ZEFSAII (Michael W. Deem and Ramdas Pophale) SiO2 
 PCOD9343794
Probable space group: P B A 2
;
_chemical_formula_sum "Si O2"
_cell_formula_units_Z 28
_cell_length_a 9.188765
_cell_length_b 25.755661
_cell_length_c 5.340538
_cell_angle_alpha 90.000000
_cell_angle_beta 90.000000
_cell_angle_gamma 90.000000
_cell_volume 1263.906230
_symmetry_space_group_name_H-M "P B A 2"
_symmetry_group_IT_number 32
_symmetry_cell_setting 'orthorhombic'
loop_
_space_group_symop_operation_xyz
x,y,z
-x,-y,z
1/2-x,1/2+y,z
1/2+x,1/2-y,z
loop_
_atom_site_type_symbol
_atom_site_label
_atom_site_fract_x
_atom_site_fract_y
_atom_site_fract_z
Si Si1 0.704545 0.633036 0.909630
Si Si2 0.228263 0.761864 0.034582
Si Si3 0.749412 0.029370 0.716030
Si Si4 0.394940 0.662558 0.159029
Si Si5 0.750082 0.942547 0.088717
Si Si6 0.500000 0.000000 0.369918
Si Si7 0.500000 0.500000 0.398481
Si Si8 0.908736 0.203690 0.540871
O O1 0.755945 0.574333 0.923574
O O2 0.683063 0.652156 0.621304
O O3 0.799747 0.680227 0.020095
O O4 0.545744 0.640947 0.038005
O O5 0.334962 0.714006 0.027857
O O6 0.147963 0.764170 0.302317
O O7 0.121017 0.762965 0.792332
O O8 0.610167 0.032573 0.541437
O O9 0.900582 0.036446 0.570878
O O10 0.753834 0.970574 0.819933
O O11 0.276980 0.617953 0.119092
O O12 0.438507 0.680600 0.440933
O O13 0.601021 0.962576 0.207798
O O14 0.886101 0.968576 0.233304
#
# Coordination Sequence:
#
# PCOD9343794 Si02
#       8
#     4   4   4   4   4   2   2   4
#     4   9  21  39  65 100 130 178 231 295 340 417
#     4   9  22  39  64  98 140 178 220 289 352 408
#     4  11  21  43  68  95 143 175 235 284 357 422
#     4  11  21  40  70 100 139 178 240 294 357 417
#     4  11  23  41  69  98 138 185 227 295 354 428
#     4  10  26  44  58 100 148 188 228 282 356 444
#     4  10  20  34  64 110 120 170 232 288 346 416
#     4   9  21  41  61 101 134 179 227 284 345 413
#
# _framework density 22.153544
#
# number of rings (size 3 to 8) (size 9 to 14) (size 15 to 20)
#    0.857    1.143    0.000    3.429    2.000    4.571 
#    0.000   10.000    0.000    0.000    0.000    0.000 
#    0.000    0.000    0.000    0.000    0.000    0.000 
#
# Total GULP energy -155969.879072 kJ/mol
# GULP energy per Si atom -5570.352824 kJ/mol
# Density = 2.210312 g / cm^3
# Si number density = 22.153544 Si / 1000 Ang^3
#
#
#
# Elastic Constant Matrix: (Units=GPa)
#
#
# Indices 1 2 3 4 5 6 
#
# 1 78.8455 9.9506 18.7282 0.0000 0.0000 0.0000
# 2 9.9506 58.7541 -5.3783 0.0000 0.0000 0.0000
# 3 18.7282 -5.3783 98.0883 0.0000 0.0000 0.0000
# 4 0.0000 0.0000 0.0000 18.6725 0.0000 0.0000
# 5 0.0000 0.0000 0.0000 0.0000 18.4101 0.0000
# 6 0.0000 0.0000 0.0000 0.0000 0.0000 20.8062
#
#
#
# Elastic Compliance Matrix: (Units=1/GPa)
#
#
# Indices 1 2 3 4 5 6 
#
# 1 0.013660 -0.002565 -0.002749 0.000000 0.000000 0.000000
# 2 -0.002565 0.017588 0.001454 0.000000 0.000000 0.000000
# 3 -0.002749 0.001454 0.010799 0.000000 0.000000 0.000000
# 4 0.000000 0.000000 0.000000 0.053555 0.000000 0.000000
# 5 0.000000 0.000000 0.000000 0.000000 0.054318 0.000000
# 6 0.000000 0.000000 0.000000 0.000000 0.000000 0.048063
#
#
# Mechanical properties :
#
#
# Convention : Reuss Voigt Hill
#
# Bulk Modulus (GPa) = 29.13123 31.36544 30.24833
# Shear Modulus (GPa) = 23.02623 25.73693 24.38158
#
# Velocity S-wave (km/s) = 3.22746 3.41215 3.32109
# Velocity P-wave (km/s) = 5.20258 5.45093 5.32820
#
# Compressibility (1/GPa) = 0.03432742
#
# Stress axis : x y z
#
# Youngs Moduli (GPa) = 73.20836 56.85826 92.59741
#
# Poissons Ratio (x) = 0.14584 0.25452
# Poissons Ratio (y) = 0.18778 -0.13465
# Poissons Ratio (z) = 0.20123 -0.08268
#
# Static dielectric constant tensor:
#      x y z
#    x 1.819200 0.000000 0.000000 
#    y 0.000000 1.882210 0.000000 
#    z 0.000000 0.000000 1.896110 
# 
# From -- ./inp_files/607.got.cif
#   From: 2010.05.17/outbox.cif.g08.bks.cpg/sg32_1_cif.got.tgz:607.got - 2010.06.03 17:12:27.
