data_PCOD9343354
_publ_section_title
;
Structure prediction by ZEFSAII (Michael W. Deem and Ramdas Pophale) SiO2 
 PCOD9343354
Probable space group: P M N 21
;
_chemical_formula_sum "Si O2"
_cell_formula_units_Z 24
_cell_length_a 14.172229
_cell_length_b 13.770774
_cell_length_c 4.851478
_cell_angle_alpha 90.000000
_cell_angle_beta 90.000000
_cell_angle_gamma 90.000000
_cell_volume 946.826879
_symmetry_space_group_name_H-M "P M N 21"
_symmetry_group_IT_number 31
_symmetry_cell_setting 'orthorhombic'
loop_
_space_group_symop_operation_xyz
x,y,z
1/2-x,-y,1/2+z
-x,y,z
1/2+x,-y,1/2+z
loop_
_atom_site_type_symbol
_atom_site_label
_atom_site_fract_x
_atom_site_fract_y
_atom_site_fract_z
Si Si1 0.388210 0.963439 0.756960
Si Si2 0.606243 0.573129 0.228450
Si Si3 0.387720 0.080764 0.251077
Si Si4 0.298745 0.380950 0.402686
Si Si5 0.104516 0.214158 0.887187
Si Si6 0.304339 0.250008 0.874162
O O1 0.500000 0.978882 0.745248
O O2 0.350490 0.046281 0.547563
O O3 0.376894 0.854212 0.650644
O O4 0.363456 0.986725 0.066515
O O5 0.500000 0.560221 0.107574
O O6 0.638648 0.477455 0.388500
O O7 0.694145 0.593850 0.020753
O O8 0.597652 0.669730 0.416868
O O9 0.500000 0.094439 0.272805
O O10 0.351090 0.168276 0.064113
O O11 0.290734 0.335775 0.098988
O O12 0.348092 0.302584 0.608373
O O13 0.206458 0.209039 0.747887
O O14 0.000000 0.184777 0.774647
#
# Coordination Sequence:
#
# PCOD9343354 Si02
#       6
#     4   4   4   4   4   4
#     4   9  19  36  58  85 119 157 203 256 303 367
#     4  10  22  43  70  96 131 176 215 269 340 393
#     4  10  21  38  59  86 122 163 204 250 309 371
#     4  11  24  43  63  95 129 158 214 268 308 387
#     4   9  20  38  60  88 119 156 204 255 313 375
#     4  11  24  40  63  90 124 164 203 260 316 371
#
# _framework density 25.347822000000001
#
# number of rings (size 3 to 8) (size 9 to 14) (size 15 to 20)
#    0.000    2.000    0.000    3.000    0.000    6.000 
#    0.000   12.500    0.000    0.000    0.000    0.000 
#    0.000    0.000    0.000    0.000    0.000    0.000 
#
# Total GULP energy -133840.274150 kJ/mol
# GULP energy per Si atom -5576.678090 kJ/mol
# Density = 2.529013 g / cm^3
# Si number density = 25.347822 Si / 1000 Ang^3
#
#
#
# Elastic Constant Matrix: (Units=GPa)
#
#
# Indices 1 2 3 4 5 6 
#
# 1 109.2643 33.9179 0.6648 0.0000 0.0000 0.0000
# 2 33.9179 113.9121 22.9451 0.0000 0.0000 0.0000
# 3 0.6648 22.9451 85.6005 0.0000 0.0000 0.0000
# 4 0.0000 0.0000 0.0000 38.2338 0.0000 0.0000
# 5 0.0000 0.0000 0.0000 0.0000 17.5654 0.0000
# 6 0.0000 0.0000 0.0000 0.0000 0.0000 37.7581
#
#
#
# Elastic Compliance Matrix: (Units=1/GPa)
#
#
# Indices 1 2 3 4 5 6 
#
# 1 0.010132 -0.003172 0.000772 0.000000 0.000000 0.000000
# 2 -0.003172 0.010273 -0.002729 0.000000 0.000000 0.000000
# 3 0.000772 -0.002729 0.012408 0.000000 0.000000 0.000000
# 4 0.000000 0.000000 0.000000 0.026155 0.000000 0.000000
# 5 0.000000 0.000000 0.000000 0.000000 0.056930 0.000000
# 6 0.000000 0.000000 0.000000 0.000000 0.000000 0.026484
#
#
# Mechanical properties :
#
#
# Convention : Reuss Voigt Hill
#
# Bulk Modulus (GPa) = 44.33917 47.09253 45.71585
# Shear Modulus (GPa) = 31.21886 35.46139 33.34013
#
# Velocity S-wave (km/s) = 3.51325 3.74437 3.63065
# Velocity P-wave (km/s) = 5.82988 6.10840 5.97077
#
# Compressibility (1/GPa) = 0.02255342
#
# Stress axis : x y z
#
# Youngs Moduli (GPa) = 98.69540 97.34276 80.59521
#
# Poissons Ratio (x) = 0.30880 -0.06219
# Poissons Ratio (y) = 0.31310 0.21995
# Poissons Ratio (z) = -0.07616 0.26565
#
# Static dielectric constant tensor:
#      x y z
#    x 2.020670 0.000000 0.000000 
#    y 0.000000 2.060120 0.000000 
#    z 0.000000 0.000000 2.047000 
# 
# From -- ./inp_files/622.got.cif
#   From: 2010.05.17/outbox.cif.g08.bks.cpg/sg31_1_cif.got.tgz:622.got - 2010.06.03 17:08:30.
