data_PCOD9343822
_publ_section_title
;
Structure prediction by ZEFSAII (Michael W. Deem and Ramdas Pophale) SiO2 
 PCOD9343822
Probable space group: P B A 2
;
_chemical_formula_sum "Si O2"
_cell_formula_units_Z 30
_cell_length_a 19.647489
_cell_length_b 7.428941
_cell_length_c 8.243511
_cell_angle_alpha 90.000000
_cell_angle_beta 90.000000
_cell_angle_gamma 90.000000
_cell_volume 1203.223167
_symmetry_space_group_name_H-M "P B A 2"
_symmetry_group_IT_number 32
_symmetry_cell_setting 'orthorhombic'
loop_
_space_group_symop_operation_xyz
x,y,z
-x,-y,z
1/2-x,1/2+y,z
1/2+x,1/2-y,z
loop_
_atom_site_type_symbol
_atom_site_label
_atom_site_fract_x
_atom_site_fract_y
_atom_site_fract_z
Si Si1 0.278994 0.192845 0.287200
Si Si2 0.298313 0.097824 0.665851
Si Si3 0.507917 0.258996 0.258819
Si Si4 0.401020 0.829449 0.780413
Si Si5 0.859802 0.943700 0.331327
Si Si6 0.000000 0.500000 0.522680
Si Si7 0.900850 0.458282 0.111000
Si Si8 0.651053 0.513364 0.713311
O O1 0.290363 0.122588 0.471934
O O2 0.197150 0.201626 0.274746
O O3 0.317864 0.381524 0.277649
O O4 0.323232 0.082401 0.156958
O O5 0.332661 0.908508 0.701356
O O6 0.340798 0.271579 0.728590
O O7 0.225395 0.069104 0.747031
O O8 0.561947 0.422673 0.272625
O O9 0.450634 0.216811 0.124250
O O10 0.472630 0.176467 0.421327
O O11 0.565312 0.100875 0.234927
O O12 0.451618 0.894068 0.643517
O O13 0.399581 0.615719 0.811935
O O14 0.409677 0.942868 0.942038
O O15 0.864694 0.963027 0.525715
#
# Coordination Sequence:
#
# PCOD9343822 Si02
#       8
#     4   4   4   4   4   2   4   4
#     4  10  21  38  62  96 123 158 209 268 325 372
#     4  10  20  38  65  93 127 158 212 267 315 386
#     4  10  20  41  65  91 118 168 221 252 317 382
#     4  12  22  41  64  91 133 169 208 264 327 386
#     4  10  20  37  67  92 121 157 218 274 312 377
#     4  10  20  36  72  88 118 174 218 262 320 376
#     4  10  23  39  58  91 127 170 205 249 323 393
#     4  10  20  37  64 100 118 162 212 268 327 373
#
# _framework density 24.933032000000001
#
# number of rings (size 3 to 8) (size 9 to 14) (size 15 to 20)
#    0.000    1.867    2.667    3.200    1.867    0.533 
#    7.200    0.667    2.933    0.000    0.000    0.000 
#    0.000    0.000    0.000    0.000    0.000    0.000 
#
# Total GULP energy -167205.277568 kJ/mol
# GULP energy per Si atom -5573.509252 kJ/mol
# Density = 2.487628 g / cm^3
# Si number density = 24.933032 Si / 1000 Ang^3
#
#
#
# Elastic Constant Matrix: (Units=GPa)
#
#
# Indices 1 2 3 4 5 6 
#
# 1 93.9452 -21.4502 -7.8102 0.0000 0.0000 0.0000
# 2 -21.4502 54.2389 -1.1466 0.0000 0.0000 0.0000
# 3 -7.8102 -1.1466 25.1434 0.0000 0.0000 0.0000
# 4 0.0000 0.0000 0.0000 19.8982 0.0000 0.0000
# 5 0.0000 0.0000 0.0000 0.0000 -10.1387 0.0000
# 6 0.0000 0.0000 0.0000 0.0000 0.0000 57.8389
#
#
#
# Elastic Compliance Matrix: (Units=1/GPa)
#
#
# Indices 1 2 3 4 5 6 
#
# 1 0.012086 0.004864 0.003976 0.000000 0.000000 0.000000
# 2 0.004864 0.020412 0.002442 0.000000 0.000000 0.000000
# 3 0.003976 0.002442 0.041118 0.000000 0.000000 0.000000
# 4 0.000000 0.000000 0.000000 0.050256 0.000000 0.000000
# 5 0.000000 0.000000 0.000000 0.000000 -0.098632 0.000000
# 6 0.000000 0.000000 0.000000 0.000000 0.000000 0.017289
#
#
# Mechanical properties :
#
#
# Convention : Reuss Voigt Hill
#
# Bulk Modulus (GPa) = 10.39742 12.50152 11.44947
# Shear Modulus (GPa) = 96.10526 27.10196 61.60361
#
# Velocity S-wave (km/s) = 6.21523 3.30053 4.97607
# Velocity P-wave (km/s) = 7.46221 4.42149 6.13328
#
# Compressibility (1/GPa) = 0.09617767
#
# Stress axis : x y z
#
# Youngs Moduli (GPa) = 82.74362 48.99086 24.32013
#
# Poissons Ratio (x) = -0.23827 -0.09669
# Poissons Ratio (y) = -0.40243 -0.05938
# Poissons Ratio (z) = -0.32898 -0.11961
#
# Static dielectric constant tensor:
#      x y z
#    x 2.089040 0.000000 0.000000 
#    y 0.000000 2.169960 0.000000 
#    z 0.000000 0.000000 2.084310 
# 
# From -- ./inp_files/3313.got.cif
#   From: 2010.05.17/outbox.cif.g08.bks.cpg/sg32_2_cif.got.tgz:3313.got - 2010.06.03 17:12:27.
