data_PCOD9343928
_publ_section_title
;
Structure prediction by ZEFSAII (Michael W. Deem and Ramdas Pophale) SiO2 
 PCOD9343928
Probable space group: P B A 2
;
_chemical_formula_sum "Si O2"
_cell_formula_units_Z 32
_cell_length_a 14.237573
_cell_length_b 12.255533
_cell_length_c 9.188952
_cell_angle_alpha 90.000000
_cell_angle_beta 90.000000
_cell_angle_gamma 90.000000
_cell_volume 1603.371466
_symmetry_space_group_name_H-M "P B A 2"
_symmetry_group_IT_number 32
_symmetry_cell_setting 'orthorhombic'
loop_
_space_group_symop_operation_xyz
x,y,z
-x,-y,z
1/2-x,1/2+y,z
1/2+x,1/2-y,z
loop_
_atom_site_type_symbol
_atom_site_label
_atom_site_fract_x
_atom_site_fract_y
_atom_site_fract_z
Si Si1 0.429505 0.104485 0.574570
Si Si2 0.429505 0.104485 0.908750
Si Si3 0.720298 0.034741 0.071140
Si Si4 0.418623 0.759682 0.412618
Si Si5 0.107602 0.035867 0.912486
Si Si6 0.392398 0.535867 0.570834
Si Si7 0.279702 0.965259 0.412180
Si Si8 0.081377 0.259682 0.070701
O O1 0.409852 0.135646 0.741660
O O2 0.486312 0.196906 0.488584
O O3 0.500000 0.000000 0.577763
O O4 0.338218 0.061652 0.490623
O O5 0.500000 0.000000 0.905557
O O6 0.338218 0.061652 0.992696
O O7 0.486312 0.196906 0.994736
O O8 0.731819 0.010632 0.241660
O O9 0.657891 0.143663 0.057629
O O10 0.819698 0.043724 0.992021
O O11 0.383586 0.652859 0.494305
O O12 0.342109 0.856337 0.425691
O O13 0.434135 0.738962 0.241660
O O14 0.129470 0.042166 0.741660
O O15 0.116414 0.152859 0.989014
O O16 0.000000 0.000000 0.929161
O O17 0.500000 0.500000 0.554159
O O18 0.319698 0.456276 0.491298
#
# Coordination Sequence:
#
# PCOD9343928 Si02
#       8
#     4   4   4   4   4   4   4   4
#     4   9  17  32  57  87 117 149 188 235 284 338
#     4   9  17  32  57  87 117 149 188 235 284 338
#     4  10  21  38  61  88 116 151 196 242 291 348
#     4  10  21  38  61  88 119 154 193 241 294 347
#     4  11  25  42  59  83 117 156 197 242 293 348
#     4  11  25  42  59  83 117 156 197 242 293 348
#     4  10  21  38  61  88 116 151 196 242 291 348
#     4  10  21  38  61  88 119 154 193 241 294 347
#
# _framework density 19.957944999999999
#
# number of rings (size 3 to 8) (size 9 to 14) (size 15 to 20)
#    0.000    2.000    0.000    3.000    0.000   10.000 
#    0.000    5.000    0.000    0.000    0.000    0.000 
#    0.000    0.000    0.000    0.000    0.000    0.000 
#
# Total GULP energy -178840.901676 kJ/mol
# GULP energy per Si atom -5588.778177 kJ/mol
# Density = 1.991252 g / cm^3
# Si number density = 19.957945 Si / 1000 Ang^3
#
#
#
# Elastic Constant Matrix: (Units=GPa)
#
#
# Indices 1 2 3 4 5 6 
#
# 1 75.8194 12.9122 80.9497 0.0000 0.0000 0.0000
# 2 12.9122 32.0480 43.0000 0.0000 0.0000 0.0000
# 3 80.9497 43.0000 190.4094 0.0000 0.0000 0.0000
# 4 0.0000 0.0000 0.0000 23.8435 0.0000 0.0000
# 5 0.0000 0.0000 0.0000 0.0000 36.4013 0.0000
# 6 0.0000 0.0000 0.0000 0.0000 0.0000 10.8212
#
#
#
# Elastic Compliance Matrix: (Units=1/GPa)
#
#
# Indices 1 2 3 4 5 6 
#
# 1 0.024929 0.005991 -0.011951 0.000000 0.000000 0.000000
# 2 0.005991 0.046208 -0.012982 0.000000 0.000000 0.000000
# 3 -0.011951 -0.012982 0.013264 0.000000 0.000000 0.000000
# 4 0.000000 0.000000 0.000000 0.041940 0.000000 0.000000
# 5 0.000000 0.000000 0.000000 0.000000 0.027472 0.000000
# 6 0.000000 0.000000 0.000000 0.000000 0.000000 0.092411
#
#
# Mechanical properties :
#
#
# Convention : Reuss Voigt Hill
#
# Bulk Modulus (GPa) = 21.49739 63.55564 42.52651
# Shear Modulus (GPa) = 16.68815 24.97419 20.83117
#
# Velocity S-wave (km/s) = 2.89479 3.54127 3.23422
# Velocity P-wave (km/s) = 4.68698 6.97386 5.94148
#
# Compressibility (1/GPa) = 0.04651728
#
# Stress axis : x y z
#
# Youngs Moduli (GPa) = 40.11456 21.64119 75.38950
#
# Poissons Ratio (x) = -0.12966 0.90098
# Poissons Ratio (y) = -0.24034 0.97873
# Poissons Ratio (z) = 0.47941 0.28095
#
# Static dielectric constant tensor:
#      x y z
#    x 1.709090 0.000000 0.000000 
#    y 0.000000 1.713290 0.000000 
#    z 0.000000 0.000000 1.666630 
# 
# From -- ./inp_files/2877.got.cif
#   From: 2010.05.17/outbox.cif.g08.bks.cpg/sg32_2_cif.got.tgz:2877.got - 2010.06.03 17:12:27.
