data_PCOD9343167
_publ_section_title
;
Structure prediction by ZEFSAII (Michael W. Deem and Ramdas Pophale) SiO2 
 PCOD9343167
Probable space group: P M N 21
;
_chemical_formula_sum "Si O2"
_cell_formula_units_Z 24
_cell_length_a 16.259496
_cell_length_b 8.752139
_cell_length_c 9.028027
_cell_angle_alpha 90.000000
_cell_angle_beta 90.000000
_cell_angle_gamma 90.000000
_cell_volume 1284.736714
_symmetry_space_group_name_H-M "P M N 21"
_symmetry_group_IT_number 31
_symmetry_cell_setting 'orthorhombic'
loop_
_space_group_symop_operation_xyz
x,y,z
1/2-x,-y,1/2+z
-x,y,z
1/2+x,-y,1/2+z
loop_
_atom_site_type_symbol
_atom_site_label
_atom_site_fract_x
_atom_site_fract_y
_atom_site_fract_z
Si Si1 0.335953 0.938773 0.356740
Si Si2 0.165376 0.426426 0.840366
Si Si3 0.500000 0.401350 0.350505
Si Si4 0.166925 0.929894 0.524693
Si Si5 0.000000 0.928336 0.004724
Si Si6 0.000000 0.586383 0.487901
Si Si7 0.500000 0.076291 0.859842
Si Si8 0.326559 0.441474 0.016775
O O1 0.340487 0.755623 0.347493
O O2 0.250818 0.978444 0.441544
O O3 0.335249 0.008316 0.191723
O O4 0.416652 0.996037 0.442435
O O5 0.081357 0.505024 0.891697
O O6 0.178919 0.481039 0.674349
O O7 0.245267 0.479057 0.928492
O O8 0.500000 0.241933 0.435836
O O9 0.500000 0.384231 0.168453
O O10 0.084599 0.981429 0.436367
O O11 0.167597 0.743711 0.529702
O O12 0.000000 0.938404 0.182948
O O13 0.000000 0.744320 0.400337
O O14 0.085756 0.505918 0.450821
#
# Coordination Sequence:
#
# PCOD9343167 Si02
#       8
#     4   4   2   4   2   2   2   4
#     4  11  22  37  59  88 120 154 193 241 288 341
#     4  10  21  36  57  84 115 149 192 236 283 339
#     4  10  21  38  59  80 109 152 194 236 292 350
#     4  10  21  38  59  85 117 153 195 240 287 343
#     4  12  23  37  60  85 114 155 195 240 296 346
#     4   8  16  35  55  75 105 143 187 232 275 332
#     4  10  20  36  58  84 110 148 198 236 279 346
#     4   9  19  35  56  81 112 149 189 234 282 342
#
# _framework density 18.680869999999999
#
# number of rings (size 3 to 8) (size 9 to 14) (size 15 to 20)
#    0.000    2.000    0.000    5.000    0.000    6.667 
#    0.000    0.000    0.000    6.000    0.000    0.000 
#    0.000    0.000    0.000    0.000    0.000    0.000 
#
# Total GULP energy -133895.983132 kJ/mol
# GULP energy per Si atom -5578.999297 kJ/mol
# Density = 1.863835 g / cm^3
# Si number density = 18.680870 Si / 1000 Ang^3
#
#
#
# Elastic Constant Matrix: (Units=GPa)
#
#
# Indices 1 2 3 4 5 6 
#
# 1 239.2244 48.6493 98.2905 0.0000 0.0000 0.0000
# 2 48.6493 29.5250 25.1932 0.0000 0.0000 0.0000
# 3 98.2905 25.1932 116.2471 0.0000 0.0000 0.0000
# 4 0.0000 0.0000 0.0000 24.4980 0.0000 0.0000
# 5 0.0000 0.0000 0.0000 0.0000 39.8809 0.0000
# 6 0.0000 0.0000 0.0000 0.0000 0.0000 24.7870
#
#
#
# Elastic Compliance Matrix: (Units=1/GPa)
#
#
# Indices 1 2 3 4 5 6 
#
# 1 0.007998 -0.009088 -0.004792 0.000000 0.000000 0.000000
# 2 -0.009088 0.051882 -0.003559 0.000000 0.000000 0.000000
# 3 -0.004792 -0.003559 0.013426 0.000000 0.000000 0.000000
# 4 0.000000 0.000000 0.000000 0.040820 0.000000 0.000000
# 5 0.000000 0.000000 0.000000 0.000000 0.025075 0.000000
# 6 0.000000 0.000000 0.000000 0.000000 0.000000 0.040344
#
#
# Mechanical properties :
#
#
# Convention : Reuss Voigt Hill
#
# Bulk Modulus (GPa) = 26.02474 81.02915 53.52695
# Shear Modulus (GPa) = 22.00388 32.02409 27.01399
#
# Velocity S-wave (km/s) = 3.43575 4.14487 3.80686
# Velocity P-wave (km/s) = 5.44983 8.14716 6.93098
#
# Compressibility (1/GPa) = 0.03842497
#
# Stress axis : x y z
#
# Youngs Moduli (GPa) = 125.03868 19.27445 74.48253
#
# Poissons Ratio (x) = 0.17517 0.35696
# Poissons Ratio (y) = 1.13641 0.26511
# Poissons Ratio (z) = 0.59925 0.06861
#
# Static dielectric constant tensor:
#      x y z
#    x 1.696440 0.000000 0.000000 
#    y 0.000000 1.629480 0.000000 
#    z 0.000000 0.000000 1.622970 
# 
# From -- ./inp_files/2467.got.cif
#   From: 2010.05.17/outbox.cif.g08.bks.cpg/sg31_2_cif.got.tgz:2467.got - 2010.06.03 17:08:30.
