data_PCOD9343097
_publ_section_title
;
Structure prediction by ZEFSAII (Michael W. Deem and Ramdas Pophale) SiO2 
 PCOD9343097
Probable space group: P M N 21
;
_chemical_formula_sum "Si O2"
_cell_formula_units_Z 24
_cell_length_a 7.656980
_cell_length_b 14.732829
_cell_length_c 8.146067
_cell_angle_alpha 90.000000
_cell_angle_beta 90.000000
_cell_angle_gamma 90.000000
_cell_volume 918.949485
_symmetry_space_group_name_H-M "P M N 21"
_symmetry_group_IT_number 31
_symmetry_cell_setting 'orthorhombic'
loop_
_space_group_symop_operation_xyz
x,y,z
1/2-x,-y,1/2+z
-x,y,z
1/2+x,-y,1/2+z
loop_
_atom_site_type_symbol
_atom_site_label
_atom_site_fract_x
_atom_site_fract_y
_atom_site_fract_z
Si Si1 0.702713 0.357538 0.337680
Si Si2 0.704750 0.139126 0.660615
Si Si3 0.793124 0.307901 0.822710
Si Si4 0.288161 0.968312 0.831527
Si Si5 0.786351 0.474643 0.017955
Si Si6 0.297156 0.807154 0.626333
O O1 0.500000 0.337296 0.371450
O O2 0.716414 0.424378 0.178624
O O3 0.773921 0.422841 0.481585
O O4 0.788600 0.265010 0.276554
O O5 0.500000 0.146662 0.682938
O O6 0.768425 0.242509 0.667753
O O7 0.737577 0.083298 0.495769
O O8 0.777427 0.070180 0.800031
O O9 0.000000 0.315545 0.844671
O O10 0.728574 0.408391 0.866456
O O11 0.718408 0.244765 0.970992
O O12 0.500000 0.970073 0.824980
O O13 0.220988 0.901872 0.686583
O O14 0.000000 0.477185 0.026542
O O15 0.500000 0.822468 0.589865
#
# Coordination Sequence:
#
# PCOD9343097 Si02
#       6
#     4   4   4   4   4   4
#     4  10  20  34  55  82 108 138 180 226 266 307
#     4  11  23  37  56  83 109 136 177 224 263 306
#     4   9  18  36  58  77 105 144 179 214 263 322
#     4  10  22  39  57  78 108 145 177 210 264 325
#     4   9  20  37  54  76 109 146 179 214 265 324
#     4   9  19  37  58  78 105 143 180 214 263 324
#
# _framework density 26.116779000000001
#
# number of rings (size 3 to 8) (size 9 to 14) (size 15 to 20)
#    0.000    2.333    0.000    3.000    0.000    8.667 
#    0.000    5.000    0.000    0.000    0.000    0.000 
#    0.000    0.000    0.000    0.000    0.000    0.000 
#
# Total GULP energy -134138.245021 kJ/mol
# GULP energy per Si atom -5589.093543 kJ/mol
# Density = 2.605734 g / cm^3
# Si number density = 26.116779 Si / 1000 Ang^3
#
#
#
# Elastic Constant Matrix: (Units=GPa)
#
#
# Indices 1 2 3 4 5 6 
#
# 1 66.9200 6.0276 -14.8996 0.0000 0.0000 0.0000
# 2 6.0276 167.8566 0.2367 0.0000 0.0000 0.0000
# 3 -14.8996 0.2367 52.4539 0.0000 0.0000 0.0000
# 4 0.0000 0.0000 0.0000 50.6544 0.0000 0.0000
# 5 0.0000 0.0000 0.0000 0.0000 17.7033 0.0000
# 6 0.0000 0.0000 0.0000 0.0000 0.0000 60.0645
#
#
#
# Elastic Compliance Matrix: (Units=1/GPa)
#
#
# Indices 1 2 3 4 5 6 
#
# 1 0.016009 -0.000581 0.004550 0.000000 0.000000 0.000000
# 2 -0.000581 0.005979 -0.000192 0.000000 0.000000 0.000000
# 3 0.004550 -0.000192 0.020358 0.000000 0.000000 0.000000
# 4 0.000000 0.000000 0.000000 0.019742 0.000000 0.000000
# 5 0.000000 0.000000 0.000000 0.000000 0.056487 0.000000
# 6 0.000000 0.000000 0.000000 0.000000 0.000000 0.016649
#
#
# Mechanical properties :
#
#
# Convention : Reuss Voigt Hill
#
# Bulk Modulus (GPa) = 20.04093 29.99555 25.01824
# Shear Modulus (GPa) = 34.64968 45.40883 40.02925
#
# Velocity S-wave (km/s) = 3.64637 4.17428 3.91922
# Velocity P-wave (km/s) = 5.04165 5.89431 5.48458
#
# Compressibility (1/GPa) = 0.04989789
#
# Stress axis : x y z
#
# Youngs Moduli (GPa) = 62.46647 167.26301 49.12160
#
# Poissons Ratio (x) = 0.09723 -0.22350
# Poissons Ratio (y) = 0.03631 0.00944
# Poissons Ratio (z) = -0.28422 0.03213
#
# Static dielectric constant tensor:
#      x y z
#    x 1.927920 0.000000 0.000000 
#    y 0.000000 2.081370 0.000000 
#    z 0.000000 0.000000 2.196030 
# 
# From -- ./inp_files/1685.got.cif
#   From: 2010.05.17/outbox.cif.g08.bks.cpg/sg31_1_cif.got.tgz:1685.got - 2010.06.03 17:08:30.
