data_PCOD9343823
_publ_section_title
;
Structure prediction by ZEFSAII (Michael W. Deem and Ramdas Pophale) SiO2 
 PCOD9343823
Probable space group: P B A 2
;
_chemical_formula_sum "Si O2"
_cell_formula_units_Z 32
_cell_length_a 8.860929
_cell_length_b 18.812249
_cell_length_c 8.147752
_cell_angle_alpha 90.000000
_cell_angle_beta 90.000000
_cell_angle_gamma 90.000000
_cell_volume 1358.181394
_symmetry_space_group_name_H-M "P B A 2"
_symmetry_group_IT_number 32
_symmetry_cell_setting 'orthorhombic'
loop_
_space_group_symop_operation_xyz
x,y,z
-x,-y,z
1/2-x,1/2+y,z
1/2+x,1/2-y,z
loop_
_atom_site_type_symbol
_atom_site_label
_atom_site_fract_x
_atom_site_fract_y
_atom_site_fract_z
Si Si1 0.152634 0.424328 0.291020
Si Si2 0.176694 0.797615 0.678944
Si Si3 0.146422 0.952936 0.608025
Si Si4 0.961733 0.702182 0.887791
Si Si5 0.944829 0.839558 0.093712
Si Si6 0.152537 0.956384 0.980995
Si Si7 0.173555 0.780292 0.318141
Si Si8 0.869961 0.373317 0.155242
O O1 0.231779 0.451727 0.459166
O O2 0.227217 0.459075 0.128441
O O3 0.200945 0.340168 0.279702
O O4 0.970759 0.420987 0.276332
O O5 0.094289 0.870982 0.631867
O O6 0.332196 0.819633 0.763752
O O7 0.092444 0.740959 0.788404
O O8 0.201403 0.761217 0.504847
O O9 0.000000 0.000000 0.566622
O O10 0.200961 0.973585 0.793558
O O11 0.902724 0.766272 0.003565
O O12 0.028304 0.638485 0.994076
O O13 0.082267 0.876038 0.994390
O O14 0.017850 0.820507 0.269078
O O15 0.800937 0.890414 0.106819
O O16 0.000000 0.000000 0.014264
O O17 0.158035 0.706159 0.225209
#
# Coordination Sequence:
#
# PCOD9343823 Si02
#       8
#     4   4   4   4   4   4   4   4
#     4  10  21  37  58  85 119 157 202 248 307 362
#     4  11  22  35  57  90 123 157 197 256 306 365
#     4  10  21  38  61  89 116 155 215 259 290 355
#     4  11  21  35  56  88 126 158 198 242 316 373
#     4  10  20  37  55  87 119 162 199 249 304 371
#     4  10  20  39  65  84 110 157 213 256 299 362
#     4   9  21  34  55  82 120 159 200 236 302 373
#     4  11  21  35  55  85 124 162 187 249 313 374
#
# _framework density 23.560918999999998
#
# number of rings (size 3 to 8) (size 9 to 14) (size 15 to 20)
#    0.000    1.750    2.500    2.625    7.000    0.000 
#    0.000    0.625    0.000    0.000    0.000   16.625 
#    0.000    0.000    0.000    0.000    0.000    0.000 
#
# Total GULP energy -178653.187210 kJ/mol
# GULP energy per Si atom -5582.912100 kJ/mol
# Density = 2.350729 g / cm^3
# Si number density = 23.560919 Si / 1000 Ang^3
#
#
#
# Elastic Constant Matrix: (Units=GPa)
#
#
# Indices 1 2 3 4 5 6 
#
# 1 105.7653 -4.1552 64.8453 0.0000 0.0000 0.0000
# 2 -4.1552 30.2696 7.3658 0.0000 0.0000 0.0000
# 3 64.8453 7.3658 137.6989 0.0000 0.0000 0.0000
# 4 0.0000 0.0000 0.0000 20.9091 0.0000 0.0000
# 5 0.0000 0.0000 0.0000 0.0000 25.1922 0.0000
# 6 0.0000 0.0000 0.0000 0.0000 0.0000 28.9164
#
#
#
# Elastic Compliance Matrix: (Units=1/GPa)
#
#
# Indices 1 2 3 4 5 6 
#
# 1 0.013646 0.003482 -0.006612 0.000000 0.000000 0.000000
# 2 0.003482 0.034361 -0.003478 0.000000 0.000000 0.000000
# 3 -0.006612 -0.003478 0.010562 0.000000 0.000000 0.000000
# 4 0.000000 0.000000 0.000000 0.047826 0.000000 0.000000
# 5 0.000000 0.000000 0.000000 0.000000 0.039695 0.000000
# 6 0.000000 0.000000 0.000000 0.000000 0.000000 0.034582
#
#
# Mechanical properties :
#
#
# Convention : Reuss Voigt Hill
#
# Bulk Modulus (GPa) = 22.04937 45.53840 33.79388
# Shear Modulus (GPa) = 23.92279 28.71540 26.31910
#
# Velocity S-wave (km/s) = 3.18993 3.49488 3.34588
# Velocity P-wave (km/s) = 4.79023 5.97122 5.41303
#
# Compressibility (1/GPa) = 0.04535277
#
# Stress axis : x y z
#
# Youngs Moduli (GPa) = 73.28272 29.10290 94.67760
#
# Poissons Ratio (x) = -0.10134 0.62604
# Poissons Ratio (y) = -0.25519 0.32928
# Poissons Ratio (z) = 0.48457 0.10122
#
# Static dielectric constant tensor:
#      x y z
#    x 1.910450 0.000000 0.000000 
#    y 0.000000 1.959610 0.000000 
#    z 0.000000 0.000000 1.913130 
# 
# From -- ./inp_files/2615.got.cif
#   From: 2010.05.17/outbox.cif.g08.bks.cpg/sg32_2_cif.got.tgz:2615.got - 2010.06.03 17:12:27.
