data_PCOD9343774
_publ_section_title
;
Structure prediction by ZEFSAII (Michael W. Deem and Ramdas Pophale) SiO2 
 PCOD9343774
Probable space group: P B A 2
;
_chemical_formula_sum "Si O2"
_cell_formula_units_Z 26
_cell_length_a 12.125175
_cell_length_b 18.606905
_cell_length_c 4.882362
_cell_angle_alpha 90.000000
_cell_angle_beta 90.000000
_cell_angle_gamma 90.000000
_cell_volume 1101.519355
_symmetry_space_group_name_H-M "P B A 2"
_symmetry_group_IT_number 32
_symmetry_cell_setting 'orthorhombic'
loop_
_space_group_symop_operation_xyz
x,y,z
-x,-y,z
1/2-x,1/2+y,z
1/2+x,1/2-y,z
loop_
_atom_site_type_symbol
_atom_site_label
_atom_site_fract_x
_atom_site_fract_y
_atom_site_fract_z
Si Si1 0.175864 0.040141 0.814750
Si Si2 0.500000 0.000000 0.163856
Si Si3 0.799931 0.114571 0.543549
Si Si4 0.704835 0.902862 0.324247
Si Si5 0.335533 0.874661 0.027798
Si Si6 0.867001 0.779245 0.275633
Si Si7 0.017663 0.161082 0.775298
O O1 0.264436 0.086085 0.640021
O O2 0.061357 0.079507 0.757142
O O3 0.179502 0.962637 0.681244
O O4 0.213719 0.050352 0.127171
O O5 0.414845 0.058971 0.296935
O O6 0.584457 0.056314 0.025214
O O7 0.770669 0.109728 0.225235
O O8 0.898239 0.165064 0.643036
O O9 0.694346 0.140071 0.715218
O O10 0.748249 0.821667 0.247038
O O11 0.374416 0.801254 0.166833
O O12 0.903487 0.790962 0.586014
O O13 0.958137 0.819427 0.087484
#
# Coordination Sequence:
#
# PCOD9343774 Si02
#       7
#     4   2   4   4   4   4   4
#     4  10  19  40  60  99 123 164 206 280 322 397
#     4  12  24  44  64  98 124 190 212 274 316 412
#     4  12  22  41  64 100 125 169 211 288 326 398
#     4  10  22  38  66  86 135 166 222 264 332 378
#     4  12  27  41  67  92 142 169 232 268 336 386
#     4  10  23  46  60  99 127 178 216 282 324 413
#     4  10  22  39  72  90 132 165 223 264 351 385
#
# _framework density 23.603764000000002
#
# number of rings (size 3 to 8) (size 9 to 14) (size 15 to 20)
#    0.000    1.231    3.077    2.308    0.000    4.923 
#    0.000    6.154    0.000    0.000    0.000    0.000 
#    0.000    0.000    0.000    0.000    0.000    0.000 
#
# Total GULP energy -144864.118953 kJ/mol
# GULP energy per Si atom -5571.696883 kJ/mol
# Density = 2.355004 g / cm^3
# Si number density = 23.603764 Si / 1000 Ang^3
#
#
#
# Elastic Constant Matrix: (Units=GPa)
#
#
# Indices 1 2 3 4 5 6 
#
# 1 91.6527 11.5327 0.1087 0.0000 0.0000 0.0000
# 2 11.5327 103.7985 -5.4728 0.0000 0.0000 0.0000
# 3 0.1087 -5.4728 86.3703 0.0000 0.0000 0.0000
# 4 0.0000 0.0000 0.0000 15.6005 0.0000 0.0000
# 5 0.0000 0.0000 0.0000 0.0000 9.1740 0.0000
# 6 0.0000 0.0000 0.0000 0.0000 0.0000 -18.3808
#
#
#
# Elastic Compliance Matrix: (Units=1/GPa)
#
#
# Indices 1 2 3 4 5 6 
#
# 1 0.011066 -0.001234 -0.000092 0.000000 0.000000 0.000000
# 2 -0.001234 0.009804 0.000623 0.000000 0.000000 0.000000
# 3 -0.000092 0.000623 0.011618 0.000000 0.000000 0.000000
# 4 0.000000 0.000000 0.000000 0.064101 0.000000 0.000000
# 5 0.000000 0.000000 0.000000 0.000000 0.109003 0.000000
# 6 0.000000 0.000000 0.000000 0.000000 0.000000 -0.054405
#
#
# Mechanical properties :
#
#
# Convention : Reuss Voigt Hill
#
# Bulk Modulus (GPa) = 32.17465 32.68430 32.42948
# Shear Modulus (GPa) = 30.68335 19.65560 25.16947
#
# Velocity S-wave (km/s) = 3.60937 2.88884 3.26902
# Velocity P-wave (km/s) = 5.57053 5.00043 5.29316
#
# Compressibility (1/GPa) = 0.03108036
#
# Stress axis : x y z
#
# Youngs Moduli (GPa) = 90.36533 101.99885 86.07601
#
# Poissons Ratio (x) = 0.12591 0.00793
# Poissons Ratio (y) = 0.11155 -0.05361
# Poissons Ratio (z) = 0.00833 -0.06352
#
# Static dielectric constant tensor:
#      x y z
#    x 1.961570 0.000000 0.000000 
#    y 0.000000 1.960360 0.000000 
#    z 0.000000 0.000000 1.810450 
# 
# From -- ./inp_files/911.got.cif
#   From: 2010.05.17/outbox.cif.g08.bks.cpg/sg32_1_cif.got.tgz:911.got - 2010.06.03 17:12:27.
