data_PCOD9343860
_publ_section_title
;
Structure prediction by ZEFSAII (Michael W. Deem and Ramdas Pophale) SiO2 
 PCOD9343860
Probable space group: P B A 2
;
_chemical_formula_sum "Si O2"
_cell_formula_units_Z 20
_cell_length_a 14.403440
_cell_length_b 10.894141
_cell_length_c 4.898474
_cell_angle_alpha 90.000000
_cell_angle_beta 90.000000
_cell_angle_gamma 90.000000
_cell_volume 768.634771
_symmetry_space_group_name_H-M "P B A 2"
_symmetry_group_IT_number 32
_symmetry_cell_setting 'orthorhombic'
loop_
_space_group_symop_operation_xyz
x,y,z
-x,-y,z
1/2-x,1/2+y,z
1/2+x,1/2-y,z
loop_
_atom_site_type_symbol
_atom_site_label
_atom_site_fract_x
_atom_site_fract_y
_atom_site_fract_z
Si Si1 0.214421 0.592990 0.747540
Si Si2 0.712829 0.733391 0.246950
Si Si3 0.093762 0.119415 0.906346
Si Si4 0.881528 0.637518 0.575053
Si Si5 0.484907 0.321526 0.424063
O O1 0.223631 0.649337 0.447561
O O2 0.314943 0.540183 0.844400
O O3 0.136630 0.489234 0.725432
O O4 0.193428 0.703936 0.955291
O O5 0.801724 0.653773 0.343171
O O6 0.618637 0.666113 0.328768
O O7 0.129563 0.254278 0.801406
O O8 0.003215 0.118892 0.716171
O O9 0.058605 0.120591 0.213113
O O10 0.980457 0.678953 0.448456
#
# Coordination Sequence:
#
# PCOD9343860 Si02
#       5
#     4   4   4   4   4
#     4  11  21  38  63  89 123 167 214 260 323 391
#     4  11  23  39  63  90 123 171 211 257 334 381
#     4   9  19  39  56  84 123 161 203 266 313 377
#     4   9  23  38  62  88 129 162 209 266 318 381
#     4  10  20  40  58  86 129 159 209 269 316 373
#
# _framework density 26.020160000000001
#
# number of rings (size 3 to 8) (size 9 to 14) (size 15 to 20)
#    1.200    0.800    2.000    1.200    2.800    0.800 
#    0.000    1.000    0.000    2.400    0.000    0.000 
#    0.000    0.000    0.000    0.000    0.000    0.000 
#
# Total GULP energy -111636.001965 kJ/mol
# GULP energy per Si atom -5581.800098 kJ/mol
# Density = 2.596094 g / cm^3
# Si number density = 26.020160 Si / 1000 Ang^3
#
#
#
# Elastic Constant Matrix: (Units=GPa)
#
#
# Indices 1 2 3 4 5 6 
#
# 1 97.1849 11.6461 -0.5425 0.0000 0.0000 0.0000
# 2 11.6461 58.0314 0.0257 0.0000 0.0000 0.0000
# 3 -0.5425 0.0257 61.8982 0.0000 0.0000 0.0000
# 4 0.0000 0.0000 0.0000 1.1874 0.0000 0.0000
# 5 0.0000 0.0000 0.0000 0.0000 33.9524 0.0000
# 6 0.0000 0.0000 0.0000 0.0000 0.0000 31.1451
#
#
#
# Elastic Compliance Matrix: (Units=1/GPa)
#
#
# Indices 1 2 3 4 5 6 
#
# 1 0.010544 -0.002116 0.000093 0.000000 0.000000 0.000000
# 2 -0.002116 0.017657 -0.000026 0.000000 0.000000 0.000000
# 3 0.000093 -0.000026 0.016156 0.000000 0.000000 0.000000
# 4 0.000000 0.000000 0.000000 0.842173 0.000000 0.000000
# 5 0.000000 0.000000 0.000000 0.000000 0.029453 0.000000
# 6 0.000000 0.000000 0.000000 0.000000 0.000000 0.032108
#
#
# Mechanical properties :
#
#
# Convention : Reuss Voigt Hill
#
# Bulk Modulus (GPa) = 24.83879 26.59702 25.71791
# Shear Modulus (GPa) = 5.17808 26.98932 16.08370
#
# Velocity S-wave (km/s) = 1.41221 3.22413 2.48891
# Velocity P-wave (km/s) = 3.49655 4.90957 4.26202
#
# Compressibility (1/GPa) = 0.04025961
#
# Stress axis : x y z
#
# Youngs Moduli (GPa) = 94.84285 56.63571 61.89506
#
# Poissons Ratio (x) = 0.11984 -0.00577
# Poissons Ratio (y) = 0.20069 0.00160
# Poissons Ratio (z) = -0.00885 0.00147
#
# Static dielectric constant tensor:
#      x y z
#    x 2.148540 0.000000 0.000000 
#    y 0.000000 2.148560 0.000000 
#    z 0.000000 0.000000 2.014670 
# 
# From -- ./inp_files/1118.got.cif
#   From: 2010.05.17/outbox.cif.g08.bks.cpg/sg32_1_cif.got.tgz:1118.got - 2010.06.03 17:12:27.
