data_PCOD9343492
_publ_section_title
;
Structure prediction by ZEFSAII (Michael W. Deem and Ramdas Pophale) SiO2 
 PCOD9343492
Probable space group: P M N 21
;
_chemical_formula_sum "Si O2"
_cell_formula_units_Z 20
_cell_length_a 10.342566
_cell_length_b 5.217486
_cell_length_c 17.856253
_cell_angle_alpha 90.000000
_cell_angle_beta 90.000000
_cell_angle_gamma 90.000000
_cell_volume 963.562576
_symmetry_space_group_name_H-M "P M N 21"
_symmetry_group_IT_number 31
_symmetry_cell_setting 'orthorhombic'
loop_
_space_group_symop_operation_xyz
x,y,z
1/2-x,-y,1/2+z
-x,y,z
1/2+x,-y,1/2+z
loop_
_atom_site_type_symbol
_atom_site_label
_atom_site_fract_x
_atom_site_fract_y
_atom_site_fract_z
Si Si1 0.649603 0.769279 0.497510
Si Si2 0.353190 0.571565 0.720973
Si Si3 0.144936 0.327728 0.824102
Si Si4 0.363809 0.044472 0.185483
Si Si5 0.726048 0.281982 0.581802
O O1 0.500000 0.699282 0.513847
O O2 0.667538 0.764473 0.408262
O O3 0.733375 0.540807 0.533696
O O4 0.673332 0.050568 0.531074
O O5 0.500000 0.643726 0.739475
O O6 0.264550 0.490879 0.791638
O O7 0.265113 0.788708 0.682757
O O8 0.355358 0.353110 0.656713
O O9 0.000000 0.451940 0.822739
O O10 0.137641 0.095003 0.765437
O O11 0.500000 0.188687 0.177294
O O12 0.353561 0.831090 0.120944
#
# Coordination Sequence:
#
# PCOD9343492 Si02
#       5
#     4   4   4   4   4
#     4  11  22  39  65  96 128 163 213 270 322 378
#     4  11  22  39  66  97 132 169 215 266 321 382
#     4   9  22  40  63  91 124 169 216 266 319 381
#     4  10  22  42  66  94 131 172 219 262 316 386
#     4  11  23  40  64  96 125 165 211 268 320 375
#
# _framework density 20.756302999999999
#
# number of rings (size 3 to 8) (size 9 to 14) (size 15 to 20)
#    0.000    1.600    2.000    2.400    2.800    4.800 
#    0.000    2.000    0.000    0.000    0.000    0.000 
#    0.000    0.000    0.000    0.000    0.000    0.000 
#
# Total GULP energy -111477.103343 kJ/mol
# GULP energy per Si atom -5573.855167 kJ/mol
# Density = 2.070906 g / cm^3
# Si number density = 20.756303 Si / 1000 Ang^3
#
#
#
# Elastic Constant Matrix: (Units=GPa)
#
#
# Indices 1 2 3 4 5 6 
#
# 1 152.6786 35.6548 30.4195 0.0000 0.0000 0.0000
# 2 35.6548 90.4804 32.3984 0.0000 0.0000 0.0000
# 3 30.4195 32.3984 124.8391 0.0000 0.0000 0.0000
# 4 0.0000 0.0000 0.0000 26.3690 0.0000 0.0000
# 5 0.0000 0.0000 0.0000 0.0000 -28.3284 0.0000
# 6 0.0000 0.0000 0.0000 0.0000 0.0000 19.9895
#
#
#
# Elastic Compliance Matrix: (Units=1/GPa)
#
#
# Indices 1 2 3 4 5 6 
#
# 1 0.007360 -0.002489 -0.001147 0.000000 0.000000 0.000000
# 2 -0.002489 0.013026 -0.002774 0.000000 0.000000 0.000000
# 3 -0.001147 -0.002774 0.009010 0.000000 0.000000 0.000000
# 4 0.000000 0.000000 0.000000 0.037923 0.000000 0.000000
# 5 0.000000 0.000000 0.000000 0.000000 -0.035300 0.000000
# 6 0.000000 0.000000 0.000000 0.000000 0.000000 0.050026
#
#
# Mechanical properties :
#
#
# Convention : Reuss Voigt Hill
#
# Bulk Modulus (GPa) = 60.33376 62.77149 61.55262
# Shear Modulus (GPa) = 49.80515 21.57439 35.68977
#
# Velocity S-wave (km/s) = 4.90380 3.22749 4.15114
# Velocity P-wave (km/s) = 7.82265 6.64806 7.25915
#
# Compressibility (1/GPa) = 0.01657447
#
# Stress axis : x y z
#
# Youngs Moduli (GPa) = 135.87662 76.76740 110.99035
#
# Poissons Ratio (x) = 0.19110 0.12734
# Poissons Ratio (y) = 0.33824 0.30789
# Poissons Ratio (z) = 0.15589 0.21296
#
# Static dielectric constant tensor:
#      x y z
#    x 1.796330 0.000000 0.000000 
#    y 0.000000 1.807420 0.000000 
#    z 0.000000 0.000000 1.732100 
# 
# From -- ./inp_files/5627.got.cif
#   From: 2010.05.17/outbox.cif.g08.bks.cpg/sg31_3_cif.got.tgz:5627.got - 2010.06.03 17:08:30.
