data_PCOD9343291
_publ_section_title
;
Structure prediction by ZEFSAII (Michael W. Deem and Ramdas Pophale) SiO2 
 PCOD9343291
Probable space group: P M N 21
;
_chemical_formula_sum "Si O2"
_cell_formula_units_Z 32
_cell_length_a 7.435567
_cell_length_b 12.561581
_cell_length_c 15.034027
_cell_angle_alpha 90.000000
_cell_angle_beta 90.000000
_cell_angle_gamma 90.000000
_cell_volume 1404.215363
_symmetry_space_group_name_H-M "P M N 21"
_symmetry_group_IT_number 31
_symmetry_cell_setting 'orthorhombic'
loop_
_space_group_symop_operation_xyz
x,y,z
1/2-x,-y,1/2+z
-x,y,z
1/2+x,-y,1/2+z
loop_
_atom_site_type_symbol
_atom_site_label
_atom_site_fract_x
_atom_site_fract_y
_atom_site_fract_z
Si Si1 0.216917 0.972013 0.826510
Si Si2 0.781285 0.498843 0.148484
Si Si3 0.779215 0.211849 0.841776
Si Si4 0.295075 0.740486 0.145962
Si Si5 0.293089 0.686081 0.517462
Si Si6 0.712346 0.778494 0.958403
Si Si7 0.781651 0.351413 0.299729
Si Si8 0.793911 0.842566 0.666503
O O1 0.268514 0.883181 0.898340
O O2 0.281997 0.937915 0.727366
O O3 0.000000 0.970170 0.820921
O O4 0.272926 0.089064 0.854992
O O5 0.707025 0.614297 0.129293
O O6 0.728834 0.457601 0.247398
O O7 0.000000 0.502893 0.146260
O O8 0.718030 0.409941 0.077397
O O9 0.715821 0.242725 0.743433
O O10 0.713265 0.285944 0.921939
O O11 0.000000 0.216836 0.844107
O O12 0.500000 0.781739 0.153303
O O13 0.210670 0.789599 0.057035
O O14 0.500000 0.656505 0.503107
O O15 0.290609 0.793343 0.577963
O O16 0.500000 0.758947 0.970563
O O17 0.781426 0.679753 0.898215
O O18 0.716533 0.255685 0.236248
O O19 0.000000 0.347271 0.299294
O O20 0.000000 0.866919 0.644325
#
# Coordination Sequence:
#
# PCOD9343291 Si02
#       8
#     4   4   4   4   4   4   4   4
#     4   9  18  33  53  75 100 131 165 204 247 291
#     4   9  18  32  50  72  98 129 167 210 250 288
#     4   9  19  36  53  71 100 136 170 200 240 299
#     4  10  21  35  51  73 102 134 166 203 249 298
#     4   9  18  34  54  72  96 135 173 202 241 297
#     4   9  18  33  53  76 101 131 167 205 247 297
#     4   8  15  30  50  71  98 131 164 197 240 295
#     4   9  16  27  48  78 103 121 154 207 252 283
#
# _framework density 22.788526999999998
#
# number of rings (size 3 to 8) (size 9 to 14) (size 15 to 20)
#    0.000    3.000    0.000    1.125    0.000    5.000 
#    0.000    3.125    0.000    0.000    0.000    0.000 
#    0.000    0.000    0.000    0.000    0.000    0.000 
#
# Total GULP energy -178421.270458 kJ/mol
# GULP energy per Si atom -5575.664702 kJ/mol
# Density = 2.273666 g / cm^3
# Si number density = 22.788527 Si / 1000 Ang^3
#
#
#
# Elastic Constant Matrix: (Units=GPa)
#
#
# Indices 1 2 3 4 5 6 
#
# 1 70.9363 -9.2683 -1.0726 0.0000 0.0000 0.0000
# 2 -9.2683 53.5473 31.6180 0.0000 0.0000 0.0000
# 3 -1.0726 31.6180 171.2892 0.0000 0.0000 0.0000
# 4 0.0000 0.0000 0.0000 25.4666 0.0000 0.0000
# 5 0.0000 0.0000 0.0000 0.0000 -3.7358 0.0000
# 6 0.0000 0.0000 0.0000 0.0000 0.0000 6.0058
#
#
#
# Elastic Compliance Matrix: (Units=1/GPa)
#
#
# Indices 1 2 3 4 5 6 
#
# 1 0.014450 0.002747 -0.000417 0.000000 0.000000 0.000000
# 2 0.002747 0.021482 -0.003948 0.000000 0.000000 0.000000
# 3 -0.000417 -0.003948 0.006564 0.000000 0.000000 0.000000
# 4 0.000000 0.000000 0.000000 0.039267 0.000000 0.000000
# 5 0.000000 0.000000 0.000000 0.000000 -0.267677 0.000000
# 6 0.000000 0.000000 0.000000 0.000000 0.000000 0.166506
#
#
# Mechanical properties :
#
#
# Convention : Reuss Voigt Hill
#
# Bulk Modulus (GPa) = 25.47088 37.59190 31.53139
# Shear Modulus (GPa) = -1620.36517 23.84701 -798.25908
#
# Velocity S-wave (km/s) = -26.69434 3.23839 -18.73634
# Velocity P-wave (km/s) = 30.64173 5.52401 21.31198
#
# Compressibility (1/GPa) = 0.03926052
#
# Stress axis : x y z
#
# Youngs Moduli (GPa) = 69.20523 46.55106 152.34051
#
# Poissons Ratio (x) = -0.12788 0.06346
# Poissons Ratio (y) = -0.19011 0.60145
# Poissons Ratio (z) = 0.02883 0.18379
#
# Static dielectric constant tensor:
#      x y z
#    x 1.858580 0.000000 0.000000 
#    y 0.000000 1.842740 0.000000 
#    z 0.000000 0.000000 1.895790 
# 
# From -- ./inp_files/5014.got.cif
#   From: 2010.05.17/outbox.cif.g08.bks.cpg/sg31_3_cif.got.tgz:5014.got - 2010.06.03 17:08:30.
