data_PCOD9343989
_publ_section_title
;
Structure prediction by ZEFSAII (Michael W. Deem and Ramdas Pophale) SiO2 
 PCOD9343989
Probable space group: P B A 2
;
_chemical_formula_sum "Si O2"
_cell_formula_units_Z 32
_cell_length_a 12.721915
_cell_length_b 12.885337
_cell_length_c 8.536919
_cell_angle_alpha 90.000000
_cell_angle_beta 90.000000
_cell_angle_gamma 90.000000
_cell_volume 1399.424367
_symmetry_space_group_name_H-M "P B A 2"
_symmetry_group_IT_number 32
_symmetry_cell_setting 'orthorhombic'
loop_
_space_group_symop_operation_xyz
x,y,z
-x,-y,z
1/2-x,1/2+y,z
1/2+x,1/2-y,z
loop_
_atom_site_type_symbol
_atom_site_label
_atom_site_fract_x
_atom_site_fract_y
_atom_site_fract_z
Si Si1 0.289453 0.138913 0.202710
Si Si2 0.991715 0.641208 0.358820
Si Si3 0.607295 0.300059 0.809012
Si Si4 0.663253 0.166532 0.095513
Si Si5 0.172001 0.991919 0.418134
Si Si6 0.724550 0.971266 0.905745
Si Si7 0.519483 0.352024 0.513581
Si Si8 0.353531 0.905532 0.625931
O O1 0.386716 0.132945 0.319676
O O2 0.206837 0.050875 0.260696
O O3 0.238125 0.252388 0.187069
O O4 0.328164 0.105971 0.030402
O O5 0.916948 0.609991 0.214543
O O6 0.965541 0.760023 0.393291
O O7 0.958714 0.595790 0.525219
O O8 0.673219 0.404219 0.852904
O O9 0.506022 0.324917 0.698189
O O10 0.662065 0.208734 0.703126
O O11 0.596859 0.237920 0.973220
O O12 0.730812 0.081583 0.999050
O O13 0.265200 0.930395 0.498131
O O14 0.072740 0.916587 0.432652
O O15 0.129411 0.087320 0.520997
O O16 0.657243 0.006198 0.756630
#
# Coordination Sequence:
#
# PCOD9343989 Si02
#       8
#     4   4   4   4   4   4   4   4
#     4  11  25  43  68 101 143 183 239 302 360 431
#     4  11  24  43  68 103 138 185 242 289 359 435
#     4   9  20  43  65 101 137 182 235 292 352 433
#     4  10  22  43  67 100 141 185 237 289 362 434
#     4  11  22  41  69  99 137 180 233 303 354 422
#     4  10  21  43  70  93 143 189 227 292 365 426
#     4  10  22  41  68 100 132 182 241 293 354 426
#     4  10  22  41  71  98 139 180 239 292 357 426
#
# _framework density 22.866544000000001
#
# number of rings (size 3 to 8) (size 9 to 14) (size 15 to 20)
#    0.000    1.750    2.500    0.750    3.500    2.000 
#    6.750    5.000    0.000    0.000    0.000    0.000 
#    0.000    0.000    0.000    0.000    0.000    0.000 
#
# Total GULP energy -178240.571868 kJ/mol
# GULP energy per Si atom -5570.017871 kJ/mol
# Density = 2.281450 g / cm^3
# Si number density = 22.866544 Si / 1000 Ang^3
#
#
#
# Elastic Constant Matrix: (Units=GPa)
#
#
# Indices 1 2 3 4 5 6 
#
# 1 47.0626 23.2284 23.2095 0.0000 0.0000 0.0000
# 2 23.2284 102.3841 19.5549 0.0000 0.0000 0.0000
# 3 23.2095 19.5549 90.3784 0.0000 0.0000 0.0000
# 4 0.0000 0.0000 0.0000 37.3244 0.0000 0.0000
# 5 0.0000 0.0000 0.0000 0.0000 9.6796 0.0000
# 6 0.0000 0.0000 0.0000 0.0000 0.0000 21.7124
#
#
#
# Elastic Compliance Matrix: (Units=1/GPa)
#
#
# Indices 1 2 3 4 5 6 
#
# 1 0.026507 -0.004917 -0.005743 0.000000 0.000000 0.000000
# 2 -0.004917 0.011100 -0.001139 0.000000 0.000000 0.000000
# 3 -0.005743 -0.001139 0.012786 0.000000 0.000000 0.000000
# 4 0.000000 0.000000 0.000000 0.026792 0.000000 0.000000
# 5 0.000000 0.000000 0.000000 0.000000 0.103310 0.000000
# 6 0.000000 0.000000 0.000000 0.000000 0.000000 0.046057
#
#
# Mechanical properties :
#
#
# Convention : Reuss Voigt Hill
#
# Bulk Modulus (GPa) = 37.32035 41.31228 39.31632
# Shear Modulus (GPa) = 19.29887 25.33212 22.31550
#
# Velocity S-wave (km/s) = 2.90828 3.33201 3.12733
# Velocity P-wave (km/s) = 5.25679 5.73663 5.50195
#
# Compressibility (1/GPa) = 0.02679503
#
# Stress axis : x y z
#
# Youngs Moduli (GPa) = 37.72519 90.08829 78.21083
#
# Poissons Ratio (x) = 0.44296 0.44919
# Poissons Ratio (y) = 0.18549 0.08908
# Poissons Ratio (z) = 0.21667 0.10261
#
# Static dielectric constant tensor:
#      x y z
#    x 1.857100 0.000000 0.000000 
#    y 0.000000 1.965640 0.000000 
#    z 0.000000 0.000000 1.948160 
# 
# From -- ./inp_files/2911.got.cif
#   From: 2010.05.17/outbox.cif.g08.bks.cpg/sg32_2_cif.got.tgz:2911.got - 2010.06.03 17:12:27.
