data_PCOD9343883
_publ_section_title
;
Structure prediction by ZEFSAII (Michael W. Deem and Ramdas Pophale) SiO2 
 PCOD9343883
Probable space group: P B A 2
;
_chemical_formula_sum "Si O2"
_cell_formula_units_Z 30
_cell_length_a 12.807430
_cell_length_b 20.750870
_cell_length_c 5.404838
_cell_angle_alpha 90.000000
_cell_angle_beta 90.000000
_cell_angle_gamma 90.000000
_cell_volume 1436.418473
_symmetry_space_group_name_H-M "P B A 2"
_symmetry_group_IT_number 32
_symmetry_cell_setting 'orthorhombic'
loop_
_space_group_symop_operation_xyz
x,y,z
-x,-y,z
1/2-x,1/2+y,z
1/2+x,1/2-y,z
loop_
_atom_site_type_symbol
_atom_site_label
_atom_site_fract_x
_atom_site_fract_y
_atom_site_fract_z
Si Si1 0.331710 0.460203 0.679250
Si Si2 0.175023 0.362219 0.673933
Si Si3 0.273717 0.305769 0.175565
Si Si4 0.559349 0.814392 0.693817
Si Si5 0.684582 0.837787 0.194363
Si Si6 0.630895 0.414022 0.005256
Si Si7 0.000000 0.000000 0.301115
Si Si8 0.541544 0.667409 0.853676
O O1 0.213316 0.436281 0.660444
O O2 0.394220 0.484822 0.443905
O O3 0.396766 0.395241 0.749411
O O4 0.341340 0.520981 0.859511
O O5 0.233904 0.332080 0.436072
O O6 0.054485 0.344767 0.658462
O O7 0.213714 0.335678 0.940031
O O8 0.255775 0.229994 0.175199
O O9 0.396301 0.317445 0.111148
O O10 0.627230 0.835843 0.457491
O O11 0.553506 0.735848 0.710987
O O12 0.608745 0.838188 0.954343
O O13 0.771075 0.892391 0.163492
O O14 0.529418 0.436443 0.154991
O O15 0.579934 0.354169 0.856805
#
# Coordination Sequence:
#
# PCOD9343883 Si02
#       8
#     4   4   4   4   4   4   2   4
#     4  11  23  40  63  99 133 174 221 280 341 416
#     4  11  23  41  70  93 137 175 232 271 338 402
#     4  10  21  40  65 102 127 174 214 283 339 404
#     4  11  25  45  67  98 132 185 225 286 332 401
#     4  11  25  43  65  96 139 173 233 275 339 405
#     4  12  24  41  65 101 135 179 220 287 347 415
#     4  12  22  40  68 100 130 174 224 276 358 404
#     4  10  20  42  66  98 139 165 223 282 355 407
#
# _framework density 20.885278
#
# number of rings (size 3 to 8) (size 9 to 14) (size 15 to 20)
#    0.000    1.067    2.667    4.800    3.733    3.200 
#    0.000    0.667    0.000    0.000    0.000    0.000 
#    0.000    0.000    0.000    0.000    0.000    0.000 
#
# Total GULP energy -167330.837107 kJ/mol
# GULP energy per Si atom -5577.694570 kJ/mol
# Density = 2.083774 g / cm^3
# Si number density = 20.885278 Si / 1000 Ang^3
#
#
#
# Elastic Constant Matrix: (Units=GPa)
#
#
# Indices 1 2 3 4 5 6 
#
# 1 103.3341 60.7321 47.0437 0.0000 0.0000 0.0000
# 2 60.7321 87.6420 36.2204 0.0000 0.0000 0.0000
# 3 47.0437 36.2204 116.2176 0.0000 0.0000 0.0000
# 4 0.0000 0.0000 0.0000 76.6727 0.0000 0.0000
# 5 0.0000 0.0000 0.0000 0.0000 29.6338 0.0000
# 6 0.0000 0.0000 0.0000 0.0000 0.0000 36.1922
#
#
#
# Elastic Compliance Matrix: (Units=1/GPa)
#
#
# Indices 1 2 3 4 5 6 
#
# 1 0.017701 -0.010681 -0.003837 0.000000 0.000000 0.000000
# 2 -0.010681 0.019542 -0.001767 0.000000 0.000000 0.000000
# 3 -0.003837 -0.001767 0.010708 0.000000 0.000000 0.000000
# 4 0.000000 0.000000 0.000000 0.013042 0.000000 0.000000
# 5 0.000000 0.000000 0.000000 0.000000 0.033745 0.000000
# 6 0.000000 0.000000 0.000000 0.000000 0.000000 0.027630
#
#
# Mechanical properties :
#
#
# Convention : Reuss Voigt Hill
#
# Bulk Modulus (GPa) = 65.00775 66.13181 65.56978
# Shear Modulus (GPa) = 31.23735 39.37957 35.30846
#
# Velocity S-wave (km/s) = 3.87158 4.34697 4.11614
# Velocity P-wave (km/s) = 7.15396 7.54506 7.35211
#
# Compressibility (1/GPa) = 0.01538278
#
# Stress axis : x y z
#
# Youngs Moduli (GPa) = 56.49312 51.17313 93.38623
#
# Poissons Ratio (x) = 0.54656 0.35828
# Poissons Ratio (y) = 0.60338 0.16500
# Poissons Ratio (z) = 0.21674 0.09042
#
# Static dielectric constant tensor:
#      x y z
#    x 1.791940 0.000000 0.000000 
#    y 0.000000 1.762760 0.000000 
#    z 0.000000 0.000000 1.836560 
# 
# From -- ./inp_files/1037.got.cif
#   From: 2010.05.17/outbox.cif.g08.bks.cpg/sg32_1_cif.got.tgz:1037.got - 2010.06.03 17:12:27.
