data_PCOD9343411
_publ_section_title
;
Structure prediction by ZEFSAII (Michael W. Deem and Ramdas Pophale) SiO2 
 PCOD9343411
Probable space group: P M N 21
;
_chemical_formula_sum "Si O2"
_cell_formula_units_Z 32
_cell_length_a 7.883617
_cell_length_b 15.899637
_cell_length_c 12.409986
_cell_angle_alpha 90.000000
_cell_angle_beta 90.000000
_cell_angle_gamma 90.000000
_cell_volume 1555.550154
_symmetry_space_group_name_H-M "P M N 21"
_symmetry_group_IT_number 31
_symmetry_cell_setting 'orthorhombic'
loop_
_space_group_symop_operation_xyz
x,y,z
1/2-x,-y,1/2+z
-x,y,z
1/2+x,-y,1/2+z
loop_
_atom_site_type_symbol
_atom_site_label
_atom_site_fract_x
_atom_site_fract_y
_atom_site_fract_z
Si Si1 0.798069 0.916941 0.897090
Si Si2 0.806104 0.356578 0.181057
Si Si3 0.793615 0.103681 0.948696
Si Si4 0.194843 0.598344 0.911902
Si Si5 0.299342 0.169695 0.181138
Si Si6 0.792589 0.256749 0.791942
Si Si7 0.199342 0.238909 0.546062
Si Si8 0.708092 0.590108 0.444443
O O1 0.737404 0.886498 0.780350
O O2 0.000000 0.926677 0.888485
O O3 0.731693 0.009476 0.924124
O O4 0.767821 0.842748 0.983224
O O5 0.704804 0.386998 0.284312
O O6 0.800201 0.256418 0.183790
O O7 0.000000 0.386670 0.191823
O O8 0.740291 0.382390 0.064128
O O9 0.743002 0.174368 0.861086
O O10 0.000000 0.104778 0.951757
O O11 0.727847 0.128657 0.065806
O O12 0.268014 0.505346 0.929622
O O13 0.000000 0.597076 0.947728
O O14 0.275006 0.676884 0.974980
O O15 0.500000 0.187594 0.196899
O O16 0.733281 0.251417 0.667968
O O17 0.737204 0.341035 0.855882
O O18 0.000000 0.258825 0.790633
O O19 0.000000 0.224390 0.556331
O O20 0.500000 0.590354 0.440817
#
# Coordination Sequence:
#
# PCOD9343411 Si02
#       8
#     4   4   4   4   4   4   4   4
#     4  10  23  40  60  86 121 159 195 244 304 350
#     4  11  21  39  65  88 114 155 206 248 290 357
#     4  10  21  40  64  86 116 159 201 245 297 354
#     4  11  23  39  60  87 123 158 191 245 307 352
#     4  11  22  38  61  89 121 155 196 251 302 350
#     4   9  19  38  61  85 113 152 199 243 289 346
#     4  11  23  38  62  87 116 158 203 246 289 354
#     4   9  20  38  61  86 116 154 193 242 302 351
#
# _framework density 20.5715
#
# number of rings (size 3 to 8) (size 9 to 14) (size 15 to 20)
#    0.000    1.750    2.500    1.500    3.500    1.000 
#    0.000    3.125    0.000    0.000    0.000    0.000 
#    0.000    0.000    0.000    0.000    0.000    0.000 
#
# Total GULP energy -178688.991757 kJ/mol
# GULP energy per Si atom -5584.030992 kJ/mol
# Density = 2.052468 g / cm^3
# Si number density = 20.571500 Si / 1000 Ang^3
#
#
#
# Elastic Constant Matrix: (Units=GPa)
#
#
# Indices 1 2 3 4 5 6 
#
# 1 21.1782 -19.7606 -19.9762 0.0000 0.0000 0.0000
# 2 -19.7606 179.3825 94.4540 0.0000 0.0000 0.0000
# 3 -19.9762 94.4540 180.5259 0.0000 0.0000 0.0000
# 4 0.0000 0.0000 0.0000 36.6999 0.0000 0.0000
# 5 0.0000 0.0000 0.0000 0.0000 -4.7110 0.0000
# 6 0.0000 0.0000 0.0000 0.0000 0.0000 -0.6785
#
#
#
# Elastic Compliance Matrix: (Units=1/GPa)
#
#
# Indices 1 2 3 4 5 6 
#
# 1 0.054642 0.003914 0.003999 0.000000 0.000000 0.000000
# 2 0.003914 0.007975 -0.003739 0.000000 0.000000 0.000000
# 3 0.003999 -0.003739 0.007938 0.000000 0.000000 0.000000
# 4 0.000000 0.000000 0.000000 0.027248 0.000000 0.000000
# 5 0.000000 0.000000 0.000000 0.000000 -0.212271 0.000000
# 6 0.000000 0.000000 0.000000 0.000000 0.000000 -1.473919
#
#
# Mechanical properties :
#
#
# Convention : Reuss Voigt Hill
#
# Bulk Modulus (GPa) = 12.67406 54.50232 33.58819
# Shear Modulus (GPa) = -3.18384 28.02006 12.41811
#
# Velocity S-wave (km/s) = -1.24541 3.69464 2.45961
# Velocity P-wave (km/s) = 2.02640 6.68970 4.94259
#
# Compressibility (1/GPa) = 0.07890129
#
# Stress axis : x y z
#
# Youngs Moduli (GPa) = 18.30093 125.39424 125.96999
#
# Poissons Ratio (x) = -0.49077 -0.50371
# Poissons Ratio (y) = -0.07163 0.47106
# Poissons Ratio (z) = -0.07318 0.46891
#
# Static dielectric constant tensor:
#      x y z
#    x 1.735690 0.000000 0.000000 
#    y 0.000000 1.732530 0.000000 
#    z 0.000000 0.000000 1.654930 
# 
# From -- ./inp_files/3613.got.cif
#   From: 2010.05.17/outbox.cif.g08.bks.cpg/sg31_2_cif.got.tgz:3613.got - 2010.06.03 17:08:30.
