data_PCOD9343611
_publ_section_title
;
Structure prediction by ZEFSAII (Michael W. Deem and Ramdas Pophale) SiO2 
 PCOD9343611
Probable space group: P M N 21
;
_chemical_formula_sum "Si O2"
_cell_formula_units_Z 32
_cell_length_a 15.000000
_cell_length_b 12.000000
_cell_length_c 9.000000
_cell_angle_alpha 90.000000
_cell_angle_beta 90.000000
_cell_angle_gamma 90.000000
_cell_volume 1620.000000
_symmetry_space_group_name_H-M "P M N 21"
_symmetry_group_IT_number 31
_symmetry_cell_setting 'orthorhombic'
loop_
_space_group_symop_operation_xyz
x,y,z
1/2-x,-y,1/2+z
-x,y,z
1/2+x,-y,1/2+z
loop_
_atom_site_type_symbol
_atom_site_label
_atom_site_fract_x
_atom_site_fract_y
_atom_site_fract_z
Si Si1 0.715819 0.296023 0.345440
Si Si2 0.095691 0.797973 0.070008
Si Si3 0.338361 0.227215 0.887848
Si Si4 0.604725 0.421639 0.110211
Si Si5 0.844710 0.163998 0.751647
Si Si6 0.898907 0.327442 0.489514
Si Si7 0.289102 0.082374 0.151483
Si Si8 0.094742 0.060731 0.047682
O O1 0.671936 0.280885 0.506287
O O2 0.668581 0.390729 0.248151
O O3 0.820869 0.309343 0.369346
O O4 0.688807 0.179022 0.267972
O O5 0.100285 0.793975 0.247167
O O6 0.000000 0.757720 0.014248
O O7 0.103815 0.927553 0.024970
O O8 0.238490 0.230976 0.821624
O O9 0.366350 0.335743 0.979983
O O10 0.335760 0.121928 0.999569
O O11 0.500000 0.401892 0.145199
O O12 0.613838 0.548862 0.057816
O O13 0.887207 0.236534 0.621180
O O14 0.810612 0.044583 0.689200
O O15 0.903150 0.126098 0.891975
O O16 0.000000 0.320437 0.431021
O O17 0.183034 0.093353 0.133371
O O18 0.000000 0.080657 0.123773
#
# Coordination Sequence:
#
# PCOD9343611 Si02
#       8
#     4   4   4   4   4   4   4   4
#     4  11  22  41  66  88 124 167 207 261 323 375
#     4  11  20  34  59  94 122 158 209 259 310 373
#     4  10  21  37  62  88 121 167 203 261 318 369
#     4  10  24  45  64  92 126 163 216 273 319 378
#     4  11  20  38  61  88 128 168 203 250 323 386
#     4  11  25  41  65  94 128 168 218 266 319 384
#     4  10  21  37  59  88 125 163 202 248 314 388
#     4  10  20  33  54  84 122 156 199 250 301 371
#
# _framework density 19.753086
#
# number of rings (size 3 to 8) (size 9 to 14) (size 15 to 20)
#    0.000    1.500    3.750    1.125    3.500    0.500 
#    0.000    3.125    0.000    0.750    0.000    0.000 
#    0.000    0.000    0.000    0.000    0.000    0.000 
#
# Total GULP energy -178468.712853 kJ/mol
# GULP energy per Si atom -5577.147277 kJ/mol
# Density = 1.970813 g / cm^3
# Si number density = 19.753086 Si / 1000 Ang^3
#
#
#
# Elastic Constant Matrix: (Units=GPa)
#
#
# Indices 1 2 3 4 5 6 
#
# 1 82.9276 25.3519 21.7788 0.0000 0.0000 0.0000
# 2 25.3519 79.7347 18.9435 0.0000 0.0000 0.0000
# 3 21.7788 18.9435 52.3118 0.0000 0.0000 0.0000
# 4 0.0000 0.0000 0.0000 16.6321 0.0000 0.0000
# 5 0.0000 0.0000 0.0000 0.0000 8.1293 0.0000
# 6 0.0000 0.0000 0.0000 0.0000 0.0000 36.5393
#
#
#
# Elastic Compliance Matrix: (Units=1/GPa)
#
#
# Indices 1 2 3 4 5 6 
#
# 1 0.014352 -0.003440 -0.004730 0.000000 0.000000 0.000000
# 2 -0.003440 0.014547 -0.003836 0.000000 0.000000 0.000000
# 3 -0.004730 -0.003836 0.022474 0.000000 0.000000 0.000000
# 4 0.000000 0.000000 0.000000 0.060125 0.000000 0.000000
# 5 0.000000 0.000000 0.000000 0.000000 0.123011 0.000000
# 6 0.000000 0.000000 0.000000 0.000000 0.000000 0.027368
#
#
# Mechanical properties :
#
#
# Convention : Reuss Voigt Hill
#
# Bulk Modulus (GPa) = 36.54557 38.56918 37.55737
# Shear Modulus (GPa) = 16.94870 22.18681 19.56775
#
# Velocity S-wave (km/s) = 2.93239 3.35506 3.15082
# Velocity P-wave (km/s) = 5.47782 5.88019 5.68257
#
# Compressibility (1/GPa) = 0.02736310
#
# Stress axis : x y z
#
# Youngs Moduli (GPa) = 69.67477 68.74487 44.49537
#
# Poissons Ratio (x) = 0.23646 0.21045
# Poissons Ratio (y) = 0.23966 0.17067
# Poissons Ratio (z) = 0.32954 0.26368
#
# Static dielectric constant tensor:
#      x y z
#    x 1.720500 0.000000 0.000000 
#    y 0.000000 1.651170 0.000000 
#    z 0.000000 0.000000 1.720810 
# 
# From -- ./inp_files/2536.got.cif
#   From: 2010.05.17/outbox.ucp.g08.bks.cvg/sg31_2_cif.got.tgz:2536.got - 2010.06.11 10:34:26.
