data_PCOD9343072
_publ_section_title
;
Structure prediction by ZEFSAII (Michael W. Deem and Ramdas Pophale) SiO2 
 PCOD9343072
Probable space group: P M N 21
;
_chemical_formula_sum "Si O2"
_cell_formula_units_Z 32
_cell_length_a 8.710647
_cell_length_b 20.210989
_cell_length_c 10.461623
_cell_angle_alpha 90.000000
_cell_angle_beta 90.000000
_cell_angle_gamma 90.000000
_cell_volume 1841.777001
_symmetry_space_group_name_H-M "P M N 21"
_symmetry_group_IT_number 31
_symmetry_cell_setting 'orthorhombic'
loop_
_space_group_symop_operation_xyz
x,y,z
1/2-x,-y,1/2+z
-x,y,z
1/2+x,-y,1/2+z
loop_
_atom_site_type_symbol
_atom_site_label
_atom_site_fract_x
_atom_site_fract_y
_atom_site_fract_z
Si Si1 0.684167 0.299530 0.858920
Si Si2 0.684467 0.544370 0.081946
Si Si3 0.183634 0.445259 0.873801
Si Si4 0.314785 0.795875 0.856360
Si Si5 0.185272 0.302113 0.581109
Si Si6 0.685258 0.948515 0.866260
Si Si7 0.685146 0.199148 0.079734
Si Si8 0.814657 0.953334 0.589773
O O1 0.500000 0.300459 0.856187
O O2 0.744580 0.372709 0.892061
O O3 0.746031 0.282805 0.717993
O O4 0.735406 0.246703 0.965151
O O5 0.500000 0.538199 0.070947
O O6 0.727120 0.531244 0.230140
O O7 0.725839 0.621114 0.056133
O O8 0.761489 0.495448 0.981928
O O9 0.000000 0.438837 0.875721
O O10 0.500000 0.793660 0.850221
O O11 0.269284 0.871790 0.886249
O O12 0.249440 0.779113 0.717032
O O13 0.264446 0.745759 0.966941
O O14 0.000000 0.299115 0.590803
O O15 0.500000 0.950713 0.861226
O O16 0.749878 0.970017 0.729188
O O17 0.736878 0.996042 0.980529
O O18 0.500000 0.200876 0.085108
O O19 0.731572 0.122511 0.059856
O O20 0.000000 0.955234 0.595171
#
# Coordination Sequence:
#
# PCOD9343072 Si02
#       8
#     4   4   4   4   4   4   4   4
#     4  10  20  34  52  74 100 130 165 204 245 291
#     4   9  19  35  52  73 101 130 162 201 243 290
#     4  10  21  36  54  76 101 130 164 202 245 292
#     4   9  18  33  52  74 100 130 165 205 247 291
#     4   9  19  35  52  73 102 131 162 203 247 291
#     4   9  18  32  50  73 100 130 166 206 246 291
#     4   9  19  34  50  71 100 132 166 204 245 291
#     4   9  18  33  50  70 100 133 164 203 248 291
#
# _framework density 17.374524000000001
#
# number of rings (size 3 to 8) (size 9 to 14) (size 15 to 20)
#    0.000    2.750    0.000    1.500    0.000    6.500 
#    0.000    2.500    0.000    0.000    0.000    0.000 
#    0.000    0.000    0.000    0.000    0.000    0.000 
#
# Total GULP energy -178457.834550 kJ/mol
# GULP energy per Si atom -5576.807330 kJ/mol
# Density = 1.733498 g / cm^3
# Si number density = 17.374524 Si / 1000 Ang^3
#
#
#
# Elastic Constant Matrix: (Units=GPa)
#
#
# Indices 1 2 3 4 5 6 
#
# 1 -33.7668 -106.1584 -144.2581 0.0000 0.0000 0.0000
# 2 -106.1584 -284.7061 -392.3139 0.0000 0.0000 0.0000
# 3 -144.2581 -392.3139 -506.4384 0.0000 0.0000 0.0000
# 4 0.0000 0.0000 0.0000 43.6151 0.0000 0.0000
# 5 0.0000 0.0000 0.0000 0.0000 34.2648 0.0000
# 6 0.0000 0.0000 0.0000 0.0000 0.0000 16.4937
#
#
#
# Elastic Compliance Matrix: (Units=1/GPa)
#
#
# Indices 1 2 3 4 5 6 
#
# 1 0.175544 -0.051120 -0.010403 0.000000 0.000000 0.000000
# 2 -0.051120 0.066968 -0.037315 0.000000 0.000000 0.000000
# 3 -0.010403 -0.037315 0.029895 0.000000 0.000000 0.000000
# 4 0.000000 0.000000 0.000000 0.022928 0.000000 0.000000
# 5 0.000000 0.000000 0.000000 0.000000 0.029184 0.000000
# 6 0.000000 0.000000 0.000000 0.000000 0.000000 0.060629
#
#
# Mechanical properties :
#
#
# Convention : Reuss Voigt Hill
#
# Bulk Modulus (GPa) = 13.38148 -234.48580 -110.55216
# Shear Modulus (GPa) = 8.22727 6.72932 7.47829
#
# Velocity S-wave (km/s) = 2.17842 1.97015 2.07690
# Velocity P-wave (km/s) = 3.74778 11.40514 7.61680
#
# Compressibility (1/GPa) = 0.07473017
#
# Stress axis : x y z
#
# Youngs Moduli (GPa) = 5.69656 14.93261 33.45041
#
# Poissons Ratio (x) = 0.76336 0.34799
# Poissons Ratio (y) = 0.29121 1.24821
# Poissons Ratio (z) = 0.05926 0.55721
#
# Static dielectric constant tensor:
#      x y z
#    x 1.585300 0.000000 0.000000 
#    y 0.000000 1.582120 0.000000 
#    z 0.000000 0.000000 1.564000 
# 
# From -- ./inp_files/1871.got.cif
#   From: 2010.05.17/outbox.cif.g08.bks.cpg/sg31_1_cif.got.tgz:1871.got - 2010.06.03 17:08:30.
