data_PCOD9343762
_publ_section_title
;
Structure prediction by ZEFSAII (Michael W. Deem and Ramdas Pophale) SiO2 
 PCOD9343762
Probable space group: P B A 2
;
_chemical_formula_sum "Si O2"
_cell_formula_units_Z 22
_cell_length_a 6.297259
_cell_length_b 24.530505
_cell_length_c 6.014609
_cell_angle_alpha 90.000000
_cell_angle_beta 90.000000
_cell_angle_gamma 90.000000
_cell_volume 929.106385
_symmetry_space_group_name_H-M "P B A 2"
_symmetry_group_IT_number 32
_symmetry_cell_setting 'orthorhombic'
loop_
_space_group_symop_operation_xyz
x,y,z
-x,-y,z
1/2-x,1/2+y,z
1/2+x,1/2-y,z
loop_
_atom_site_type_symbol
_atom_site_label
_atom_site_fract_x
_atom_site_fract_y
_atom_site_fract_z
Si Si1 0.558390 0.830444 0.151360
Si Si2 0.038953 0.598441 0.771478
Si Si3 0.798789 0.931033 0.381002
Si Si4 0.000000 0.500000 0.094633
Si Si5 0.692418 0.625746 0.403494
Si Si6 0.432166 0.259643 0.523996
O O1 0.702619 0.876072 0.269429
O O2 0.582157 0.774752 0.290108
O O3 0.316896 0.849292 0.195383
O O4 0.595278 0.844224 0.892811
O O5 0.864374 0.609615 0.586029
O O6 0.236586 0.572487 0.639452
O O7 0.958560 0.552436 0.940940
O O8 0.046262 0.924788 0.350214
O O9 0.685908 0.979760 0.255621
O O10 0.556351 0.675689 0.496227
O O11 0.178396 0.254029 0.612692
#
# Coordination Sequence:
#
# PCOD9343762 Si02
#       6
#     4   4   4   2   4   4
#     4   9  20  39  61  91 134 174 218 274 341 411
#     4  10  22  41  64  97 127 171 232 287 344 420
#     4  10  20  41  64  90 130 171 219 284 343 414
#     4  10  22  42  66  88 132 178 218 294 364 412
#     4  10  21  39  66  92 134 175 221 283 342 414
#     4  10  19  38  67  97 138 190 225 273 351 414
#
# _framework density 23.678666
#
# number of rings (size 3 to 8) (size 9 to 14) (size 15 to 20)
#    0.000    2.182    1.818    0.545    0.000    2.909 
#    0.000   32.727    0.000    0.000    0.000    0.000 
#    0.000    0.000    0.000    0.000    0.000    0.000 
#
# Total GULP energy -122494.343653 kJ/mol
# GULP energy per Si atom -5567.924711 kJ/mol
# Density = 2.362477 g / cm^3
# Si number density = 23.678666 Si / 1000 Ang^3
#
#
#
# Elastic Constant Matrix: (Units=GPa)
#
#
# Indices 1 2 3 4 5 6 
#
# 1 108.8491 37.0605 11.6901 0.0000 0.0000 0.0000
# 2 37.0605 95.0215 10.6245 0.0000 0.0000 0.0000
# 3 11.6901 10.6245 48.5605 0.0000 0.0000 0.0000
# 4 0.0000 0.0000 0.0000 36.7556 0.0000 0.0000
# 5 0.0000 0.0000 0.0000 0.0000 1.1052 0.0000
# 6 0.0000 0.0000 0.0000 0.0000 0.0000 54.0074
#
#
#
# Elastic Compliance Matrix: (Units=1/GPa)
#
#
# Indices 1 2 3 4 5 6 
#
# 1 0.010730 -0.003994 -0.001709 0.000000 0.000000 0.000000
# 2 -0.003994 0.012274 -0.001724 0.000000 0.000000 0.000000
# 3 -0.001709 -0.001724 0.021382 0.000000 0.000000 0.000000
# 4 0.000000 0.000000 0.000000 0.027207 0.000000 0.000000
# 5 0.000000 0.000000 0.000000 0.000000 0.904841 0.000000
# 6 0.000000 0.000000 0.000000 0.000000 0.000000 0.018516
#
#
# Mechanical properties :
#
#
# Convention : Reuss Voigt Hill
#
# Bulk Modulus (GPa) = 33.86186 41.24236 37.55211
# Shear Modulus (GPa) = 4.90365 31.24404 18.07384
#
# Velocity S-wave (km/s) = 1.44063 3.63644 2.76578
# Velocity P-wave (km/s) = 4.13507 5.92342 5.10812
#
# Compressibility (1/GPa) = 0.02953175
#
# Stress axis : x y z
#
# Youngs Moduli (GPa) = 93.19256 81.47009 46.76931
#
# Poissons Ratio (x) = 0.32539 0.07994
# Poissons Ratio (y) = 0.37221 0.08063
# Poissons Ratio (z) = 0.15930 0.14046
#
# Static dielectric constant tensor:
#      x y z
#    x 1.992670 0.000000 0.000000 
#    y 0.000000 1.909610 0.000000 
#    z 0.000000 0.000000 1.978270 
# 
# From -- ./inp_files/223.got.cif
#   From: 2010.05.17/outbox.cif.g08.bks.cpg/sg32_1_cif.got.tgz:223.got - 2010.06.03 17:12:27.
