data_PCOD9343022
_publ_section_title
;
Structure prediction by ZEFSAII (Michael W. Deem and Ramdas Pophale) SiO2 
 PCOD9343022
Probable space group: P M N 21
;
_chemical_formula_sum "Si O2"
_cell_formula_units_Z 24
_cell_length_a 13.587779
_cell_length_b 19.131881
_cell_length_c 4.998165
_cell_angle_alpha 90.000000
_cell_angle_beta 90.000000
_cell_angle_gamma 90.000000
_cell_volume 1299.321828
_symmetry_space_group_name_H-M "P M N 21"
_symmetry_group_IT_number 31
_symmetry_cell_setting 'orthorhombic'
loop_
_space_group_symop_operation_xyz
x,y,z
1/2-x,-y,1/2+z
-x,y,z
1/2+x,-y,1/2+z
loop_
_atom_site_type_symbol
_atom_site_label
_atom_site_fract_x
_atom_site_fract_y
_atom_site_fract_z
Si Si1 0.790116 0.542494 0.742860
Si Si2 0.318062 0.921014 0.244557
Si Si3 0.385943 0.009219 0.744298
Si Si4 0.174417 0.321069 0.212282
Si Si5 0.500000 0.585105 0.936674
Si Si6 0.000000 0.502988 0.935376
Si Si7 0.882298 0.236054 0.689770
O O1 0.772697 0.494935 0.479921
O O2 0.760633 0.622278 0.683012
O O3 0.900886 0.540299 0.848498
O O4 0.199758 0.932129 0.264966
O O5 0.356886 0.951619 0.965178
O O6 0.351105 0.841570 0.274248
O O7 0.368565 0.970384 0.464328
O O8 0.500000 0.031105 0.773464
O O9 0.180064 0.259091 0.429124
O O10 0.091709 0.369583 0.346468
O O11 0.141717 0.288909 0.931296
O O12 0.500000 0.517035 0.746163
O O13 0.500000 0.566791 0.248474
O O14 0.000000 0.237257 0.633128
#
# Coordination Sequence:
#
# PCOD9343022 Si02
#       7
#     4   4   4   4   2   2   4
#     4  12  23  37  59  82 107 141 185 233 275 326
#     4  10  22  35  57  89 113 145 186 224 269 323
#     4  10  19  37  60  84 115 146 184 228 268 312
#     4  12  23  35  54  82 110 145 179 224 280 335
#     4  12  20  36  58  84 106 144 180 218 294 334
#     4  12  22  38  60  80 108 136 184 238 278 322
#     4  12  22  35  55  81 116 145 176 223 276 330
#
# _framework density 18.471171999999999
#
# number of rings (size 3 to 8) (size 9 to 14) (size 15 to 20)
#    0.000    0.667    5.000    4.500    0.000    0.000 
#    0.000    0.000    3.667    0.000    0.000    0.000 
#    0.000    0.000    0.000    0.000    0.000    0.000 
#
# Total GULP energy -134018.803831 kJ/mol
# GULP energy per Si atom -5584.116826 kJ/mol
# Density = 1.842913 g / cm^3
# Si number density = 18.471172 Si / 1000 Ang^3
#
#
#
# Elastic Constant Matrix: (Units=GPa)
#
#
# Indices 1 2 3 4 5 6 
#
# 1 106.4088 30.6608 -12.1132 0.0000 0.0000 0.0000
# 2 30.6608 80.8755 1.9852 0.0000 0.0000 0.0000
# 3 -12.1132 1.9852 49.6580 0.0000 0.0000 0.0000
# 4 0.0000 0.0000 0.0000 18.4028 0.0000 0.0000
# 5 0.0000 0.0000 0.0000 0.0000 16.9055 0.0000
# 6 0.0000 0.0000 0.0000 0.0000 0.0000 30.1339
#
#
#
# Elastic Compliance Matrix: (Units=1/GPa)
#
#
# Indices 1 2 3 4 5 6 
#
# 1 0.010935 -0.004215 0.002836 0.000000 0.000000 0.000000
# 2 -0.004215 0.014002 -0.001588 0.000000 0.000000 0.000000
# 3 0.002836 -0.001588 0.020893 0.000000 0.000000 0.000000
# 4 0.000000 0.000000 0.000000 0.054340 0.000000 0.000000
# 5 0.000000 0.000000 0.000000 0.000000 0.059153 0.000000
# 6 0.000000 0.000000 0.000000 0.000000 0.000000 0.033185
#
#
# Mechanical properties :
#
#
# Convention : Reuss Voigt Hill
#
# Bulk Modulus (GPa) = 25.06562 30.88976 27.97769
# Shear Modulus (GPa) = 23.61385 27.51572 25.56479
#
# Velocity S-wave (km/s) = 3.57937 3.86380 3.72430
# Velocity P-wave (km/s) = 5.53915 6.05514 5.80288
#
# Compressibility (1/GPa) = 0.03989529
#
# Stress axis : x y z
#
# Youngs Moduli (GPa) = 91.44824 71.41981 47.86294
#
# Poissons Ratio (x) = 0.30105 -0.13574
# Poissons Ratio (y) = 0.38548 0.07601
# Poissons Ratio (z) = -0.25934 0.11341
#
# Static dielectric constant tensor:
#      x y z
#    x 1.703370 0.000000 0.000000 
#    y 0.000000 1.644750 0.000000 
#    z 0.000000 0.000000 1.654830 
# 
# From -- ./inp_files/626.got.cif
#   From: 2010.05.17/outbox.cif.g08.bks.cpg/sg31_1_cif.got.tgz:626.got - 2010.06.03 17:08:30.
