data_PCOD9343596
_publ_section_title
;
Structure prediction by ZEFSAII (Michael W. Deem and Ramdas Pophale) SiO2 
 PCOD9343596
Probable space group: P M N 21
;
_chemical_formula_sum "Si O2"
_cell_formula_units_Z 32
_cell_length_a 7.555680
_cell_length_b 22.555064
_cell_length_c 6.824309
_cell_angle_alpha 90.000000
_cell_angle_beta 90.000000
_cell_angle_gamma 90.000000
_cell_volume 1162.990864
_symmetry_space_group_name_H-M "P M N 21"
_symmetry_group_IT_number 31
_symmetry_cell_setting 'orthorhombic'
loop_
_space_group_symop_operation_xyz
x,y,z
1/2-x,-y,1/2+z
-x,y,z
1/2+x,-y,1/2+z
loop_
_atom_site_type_symbol
_atom_site_label
_atom_site_fract_x
_atom_site_fract_y
_atom_site_fract_z
Si Si1 0.197224 0.584347 0.151520
Si Si2 0.711772 0.328510 0.099405
Si Si3 0.780356 0.705870 0.042366
Si Si4 0.212120 0.200312 0.017237
Si Si5 0.283215 0.049655 0.318048
Si Si6 0.797064 0.081368 0.881196
Si Si7 0.206220 0.831233 0.969980
Si Si8 0.698560 0.451082 0.196555
O O1 0.285856 0.649116 0.166911
O O2 0.236790 0.518063 0.220724
O O3 0.000000 0.596197 0.220990
O O4 0.196919 0.573864 0.916497
O O5 0.500000 0.335296 0.108844
O O6 0.771862 0.309458 0.317502
O O7 0.742434 0.268847 0.974995
O O8 0.781019 0.396643 0.070105
O O9 0.712829 0.772846 0.070951
O O10 0.000000 0.707186 0.049051
O O11 0.280039 0.148035 0.871567
O O12 0.283195 0.185992 0.236483
O O13 0.000000 0.195593 0.023239
O O14 0.500000 0.048432 0.316138
O O15 0.207343 0.073162 0.116348
O O16 0.229986 0.099946 0.478155
O O17 0.215617 0.982135 0.325644
O O18 0.000000 0.082240 0.816659
O O19 0.000000 0.833558 0.015640
O O20 0.500000 0.459863 0.125043
#
# Coordination Sequence:
#
# PCOD9343596 Si02
#       8
#     4   4   4   4   4   4   4   4
#     4   9  17  29  45  65  89 116 144 175 216 263
#     4   8  14  26  42  59  82 110 141 177 213 251
#     4   7  11  22  40  60  80 104 136 175 213 245
#     4   9  15  23  38  61  87 110 136 177 221 254
#     4   9  17  29  46  66  87 116 150 179 214 261
#     4   9  18  30  43  65  94 117 143 182 221 257
#     4   8  13  24  42  60  80 109 144 178 211 250
#     4   9  18  31  46  66  91 116 144 181 219 255
#
# _framework density 27.515260999999999
#
# number of rings (size 3 to 8) (size 9 to 14) (size 15 to 20)
#    0.000    3.500    0.000    2.625    0.000    2.000 
#    0.000    5.000    0.000    1.500    0.000    5.250 
#    0.000    0.000    0.000    0.000    0.000    0.000 
#
# Total GULP energy -178438.985872 kJ/mol
# GULP energy per Si atom -5576.218309 kJ/mol
# Density = 2.745264 g / cm^3
# Si number density = 27.515261 Si / 1000 Ang^3
#
#
#
# Elastic Constant Matrix: (Units=GPa)
#
#
# Indices 1 2 3 4 5 6 
#
# 1 90.6540 18.3841 9.1059 0.0000 0.0000 0.0000
# 2 18.3841 349.1453 54.1283 0.0000 0.0000 0.0000
# 3 9.1059 54.1283 57.9233 0.0000 0.0000 0.0000
# 4 0.0000 0.0000 0.0000 75.3116 0.0000 0.0000
# 5 0.0000 0.0000 0.0000 0.0000 22.8968 0.0000
# 6 0.0000 0.0000 0.0000 0.0000 0.0000 35.9638
#
#
#
# Elastic Compliance Matrix: (Units=1/GPa)
#
#
# Indices 1 2 3 4 5 6 
#
# 1 0.011249 -0.000372 -0.001421 0.000000 0.000000 0.000000
# 2 -0.000372 0.003362 -0.003083 0.000000 0.000000 0.000000
# 3 -0.001421 -0.003083 0.020369 0.000000 0.000000 0.000000
# 4 0.000000 0.000000 0.000000 0.013278 0.000000 0.000000
# 5 0.000000 0.000000 0.000000 0.000000 0.043674 0.000000
# 6 0.000000 0.000000 0.000000 0.000000 0.000000 0.027806
#
#
# Mechanical properties :
#
#
# Convention : Reuss Voigt Hill
#
# Bulk Modulus (GPa) = 39.63878 73.43991 56.53934
# Shear Modulus (GPa) = 36.25862 54.57472 45.41667
#
# Velocity S-wave (km/s) = 3.63404 4.45841 4.06716
# Velocity P-wave (km/s) = 5.66089 7.29738 6.53060
#
# Compressibility (1/GPa) = 0.02522782
#
# Stress axis : x y z
#
# Youngs Moduli (GPa) = 88.89589 297.47040 49.09541
#
# Poissons Ratio (x) = 0.11068 0.06975
# Poissons Ratio (y) = 0.03307 0.15136
# Poissons Ratio (z) = 0.12630 0.91708
#
# Static dielectric constant tensor:
#      x y z
#    x 1.998240 0.000000 0.000000 
#    y 0.000000 2.355030 0.000000 
#    z 0.000000 0.000000 2.267670 
# 
# From -- ./inp_files/1897.got.cif
#   From: 2010.05.17/outbox.cif.g08.bks.cpg/sg31_1_cif.got.tgz:1897.got - 2010.06.03 17:08:30.
