data_PCOD9343580
_publ_section_title
;
Structure prediction by ZEFSAII (Michael W. Deem and Ramdas Pophale) SiO2 
 PCOD9343580
Probable space group: P M N 21
;
_chemical_formula_sum "Si O2"
_cell_formula_units_Z 24
_cell_length_a 18.072784
_cell_length_b 5.409556
_cell_length_c 10.870860
_cell_angle_alpha 90.000000
_cell_angle_beta 90.000000
_cell_angle_gamma 90.000000
_cell_volume 1062.797641
_symmetry_space_group_name_H-M "P M N 21"
_symmetry_group_IT_number 31
_symmetry_cell_setting 'orthorhombic'
loop_
_space_group_symop_operation_xyz
x,y,z
1/2-x,-y,1/2+z
-x,y,z
1/2+x,-y,1/2+z
loop_
_atom_site_type_symbol
_atom_site_label
_atom_site_fract_x
_atom_site_fract_y
_atom_site_fract_z
Si Si1 0.179038 0.841639 0.506550
Si Si2 0.412672 0.844729 0.178539
Si Si3 0.913757 0.077938 0.156684
Si Si4 0.356949 0.409856 0.776652
Si Si5 0.325783 0.074015 0.411942
Si Si6 0.300404 0.457278 0.231670
O O1 0.150335 0.616260 0.423420
O O2 0.216921 0.754409 0.633072
O O3 0.113946 0.016462 0.555578
O O4 0.242144 0.979360 0.428863
O O5 0.500000 0.844086 0.190518
O O6 0.375222 0.577413 0.183139
O O7 0.373066 0.967573 0.297704
O O8 0.885588 0.328315 0.224579
O O9 0.000000 0.115370 0.128006
O O10 0.903290 0.829881 0.237332
O O11 0.869616 0.006131 0.032806
O O12 0.272609 0.377641 0.727642
O O13 0.315080 0.358629 0.369462
#
# Coordination Sequence:
#
# PCOD9343580 Si02
#       6
#     4   4   4   4   4   4
#     4  11  25  46  75 103 146 197 254 316 375 466
#     4  11  26  45  70 108 150 196 253 320 389 452
#     4  12  28  47  73 109 153 194 245 319 390 454
#     4  12  26  48  73 110 146 195 258 303 382 463
#     4  11  24  46  74 106 143 193 257 314 384 459
#     4  11  25  44  75 106 140 199 259 318 374 464
#
# _framework density 22.581907000000001
#
# number of rings (size 3 to 8) (size 9 to 14) (size 15 to 20)
#    0.000    0.667    3.333    3.000    9.333    4.667 
#    0.000    0.000    0.000    0.000    0.000    0.000 
#    0.000    0.000    0.000    0.000    0.000    0.000 
#
# Total GULP energy -134030.557813 kJ/mol
# GULP energy per Si atom -5584.606576 kJ/mol
# Density = 2.253051 g / cm^3
# Si number density = 22.581907 Si / 1000 Ang^3
#
#
#
# Elastic Constant Matrix: (Units=GPa)
#
#
# Indices 1 2 3 4 5 6 
#
# 1 128.8173 33.8351 40.6015 0.0000 0.0000 0.0000
# 2 33.8351 92.8718 44.9900 0.0000 0.0000 0.0000
# 3 40.6015 44.9900 105.7040 0.0000 0.0000 0.0000
# 4 0.0000 0.0000 0.0000 45.9112 0.0000 0.0000
# 5 0.0000 0.0000 0.0000 0.0000 26.3162 0.0000
# 6 0.0000 0.0000 0.0000 0.0000 0.0000 29.5353
#
#
#
# Elastic Compliance Matrix: (Units=1/GPa)
#
#
# Indices 1 2 3 4 5 6 
#
# 1 0.009132 -0.002051 -0.002635 0.000000 0.000000 0.000000
# 2 -0.002051 0.014025 -0.005182 0.000000 0.000000 0.000000
# 3 -0.002635 -0.005182 0.012678 0.000000 0.000000 0.000000
# 4 0.000000 0.000000 0.000000 0.021781 0.000000 0.000000
# 5 0.000000 0.000000 0.000000 0.000000 0.037999 0.000000
# 6 0.000000 0.000000 0.000000 0.000000 0.000000 0.033858
#
#
# Mechanical properties :
#
#
# Convention : Reuss Voigt Hill
#
# Bulk Modulus (GPa) = 62.10994 62.91627 62.51310
# Shear Modulus (GPa) = 32.34700 34.21699 33.28200
#
# Velocity S-wave (km/s) = 3.78885 3.89683 3.84322
# Velocity P-wave (km/s) = 6.83407 6.94038 6.88743
#
# Compressibility (1/GPa) = 0.01610048
#
# Stress axis : x y z
#
# Youngs Moduli (GPa) = 109.50487 71.30265 78.87761
#
# Poissons Ratio (x) = 0.14621 0.20783
# Poissons Ratio (y) = 0.22455 0.40871
# Poissons Ratio (z) = 0.28853 0.36946
#
# Static dielectric constant tensor:
#      x y z
#    x 1.779930 0.000000 0.000000 
#    y 0.000000 1.966300 0.000000 
#    z 0.000000 0.000000 1.846060 
# 
# From -- ./inp_files/4331.got.cif
#   From: 2010.05.17/outbox.cif.g08.bks.cpg/sg31_3_cif.got.tgz:4331.got - 2010.06.03 17:08:30.
