data_PCOD9343903
_publ_section_title
;
Structure prediction by ZEFSAII (Michael W. Deem and Ramdas Pophale) SiO2 
 PCOD9343903
Probable space group: P B A 2
;
_chemical_formula_sum "Si O2"
_cell_formula_units_Z 20
_cell_length_a 17.474384
_cell_length_b 7.410717
_cell_length_c 6.818476
_cell_angle_alpha 90.000000
_cell_angle_beta 90.000000
_cell_angle_gamma 90.000000
_cell_volume 882.977059
_symmetry_space_group_name_H-M "P B A 2"
_symmetry_group_IT_number 32
_symmetry_cell_setting 'orthorhombic'
loop_
_space_group_symop_operation_xyz
x,y,z
-x,-y,z
1/2-x,1/2+y,z
1/2+x,1/2-y,z
loop_
_atom_site_type_symbol
_atom_site_label
_atom_site_fract_x
_atom_site_fract_y
_atom_site_fract_z
Si Si1 0.147028 0.251054 0.022950
Si Si2 0.483752 0.204067 0.862542
Si Si3 0.914405 0.437277 0.258246
Si Si4 0.248911 0.531486 0.804962
Si Si5 0.140464 0.813333 0.596696
O O1 0.133914 0.380006 0.211532
O O2 0.190689 0.374277 0.864399
O O3 0.201107 0.077040 0.001280
O O4 0.062020 0.213823 0.944737
O O5 0.441282 0.321778 0.702458
O O6 0.500000 0.000000 0.784134
O O7 0.431078 0.161290 0.051428
O O8 0.873519 0.292985 0.396291
O O9 0.000000 0.500000 0.325075
O O10 0.190920 0.681529 0.731213
O O11 0.309215 0.491857 0.628356
#
# Coordination Sequence:
#
# PCOD9343903 Si02
#       5
#     4   4   4   4   4
#     4   9  19  37  56  84 113 154 194 241 294 355
#     4   9  17  36  59  79 108 151 201 238 284 353
#     4   9  19  34  62  85 105 153 210 236 284 353
#     4  10  21  34  56  86 118 151 186 242 309 345
#     4  11  20  36  57  83 116 151 195 241 295 351
#
# _framework density 22.650642999999999
#
# number of rings (size 3 to 8) (size 9 to 14) (size 15 to 20)
#    0.000    2.800    4.000    0.600    0.000    2.400 
#    0.000    0.000    0.000    2.400    0.000    0.000 
#    0.000    0.000    0.000    0.000    0.000    0.000 
#
# Total GULP energy -111345.593210 kJ/mol
# GULP energy per Si atom -5567.279660 kJ/mol
# Density = 2.259909 g / cm^3
# Si number density = 22.650643 Si / 1000 Ang^3
#
#
#
# Elastic Constant Matrix: (Units=GPa)
#
#
# Indices 1 2 3 4 5 6 
#
# 1 91.7577 21.4671 36.3819 0.0000 0.0000 0.0000
# 2 21.4671 27.0708 12.5743 0.0000 0.0000 0.0000
# 3 36.3819 12.5743 70.9589 0.0000 0.0000 0.0000
# 4 0.0000 0.0000 0.0000 22.7917 0.0000 0.0000
# 5 0.0000 0.0000 0.0000 0.0000 -0.0090 0.0000
# 6 0.0000 0.0000 0.0000 0.0000 0.0000 5.5257
#
#
#
# Elastic Compliance Matrix: (Units=1/GPa)
#
#
# Indices 1 2 3 4 5 6 
#
# 1 0.015619 -0.009444 -0.006335 0.000000 0.000000 0.000000
# 2 -0.009444 0.045963 -0.003303 0.000000 0.000000 0.000000
# 3 -0.006335 -0.003303 0.017926 0.000000 0.000000 0.000000
# 4 0.000000 0.000000 0.000000 0.043876 0.000000 0.000000
# 5 0.000000 0.000000 0.000000 0.000000********** 0.000000
# 6 0.000000 0.000000 0.000000 0.000000 0.000000 0.180973
#
#
# Mechanical properties :
#
#
# Convention : Reuss Voigt Hill
#
# Bulk Modulus (GPa) = 24.18640 36.73711 30.46175
# Shear Modulus (GPa) = -0.04526 13.61929 6.78701
#
# Velocity S-wave (km/s) = -0.14151 2.45475 1.73289
# Velocity P-wave (km/s) = 3.26719 4.92835 4.18110
#
# Compressibility (1/GPa) = 0.04134555
#
# Stress axis : x y z
#
# Youngs Moduli (GPa) = 64.02280 21.75651 55.78494
#
# Poissons Ratio (x) = 0.20546 0.35339
# Poissons Ratio (y) = 0.60461 0.18426
# Poissons Ratio (z) = 0.40558 0.07186
#
# Static dielectric constant tensor:
#      x y z
#    x 1.856240 0.000000 0.000000 
#    y 0.000000 2.156290 0.000000 
#    z 0.000000 0.000000 1.873660 
# 
# From -- ./inp_files/2262.got.cif
#   From: 2010.05.17/outbox.cif.g08.bks.cpg/sg32_2_cif.got.tgz:2262.got - 2010.06.03 17:12:27.
