data_PCOD9343562
_publ_section_title
;
Structure prediction by ZEFSAII (Michael W. Deem and Ramdas Pophale) SiO2 
 PCOD9343562
Probable space group: P M N 21
;
_chemical_formula_sum "Si O2"
_cell_formula_units_Z 32
_cell_length_a 8.741709
_cell_length_b 12.013916
_cell_length_c 15.553741
_cell_angle_alpha 90.000000
_cell_angle_beta 90.000000
_cell_angle_gamma 90.000000
_cell_volume 1633.487439
_symmetry_space_group_name_H-M "P M N 21"
_symmetry_group_IT_number 31
_symmetry_cell_setting 'orthorhombic'
loop_
_space_group_symop_operation_xyz
x,y,z
1/2-x,-y,1/2+z
-x,y,z
1/2+x,-y,1/2+z
loop_
_atom_site_type_symbol
_atom_site_label
_atom_site_fract_x
_atom_site_fract_y
_atom_site_fract_z
Si Si1 0.817815 0.248827 0.183900
Si Si2 0.682142 0.755859 0.389161
Si Si3 0.181126 0.496764 0.951178
Si Si4 0.682059 0.708891 0.876804
Si Si5 0.818294 0.511389 0.637567
Si Si6 0.182907 0.846031 0.035364
Si Si7 0.317865 0.092599 0.039361
Si Si8 0.182865 0.710008 0.208893
O O1 0.785452 0.235058 0.284975
O O2 0.763031 0.372587 0.159380
O O3 0.733957 0.161246 0.123262
O O4 0.000000 0.240432 0.169347
O O5 0.500000 0.773831 0.387955
O O6 0.709520 0.628506 0.419656
O O7 0.758743 0.837969 0.457299
O O8 0.751631 0.766158 0.294411
O O9 0.235994 0.589404 0.884131
O O10 0.000000 0.509842 0.967468
O O11 0.271607 0.516562 0.039574
O O12 0.500000 0.692450 0.882858
O O13 0.740886 0.782522 0.955626
O O14 0.757979 0.410960 0.696122
O O15 0.000000 0.522668 0.645697
O O16 0.218692 0.781735 0.123976
O O17 0.000000 0.844312 0.024423
O O18 0.242862 0.971339 0.039814
O O19 0.500000 0.083386 0.036505
O O20 0.000000 0.698210 0.215361
#
# Coordination Sequence:
#
# PCOD9343562 Si02
#       8
#     4   4   4   4   4   4   4   4
#     4  11  24  43  66  95 132 169 211 262 321 382
#     4  11  24  42  67  96 131 170 212 262 317 383
#     4  11  22  38  63  94 131 171 209 256 319 382
#     4  11  24  41  66  97 130 168 212 263 316 379
#     4  12  23  37  64  97 131 170 213 259 318 383
#     4  11  25  45  68  91 125 170 214 266 321 377
#     4  12  26  44  68  94 125 166 216 269 319 379
#     4  11  24  42  66  96 131 170 213 263 321 379
#
# _framework density 19.589988000000002
#
# number of rings (size 3 to 8) (size 9 to 14) (size 15 to 20)
#    0.000    0.750    2.500    5.250    0.000    8.000 
#    0.000    1.250    0.000    0.000    0.000    0.000 
#    0.000    0.000    0.000    0.000    0.000    0.000 
#
# Total GULP energy -179147.814190 kJ/mol
# GULP energy per Si atom -5598.369193 kJ/mol
# Density = 1.954540 g / cm^3
# Si number density = 19.589988 Si / 1000 Ang^3
#
#
#
# Elastic Constant Matrix: (Units=GPa)
#
#
# Indices 1 2 3 4 5 6 
#
# 1 33.2552 3.8874 18.4957 0.0000 0.0000 0.0000
# 2 3.8874 80.6751 6.2661 0.0000 0.0000 0.0000
# 3 18.4957 6.2661 84.4478 0.0000 0.0000 0.0000
# 4 0.0000 0.0000 0.0000 2.2453 0.0000 0.0000
# 5 0.0000 0.0000 0.0000 0.0000 29.8972 0.0000
# 6 0.0000 0.0000 0.0000 0.0000 0.0000 136.1948
#
#
#
# Elastic Compliance Matrix: (Units=1/GPa)
#
#
# Indices 1 2 3 4 5 6 
#
# 1 0.034334 -0.001077 -0.007440 0.000000 0.000000 0.000000
# 2 -0.001077 0.012501 -0.000692 0.000000 0.000000 0.000000
# 3 -0.007440 -0.000692 0.013522 0.000000 0.000000 0.000000
# 4 0.000000 0.000000 0.000000 0.445383 0.000000 0.000000
# 5 0.000000 0.000000 0.000000 0.000000 0.033448 0.000000
# 6 0.000000 0.000000 0.000000 0.000000 0.000000 0.007342
#
#
# Mechanical properties :
#
#
# Convention : Reuss Voigt Hill
#
# Bulk Modulus (GPa) = 23.84300 28.40851 26.12575
# Shear Modulus (GPa) = 8.63666 44.98270 26.80968
#
# Velocity S-wave (km/s) = 2.10197 4.79708 3.70339
# Velocity P-wave (km/s) = 4.25305 6.72426 5.62601
#
# Compressibility (1/GPa) = 0.04194103
#
# Stress axis : x y z
#
# Youngs Moduli (GPa) = 29.12544 79.99357 73.95109
#
# Poissons Ratio (x) = 0.08612 0.55019
# Poissons Ratio (y) = 0.03136 0.05116
# Poissons Ratio (z) = 0.21669 0.05534
#
# Static dielectric constant tensor:
#      x y z
#    x 1.650340 0.000000 0.000000 
#    y 0.000000 1.652690 0.000000 
#    z 0.000000 0.000000 1.687470 
# 
# From -- ./inp_files/4986.got.cif
#   From: 2010.05.17/outbox.cif.g08.bks.cpg/sg31_3_cif.got.tgz:4986.got - 2010.06.03 17:08:30.
