data_PCOD9343978
_publ_section_title
;
Structure prediction by ZEFSAII (Michael W. Deem and Ramdas Pophale) SiO2 
 PCOD9343978
Probable space group: P B A 2
;
_chemical_formula_sum "Si O2"
_cell_formula_units_Z 20
_cell_length_a 17.926637
_cell_length_b 7.842091
_cell_length_c 6.488200
_cell_angle_alpha 90.000000
_cell_angle_beta 90.000000
_cell_angle_gamma 90.000000
_cell_volume 912.126200
_symmetry_space_group_name_H-M "P B A 2"
_symmetry_group_IT_number 32
_symmetry_cell_setting 'orthorhombic'
loop_
_space_group_symop_operation_xyz
x,y,z
-x,-y,z
1/2-x,1/2+y,z
1/2+x,1/2-y,z
loop_
_atom_site_type_symbol
_atom_site_label
_atom_site_fract_x
_atom_site_fract_y
_atom_site_fract_z
Si Si1 0.312941 0.335547 0.253530
Si Si2 0.818013 0.654486 0.935268
Si Si3 0.429479 0.882377 0.265242
Si Si4 0.575768 0.440277 0.009511
Si Si5 0.804061 0.487569 0.515301
O O1 0.380660 0.408568 0.122319
O O2 0.271218 0.478794 0.389150
O O3 0.330626 0.192979 0.424991
O O4 0.249217 0.288611 0.084628
O O5 0.792067 0.533963 0.751759
O O6 0.877962 0.550501 0.074531
O O7 0.865119 0.825554 0.881501
O O8 0.370782 0.884995 0.449854
O O9 0.500000 0.000000 0.301691
O O10 0.448845 0.693656 0.188832
O O11 0.500000 0.500000 0.901359
#
# Coordination Sequence:
#
# PCOD9343978 Si02
#       5
#     4   4   4   4   4
#     4  11  21  40  62  95 127 176 227 297 345 423
#     4   9  23  37  63  92 133 171 235 281 356 418
#     4   9  20  39  60  89 131 172 222 283 349 424
#     4  10  21  42  65  91 135 177 225 291 354 420
#     4  11  21  36  64  89 127 172 231 283 350 425
#
# _framework density 21.926787999999998
#
# number of rings (size 3 to 8) (size 9 to 14) (size 15 to 20)
#    1.200    0.800    2.000    1.200    2.800    0.800 
#    0.000    1.000    0.000    0.000    0.000    0.000 
#    0.000    0.000    0.000    0.000    0.000    0.000 
#
# Total GULP energy -111380.774400 kJ/mol
# GULP energy per Si atom -5569.038720 kJ/mol
# Density = 2.187688 g / cm^3
# Si number density = 21.926788 Si / 1000 Ang^3
#
#
#
# Elastic Constant Matrix: (Units=GPa)
#
#
# Indices 1 2 3 4 5 6 
#
# 1 109.3433 18.3132 20.9992 0.0000 0.0000 0.0000
# 2 18.3132 74.9340 22.8302 0.0000 0.0000 0.0000
# 3 20.9992 22.8302 89.2534 0.0000 0.0000 0.0000
# 4 0.0000 0.0000 0.0000 32.5043 0.0000 0.0000
# 5 0.0000 0.0000 0.0000 0.0000 13.1395 0.0000
# 6 0.0000 0.0000 0.0000 0.0000 0.0000 39.7649
#
#
#
# Elastic Compliance Matrix: (Units=1/GPa)
#
#
# Indices 1 2 3 4 5 6 
#
# 1 0.009806 -0.001837 -0.001837 0.000000 0.000000 0.000000
# 2 -0.001837 0.014817 -0.003358 0.000000 0.000000 0.000000
# 3 -0.001837 -0.003358 0.012495 0.000000 0.000000 0.000000
# 4 0.000000 0.000000 0.000000 0.030765 0.000000 0.000000
# 5 0.000000 0.000000 0.000000 0.000000 0.076107 0.000000
# 6 0.000000 0.000000 0.000000 0.000000 0.000000 0.025148
#
#
# Mechanical properties :
#
#
# Convention : Reuss Voigt Hill
#
# Bulk Modulus (GPa) = 43.37576 44.20180 43.78878
# Shear Modulus (GPa) = 26.19357 31.17426 28.68391
#
# Velocity S-wave (km/s) = 3.46004 3.77469 3.62078
# Velocity P-wave (km/s) = 5.98227 6.26101 6.12323
#
# Compressibility (1/GPa) = 0.02305435
#
# Stress axis : x y z
#
# Youngs Moduli (GPa) = 101.97858 67.48999 80.03036
#
# Poissons Ratio (x) = 0.12396 0.14704
# Poissons Ratio (y) = 0.18731 0.26874
# Poissons Ratio (z) = 0.18737 0.22663
#
# Static dielectric constant tensor:
#      x y z
#    x 1.814910 0.000000 0.000000 
#    y 0.000000 1.884910 0.000000 
#    z 0.000000 0.000000 1.804020 
# 
# From -- ./inp_files/1388.got.cif
#   From: 2010.05.17/outbox.cif.g08.bks.cpg/sg32_1_cif.got.tgz:1388.got - 2010.06.03 17:12:27.
