data_PCOD9343162
_publ_section_title
;
Structure prediction by ZEFSAII (Michael W. Deem and Ramdas Pophale) SiO2 
 PCOD9343162
Probable space group: P M N 21
;
_chemical_formula_sum "Si O2"
_cell_formula_units_Z 32
_cell_length_a 8.910135
_cell_length_b 14.903348
_cell_length_c 12.539561
_cell_angle_alpha 90.000000
_cell_angle_beta 90.000000
_cell_angle_gamma 90.000000
_cell_volume 1665.138871
_symmetry_space_group_name_H-M "P M N 21"
_symmetry_group_IT_number 31
_symmetry_cell_setting 'orthorhombic'
loop_
_space_group_symop_operation_xyz
x,y,z
1/2-x,-y,1/2+z
-x,y,z
1/2+x,-y,1/2+z
loop_
_atom_site_type_symbol
_atom_site_label
_atom_site_fract_x
_atom_site_fract_y
_atom_site_fract_z
Si Si1 0.676415 0.675081 0.317570
Si Si2 0.319715 0.353684 0.439166
Si Si3 0.181891 0.450252 0.001960
Si Si4 0.668305 0.164025 0.914271
Si Si5 0.327409 0.054410 0.700859
Si Si6 0.681029 0.334453 0.193746
Si Si7 0.680171 0.772668 0.104515
Si Si8 0.674264 0.129166 0.157370
O O1 0.500000 0.660233 0.302134
O O2 0.733852 0.592495 0.388422
O O3 0.709294 0.760148 0.393255
O O4 0.736257 0.707947 0.202641
O O5 0.500000 0.342976 0.445462
O O6 0.276976 0.445196 0.500167
O O7 0.281888 0.363439 0.314215
O O8 0.242533 0.269830 0.496441
O O9 0.247765 0.395254 0.101286
O O10 0.000000 0.443653 0.005082
O O11 0.500000 0.205763 0.907699
O O12 0.680170 0.092703 0.820541
O O13 0.681887 0.121937 0.029560
O O14 0.500000 0.054776 0.665693
O O15 0.237677 0.127256 0.630205
O O16 0.264034 0.954627 0.701247
O O17 0.500000 0.337987 0.180543
O O18 0.726857 0.229921 0.183284
O O19 0.500000 0.772923 0.104912
O O20 0.500000 0.122787 0.190900
#
# Coordination Sequence:
#
# PCOD9343162 Si02
#       8
#     4   4   4   4   4   4   4   4
#     4   9  18  33  56  83 109 143 187 239 288 336
#     4  10  23  40  58  85 123 161 195 242 296 350
#     4  10  21  37  58  85 117 150 192 244 292 344
#     4   9  18  34  54  79 109 143 188 239 287 337
#     4  10  21  36  57  84 115 153 193 240 296 351
#     4  10  22  40  62  86 118 156 197 243 295 353
#     4  10  21  38  60  85 116 154 197 242 289 347
#     4  10  20  36  57  83 113 148 193 243 291 348
#
# _framework density 19.217617000000001
#
# number of rings (size 3 to 8) (size 9 to 14) (size 15 to 20)
#    0.000    2.250    1.250    0.750    1.750    4.000 
#    0.000    2.500    0.000    0.000    0.000    0.000 
#    0.000    0.000    0.000    0.000    0.000    0.000 
#
# Total GULP energy -178447.845559 kJ/mol
# GULP energy per Si atom -5576.495174 kJ/mol
# Density = 1.917388 g / cm^3
# Si number density = 19.217617 Si / 1000 Ang^3
#
#
#
# Elastic Constant Matrix: (Units=GPa)
#
#
# Indices 1 2 3 4 5 6 
#
# 1 27.9981 32.4828 21.0496 0.0000 0.0000 0.0000
# 2 32.4828 109.5570 33.4324 0.0000 0.0000 0.0000
# 3 21.0496 33.4324 56.7032 0.0000 0.0000 0.0000
# 4 0.0000 0.0000 0.0000 10.8401 0.0000 0.0000
# 5 0.0000 0.0000 0.0000 0.0000 23.0655 0.0000
# 6 0.0000 0.0000 0.0000 0.0000 0.0000 25.5381
#
#
#
# Elastic Compliance Matrix: (Units=1/GPa)
#
#
# Indices 1 2 3 4 5 6 
#
# 1 0.063695 -0.014230 -0.015255 0.000000 0.000000 0.000000
# 2 -0.014230 0.014309 -0.003154 0.000000 0.000000 0.000000
# 3 -0.015255 -0.003154 0.025159 0.000000 0.000000 0.000000
# 4 0.000000 0.000000 0.000000 0.092250 0.000000 0.000000
# 5 0.000000 0.000000 0.000000 0.000000 0.043355 0.000000
# 6 0.000000 0.000000 0.000000 0.000000 0.000000 0.039157
#
#
# Mechanical properties :
#
#
# Convention : Reuss Voigt Hill
#
# Bulk Modulus (GPa) = 26.39621 40.90977 33.65299
# Shear Modulus (GPa) = 14.05160 19.04166 16.54663
#
# Velocity S-wave (km/s) = 2.70697 3.15118 2.93749
# Velocity P-wave (km/s) = 4.85134 5.87995 5.39024
#
# Compressibility (1/GPa) = 0.03788422
#
# Stress axis : x y z
#
# Youngs Moduli (GPa) = 15.69982 69.88475 39.74788
#
# Poissons Ratio (x) = 0.99445 0.60636
# Poissons Ratio (y) = 0.22341 0.12538
# Poissons Ratio (z) = 0.23950 0.22044
#
# Static dielectric constant tensor:
#      x y z
#    x 1.669380 0.000000 0.000000 
#    y 0.000000 1.660530 0.000000 
#    z 0.000000 0.000000 1.674470 
# 
# From -- ./inp_files/3625.got.cif
#   From: 2010.05.17/outbox.cif.g08.bks.cpg/sg31_2_cif.got.tgz:3625.got - 2010.06.03 17:08:30.
