data_PCOD9343019
_publ_section_title
;
Structure prediction by ZEFSAII (Michael W. Deem and Ramdas Pophale) SiO2 
 PCOD9343019
Probable space group: P M N 21
;
_chemical_formula_sum "Si O2"
_cell_formula_units_Z 32
_cell_length_a 13.675689
_cell_length_b 10.478856
_cell_length_c 10.361442
_cell_angle_alpha 90.000000
_cell_angle_beta 90.000000
_cell_angle_gamma 90.000000
_cell_volume 1484.852411
_symmetry_space_group_name_H-M "P M N 21"
_symmetry_group_IT_number 31
_symmetry_cell_setting 'orthorhombic'
loop_
_space_group_symop_operation_xyz
x,y,z
1/2-x,-y,1/2+z
-x,y,z
1/2+x,-y,1/2+z
loop_
_atom_site_type_symbol
_atom_site_label
_atom_site_fract_x
_atom_site_fract_y
_atom_site_fract_z
Si Si1 0.112939 0.930975 0.762490
Si Si2 0.395125 0.214505 0.000022
Si Si3 0.604957 0.249621 0.725253
Si Si4 0.231474 0.098003 0.605770
Si Si5 0.111117 0.122529 0.085838
Si Si6 0.301159 0.502251 0.772242
Si Si7 0.702152 0.625298 0.495348
Si Si8 0.804387 0.209926 0.352768
O O1 0.107702 0.887307 0.612802
O O2 0.190145 0.833613 0.828258
O O3 0.000000 0.936046 0.809286
O O4 0.172083 0.061802 0.736022
O O5 0.500000 0.280760 0.012209
O O6 0.305317 0.305916 0.020256
O O7 0.389623 0.162976 0.854313
O O8 0.500000 0.232996 0.661989
O O9 0.695299 0.213173 0.638980
O O10 0.617147 0.392377 0.779142
O O11 0.167209 0.147605 0.487825
O O12 0.305595 0.984057 0.559285
O O13 0.127834 0.256028 0.009989
O O14 0.133018 0.155118 0.234852
O O15 0.000000 0.078413 0.068561
O O16 0.302269 0.532045 0.618793
O O17 0.316018 0.638012 0.841565
O O18 0.211052 0.440308 0.854814
#
# Coordination Sequence:
#
# PCOD9343019 Si02
#       8
#     4   4   4   4   4   4   4   4
#     4  10  21  37  59  84 114 152 194 238 294 356
#     4   9  17  35  59  82 110 149 197 237 290 357
#     4  10  22  36  60  90 117 155 200 246 295 360
#     4  11  22  38  60  90 121 152 196 252 307 357
#     4  10  22  39  59  86 121 161 202 249 309 372
#     4  10  20  37  60  82 120 160 204 250 302 360
#     4  10  19  37  58  89 118 161 204 257 309 359
#     4  10  22  39  58  87 119 158 196 249 305 357
#
# _framework density 21.550961999999998
#
# number of rings (size 3 to 8) (size 9 to 14) (size 15 to 20)
#    0.000    2.000    3.750    1.125    3.500    3.500 
#    0.000    1.250    0.000    3.000    0.000    0.000 
#    0.000    0.000    0.000    0.000    0.000    0.000 
#
# Total GULP energy -178188.841892 kJ/mol
# GULP energy per Si atom -5568.401309 kJ/mol
# Density = 2.150191 g / cm^3
# Si number density = 21.550962 Si / 1000 Ang^3
#
#
#
# Elastic Constant Matrix: (Units=GPa)
#
#
# Indices 1 2 3 4 5 6 
#
# 1 78.7300 7.7592 -9.8272 0.0000 0.0000 0.0000
# 2 7.7592 86.8852 19.3184 0.0000 0.0000 0.0000
# 3 -9.8272 19.3184 51.3210 0.0000 0.0000 0.0000
# 4 0.0000 0.0000 0.0000 34.9254 0.0000 0.0000
# 5 0.0000 0.0000 0.0000 0.0000 13.4833 0.0000
# 6 0.0000 0.0000 0.0000 0.0000 0.0000 -2.5591
#
#
#
# Elastic Compliance Matrix: (Units=1/GPa)
#
#
# Indices 1 2 3 4 5 6 
#
# 1 0.013298 -0.001914 0.003267 0.000000 0.000000 0.000000
# 2 -0.001914 0.012836 -0.005198 0.000000 0.000000 0.000000
# 3 0.003267 -0.005198 0.022068 0.000000 0.000000 0.000000
# 4 0.000000 0.000000 0.000000 0.028632 0.000000 0.000000
# 5 0.000000 0.000000 0.000000 0.000000 0.074166 0.000000
# 6 0.000000 0.000000 0.000000 0.000000 0.000000 -0.390769
#
#
# Mechanical properties :
#
#
# Convention : Reuss Voigt Hill
#
# Bulk Modulus (GPa) = 24.68471 27.93742 26.31106
# Shear Modulus (GPa) = -22.87543 22.48232 -0.19656
#
# Velocity S-wave (km/s) = -3.26154 3.23339 -0.30233
# Velocity P-wave (km/s) = 1.64454 5.18954 3.48043
#
# Compressibility (1/GPa) = 0.04051091
#
# Stress axis : x y z
#
# Youngs Moduli (GPa) = 75.19904 77.90479 45.31548
#
# Poissons Ratio (x) = 0.14910 -0.14804
# Poissons Ratio (y) = 0.14393 0.23556
# Poissons Ratio (z) = -0.24566 0.40497
#
# Static dielectric constant tensor:
#      x y z
#    x 1.840570 0.000000 0.000000 
#    y 0.000000 1.859610 0.000000 
#    z 0.000000 0.000000 1.887270 
# 
# From -- ./inp_files/4299.got.cif
#   From: 2010.05.17/outbox.cif.g08.bks.cpg/sg31_3_cif.got.tgz:4299.got - 2010.06.03 17:08:30.
