data_PCOD9343112
_publ_section_title
;
Structure prediction by ZEFSAII (Michael W. Deem and Ramdas Pophale) SiO2 
 PCOD9343112
Probable space group: P M N 21
;
_chemical_formula_sum "Si O2"
_cell_formula_units_Z 32
_cell_length_a 7.595585
_cell_length_b 12.947260
_cell_length_c 12.781357
_cell_angle_alpha 90.000000
_cell_angle_beta 90.000000
_cell_angle_gamma 90.000000
_cell_volume 1256.944387
_symmetry_space_group_name_H-M "P M N 21"
_symmetry_group_IT_number 31
_symmetry_cell_setting 'orthorhombic'
loop_
_space_group_symop_operation_xyz
x,y,z
1/2-x,-y,1/2+z
-x,y,z
1/2+x,-y,1/2+z
loop_
_atom_site_type_symbol
_atom_site_label
_atom_site_fract_x
_atom_site_fract_y
_atom_site_fract_z
Si Si1 0.787410 0.908754 0.505170
Si Si2 0.299873 0.863925 0.051167
Si Si3 0.215320 0.348637 0.598628
Si Si4 0.203435 0.577903 0.553427
Si Si5 0.301430 0.630533 0.776705
Si Si6 0.285894 0.079385 0.779328
Si Si7 0.208721 0.153609 0.235342
Si Si8 0.297874 0.600341 0.326932
O O1 0.733586 0.872265 0.390242
O O2 0.738672 0.849564 0.610260
O O3 0.000000 0.912859 0.505096
O O4 0.720035 0.027210 0.517031
O O5 0.500000 0.862873 0.009591
O O6 0.219984 0.751107 0.036281
O O7 0.300230 0.872226 0.177550
O O8 0.258912 0.457774 0.547104
O O9 0.279307 0.354125 0.719260
O O10 0.000000 0.342628 0.601510
O O11 0.309050 0.623853 0.649874
O O12 0.215789 0.625786 0.438777
O O13 0.000000 0.581487 0.587033
O O14 0.500000 0.627303 0.821254
O O15 0.218660 0.743855 0.790392
O O16 0.212810 0.524197 0.811026
O O17 0.500000 0.084510 0.768158
O O18 0.233742 0.957917 0.777364
O O19 0.000000 0.158544 0.251639
O O20 0.500000 0.630884 0.332500
#
# Coordination Sequence:
#
# PCOD9343112 Si02
#       8
#     4   4   4   4   4   4   4   4
#     4   9  18  31  50  73  98 127 162 204 248 291
#     4   9  17  32  52  72  93 125 165 202 239 289
#     4   8  17  33  52  72  97 128 165 204 245 294
#     4  10  20  35  54  76 102 135 170 210 256 304
#     4  10  20  35  54  76 101 135 174 212 253 301
#     4   9  18  33  49  71 101 130 161 203 250 297
#     4   9  19  34  52  72  99 133 168 205 249 300
#     4  10  20  35  53  76 105 135 167 210 256 304
#
# _framework density 25.458566000000001
#
# number of rings (size 3 to 8) (size 9 to 14) (size 15 to 20)
#    0.000    2.750    0.000    1.875    0.000    3.500 
#    0.000   11.250    0.000    3.000    0.000    0.000 
#    0.000    0.000    0.000    0.000    0.000    0.000 
#
# Total GULP energy -178807.741355 kJ/mol
# GULP energy per Si atom -5587.741917 kJ/mol
# Density = 2.540062 g / cm^3
# Si number density = 25.458566 Si / 1000 Ang^3
#
#
#
# Elastic Constant Matrix: (Units=GPa)
#
#
# Indices 1 2 3 4 5 6 
#
# 1 66.0679 0.9640 0.5128 0.0000 0.0000 0.0000
# 2 0.9640 75.6588 -18.0732 0.0000 0.0000 0.0000
# 3 0.5128 -18.0732 148.0464 0.0000 0.0000 0.0000
# 4 0.0000 0.0000 0.0000 -12.2684 0.0000 0.0000
# 5 0.0000 0.0000 0.0000 0.0000 29.6114 0.0000
# 6 0.0000 0.0000 0.0000 0.0000 0.0000 9.8579
#
#
#
# Elastic Compliance Matrix: (Units=1/GPa)
#
#
# Indices 1 2 3 4 5 6 
#
# 1 0.015140 -0.000212 -0.000078 0.000000 0.000000 0.000000
# 2 -0.000212 0.013617 0.001663 0.000000 0.000000 0.000000
# 3 -0.000078 0.001663 0.006958 0.000000 0.000000 0.000000
# 4 0.000000 0.000000 0.000000 -0.081510 0.000000 0.000000
# 5 0.000000 0.000000 0.000000 0.000000 0.033771 0.000000
# 6 0.000000 0.000000 0.000000 0.000000 0.000000 0.101441
#
#
# Mechanical properties :
#
#
# Convention : Reuss Voigt Hill
#
# Bulk Modulus (GPa) = 26.00021 28.50893 27.25457
# Shear Modulus (GPa) = 50.25587 25.86480 38.06034
#
# Velocity S-wave (km/s) = 4.44782 3.19087 3.87071
# Velocity P-wave (km/s) = 6.05082 4.97976 5.54123
#
# Compressibility (1/GPa) = 0.03846122
#
# Stress axis : x y z
#
# Youngs Moduli (GPa) = 66.05174 73.43656 143.72074
#
# Poissons Ratio (x) = 0.01554 0.01125
# Poissons Ratio (y) = 0.01398 -0.23902
# Poissons Ratio (z) = 0.00517 -0.12213
#
# Static dielectric constant tensor:
#      x y z
#    x 1.935020 0.000000 0.000000 
#    y 0.000000 2.043420 0.000000 
#    z 0.000000 0.000000 1.987130 
# 
# From -- ./inp_files/5123.got.cif
#   From: 2010.05.17/outbox.cif.g08.bks.cpg/sg31_3_cif.got.tgz:5123.got - 2010.06.03 17:08:30.
