data_PCOD9343048
_publ_section_title
;
Structure prediction by ZEFSAII (Michael W. Deem and Ramdas Pophale) SiO2 
 PCOD9343048
Probable space group: P M N 21
;
_chemical_formula_sum "Si O2"
_cell_formula_units_Z 32
_cell_length_a 7.496847
_cell_length_b 11.683007
_cell_length_c 16.301210
_cell_angle_alpha 90.000000
_cell_angle_beta 90.000000
_cell_angle_gamma 90.000000
_cell_volume 1427.753149
_symmetry_space_group_name_H-M "P M N 21"
_symmetry_group_IT_number 31
_symmetry_cell_setting 'orthorhombic'
loop_
_space_group_symop_operation_xyz
x,y,z
1/2-x,-y,1/2+z
-x,y,z
1/2+x,-y,1/2+z
loop_
_atom_site_type_symbol
_atom_site_label
_atom_site_fract_x
_atom_site_fract_y
_atom_site_fract_z
Si Si1 0.283820 0.735175 0.982160
Si Si2 0.300281 0.322567 0.806837
Si Si3 0.210040 0.411736 0.634634
Si Si4 0.218519 0.440526 0.342722
Si Si5 0.280897 0.909817 0.622992
Si Si6 0.296604 0.006371 0.448979
Si Si7 0.714102 0.653690 0.666145
Si Si8 0.293782 0.074161 0.771515
O O1 0.500000 0.744420 0.980333
O O2 0.228389 0.646576 0.912634
O O3 0.208246 0.859703 0.968247
O O4 0.231317 0.678339 0.067317
O O5 0.500000 0.300442 0.840191
O O6 0.309702 0.382497 0.718010
O O7 0.218097 0.428806 0.856600
O O8 0.213085 0.199751 0.789982
O O9 0.237282 0.544295 0.610545
O O10 0.000000 0.395815 0.649547
O O11 0.277325 0.385165 0.256509
O O12 0.000000 0.445756 0.342028
O O13 0.500000 0.912178 0.623374
O O14 0.223316 0.779720 0.641708
O O15 0.222456 0.946718 0.531539
O O16 0.222298 0.996325 0.696492
O O17 0.500000 0.966073 0.439761
O O18 0.210160 0.987547 0.359941
O O19 0.500000 0.660026 0.669036
O O20 0.500000 0.096044 0.748345
#
# Coordination Sequence:
#
# PCOD9343048 Si02
#       8
#     4   4   4   4   4   4   4   4
#     4  10  20  35  53  73 102 139 175 213 264 323
#     4   9  18  34  56  77 100 139 184 216 254 321
#     4  10  20  32  51  80 109 133 165 221 277 312
#     4   8  15  30  53  76  96 126 173 218 250 300
#     4   9  19  36  57  79 108 148 184 217 265 327
#     4  11  23  37  55  83 113 139 179 232 276 318
#     4   9  17  33  55  73  96 136 179 211 252 319
#     4  10  20  37  60  81 106 146 189 222 262 324
#
# _framework density 22.412837
#
# number of rings (size 3 to 8) (size 9 to 14) (size 15 to 20)
#    0.000    2.500    0.000    3.000    0.000    5.500 
#    0.000    9.375    0.000    0.000    0.000    0.000 
#    0.000    0.000    0.000    0.000    0.000    0.000 
#
# Total GULP energy -178508.149183 kJ/mol
# GULP energy per Si atom -5578.379662 kJ/mol
# Density = 2.236182 g / cm^3
# Si number density = 22.412837 Si / 1000 Ang^3
#
#
#
# Elastic Constant Matrix: (Units=GPa)
#
#
# Indices 1 2 3 4 5 6 
#
# 1 62.0224 -5.5611 -3.5157 0.0000 0.0000 0.0000
# 2 -5.5611 119.8362 2.0665 0.0000 0.0000 0.0000
# 3 -3.5157 2.0665 48.1894 0.0000 0.0000 0.0000
# 4 0.0000 0.0000 0.0000 38.4162 0.0000 0.0000
# 5 0.0000 0.0000 0.0000 0.0000 -45.5221 0.0000
# 6 0.0000 0.0000 0.0000 0.0000 0.0000 3.3564
#
#
#
# Elastic Compliance Matrix: (Units=1/GPa)
#
#
# Indices 1 2 3 4 5 6 
#
# 1 0.016255 0.000734 0.001154 0.000000 0.000000 0.000000
# 2 0.000734 0.008384 -0.000306 0.000000 0.000000 0.000000
# 3 0.001154 -0.000306 0.020849 0.000000 0.000000 0.000000
# 4 0.000000 0.000000 0.000000 0.026031 0.000000 0.000000
# 5 0.000000 0.000000 0.000000 0.000000 -0.021967 0.000000
# 6 0.000000 0.000000 0.000000 0.000000 0.000000 0.297939
#
#
# Mechanical properties :
#
#
# Convention : Reuss Voigt Hill
#
# Bulk Modulus (GPa) = 20.55372 24.00303 22.27837
# Shear Modulus (GPa) = 13.86801 15.05399 14.46100
#
# Velocity S-wave (km/s) = 2.49017 2.59447 2.54286
# Velocity P-wave (km/s) = 4.17832 4.43934 4.31081
#
# Compressibility (1/GPa) = 0.04865300
#
# Stress axis : x y z
#
# Youngs Moduli (GPa) = 61.52142 119.27367 47.96437
#
# Poissons Ratio (x) = -0.08759 -0.05537
# Poissons Ratio (y) = -0.04518 0.01467
# Poissons Ratio (z) = -0.07102 0.03649
#
# Static dielectric constant tensor:
#      x y z
#    x 1.989280 0.000000 0.000000 
#    y 0.000000 1.837500 0.000000 
#    z 0.000000 0.000000 1.804040 
# 
# From -- ./inp_files/5022.got.cif
#   From: 2010.05.17/outbox.cif.g08.bks.cpg/sg31_3_cif.got.tgz:5022.got - 2010.06.03 17:08:30.
