data_PCOD9343549
_publ_section_title
;
Structure prediction by ZEFSAII (Michael W. Deem and Ramdas Pophale) SiO2 
 PCOD9343549
Probable space group: P M N 21
;
_chemical_formula_sum "Si O2"
_cell_formula_units_Z 32
_cell_length_a 7.900936
_cell_length_b 6.830479
_cell_length_c 22.312885
_cell_angle_alpha 90.000000
_cell_angle_beta 90.000000
_cell_angle_gamma 90.000000
_cell_volume 1204.163424
_symmetry_space_group_name_H-M "P M N 21"
_symmetry_group_IT_number 31
_symmetry_cell_setting 'orthorhombic'
loop_
_space_group_symop_operation_xyz
x,y,z
1/2-x,-y,1/2+z
-x,y,z
1/2+x,-y,1/2+z
loop_
_atom_site_type_symbol
_atom_site_label
_atom_site_fract_x
_atom_site_fract_y
_atom_site_fract_z
Si Si1 0.201448 0.428890 0.620610
Si Si2 0.291369 0.019420 0.153127
Si Si3 0.692781 0.275872 0.504716
Si Si4 0.807385 0.822576 0.403192
Si Si5 0.808108 0.862864 0.530171
Si Si6 0.804383 0.367098 0.372230
Si Si7 0.796534 0.497462 0.249927
Si Si8 0.803278 0.054645 0.779451
O O1 0.255957 0.205290 0.636996
O O2 0.266375 0.451228 0.551733
O O3 0.252248 0.544945 0.680894
O O4 0.000000 0.436563 0.618550
O O5 0.500000 0.030692 0.153491
O O6 0.224121 0.047125 0.220605
O O7 0.233673 0.150922 0.096950
O O8 0.500000 0.217749 0.515884
O O9 0.815683 0.098984 0.521662
O O10 0.714618 0.305874 0.433701
O O11 0.807054 0.602959 0.379764
O O12 0.753451 0.961100 0.348573
O O13 0.000000 0.877156 0.416496
O O14 0.717195 0.812804 0.467619
O O15 0.000000 0.781437 0.532224
O O16 0.735299 0.354197 0.303964
O O17 0.000000 0.301821 0.374054
O O18 0.720332 0.713202 0.263612
O O19 0.000000 0.509399 0.255402
O O20 0.000000 0.012073 0.779218
#
# Coordination Sequence:
#
# PCOD9343549 Si02
#       8
#     4   4   4   4   4   4   4   4
#     4   9  16  28  46  67  93 123 155 194 241 284
#     4   7  12  23  41  64  86 113 148 184 225 272
#     4  11  21  31  47  72  98 126 163 201 236 281
#     4   9  18  31  49  71  93 122 159 196 237 286
#     4   9  17  32  51  69  93 124 157 195 241 287
#     4   9  18  32  48  69  98 129 159 194 238 285
#     4   9  16  27  45  69  94 119 155 200 239 279
#     4   9  15  24  41  65  93 122 152 190 235 278
#
# _framework density 26.574463999999999
#
# number of rings (size 3 to 8) (size 9 to 14) (size 15 to 20)
#    0.000    3.000    0.000    4.500    0.000    3.000 
#    0.000    0.625    0.000    1.500    0.000    5.250 
#    0.000    0.000    0.000    0.000    0.000    0.000 
#
# Total GULP energy -178600.330471 kJ/mol
# GULP energy per Si atom -5581.260327 kJ/mol
# Density = 2.651398 g / cm^3
# Si number density = 26.574464 Si / 1000 Ang^3
#
#
#
# Elastic Constant Matrix: (Units=GPa)
#
#
# Indices 1 2 3 4 5 6 
#
# 1 86.4227 -6.4481 23.8596 0.0000 0.0000 0.0000
# 2 -6.4481 57.3235 44.8870 0.0000 0.0000 0.0000
# 3 23.8596 44.8870 313.6921 0.0000 0.0000 0.0000
# 4 0.0000 0.0000 0.0000 68.2772 0.0000 0.0000
# 5 0.0000 0.0000 0.0000 0.0000 37.3366 0.0000
# 6 0.0000 0.0000 0.0000 0.0000 0.0000 9.1805
#
#
#
# Elastic Compliance Matrix: (Units=1/GPa)
#
#
# Indices 1 2 3 4 5 6 
#
# 1 0.012092 0.002343 -0.001255 0.000000 0.000000 0.000000
# 2 0.002343 0.020100 -0.003054 0.000000 0.000000 0.000000
# 3 -0.001255 -0.003054 0.003720 0.000000 0.000000 0.000000
# 4 0.000000 0.000000 0.000000 0.014646 0.000000 0.000000
# 5 0.000000 0.000000 0.000000 0.000000 0.026783 0.000000
# 6 0.000000 0.000000 0.000000 0.000000 0.000000 0.108927
#
#
# Mechanical properties :
#
#
# Convention : Reuss Voigt Hill
#
# Bulk Modulus (GPa) = 31.26964 64.67059 47.97012
# Shear Modulus (GPa) = 24.89272 49.30152 37.09712
#
# Velocity S-wave (km/s) = 3.06390 4.31190 3.74032
# Velocity P-wave (km/s) = 4.93042 7.01273 6.06166
#
# Compressibility (1/GPa) = 0.03197990
#
# Stress axis : x y z
#
# Youngs Moduli (GPa) = 82.69709 49.75096 268.79166
#
# Poissons Ratio (x) = -0.11656 0.33734
# Poissons Ratio (y) = -0.19375 0.82099
# Poissons Ratio (z) = 0.10379 0.15196
#
# Static dielectric constant tensor:
#      x y z
#    x 1.961170 0.000000 0.000000 
#    y 0.000000 2.213490 0.000000 
#    z 0.000000 0.000000 2.259400 
# 
# From -- ./inp_files/5846.got.cif
#   From: 2010.05.17/outbox.cif.g08.bks.cpg/sg31_3_cif.got.tgz:5846.got - 2010.06.03 17:08:30.
