data_PCOD9343464
_publ_section_title
;
Structure prediction by ZEFSAII (Michael W. Deem and Ramdas Pophale) SiO2 
 PCOD9343464
Probable space group: P M N 21
;
_chemical_formula_sum "Si O2"
_cell_formula_units_Z 32
_cell_length_a 8.364104
_cell_length_b 15.666961
_cell_length_c 12.199726
_cell_angle_alpha 90.000000
_cell_angle_beta 90.000000
_cell_angle_gamma 90.000000
_cell_volume 1598.653207
_symmetry_space_group_name_H-M "P M N 21"
_symmetry_group_IT_number 31
_symmetry_cell_setting 'orthorhombic'
loop_
_space_group_symop_operation_xyz
x,y,z
1/2-x,-y,1/2+z
-x,y,z
1/2+x,-y,1/2+z
loop_
_atom_site_type_symbol
_atom_site_label
_atom_site_fract_x
_atom_site_fract_y
_atom_site_fract_z
Si Si1 0.805874 0.891734 0.908510
Si Si2 0.682243 0.355561 0.166926
Si Si3 0.806515 0.083006 0.955938
Si Si4 0.686240 0.606001 0.904436
Si Si5 0.189506 0.171765 0.174821
Si Si6 0.806987 0.251195 0.825760
Si Si7 0.691711 0.256531 0.576095
Si Si8 0.686405 0.577719 0.454178
O O1 0.734584 0.856348 0.796119
O O2 0.000000 0.890384 0.901013
O O3 0.750121 0.989045 0.923939
O O4 0.761309 0.828698 0.008166
O O5 0.500000 0.379225 0.144060
O O6 0.721709 0.369717 0.293700
O O7 0.713988 0.256328 0.145440
O O8 0.794031 0.406342 0.083599
O O9 0.749082 0.163531 0.883591
O O10 0.000000 0.081778 0.945147
O O11 0.771805 0.101873 0.083018
O O12 0.500000 0.624053 0.888032
O O13 0.716500 0.506327 0.924158
O O14 0.747208 0.662936 0.005704
O O15 0.000000 0.190875 0.167783
O O16 0.756439 0.255501 0.699417
O O17 0.756451 0.336687 0.891264
O O18 0.000000 0.250180 0.832266
O O19 0.500000 0.259832 0.579763
O O20 0.500000 0.563930 0.426845
#
# Coordination Sequence:
#
# PCOD9343464 Si02
#       8
#     4   4   4   4   4   4   4   4
#     4  10  22  40  62  90 127 167 207 259 316 372
#     4  12  24  42  67  95 128 164 209 264 320 376
#     4   9  20  40  63  90 125 165 208 257 314 372
#     4  12  26  44  67  94 126 167 214 261 315 376
#     4  11  21  39  66  92 122 164 213 263 314 374
#     4  10  22  42  65  89 125 168 210 257 314 376
#     4  11  24  41  62  91 130 168 209 260 316 373
#     4  11  24  44  68  95 127 165 212 261 315 377
#
# _framework density 20.016849000000001
#
# number of rings (size 3 to 8) (size 9 to 14) (size 15 to 20)
#    0.000    1.250    2.500    3.375    3.500    1.500 
#    0.000    1.250    0.000    0.000    0.000    0.000 
#    0.000    0.000    0.000    0.000    0.000    0.000 
#
# Total GULP energy -178863.809997 kJ/mol
# GULP energy per Si atom -5589.494062 kJ/mol
# Density = 1.997129 g / cm^3
# Si number density = 20.016849 Si / 1000 Ang^3
#
#
#
# Elastic Constant Matrix: (Units=GPa)
#
#
# Indices 1 2 3 4 5 6 
#
# 1 28.0134 13.9989 3.9939 0.0000 0.0000 0.0000
# 2 13.9989 108.1429 25.6079 0.0000 0.0000 0.0000
# 3 3.9939 25.6079 100.2061 0.0000 0.0000 0.0000
# 4 0.0000 0.0000 0.0000 23.1911 0.0000 0.0000
# 5 0.0000 0.0000 0.0000 0.0000 54.9941 0.0000
# 6 0.0000 0.0000 0.0000 0.0000 0.0000 15.3252
#
#
#
# Elastic Compliance Matrix: (Units=1/GPa)
#
#
# Indices 1 2 3 4 5 6 
#
# 1 0.038173 -0.004876 -0.000275 0.000000 0.000000 0.000000
# 2 -0.004876 0.010466 -0.002480 0.000000 0.000000 0.000000
# 3 -0.000275 -0.002480 0.010624 0.000000 0.000000 0.000000
# 4 0.000000 0.000000 0.000000 0.043120 0.000000 0.000000
# 5 0.000000 0.000000 0.000000 0.000000 0.018184 0.000000
# 6 0.000000 0.000000 0.000000 0.000000 0.000000 0.065252
#
#
# Mechanical properties :
#
#
# Convention : Reuss Voigt Hill
#
# Bulk Modulus (GPa) = 22.72755 35.95154 29.33954
# Shear Modulus (GPa) = 23.17514 31.55286 27.36400
#
# Velocity S-wave (km/s) = 3.40631 3.97459 3.70137
# Velocity P-wave (km/s) = 5.18165 6.25002 5.74074
#
# Compressibility (1/GPa) = 0.04399947
#
# Stress axis : x y z
#
# Youngs Moduli (GPa) = 26.19641 95.55175 94.12460
#
# Poissons Ratio (x) = 0.46593 0.02592
# Poissons Ratio (y) = 0.12774 0.23344
# Poissons Ratio (z) = 0.00721 0.23698
#
# Static dielectric constant tensor:
#      x y z
#    x 1.670500 0.000000 0.000000 
#    y 0.000000 1.709950 0.000000 
#    z 0.000000 0.000000 1.672450 
# 
# From -- ./inp_files/3685.got.cif
#   From: 2010.05.17/outbox.cif.g08.bks.cpg/sg31_2_cif.got.tgz:3685.got - 2010.06.03 17:08:30.
