data_PCOD9343609
_publ_section_title
;
Structure prediction by ZEFSAII (Michael W. Deem and Ramdas Pophale) SiO2 
 PCOD9343609
Probable space group: P M N 21
;
_chemical_formula_sum "Si O2"
_cell_formula_units_Z 32
_cell_length_a 9.000000
_cell_length_b 12.000000
_cell_length_c 15.000000
_cell_angle_alpha 90.000000
_cell_angle_beta 90.000000
_cell_angle_gamma 90.000000
_cell_volume 1620.000000
_symmetry_space_group_name_H-M "P M N 21"
_symmetry_group_IT_number 31
_symmetry_cell_setting 'orthorhombic'
loop_
_space_group_symop_operation_xyz
x,y,z
1/2-x,-y,1/2+z
-x,y,z
1/2+x,-y,1/2+z
loop_
_atom_site_type_symbol
_atom_site_label
_atom_site_fract_x
_atom_site_fract_y
_atom_site_fract_z
Si Si1 0.833055 0.512150 0.496130
Si Si2 0.171551 0.284389 0.219266
Si Si3 0.175017 0.716618 0.206864
Si Si4 0.178700 0.267503 0.515915
Si Si5 0.667470 0.727658 0.506461
Si Si6 0.319485 0.890741 0.861596
Si Si7 0.164377 0.500646 0.712906
Si Si8 0.322126 0.135811 0.868426
O O1 0.788457 0.387606 0.472314
O O2 0.716920 0.606255 0.472546
O O3 0.839785 0.509439 0.604625
O O4 0.000000 0.538255 0.463758
O O5 0.177657 0.270476 0.113128
O O6 0.213329 0.174485 0.271772
O O7 0.281480 0.381665 0.247072
O O8 0.000000 0.313530 0.241928
O O9 0.251285 0.740761 0.112832
O O10 0.214355 0.591192 0.233551
O O11 0.233982 0.792123 0.286165
O O12 0.000000 0.730588 0.196610
O O13 0.231893 0.174559 0.448405
O O14 0.000000 0.264073 0.525409
O O15 0.500000 0.752720 0.480060
O O16 0.778291 0.812740 0.461903
O O17 0.500000 0.894743 0.867716
O O18 0.259852 0.013435 0.860260
O O19 0.000000 0.468670 0.742705
O O20 0.500000 0.134054 0.861741
#
# Coordination Sequence:
#
# PCOD9343609 Si02
#       8
#     4   4   4   4   4   4   4   4
#     4   8  15  29  50  77 107 135 165 203 253 317
#     4   9  18  34  56  81 108 137 171 213 263 315
#     4  10  20  34  54  79 107 139 174 215 261 308
#     4   9  18  34  57  81 105 136 171 212 262 312
#     4  10  20  33  53  80 108 137 169 215 266 304
#     4   9  19  37  57  76 102 139 181 217 255 313
#     4   9  17  31  53  81 110 137 169 211 260 314
#     4  10  22  38  54  73 101 142 186 218 252 309
#
# _framework density 19.753086
#
# number of rings (size 3 to 8) (size 9 to 14) (size 15 to 20)
#    0.000    2.750    0.000    1.875    0.000    6.500 
#    0.000    5.625    0.000    0.000    0.000    0.000 
#    0.000    0.000    0.000    0.000    0.000    0.000 
#
# Total GULP energy -178301.913504 kJ/mol
# GULP energy per Si atom -5571.934797 kJ/mol
# Density = 1.970813 g / cm^3
# Si number density = 19.753086 Si / 1000 Ang^3
#
#
#
# Elastic Constant Matrix: (Units=GPa)
#
#
# Indices 1 2 3 4 5 6 
#
# 1 6.4412 18.2473 19.7895 0.0000 0.0000 0.0000
# 2 18.2473 72.9072 14.2800 0.0000 0.0000 0.0000
# 3 19.7895 14.2800 20.0461 0.0000 0.0000 0.0000
# 4 0.0000 0.0000 0.0000 17.2707 0.0000 0.0000
# 5 0.0000 0.0000 0.0000 0.0000 19.0803 0.0000
# 6 0.0000 0.0000 0.0000 0.0000 0.0000 1.1813
#
#
#
# Elastic Compliance Matrix: (Units=1/GPa)
#
#
# Indices 1 2 3 4 5 6 
#
# 1 -0.074797 0.004948 0.070315 0.000000 0.000000 0.000000
# 2 0.004948 0.015613 -0.016007 0.000000 0.000000 0.000000
# 3 0.070315 -0.016007 -0.008127 0.000000 0.000000 0.000000
# 4 0.000000 0.000000 0.000000 0.057902 0.000000 0.000000
# 5 0.000000 0.000000 0.000000 0.000000 0.052410 0.000000
# 6 0.000000 0.000000 0.000000 0.000000 0.000000 0.846523
#
#
# Mechanical properties :
#
#
# Convention : Reuss Voigt Hill
#
# Bulk Modulus (GPa) = 19.53089 22.66980 21.10035
# Shear Modulus (GPa) = 6.34456 10.64497 8.49476
#
# Velocity S-wave (km/s) = 1.79413 2.32394 2.07601
# Velocity P-wave (km/s) = 3.76840 4.32463 4.05606
#
# Compressibility (1/GPa) = 0.05120094
#
# Stress axis : x y z
#
# Youngs Moduli (GPa) = -13.36950 64.05005 -123.04087
#
# Poissons Ratio (x) = -0.31692 8.65160
# Poissons Ratio (y) = 0.06615 -1.96947
# Poissons Ratio (z) = 0.94007 1.02522
#
# Static dielectric constant tensor:
#      x y z
#    x 1.666490 0.000000 0.000000 
#    y 0.000000 1.711630 0.000000 
#    z 0.000000 0.000000 1.685960 
# 
# From -- ./inp_files/5038.got.cif
#   From: 2010.05.17/outbox.ucp.g08.bks.cvg/sg31_3_cif.got.tgz:5038.got - 2010.06.11 10:34:26.
