data_PCOD9343827
_publ_section_title
;
Structure prediction by ZEFSAII (Michael W. Deem and Ramdas Pophale) SiO2 
 PCOD9343827
Probable space group: P B A 2
;
_chemical_formula_sum "Si O2"
_cell_formula_units_Z 32
_cell_length_a 7.870416
_cell_length_b 14.261463
_cell_length_c 12.903660
_cell_angle_alpha 90.000000
_cell_angle_beta 90.000000
_cell_angle_gamma 90.000000
_cell_volume 1448.353853
_symmetry_space_group_name_H-M "P B A 2"
_symmetry_group_IT_number 32
_symmetry_cell_setting 'orthorhombic'
loop_
_space_group_symop_operation_xyz
x,y,z
-x,-y,z
1/2-x,1/2+y,z
1/2+x,1/2-y,z
loop_
_atom_site_type_symbol
_atom_site_label
_atom_site_fract_x
_atom_site_fract_y
_atom_site_fract_z
Si Si1 0.189259 0.040930 0.177870
Si Si2 0.211461 0.688355 0.786157
Si Si3 0.810741 0.959071 0.942290
Si Si4 0.330784 0.893278 0.786223
Si Si5 0.169218 0.393279 0.333938
Si Si6 0.711457 0.811644 0.334002
Si Si7 0.679795 0.107465 0.560080
Si Si8 0.703152 0.811681 0.560079
O O1 0.297762 0.966932 0.244325
O O2 0.192092 0.137376 0.241528
O O3 0.250174 0.052326 0.060080
O O4 0.000000 0.000000 0.175601
O O5 0.307911 0.637374 0.878630
O O6 0.215741 0.800413 0.796968
O O7 0.284686 0.665134 0.671162
O O8 0.020636 0.648233 0.788710
O O9 0.702239 0.033070 0.875837
O O10 0.000000 0.000000 0.944561
O O11 0.299913 0.939360 0.672230
O O12 0.284263 0.300415 0.323192
O O13 0.200088 0.439361 0.447931
O O14 0.979367 0.351765 0.331450
O O15 0.784684 0.834865 0.448996
O O16 0.486367 0.146781 0.560080
O O17 0.800282 0.198487 0.560080
#
# Coordination Sequence:
#
# PCOD9343827 Si02
#       8
#     4   4   4   4   4   4   4   4
#     4  11  25  42  57  78 110 149 196 241 278 325
#     4  10  20  37  61  87 116 148 183 226 279 335
#     4  11  25  42  57  78 110 149 196 241 278 325
#     4  10  20  37  61  87 116 148 183 226 279 335
#     4  10  20  37  61  87 116 148 183 226 279 335
#     4  10  20  37  61  87 116 148 183 226 279 335
#     4   8  16  31  54  85 116 144 176 219 272 333
#     4   8  16  31  54  85 116 144 176 219 272 333
#
# _framework density 22.094048000000001
#
# number of rings (size 3 to 8) (size 9 to 14) (size 15 to 20)
#    0.000    2.250    0.000    2.250    0.000    6.000 
#    0.000    5.000    0.000    0.000    0.000    0.000 
#    0.000    0.000    0.000    0.000    0.000    0.000 
#
# Total GULP energy -178735.837822 kJ/mol
# GULP energy per Si atom -5585.494932 kJ/mol
# Density = 2.204376 g / cm^3
# Si number density = 22.094048 Si / 1000 Ang^3
#
#
#
# Elastic Constant Matrix: (Units=GPa)
#
#
# Indices 1 2 3 4 5 6 
#
# 1 36.2637 8.2742 29.8910 0.0000 0.0000 0.0000
# 2 8.2742 81.4241 51.4728 0.0000 0.0000 0.0000
# 3 29.8910 51.4728 212.3482 0.0000 0.0000 0.0000
# 4 0.0000 0.0000 0.0000 30.9532 0.0000 0.0000
# 5 0.0000 0.0000 0.0000 0.0000 24.1859 0.0000
# 6 0.0000 0.0000 0.0000 0.0000 0.0000 30.3465
#
#
#
# Elastic Compliance Matrix: (Units=1/GPa)
#
#
# Indices 1 2 3 4 5 6 
#
# 1 0.031210 -0.000466 -0.004280 0.000000 0.000000 0.000000
# 2 -0.000466 0.014511 -0.003452 0.000000 0.000000 0.000000
# 3 -0.004280 -0.003452 0.006148 0.000000 0.000000 0.000000
# 4 0.000000 0.000000 0.000000 0.032307 0.000000 0.000000
# 5 0.000000 0.000000 0.000000 0.000000 0.041346 0.000000
# 6 0.000000 0.000000 0.000000 0.000000 0.000000 0.032953
#
#
# Mechanical properties :
#
#
# Convention : Reuss Voigt Hill
#
# Bulk Modulus (GPa) = 28.18990 56.59020 42.39005
# Shear Modulus (GPa) = 26.78154 33.12366 29.95260
#
# Velocity S-wave (km/s) = 3.48539 3.87617 3.68596
# Velocity P-wave (km/s) = 5.38368 6.76031 6.11088
#
# Compressibility (1/GPa) = 0.03547370
#
# Stress axis : x y z
#
# Youngs Moduli (GPa) = 32.04081 68.91420 162.64154
#
# Poissons Ratio (x) = 0.03209 0.69617
# Poissons Ratio (y) = 0.01492 0.56141
# Poissons Ratio (z) = 0.13715 0.23788
#
# Static dielectric constant tensor:
#      x y z
#    x 1.836980 0.000000 0.000000 
#    y 0.000000 1.827540 0.000000 
#    z 0.000000 0.000000 1.825070 
# 
# From -- ./inp_files/3761.got.cif
#   From: 2010.05.17/outbox.cif.g08.bks.cpg/sg32_2_cif.got.tgz:3761.got - 2010.06.03 17:12:27.
