data_PCOD9343521
_publ_section_title
;
Structure prediction by ZEFSAII (Michael W. Deem and Ramdas Pophale) SiO2 
 PCOD9343521
Probable space group: P M N 21
;
_chemical_formula_sum "Si O2"
_cell_formula_units_Z 16
_cell_length_a 22.566802
_cell_length_b 5.123328
_cell_length_c 5.228896
_cell_angle_alpha 90.000000
_cell_angle_beta 90.000000
_cell_angle_gamma 90.000000
_cell_volume 604.549941
_symmetry_space_group_name_H-M "P M N 21"
_symmetry_group_IT_number 31
_symmetry_cell_setting 'orthorhombic'
loop_
_space_group_symop_operation_xyz
x,y,z
1/2-x,-y,1/2+z
-x,y,z
1/2+x,-y,1/2+z
loop_
_atom_site_type_symbol
_atom_site_label
_atom_site_fract_x
_atom_site_fract_y
_atom_site_fract_z
Si Si1 0.872282 0.156414 0.334030
Si Si2 0.750703 0.345755 0.159632
Si Si3 0.124914 0.652291 0.637571
Si Si4 0.000000 0.133644 0.306876
Si Si5 0.500000 0.189875 0.321696
O O1 0.811655 0.189519 0.181448
O O2 0.863308 0.350210 0.575052
O O3 0.936567 0.261954 0.242263
O O4 0.881873 0.855162 0.402433
O O5 0.759303 0.579171 0.364727
O O6 0.686714 0.240437 0.254568
O O7 0.062127 0.669365 0.773603
O O8 0.000000 0.045019 0.605614
O O9 0.000000 0.895318 0.112245
#
# Coordination Sequence:
#
# PCOD9343521 Si02
#       5
#     4   4   4   2   2
#     4  10  23  44  68  96 132 172 217 268 324 386
#     4  10  24  44  68  98 132 172 218 268 324 386
#     4  10  23  44  68  96 132 172 217 268 324 386
#     4  10  23  42  66  96 130 170 216 266 322 384
#     4  10  23  42  66  96 130 170 216 266 322 384
#
# _framework density 26.465969000000001
#
# number of rings (size 3 to 8) (size 9 to 14) (size 15 to 20)
#    0.000    2.000    0.000    0.750    0.000   26.000 
#    0.000   11.250    0.000    0.000    0.000    0.000 
#    0.000    0.000    0.000    0.000    0.000    0.000 
#
# Total GULP energy -89205.683774 kJ/mol
# GULP energy per Si atom -5575.355236 kJ/mol
# Density = 2.640573 g / cm^3
# Si number density = 26.465969 Si / 1000 Ang^3
#
#
#
# Elastic Constant Matrix: (Units=GPa)
#
#
# Indices 1 2 3 4 5 6 
#
# 1 295.6104 16.0743 23.2170 0.0000 0.0000 0.0000
# 2 16.0743 75.4226 35.9801 0.0000 0.0000 0.0000
# 3 23.2170 35.9801 60.4764 0.0000 0.0000 0.0000
# 4 0.0000 0.0000 0.0000 37.2733 0.0000 0.0000
# 5 0.0000 0.0000 0.0000 0.0000 36.0704 0.0000
# 6 0.0000 0.0000 0.0000 0.0000 0.0000 41.6618
#
#
#
# Elastic Compliance Matrix: (Units=1/GPa)
#
#
# Indices 1 2 3 4 5 6 
#
# 1 0.003489 -0.000146 -0.001253 0.000000 0.000000 0.000000
# 2 -0.000146 0.018519 -0.010962 0.000000 0.000000 0.000000
# 3 -0.001253 -0.010962 0.023538 0.000000 0.000000 0.000000
# 4 0.000000 0.000000 0.000000 0.026829 0.000000 0.000000
# 5 0.000000 0.000000 0.000000 0.000000 0.027724 0.000000
# 6 0.000000 0.000000 0.000000 0.000000 0.000000 0.024003
#
#
# Mechanical properties :
#
#
# Convention : Reuss Voigt Hill
#
# Bulk Modulus (GPa) = 48.01856 64.67246 56.34551
# Shear Modulus (GPa) = 32.09993 46.75031 39.42512
#
# Velocity S-wave (km/s) = 3.48641 4.20745 3.86379
# Velocity P-wave (km/s) = 5.86427 6.93489 6.42193
#
# Compressibility (1/GPa) = 0.02082528
#
# Stress axis : x y z
#
# Youngs Moduli (GPa) = 286.60273 53.99861 42.48483
#
# Poissons Ratio (x) = 0.00789 0.05322
# Poissons Ratio (y) = 0.04187 0.46571
# Poissons Ratio (z) = 0.35899 0.59192
#
# Static dielectric constant tensor:
#      x y z
#    x 2.231530 0.000000 0.000000 
#    y 0.000000 2.147570 0.000000 
#    z 0.000000 0.000000 2.136550 
# 
# From -- ./inp_files/1041.got.cif
#   From: 2010.05.17/outbox.cif.g08.bks.cpg/sg31_1_cif.got.tgz:1041.got - 2010.06.03 17:08:30.
