data_PCOD9343474
_publ_section_title
;
Structure prediction by ZEFSAII (Michael W. Deem and Ramdas Pophale) SiO2 
 PCOD9343474
Probable space group: P M N 21
;
_chemical_formula_sum "Si O2"
_cell_formula_units_Z 32
_cell_length_a 8.653148
_cell_length_b 15.685159
_cell_length_c 12.257851
_cell_angle_alpha 90.000000
_cell_angle_beta 90.000000
_cell_angle_gamma 90.000000
_cell_volume 1663.709112
_symmetry_space_group_name_H-M "P M N 21"
_symmetry_group_IT_number 31
_symmetry_cell_setting 'orthorhombic'
loop_
_space_group_symop_operation_xyz
x,y,z
1/2-x,-y,1/2+z
-x,y,z
1/2+x,-y,1/2+z
loop_
_atom_site_type_symbol
_atom_site_label
_atom_site_fract_x
_atom_site_fract_y
_atom_site_fract_z
Si Si1 0.314355 0.252803 0.678850
Si Si2 0.183996 0.396295 0.268104
Si Si3 0.817352 0.331647 0.026876
Si Si4 0.818421 0.847403 0.520338
Si Si5 0.688040 0.103184 0.263719
Si Si6 0.182462 0.417926 0.803831
Si Si7 0.683638 0.911182 0.305127
Si Si8 0.813326 0.747804 0.925110
O O1 0.500000 0.256585 0.683068
O O2 0.247714 0.336258 0.739057
O O3 0.259826 0.166440 0.738804
O O4 0.264826 0.251627 0.551553
O O5 0.224250 0.362071 0.147487
O O6 0.238127 0.493482 0.275003
O O7 0.258246 0.335343 0.359249
O O8 0.000000 0.392084 0.279712
O O9 0.714758 0.251010 0.995995
O O10 0.000000 0.307345 0.025700
O O11 0.796521 0.401174 0.932967
O O12 0.768243 0.862966 0.644506
O O13 0.723429 0.899763 0.432125
O O14 0.000000 0.866754 0.510230
O O15 0.500000 0.102603 0.268734
O O16 0.740839 0.168496 0.357649
O O17 0.739516 0.005552 0.273425
O O18 0.000000 0.423670 0.781943
O O19 0.500000 0.906010 0.288186
O O20 0.000000 0.748207 0.923826
#
# Coordination Sequence:
#
# PCOD9343474 Si02
#       8
#     4   4   4   4   4   4   4   4
#     4  11  24  41  63  90 123 161 207 255 300 360
#     4  11  24  41  63  94 125 156 204 253 301 362
#     4  10  22  41  63  88 121 159 199 252 306 358
#     4  11  21  38  65  91 118 155 208 258 300 358
#     4   9  21  40  62  89 121 162 203 248 304 363
#     4  11  24  42  64  89 123 164 202 245 308 366
#     4  11  23  40  62  89 127 164 201 250 310 366
#     4  10  22  43  64  86 122 165 204 249 307 361
#
# _framework density 19.234131000000001
#
# number of rings (size 3 to 8) (size 9 to 14) (size 15 to 20)
#    0.000    1.500    2.500    1.875    3.500    2.000 
#    0.000    3.125    0.000    0.000    0.000    0.000 
#    0.000    0.000    0.000    0.000    0.000    0.000 
#
# Total GULP energy -178763.162465 kJ/mol
# GULP energy per Si atom -5586.348827 kJ/mol
# Density = 1.919035 g / cm^3
# Si number density = 19.234131 Si / 1000 Ang^3
#
#
#
# Elastic Constant Matrix: (Units=GPa)
#
#
# Indices 1 2 3 4 5 6 
#
# 1 14.0112 4.1328 12.3520 0.0000 0.0000 0.0000
# 2 4.1328 104.9417 27.6346 0.0000 0.0000 0.0000
# 3 12.3520 27.6346 107.8460 0.0000 0.0000 0.0000
# 4 0.0000 0.0000 0.0000 26.3874 0.0000 0.0000
# 5 0.0000 0.0000 0.0000 0.0000 26.8685 0.0000
# 6 0.0000 0.0000 0.0000 0.0000 0.0000 8.4104
#
#
#
# Elastic Compliance Matrix: (Units=1/GPa)
#
#
# Indices 1 2 3 4 5 6 
#
# 1 0.079448 -0.000786 -0.008898 0.000000 0.000000 0.000000
# 2 -0.000786 0.010226 -0.002530 0.000000 0.000000 0.000000
# 3 -0.008898 -0.002530 0.010940 0.000000 0.000000 0.000000
# 4 0.000000 0.000000 0.000000 0.037897 0.000000 0.000000
# 5 0.000000 0.000000 0.000000 0.000000 0.037218 0.000000
# 6 0.000000 0.000000 0.000000 0.000000 0.000000 0.118901
#
#
# Mechanical properties :
#
#
# Convention : Reuss Voigt Hill
#
# Bulk Modulus (GPa) = 13.12583 35.00419 24.06501
# Shear Modulus (GPa) = 14.51575 24.51190 19.51382
#
# Velocity S-wave (km/s) = 2.75014 3.57374 3.18864
# Velocity P-wave (km/s) = 4.11381 5.93863 5.10836
#
# Compressibility (1/GPa) = 0.07618566
#
# Stress axis : x y z
#
# Youngs Moduli (GPa) = 12.58690 97.78627 91.40749
#
# Poissons Ratio (x) = 0.07682 0.81336
# Poissons Ratio (y) = 0.00989 0.23130
# Poissons Ratio (z) = 0.11200 0.24744
#
# Static dielectric constant tensor:
#      x y z
#    x 1.650630 0.000000 0.000000 
#    y 0.000000 1.644250 0.000000 
#    z 0.000000 0.000000 1.664270 
# 
# From -- ./inp_files/3643.got.cif
#   From: 2010.05.17/outbox.cif.g08.bks.cpg/sg31_2_cif.got.tgz:3643.got - 2010.06.03 17:08:30.
