data_PCOD9343058
_publ_section_title
;
Structure prediction by ZEFSAII (Michael W. Deem and Ramdas Pophale) SiO2 
 PCOD9343058
Probable space group: P M N 21
;
_chemical_formula_sum "Si O2"
_cell_formula_units_Z 32
_cell_length_a 7.505701
_cell_length_b 12.904393
_cell_length_c 13.166499
_cell_angle_alpha 90.000000
_cell_angle_beta 90.000000
_cell_angle_gamma 90.000000
_cell_volume 1275.261214
_symmetry_space_group_name_H-M "P M N 21"
_symmetry_group_IT_number 31
_symmetry_cell_setting 'orthorhombic'
loop_
_space_group_symop_operation_xyz
x,y,z
1/2-x,-y,1/2+z
-x,y,z
1/2+x,-y,1/2+z
loop_
_atom_site_type_symbol
_atom_site_label
_atom_site_fract_x
_atom_site_fract_y
_atom_site_fract_z
Si Si1 0.712473 0.083349 0.480920
Si Si2 0.215005 0.849682 0.200680
Si Si3 0.208931 0.374850 0.700904
Si Si4 0.206860 0.407219 0.477626
Si Si5 0.282948 0.635659 0.535265
Si Si6 0.287903 0.925191 0.760075
Si Si7 0.782619 0.141662 0.039272
Si Si8 0.203860 0.403052 0.262001
O O1 0.500000 0.080219 0.491378
O O2 0.777321 0.140214 0.582566
O O3 0.750841 0.124072 0.368953
O O4 0.778977 0.964201 0.487151
O O5 0.274741 0.740041 0.244384
O O6 0.000000 0.849386 0.202637
O O7 0.278527 0.955478 0.253980
O O8 0.284201 0.371522 0.585319
O O9 0.297101 0.471507 0.756034
O O10 0.000000 0.401426 0.696131
O O11 0.215117 0.532171 0.483115
O O12 0.287489 0.373931 0.370006
O O13 0.000000 0.375086 0.477074
O O14 0.500000 0.629431 0.532592
O O15 0.225881 0.747926 0.495728
O O16 0.222577 0.630071 0.653277
O O17 0.500000 0.930442 0.750529
O O18 0.227079 0.868567 0.657739
O O19 0.000000 0.141751 0.036507
O O20 0.000000 0.364586 0.262433
#
# Coordination Sequence:
#
# PCOD9343058 Si02
#       8
#     4   4   4   4   4   4   4   4
#     4   9  18  33  51  72 100 130 160 198 241 285
#     4   9  19  35  51  70 101 137 165 193 242 300
#     4  10  20  33  51  75  99 125 164 210 244 278
#     4   9  19  34  49  70 100 128 157 199 247 289
#     4   9  17  31  52  73  92 123 164 197 231 283
#     4   9  18  33  52  72  96 128 163 198 237 285
#     4   8  16  32  51  70  95 126 159 195 236 284
#     4   9  18  33  51  70  97 131 160 192 242 298
#
# _framework density 25.092897000000001
#
# number of rings (size 3 to 8) (size 9 to 14) (size 15 to 20)
#    0.000    3.000    0.000    1.875    0.000    4.000 
#    0.000    8.125    0.000    3.000    0.000    0.000 
#    0.000    0.000    0.000    0.000    0.000    0.000 
#
# Total GULP energy -178713.910885 kJ/mol
# GULP energy per Si atom -5584.809715 kJ/mol
# Density = 2.503578 g / cm^3
# Si number density = 25.092897 Si / 1000 Ang^3
#
#
#
# Elastic Constant Matrix: (Units=GPa)
#
#
# Indices 1 2 3 4 5 6 
#
# 1 74.8607 -11.6796 -6.2920 0.0000 0.0000 0.0000
# 2 -11.6796 125.8893 -7.7186 0.0000 0.0000 0.0000
# 3 -6.2920 -7.7186 124.6519 0.0000 0.0000 0.0000
# 4 0.0000 0.0000 0.0000 -17.9928 0.0000 0.0000
# 5 0.0000 0.0000 0.0000 0.0000 39.9160 0.0000
# 6 0.0000 0.0000 0.0000 0.0000 0.0000 0.8463
#
#
#
# Elastic Compliance Matrix: (Units=1/GPa)
#
#
# Indices 1 2 3 4 5 6 
#
# 1 0.013627 0.001311 0.000769 0.000000 0.000000 0.000000
# 2 0.001311 0.008100 0.000568 0.000000 0.000000 0.000000
# 3 0.000769 0.000568 0.008096 0.000000 0.000000 0.000000
# 4 0.000000 0.000000 0.000000 -0.055578 0.000000 0.000000
# 5 0.000000 0.000000 0.000000 0.000000 0.025053 0.000000
# 6 0.000000 0.000000 0.000000 0.000000 0.000000 1.181609
#
#
# Mechanical properties :
#
#
# Convention : Reuss Voigt Hill
#
# Bulk Modulus (GPa) = 28.47359 30.44683 29.46021
# Shear Modulus (GPa) = 4.21117 27.96003 16.08560
#
# Velocity S-wave (km/s) = 1.29687 3.34168 2.53463
# Velocity P-wave (km/s) = 3.68977 5.20087 4.50907
#
# Compressibility (1/GPa) = 0.03512027
#
# Stress axis : x y z
#
# Youngs Moduli (GPa) = 73.38156 123.45723 123.51296
#
# Poissons Ratio (x) = -0.16191 -0.09499
# Poissons Ratio (y) = -0.09624 -0.07013
# Poissons Ratio (z) = -0.05644 -0.07009
#
# Static dielectric constant tensor:
#      x y z
#    x 1.945800 0.000000 0.000000 
#    y 0.000000 1.963400 0.000000 
#    z 0.000000 0.000000 2.012500 
# 
# From -- ./inp_files/5113.got.cif
#   From: 2010.05.17/outbox.cif.g08.bks.cpg/sg31_3_cif.got.tgz:5113.got - 2010.06.03 17:08:30.
