data_PCOD9343566
_publ_section_title
;
Structure prediction by ZEFSAII (Michael W. Deem and Ramdas Pophale) SiO2 
 PCOD9343566
Probable space group: P M N 21
;
_chemical_formula_sum "Si O2"
_cell_formula_units_Z 20
_cell_length_a 14.446804
_cell_length_b 10.294793
_cell_length_c 5.545324
_cell_angle_alpha 90.000000
_cell_angle_beta 90.000000
_cell_angle_gamma 90.000000
_cell_volume 824.738608
_symmetry_space_group_name_H-M "P M N 21"
_symmetry_group_IT_number 31
_symmetry_cell_setting 'orthorhombic'
loop_
_space_group_symop_operation_xyz
x,y,z
1/2-x,-y,1/2+z
-x,y,z
1/2+x,-y,1/2+z
loop_
_atom_site_type_symbol
_atom_site_label
_atom_site_fract_x
_atom_site_fract_y
_atom_site_fract_z
Si Si1 0.211221 0.942514 0.530460
Si Si2 0.000000 0.226049 0.252143
Si Si3 0.500000 0.300114 0.637675
Si Si4 0.191678 0.310149 0.068849
Si Si5 0.000000 0.488471 0.504447
Si Si6 0.657618 0.408200 0.353050
Si Si7 0.500000 0.054124 0.983327
O O1 0.242045 0.796900 0.452721
O O2 0.102313 0.947953 0.601277
O O3 0.233766 0.021626 0.280656
O O4 0.090812 0.253672 0.098776
O O5 0.000000 0.333801 0.468564
O O6 0.000000 0.079294 0.335400
O O7 0.500000 0.446754 0.743299
O O8 0.593095 0.304357 0.486133
O O9 0.500000 0.185383 0.826286
O O10 0.245157 0.338286 0.315996
O O11 0.182811 0.453024 0.963069
O O12 0.091057 0.547113 0.631595
#
# Coordination Sequence:
#
# PCOD9343566 Si02
#       7
#     4   2   2   4   2   4   2
#     4  12  31  55  82 119 165 221 274 335 416 494
#     4  12  24  47  74 114 154 208 267 331 410 488
#     4  11  25  49  73 111 158 205 267 338 414 485
#     4  12  26  46  78 114 156 211 271 339 411 492
#     4  11  22  48  74 110 150 205 265 337 408 481
#     4  11  26  44  77 112 153 204 271 340 405 493
#     4  12  29  48  83 115 168 216 273 342 408 510
#
# _framework density 24.250107
#
# number of rings (size 3 to 8) (size 9 to 14) (size 15 to 20)
#    0.000    0.400    4.000    3.000    8.400    2.400 
#    0.000    0.000    0.000    0.000    0.000    0.000 
#    0.000    0.000    0.000    0.000    0.000    0.000 
#
# Total GULP energy -111712.580364 kJ/mol
# GULP energy per Si atom -5585.629018 kJ/mol
# Density = 2.419491 g / cm^3
# Si number density = 24.250107 Si / 1000 Ang^3
#
#
#
# Elastic Constant Matrix: (Units=GPa)
#
#
# Indices 1 2 3 4 5 6 
#
# 1 164.1844 8.3443 12.4343 0.0000 0.0000 0.0000
# 2 8.3443 104.2152 -2.0646 0.0000 0.0000 0.0000
# 3 12.4343 -2.0646 41.3918 0.0000 0.0000 0.0000
# 4 0.0000 0.0000 0.0000 38.0418 0.0000 0.0000
# 5 0.0000 0.0000 0.0000 0.0000 26.5150 0.0000
# 6 0.0000 0.0000 0.0000 0.0000 0.0000 -470.2079
#
#
#
# Elastic Compliance Matrix: (Units=1/GPa)
#
#
# Indices 1 2 3 4 5 6 
#
# 1 0.006263 -0.000539 -0.001908 0.000000 0.000000 0.000000
# 2 -0.000539 0.009651 0.000643 0.000000 0.000000 0.000000
# 3 -0.001908 0.000643 0.024765 0.000000 0.000000 0.000000
# 4 0.000000 0.000000 0.000000 0.026287 0.000000 0.000000
# 5 0.000000 0.000000 0.000000 0.000000 0.037714 0.000000
# 6 0.000000 0.000000 0.000000 0.000000 0.000000 -0.002127
#
#
# Mechanical properties :
#
#
# Convention : Reuss Voigt Hill
#
# Bulk Modulus (GPa) = 26.97547 38.57992 32.77770
# Shear Modulus (GPa) = 42.18752 -61.72506 -9.76877
#
# Velocity S-wave (km/s) = 4.17548 -5.05062 -2.00925
# Velocity P-wave (km/s) = 5.86465 4.25065 2.85711
#
# Compressibility (1/GPa) = 0.03707071
#
# Stress axis : x y z
#
# Youngs Moduli (GPa) = 159.67720 103.61130 40.38000
#
# Poissons Ratio (x) = 0.05587 0.07705
# Poissons Ratio (y) = 0.08610 -0.02598
# Poissons Ratio (z) = 0.30470 -0.06666
#
# Static dielectric constant tensor:
#      x y z
#    x 2.094310 0.000000 0.000000 
#    y 0.000000 1.928120 0.000000 
#    z 0.000000 0.000000 2.081170 
# 
# From -- ./inp_files/593.got.cif
#   From: 2010.05.17/outbox.cif.g08.bks.cpg/sg31_1_cif.got.tgz:593.got - 2010.06.03 17:08:30.
