data_PCOD9343272
_publ_section_title
;
Structure prediction by ZEFSAII (Michael W. Deem and Ramdas Pophale) SiO2 
 PCOD9343272
Probable space group: P M N 21
;
_chemical_formula_sum "Si O2"
_cell_formula_units_Z 32
_cell_length_a 8.038470
_cell_length_b 15.686353
_cell_length_c 12.330061
_cell_angle_alpha 90.000000
_cell_angle_beta 90.000000
_cell_angle_gamma 90.000000
_cell_volume 1554.750139
_symmetry_space_group_name_H-M "P M N 21"
_symmetry_group_IT_number 31
_symmetry_cell_setting 'orthorhombic'
loop_
_space_group_symop_operation_xyz
x,y,z
1/2-x,-y,1/2+z
-x,y,z
1/2+x,-y,1/2+z
loop_
_atom_site_type_symbol
_atom_site_label
_atom_site_fract_x
_atom_site_fract_y
_atom_site_fract_z
Si Si1 0.203533 0.750433 0.212340
Si Si2 0.808181 0.911531 0.616362
Si Si3 0.689472 0.853985 0.841558
Si Si4 0.200603 0.583691 0.079041
Si Si5 0.300294 0.391174 0.123148
Si Si6 0.298493 0.333719 0.359307
Si Si7 0.306891 0.092316 0.562176
Si Si8 0.296440 0.242880 0.962768
O O1 0.256496 0.661295 0.156933
O O2 0.256976 0.831637 0.139863
O O3 0.257446 0.757276 0.337580
O O4 0.000000 0.751250 0.212588
O O5 0.799050 0.873134 0.736822
O O6 0.745204 0.840697 0.531055
O O7 0.000000 0.929853 0.589277
O O8 0.711584 0.000252 0.615874
O O9 0.500000 0.859039 0.805382
O O10 0.732901 0.759994 0.883037
O O11 0.718935 0.912285 0.945775
O O12 0.257634 0.489653 0.108767
O O13 0.000000 0.584656 0.082040
O O14 0.254232 0.605008 0.956443
O O15 0.500000 0.383411 0.124424
O O16 0.238742 0.360712 0.240680
O O17 0.240761 0.327180 0.028693
O O18 0.500000 0.331117 0.358616
O O19 0.500000 0.111428 0.540364
O O20 0.500000 0.242955 0.963032
#
# Coordination Sequence:
#
# PCOD9343272 Si02
#       8
#     4   4   4   4   4   4   4   4
#     4   9  19  37  60  85 118 158 196 240 299 363
#     4  11  23  41  64  91 126 162 202 253 309 369
#     4  12  24  40  64  91 120 159 212 261 307 367
#     4  10  21  37  59  85 117 156 199 245 303 364
#     4  10  21  37  59  85 117 156 199 245 303 364
#     4  10  20  40  62  83 116 161 204 253 313 365
#     4  11  23  41  64  91 126 162 202 253 309 369
#     4   9  19  37  60  85 118 158 196 240 299 363
#
# _framework density 20.582084999999999
#
# number of rings (size 3 to 8) (size 9 to 14) (size 15 to 20)
#    0.000    1.750    2.500    1.875    3.500    1.000 
#    0.000    0.000    0.000    3.000    0.000    0.000 
#    0.000    0.000    0.000    0.000    0.000    0.000 
#
# Total GULP energy -178737.668349 kJ/mol
# GULP energy per Si atom -5585.552136 kJ/mol
# Density = 2.053524 g / cm^3
# Si number density = 20.582085 Si / 1000 Ang^3
#
#
#
# Elastic Constant Matrix: (Units=GPa)
#
#
# Indices 1 2 3 4 5 6 
#
# 1 17.2187 2.4368 9.7460 0.0000 0.0000 0.0000
# 2 2.4368 102.3646 34.2848 0.0000 0.0000 0.0000
# 3 9.7460 34.2848 126.3401 0.0000 0.0000 0.0000
# 4 0.0000 0.0000 0.0000 30.3011 0.0000 0.0000
# 5 0.0000 0.0000 0.0000 0.0000 9.8677 0.0000
# 6 0.0000 0.0000 0.0000 0.0000 0.0000 27.0137
#
#
#
# Elastic Compliance Matrix: (Units=1/GPa)
#
#
# Indices 1 2 3 4 5 6 
#
# 1 0.060730 0.000136 -0.004722 0.000000 0.000000 0.000000
# 2 0.000136 0.010746 -0.002927 0.000000 0.000000 0.000000
# 3 -0.004722 -0.002927 0.009074 0.000000 0.000000 0.000000
# 4 0.000000 0.000000 0.000000 0.033002 0.000000 0.000000
# 5 0.000000 0.000000 0.000000 0.000000 0.101341 0.000000
# 6 0.000000 0.000000 0.000000 0.000000 0.000000 0.037018
#
#
# Mechanical properties :
#
#
# Convention : Reuss Voigt Hill
#
# Bulk Modulus (GPa) = 15.26150 37.65095 26.45622
# Shear Modulus (GPa) = 17.31439 26.73353 22.02396
#
# Velocity S-wave (km/s) = 2.90355 3.60790 3.27472
# Velocity P-wave (km/s) = 4.32110 5.97400 5.21347
#
# Compressibility (1/GPa) = 0.06552438
#
# Stress axis : x y z
#
# Youngs Moduli (GPa) = 16.46638 93.05810 110.21028
#
# Poissons Ratio (x) = -0.01263 0.52037
# Poissons Ratio (y) = -0.00223 0.32254
# Poissons Ratio (z) = 0.07775 0.27234
#
# Static dielectric constant tensor:
#      x y z
#    x 1.731430 0.000000 0.000000 
#    y 0.000000 1.694410 0.000000 
#    z 0.000000 0.000000 1.708480 
# 
# From -- ./inp_files/3610.got.cif
#   From: 2010.05.17/outbox.cif.g08.bks.cpg/sg31_2_cif.got.tgz:3610.got - 2010.06.03 17:08:30.
