data_PCOD9343440
_publ_section_title
;
Structure prediction by ZEFSAII (Michael W. Deem and Ramdas Pophale) SiO2 
 PCOD9343440
Probable space group: P M N 21
;
_chemical_formula_sum "Si O2"
_cell_formula_units_Z 32
_cell_length_a 7.774978
_cell_length_b 12.984194
_cell_length_c 14.484257
_cell_angle_alpha 90.000000
_cell_angle_beta 90.000000
_cell_angle_gamma 90.000000
_cell_volume 1462.212145
_symmetry_space_group_name_H-M "P M N 21"
_symmetry_group_IT_number 31
_symmetry_cell_setting 'orthorhombic'
loop_
_space_group_symop_operation_xyz
x,y,z
1/2-x,-y,1/2+z
-x,y,z
1/2+x,-y,1/2+z
loop_
_atom_site_type_symbol
_atom_site_label
_atom_site_fract_x
_atom_site_fract_y
_atom_site_fract_z
Si Si1 0.205780 0.413240 0.252630
Si Si2 0.292327 0.360492 0.766528
Si Si3 0.210291 0.669650 0.053694
Si Si4 0.202588 0.247897 0.937525
Si Si5 0.791740 0.449068 0.036529
Si Si6 0.205466 0.824670 0.764321
Si Si7 0.197841 0.925606 0.574112
Si Si8 0.295683 0.123629 0.461487
O O1 0.270003 0.523236 0.293824
O O2 0.246145 0.426907 0.143656
O O3 0.265028 0.298343 0.278445
O O4 0.000000 0.412865 0.262864
O O5 0.500000 0.362160 0.770328
O O6 0.242750 0.338577 0.661048
O O7 0.226900 0.268090 0.829921
O O8 0.269352 0.562302 0.008996
O O9 0.000000 0.670647 0.050616
O O10 0.275672 0.771628 0.005546
O O11 0.000000 0.238259 0.957790
O O12 0.275364 0.353894 0.979358
O O13 0.289891 0.155152 0.990160
O O14 0.000000 0.449260 0.028323
O O15 0.273624 0.871304 0.666890
O O16 0.270263 0.884179 0.855926
O O17 0.000000 0.835751 0.758441
O O18 0.000000 0.948810 0.593972
O O19 0.273316 0.029899 0.531896
O O20 0.500000 0.137351 0.451411
#
# Coordination Sequence:
#
# PCOD9343440 Si02
#       8
#     4   4   4   4   4   4   4   4
#     4   9  17  33  56  82 118 157 193 232 280 347
#     4   9  19  34  54  85 124 160 193 234 287 341
#     4   8  16  34  57  81 114 153 190 231 283 343
#     4  11  21  34  58  87 115 154 200 238 280 343
#     4   8  15  29  52  82 112 147 188 230 272 332
#     4  10  22  38  59  87 116 145 187 249 300 337
#     4  11  24  42  59  81 119 156 189 242 302 347
#     4  10  22  40  63  87 110 148 200 244 286 346
#
# _framework density 21.884650000000001
#
# number of rings (size 3 to 8) (size 9 to 14) (size 15 to 20)
#    0.000    2.500    1.250    2.250    1.750    2.500 
#    0.000    3.125    0.000    0.750    0.000    0.000 
#    0.000    0.000    0.000    0.000    0.000    0.000 
#
# Total GULP energy -178456.879380 kJ/mol
# GULP energy per Si atom -5576.777481 kJ/mol
# Density = 2.183484 g / cm^3
# Si number density = 21.884650 Si / 1000 Ang^3
#
#
#
# Elastic Constant Matrix: (Units=GPa)
#
#
# Indices 1 2 3 4 5 6 
#
# 1 28.7079 -0.0725 8.0340 0.0000 0.0000 0.0000
# 2 -0.0725 104.0489 35.2294 0.0000 0.0000 0.0000
# 3 8.0340 35.2294 65.7536 0.0000 0.0000 0.0000
# 4 0.0000 0.0000 0.0000 24.4800 0.0000 0.0000
# 5 0.0000 0.0000 0.0000 0.0000 -5.1982 0.0000
# 6 0.0000 0.0000 0.0000 0.0000 0.0000 15.6924
#
#
#
# Elastic Compliance Matrix: (Units=1/GPa)
#
#
# Indices 1 2 3 4 5 6 
#
# 1 0.036362 0.001869 -0.005444 0.000000 0.000000 0.000000
# 2 0.001869 0.011837 -0.006570 0.000000 0.000000 0.000000
# 3 -0.005444 -0.006570 0.019394 0.000000 0.000000 0.000000
# 4 0.000000 0.000000 0.000000 0.040850 0.000000 0.000000
# 5 0.000000 0.000000 0.000000 0.000000 -0.192374 0.000000
# 6 0.000000 0.000000 0.000000 0.000000 0.000000 0.063725
#
#
# Mechanical properties :
#
#
# Convention : Reuss Voigt Hill
#
# Bulk Modulus (GPa) = 21.14117 31.65470 26.39793
# Shear Modulus (GPa) = 315.42828 17.34946 166.38887
#
# Velocity S-wave (km/s) = 12.01853 2.81867 8.72897
# Velocity P-wave (km/s) = 14.22233 5.00889 10.66217
#
# Compressibility (1/GPa) = 0.04730108
#
# Stress axis : x y z
#
# Youngs Moduli (GPa) = 27.50136 84.48270 51.56337
#
# Poissons Ratio (x) = -0.15786 0.28071
# Poissons Ratio (y) = -0.05139 0.33878
# Poissons Ratio (z) = 0.14972 0.55507
#
# Static dielectric constant tensor:
#      x y z
#    x 1.800810 0.000000 0.000000 
#    y 0.000000 1.802360 0.000000 
#    z 0.000000 0.000000 1.848280 
# 
# From -- ./inp_files/4951.got.cif
#   From: 2010.05.17/outbox.cif.g08.bks.cpg/sg31_3_cif.got.tgz:4951.got - 2010.06.03 17:08:30.
