data_PCOD9343454
_publ_section_title
;
Structure prediction by ZEFSAII (Michael W. Deem and Ramdas Pophale) SiO2 
 PCOD9343454
Probable space group: P M N 21
;
_chemical_formula_sum "Si O2"
_cell_formula_units_Z 24
_cell_length_a 18.819191
_cell_length_b 9.517470
_cell_length_c 7.425900
_cell_angle_alpha 90.000000
_cell_angle_beta 90.000000
_cell_angle_gamma 90.000000
_cell_volume 1330.061012
_symmetry_space_group_name_H-M "P M N 21"
_symmetry_group_IT_number 31
_symmetry_cell_setting 'orthorhombic'
loop_
_space_group_symop_operation_xyz
x,y,z
1/2-x,-y,1/2+z
-x,y,z
1/2+x,-y,1/2+z
loop_
_atom_site_type_symbol
_atom_site_label
_atom_site_fract_x
_atom_site_fract_y
_atom_site_fract_z
Si Si1 0.080919 0.630789 0.225410
Si Si2 0.811589 0.867909 0.212978
Si Si3 0.279976 0.836919 0.560352
Si Si4 0.774263 0.315886 0.427820
Si Si5 0.582888 0.567259 0.053477
Si Si6 0.338561 0.551332 0.429699
O O1 0.115870 0.782481 0.216338
O O2 0.084592 0.569531 0.426599
O O3 0.000000 0.633180 0.166371
O O4 0.122860 0.525149 0.094776
O O5 0.779406 0.876024 0.413446
O O6 0.816963 0.019501 0.121723
O O7 0.758934 0.770789 0.092970
O O8 0.254161 0.764200 0.744824
O O9 0.327297 0.714976 0.470664
O O10 0.858658 0.330385 0.460284
O O11 0.737062 0.469545 0.414805
O O12 0.500000 0.614330 0.061184
O O13 0.615431 0.535882 0.249216
#
# Coordination Sequence:
#
# PCOD9343454 Si02
#       6
#     4   4   4   4   4   4
#     4  10  22  40  59  87 123 162 203 251 310 369
#     4  11  23  38  61  89 123 161 206 251 304 369
#     4  12  22  37  62  91 121 155 207 256 302 359
#     4  11  21  38  60  91 118 159 207 254 301 364
#     4  11  22  37  60  92 122 153 203 262 312 358
#     4  11  21  36  65  90 119 158 208 260 304 361
#
# _framework density 18.044286
#
# number of rings (size 3 to 8) (size 9 to 14) (size 15 to 20)
#    0.000    1.000    5.000    3.500    0.000    0.000 
#    0.000    2.500    0.000    0.000    0.000    0.000 
#    0.000    0.000    0.000    0.000    0.000    0.000 
#
# Total GULP energy -133943.809204 kJ/mol
# GULP energy per Si atom -5580.992050 kJ/mol
# Density = 1.800322 g / cm^3
# Si number density = 18.044286 Si / 1000 Ang^3
#
#
#
# Elastic Constant Matrix: (Units=GPa)
#
#
# Indices 1 2 3 4 5 6 
#
# 1 92.7284 34.3629 19.3867 0.0000 0.0000 0.0000
# 2 34.3629 115.3551 20.2372 0.0000 0.0000 0.0000
# 3 19.3867 20.2372 106.6668 0.0000 0.0000 0.0000
# 4 0.0000 0.0000 0.0000 28.4541 0.0000 0.0000
# 5 0.0000 0.0000 0.0000 0.0000 23.9802 0.0000
# 6 0.0000 0.0000 0.0000 0.0000 0.0000 15.1868
#
#
#
# Elastic Compliance Matrix: (Units=1/GPa)
#
#
# Indices 1 2 3 4 5 6 
#
# 1 0.012382 -0.003407 -0.001604 0.000000 0.000000 0.000000
# 2 -0.003407 0.009905 -0.001260 0.000000 0.000000 0.000000
# 3 -0.001604 -0.001260 0.009906 0.000000 0.000000 0.000000
# 4 0.000000 0.000000 0.000000 0.035144 0.000000 0.000000
# 5 0.000000 0.000000 0.000000 0.000000 0.041701 0.000000
# 6 0.000000 0.000000 0.000000 0.000000 0.000000 0.065847
#
#
# Mechanical properties :
#
#
# Convention : Reuss Voigt Hill
#
# Bulk Modulus (GPa) = 50.88959 51.41378 51.15169
# Shear Modulus (GPa) = 25.77627 29.57512 27.67569
#
# Velocity S-wave (km/s) = 3.78365 4.05288 3.92058
# Velocity P-wave (km/s) = 6.88127 7.10325 6.99314
#
# Compressibility (1/GPa) = 0.01965038
#
# Stress axis : x y z
#
# Youngs Moduli (GPa) = 80.76156 100.96066 100.95332
#
# Poissons Ratio (x) = 0.34398 0.16193
# Poissons Ratio (y) = 0.27516 0.12720
# Poissons Ratio (z) = 0.12955 0.12720
#
# Static dielectric constant tensor:
#      x y z
#    x 1.607940 0.000000 0.000000 
#    y 0.000000 1.608790 0.000000 
#    z 0.000000 0.000000 1.643180 
# 
# From -- ./inp_files/2772.got.cif
#   From: 2010.05.17/outbox.cif.g08.bks.cpg/sg31_2_cif.got.tgz:2772.got - 2010.06.03 17:08:30.
