data_PCOD9343950
_publ_section_title
;
Structure prediction by ZEFSAII (Michael W. Deem and Ramdas Pophale) SiO2 
 PCOD9343950
Probable space group: P B A 2
;
_chemical_formula_sum "Si O2"
_cell_formula_units_Z 26
_cell_length_a 5.210336
_cell_length_b 12.402345
_cell_length_c 16.629495
_cell_angle_alpha 90.000000
_cell_angle_beta 90.000000
_cell_angle_gamma 90.000000
_cell_volume 1074.604363
_symmetry_space_group_name_H-M "P B A 2"
_symmetry_group_IT_number 32
_symmetry_cell_setting 'orthorhombic'
loop_
_space_group_symop_operation_xyz
x,y,z
-x,-y,z
1/2-x,1/2+y,z
1/2+x,1/2-y,z
loop_
_atom_site_type_symbol
_atom_site_label
_atom_site_fract_x
_atom_site_fract_y
_atom_site_fract_z
Si Si1 0.500000 0.000000 0.860190
Si Si2 0.000000 0.000000 0.380109
Si Si3 0.082389 0.808298 0.660539
Si Si4 0.111486 0.728706 0.834310
Si Si5 0.271451 0.326543 0.497228
Si Si6 0.767875 0.820752 0.270993
Si Si7 0.282039 0.684025 0.082210
Si Si8 0.000000 0.000000 0.967870
O O1 0.421627 0.104990 0.810205
O O2 0.246479 0.971171 0.911949
O O3 0.824443 0.923918 0.324912
O O4 0.171390 0.920211 0.434476
O O5 0.280989 0.707971 0.647086
O O6 0.191092 0.878248 0.587598
O O7 0.108936 0.809731 0.757622
O O8 0.866236 0.761507 0.883328
O O9 0.500997 0.236400 0.489510
O O10 0.492462 0.767074 0.287047
O O11 0.794938 0.847771 0.176506
O O12 0.488049 0.780365 0.069674
O O13 0.381267 0.589642 0.026008
#
# Coordination Sequence:
#
# PCOD9343950 Si02
#       8
#     2   2   4   4   4   4   4   2
#     4  12  26  38  60  94 120 156 202 248 308 362
#     4  12  23  38  64  89 126 164 194 254 314 337
#     4   8  16  35  57  77 110 149 191 245 289 344
#     4  10  21  40  61  83 118 157 196 248 302 359
#     4  10  22  39  57  87 121 154 201 249 299 361
#     4  10  23  41  62  91 123 160 207 244 288 363
#     4  10  22  42  65  88 122 166 200 240 299 354
#     4  12  25  40  60  95 126 150 204 252 292 369
#
# _framework density 24.194952000000001
#
# number of rings (size 3 to 8) (size 9 to 14) (size 15 to 20)
#    0.000    1.846    0.000    3.231    0.000    6.154 
#    0.000   18.462    0.000    0.000    0.000    0.000 
#    0.000    0.000    0.000    0.000    0.000    0.000 
#
# Total GULP energy -145033.220280 kJ/mol
# GULP energy per Si atom -5578.200780 kJ/mol
# Density = 2.413988 g / cm^3
# Si number density = 24.194952 Si / 1000 Ang^3
#
#
#
# Elastic Constant Matrix: (Units=GPa)
#
#
# Indices 1 2 3 4 5 6 
#
# 1 129.1016 -2.0875 10.2920 0.0000 0.0000 0.0000
# 2 -2.0875 50.8863 40.1277 0.0000 0.0000 0.0000
# 3 10.2920 40.1277 130.0661 0.0000 0.0000 0.0000
# 4 0.0000 0.0000 0.0000 23.0356 0.0000 0.0000
# 5 0.0000 0.0000 0.0000 0.0000 20.3711 0.0000
# 6 0.0000 0.0000 0.0000 0.0000 0.0000 13.4511
#
#
#
# Elastic Compliance Matrix: (Units=1/GPa)
#
#
# Indices 1 2 3 4 5 6 
#
# 1 0.007839 0.001071 -0.000951 0.000000 0.000000 0.000000
# 2 0.001071 0.026116 -0.008142 0.000000 0.000000 0.000000
# 3 -0.000951 -0.008142 0.010276 0.000000 0.000000 0.000000
# 4 0.000000 0.000000 0.000000 0.043411 0.000000 0.000000
# 5 0.000000 0.000000 0.000000 0.000000 0.049089 0.000000
# 6 0.000000 0.000000 0.000000 0.000000 0.000000 0.074343
#
#
# Mechanical properties :
#
#
# Convention : Reuss Voigt Hill
#
# Bulk Modulus (GPa) = 35.47640 45.19091 40.33366
# Shear Modulus (GPa) = 21.14046 28.81969 24.98007
#
# Velocity S-wave (km/s) = 2.95914 3.45504 3.21666
# Velocity P-wave (km/s) = 5.13517 5.88513 5.52289
#
# Compressibility (1/GPa) = 0.02818775
#
# Stress axis : x y z
#
# Youngs Moduli (GPa) = 127.56788 38.29029 97.31772
#
# Poissons Ratio (x) = -0.04102 0.09253
# Poissons Ratio (y) = -0.13667 0.79237
# Poissons Ratio (z) = 0.12130 0.31176
#
# Static dielectric constant tensor:
#      x y z
#    x 2.025880 0.000000 0.000000 
#    y 0.000000 1.950990 0.000000 
#    z 0.000000 0.000000 1.998200 
# 
# From -- ./inp_files/4205.got.cif
#   From: 2010.05.17/outbox.cif.g08.bks.cpg/sg32_3_cif.got.tgz:4205.got - 2010.06.03 17:12:27.
