data_PCOD9343890
_publ_section_title
;
Structure prediction by ZEFSAII (Michael W. Deem and Ramdas Pophale) SiO2 
 PCOD9343890
Probable space group: P B A 2
;
_chemical_formula_sum "Si O2"
_cell_formula_units_Z 26
_cell_length_a 15.024048
_cell_length_b 8.691205
_cell_length_c 9.046307
_cell_angle_alpha 90.000000
_cell_angle_beta 90.000000
_cell_angle_gamma 90.000000
_cell_volume 1181.240363
_symmetry_space_group_name_H-M "P B A 2"
_symmetry_group_IT_number 32
_symmetry_cell_setting 'orthorhombic'
loop_
_space_group_symop_operation_xyz
x,y,z
-x,-y,z
1/2-x,1/2+y,z
1/2+x,1/2-y,z
loop_
_atom_site_type_symbol
_atom_site_label
_atom_site_fract_x
_atom_site_fract_y
_atom_site_fract_z
Si Si1 0.500000 0.500000 0.044721
Si Si2 0.172931 0.145568 0.435617
Si Si3 0.000000 0.500000 0.689186
Si Si4 0.793420 0.475524 0.924488
Si Si5 0.000000 0.000000 0.554363
Si Si6 0.806886 0.555180 0.602498
Si Si7 0.068242 0.779447 0.808172
Si Si8 0.845407 0.776018 0.108177
O O1 0.559830 0.365897 0.116585
O O2 0.437743 0.402184 0.936726
O O3 0.183225 0.268233 0.565258
O O4 0.186443 0.225431 0.277890
O O5 0.246243 0.019886 0.477148
O O6 0.073990 0.080144 0.454494
O O7 0.092581 0.515705 0.601466
O O8 0.988661 0.653771 0.786412
O O9 0.764043 0.543948 0.765649
O O10 0.856572 0.338509 0.863434
O O11 0.837921 0.610223 0.025788
O O12 0.718448 0.390713 0.017759
O O13 0.055063 0.880609 0.659200
#
# Coordination Sequence:
#
# PCOD9343890 Si02
#       8
#     2   4   2   4   2   4   4   4
#     4  11  23  40  70 102 140 190 230 298 364 440
#     4  12  27  45  68 107 146 199 232 308 369 438
#     4  10  20  44  62 108 136 172 236 306 346 418
#     4  11  25  45  72 104 138 194 241 309 350 447
#     4  11  25  44  72 110 154 188 250 308 362 438
#     4  11  25  42  72 101 136 185 250 292 358 425
#     4  10  22  40  72 103 136 178 247 305 347 415
#     4  12  26  46  68 102 155 186 248 297 384 440
#
# _framework density 22.010763000000001
#
# number of rings (size 3 to 8) (size 9 to 14) (size 15 to 20)
#    0.000    0.923    1.538    5.077   12.923    0.000 
#    0.000    3.077    0.000    0.923    0.000    0.000 
#    0.000    0.000    0.000    0.000    0.000    0.000 
#
# Total GULP energy -144950.109768 kJ/mol
# GULP energy per Si atom -5575.004222 kJ/mol
# Density = 2.196067 g / cm^3
# Si number density = 22.010763 Si / 1000 Ang^3
#
#
#
# Elastic Constant Matrix: (Units=GPa)
#
#
# Indices 1 2 3 4 5 6 
#
# 1 95.2319 26.1727 30.4555 0.0000 0.0000 0.0000
# 2 26.1727 125.9258 31.3991 0.0000 0.0000 0.0000
# 3 30.4555 31.3991 116.6088 0.0000 0.0000 0.0000
# 4 0.0000 0.0000 0.0000 -9.7438 0.0000 0.0000
# 5 0.0000 0.0000 0.0000 0.0000 19.6587 0.0000
# 6 0.0000 0.0000 0.0000 0.0000 0.0000 35.2780
#
#
#
# Elastic Compliance Matrix: (Units=1/GPa)
#
#
# Indices 1 2 3 4 5 6 
#
# 1 0.011830 -0.001810 -0.002602 0.000000 0.000000 0.000000
# 2 -0.001810 0.008790 -0.001894 0.000000 0.000000 0.000000
# 3 -0.002602 -0.001894 0.009765 0.000000 0.000000 0.000000
# 4 0.000000 0.000000 0.000000 -0.102630 0.000000 0.000000
# 5 0.000000 0.000000 0.000000 0.000000 0.050868 0.000000
# 6 0.000000 0.000000 0.000000 0.000000 0.000000 0.028346
#
#
# Mechanical properties :
#
#
# Convention : Reuss Voigt Hill
#
# Bulk Modulus (GPa) = 56.26672 57.09125 56.67899
# Shear Modulus (GPa) = 196.02298 25.68787 110.85542
#
# Velocity S-wave (km/s) = 9.44728 3.41993 7.10447
# Velocity P-wave (km/s) = 12.02582 6.44893 9.64907
#
# Compressibility (1/GPa) = 0.01777249
#
# Stress axis : x y z
#
# Youngs Moduli (GPa) = 84.52806 113.77024 102.40239
#
# Poissons Ratio (x) = 0.20592 0.26650
# Poissons Ratio (y) = 0.15299 0.19396
# Poissons Ratio (z) = 0.21998 0.21549
#
# Static dielectric constant tensor:
#      x y z
#    x 1.861270 0.000000 0.000000 
#    y 0.000000 2.018500 0.000000 
#    z 0.000000 0.000000 1.807770 
# 
# From -- ./inp_files/3224.got.cif
#   From: 2010.05.17/outbox.cif.g08.bks.cpg/sg32_2_cif.got.tgz:3224.got - 2010.06.03 17:12:27.
