data_PCOD9343594
_publ_section_title
;
Structure prediction by ZEFSAII (Michael W. Deem and Ramdas Pophale) SiO2 
 PCOD9343594
Probable space group: P M N 21
;
_chemical_formula_sum "Si O2"
_cell_formula_units_Z 20
_cell_length_a 28.388811
_cell_length_b 4.944816
_cell_length_c 5.467344
_cell_angle_alpha 90.000000
_cell_angle_beta 90.000000
_cell_angle_gamma 90.000000
_cell_volume 767.491792
_symmetry_space_group_name_H-M "P M N 21"
_symmetry_group_IT_number 31
_symmetry_cell_setting 'orthorhombic'
loop_
_space_group_symop_operation_xyz
x,y,z
1/2-x,-y,1/2+z
-x,y,z
1/2+x,-y,1/2+z
loop_
_atom_site_type_symbol
_atom_site_label
_atom_site_fract_x
_atom_site_fract_y
_atom_site_fract_z
Si Si1 0.398159 0.837899 0.586470
Si Si2 0.250442 0.671164 0.209223
Si Si3 0.500000 0.200622 0.077981
Si Si4 0.000000 0.304648 0.283422
Si Si5 0.829305 0.002800 0.456055
Si Si6 0.602250 0.340429 0.281662
O O1 0.451841 0.777199 0.655335
O O2 0.388303 0.645667 0.357626
O O3 0.392468 0.149873 0.518086
O O4 0.362707 0.791368 0.808767
O O5 0.257146 0.498728 0.458741
O O6 0.295690 0.853968 0.151962
O O7 0.206218 0.861929 0.265860
O O8 0.548326 0.292358 0.201698
O O9 0.500000 0.375672 0.828576
O O10 0.500000 0.880505 0.029319
O O11 0.862351 0.782747 0.585160
#
# Coordination Sequence:
#
# PCOD9343594 Si02
#       6
#     4   4   2   2   4   4
#     4  12  29  50  85 121 168 223 281 347 430 514
#     4  12  32  56  88 120 176 224 294 372 448 518
#     4  12  24  50  78 121 171 222 273 348 420 510
#     4  12  24  50  78 121 171 222 273 348 420 510
#     4  12  32  53  80 128 162 223 292 362 438 518
#     4  12  29  50  85 121 168 223 281 347 430 514
#
# _framework density 26.058907999999999
#
# number of rings (size 3 to 8) (size 9 to 14) (size 15 to 20)
#    0.000    0.000    2.000    4.800   14.000    0.000 
#    0.000    0.000    0.000    0.000    0.000    0.000 
#    0.000    0.000    0.000    0.000    0.000    0.000 
#
# Total GULP energy -112355.514229 kJ/mol
# GULP energy per Si atom -5617.775711 kJ/mol
# Density = 2.599960 g / cm^3
# Si number density = 26.058908 Si / 1000 Ang^3
#
#
#
# Elastic Constant Matrix: (Units=GPa)
#
#
# Indices 1 2 3 4 5 6 
#
# 1 235.1342 47.4950 81.2562 0.0000 0.0000 0.0000
# 2 47.4950 80.1187 34.1349 0.0000 0.0000 0.0000
# 3 81.2562 34.1349 134.8787 0.0000 0.0000 0.0000
# 4 0.0000 0.0000 0.0000 67.6487 0.0000 0.0000
# 5 0.0000 0.0000 0.0000 0.0000 72.9621 0.0000
# 6 0.0000 0.0000 0.0000 0.0000 0.0000 -71.6441
#
#
#
# Elastic Compliance Matrix: (Units=1/GPa)
#
#
# Indices 1 2 3 4 5 6 
#
# 1 0.005681 -0.002140 -0.002881 0.000000 0.000000 0.000000
# 2 -0.002140 0.014796 -0.002455 0.000000 0.000000 0.000000
# 3 -0.002881 -0.002455 0.009771 0.000000 0.000000 0.000000
# 4 0.000000 0.000000 0.000000 0.014782 0.000000 0.000000
# 5 0.000000 0.000000 0.000000 0.000000 0.013706 0.000000
# 6 0.000000 0.000000 0.000000 0.000000 0.000000 -0.013958
#
#
# Mechanical properties :
#
#
# Convention : Reuss Voigt Hill
#
# Bulk Modulus (GPa) = 65.37834 86.21152 75.79493
# Shear Modulus (GPa) = 77.12643 32.94307 55.03475
#
# Velocity S-wave (km/s) = 5.44621 3.55938 4.60057
# Velocity P-wave (km/s) = 8.04310 7.07442 7.57426
#
# Compressibility (1/GPa) = 0.01529559
#
# Stress axis : x y z
#
# Youngs Moduli (GPa) = 176.03585 67.58441 102.34553
#
# Poissons Ratio (x) = 0.14465 0.29482
# Poissons Ratio (y) = 0.37676 0.25128
# Poissons Ratio (z) = 0.50709 0.16594
#
# Static dielectric constant tensor:
#      x y z
#    x 1.976910 0.000000 0.000000 
#    y 0.000000 1.999340 0.000000 
#    z 0.000000 0.000000 2.089780 
# 
# From -- ./inp_files/1325.got.cif
#   From: 2010.05.17/outbox.cif.g08.bks.cpg/sg31_1_cif.got.tgz:1325.got - 2010.06.03 17:08:30.
