data_PCOD9343020
_publ_section_title
;
Structure prediction by ZEFSAII (Michael W. Deem and Ramdas Pophale) SiO2 
 PCOD9343020
Probable space group: P M N 21
;
_chemical_formula_sum "Si O2"
_cell_formula_units_Z 32
_cell_length_a 13.229197
_cell_length_b 18.931259
_cell_length_c 5.713093
_cell_angle_alpha 90.000000
_cell_angle_beta 90.000000
_cell_angle_gamma 90.000000
_cell_volume 1430.817603
_symmetry_space_group_name_H-M "P M N 21"
_symmetry_group_IT_number 31
_symmetry_cell_setting 'orthorhombic'
loop_
_space_group_symop_operation_xyz
x,y,z
1/2-x,-y,1/2+z
-x,y,z
1/2+x,-y,1/2+z
loop_
_atom_site_type_symbol
_atom_site_label
_atom_site_fract_x
_atom_site_fract_y
_atom_site_fract_z
Si Si1 0.190123 0.996895 0.683020
Si Si2 0.884574 0.343156 0.186823
Si Si3 0.693824 0.155746 0.188972
Si Si4 0.823227 0.705876 0.904880
Si Si5 0.380401 0.487836 0.712517
Si Si6 0.385651 0.434483 0.213113
Si Si7 0.613436 0.860285 0.000084
Si Si8 0.218376 0.258093 0.807631
O O1 0.140100 0.919166 0.667009
O O2 0.261999 0.997069 0.446459
O O3 0.123867 0.066642 0.642943
O O4 0.794172 0.306488 0.328519
O O5 0.873712 0.427165 0.213655
O O6 0.000000 0.324561 0.248078
O O7 0.855984 0.313425 0.931793
O O8 0.644981 0.213745 0.359944
O O9 0.804263 0.136671 0.294221
O O10 0.719209 0.202657 0.965383
O O11 0.883386 0.649217 0.757457
O O12 0.807555 0.697961 0.179565
O O13 0.500000 0.468390 0.706134
O O14 0.339520 0.461682 0.459932
O O15 0.342450 0.455714 0.959884
O O16 0.500000 0.462827 0.208490
O O17 0.500000 0.851281 0.913834
O O18 0.648800 0.794822 0.157796
#
# Coordination Sequence:
#
# PCOD9343020 Si02
#       8
#     4   4   4   4   4   4   4   4
#     4  10  19  37  59  81 111 158 195 238 292 353
#     4  10  22  37  56  87 126 163 199 251 311 375
#     4   9  20  37  54  82 119 155 198 249 303 367
#     4  10  23  36  61  87 119 162 211 253 314 379
#     4   9  21  39  62  87 119 160 201 252 314 367
#     4  10  22  42  64  88 118 156 208 263 309 363
#     4  10  20  34  57  89 120 158 205 250 302 366
#     4  10  20  36  56  87 120 162 202 248 305 372
#
# _framework density 22.364836
#
# number of rings (size 3 to 8) (size 9 to 14) (size 15 to 20)
#    0.000    2.250    1.250    0.375    5.250    6.500 
#    0.000    0.625    0.000    0.750    0.000    0.000 
#    0.000    0.000    0.000    0.000    0.000    0.000 
#
# Total GULP energy -178176.236962 kJ/mol
# GULP energy per Si atom -5568.007405 kJ/mol
# Density = 2.231393 g / cm^3
# Si number density = 22.364836 Si / 1000 Ang^3
#
#
#
# Elastic Constant Matrix: (Units=GPa)
#
#
# Indices 1 2 3 4 5 6 
#
# 1 43.4378 -1.3929 14.6263 0.0000 0.0000 0.0000
# 2 -1.3929 122.1119 47.5876 0.0000 0.0000 0.0000
# 3 14.6263 47.5876 112.4873 0.0000 0.0000 0.0000
# 4 0.0000 0.0000 0.0000 57.1726 0.0000 0.0000
# 5 0.0000 0.0000 0.0000 0.0000 7.4587 0.0000
# 6 0.0000 0.0000 0.0000 0.0000 0.0000 5.1159
#
#
#
# Elastic Compliance Matrix: (Units=1/GPa)
#
#
# Indices 1 2 3 4 5 6 
#
# 1 0.024407 0.001814 -0.003941 0.000000 0.000000 0.000000
# 2 0.001814 0.009941 -0.004441 0.000000 0.000000 0.000000
# 3 -0.003941 -0.004441 0.011281 0.000000 0.000000 0.000000
# 4 0.000000 0.000000 0.000000 0.017491 0.000000 0.000000
# 5 0.000000 0.000000 0.000000 0.000000 0.134071 0.000000
# 6 0.000000 0.000000 0.000000 0.000000 0.000000 0.195470
#
#
# Mechanical properties :
#
#
# Convention : Reuss Voigt Hill
#
# Bulk Modulus (GPa) = 30.77643 44.40876 37.59259
# Shear Modulus (GPa) = 12.00113 28.43050 20.21581
#
# Velocity S-wave (km/s) = 2.31899 3.56928 3.00977
# Velocity P-wave (km/s) = 4.57835 6.07338 5.37807
#
# Compressibility (1/GPa) = 0.03249240
#
# Stress axis : x y z
#
# Youngs Moduli (GPa) = 40.97248 100.59647 88.64292
#
# Poissons Ratio (x) = -0.18251 0.34934
# Poissons Ratio (y) = -0.07433 0.39369
# Poissons Ratio (z) = 0.16147 0.44678
#
# Static dielectric constant tensor:
#      x y z
#    x 1.825510 0.000000 0.000000 
#    y 0.000000 1.858790 0.000000 
#    z 0.000000 0.000000 2.012210 
# 
# From -- ./inp_files/673.got.cif
#   From: 2010.05.17/outbox.cif.g08.bks.cpg/sg31_1_cif.got.tgz:673.got - 2010.06.03 17:08:30.
