data_PCOD9343196
_publ_section_title
;
Structure prediction by ZEFSAII (Michael W. Deem and Ramdas Pophale) SiO2 
 PCOD9343196
Probable space group: P M N 21
;
_chemical_formula_sum "Si O2"
_cell_formula_units_Z 26
_cell_length_a 14.228098
_cell_length_b 7.888518
_cell_length_c 9.484161
_cell_angle_alpha 90.000000
_cell_angle_beta 90.000000
_cell_angle_gamma 90.000000
_cell_volume 1064.489021
_symmetry_space_group_name_H-M "P M N 21"
_symmetry_group_IT_number 31
_symmetry_cell_setting 'orthorhombic'
loop_
_space_group_symop_operation_xyz
x,y,z
1/2-x,-y,1/2+z
-x,y,z
1/2+x,-y,1/2+z
loop_
_atom_site_type_symbol
_atom_site_label
_atom_site_fract_x
_atom_site_fract_y
_atom_site_fract_z
Si Si1 0.862738 0.414338 0.822700
Si Si2 0.369026 0.288242 0.522754
Si Si3 0.500000 0.260945 0.054287
Si Si4 0.334531 0.060804 0.140329
Si Si5 0.658196 0.926808 0.446714
Si Si6 0.358462 0.714700 0.020838
Si Si7 0.365455 0.428164 0.825091
O O1 0.895405 0.581078 0.901239
O O2 0.890055 0.393084 0.658559
O O3 0.748176 0.412823 0.829016
O O4 0.893059 0.246882 0.907947
O O5 0.395171 0.091790 0.505092
O O6 0.254653 0.281374 0.521498
O O7 0.394788 0.372716 0.670437
O O8 0.417855 0.311081 0.937186
O O9 0.415617 0.195717 0.159060
O O10 0.242160 0.113518 0.055286
O O11 0.384152 0.908296 0.050932
O O12 0.304351 0.987572 0.292323
O O13 0.388146 0.618354 0.880124
#
# Coordination Sequence:
#
# PCOD9343196 Si02
#       7
#     4   4   2   4   4   4   4
#     4   9  17  34  60  88 113 149 203 254 294 348
#     4   9  19  33  59  91 116 150 202 254 299 359
#     4  12  24  36  60  90 132 162 194 264 332 372
#     4  10  22  38  62  91 121 163 210 254 317 376
#     4  10  20  37  63  92 121 158 216 259 299 375
#     4   8  18  35  58  84 113 155 205 247 285 368
#     4  10  20  37  53  86 123 155 196 242 314 376
#
# _framework density 24.424862999999998
#
# number of rings (size 3 to 8) (size 9 to 14) (size 15 to 20)
#    0.000    2.462    1.538    0.923    2.154    4.308 
#    0.000    0.769    0.000    0.923    0.000    0.000 
#    0.000    0.000    0.000    0.000    0.000    0.000 
#
# Total GULP energy -144800.215254 kJ/mol
# GULP energy per Si atom -5569.239048 kJ/mol
# Density = 2.436927 g / cm^3
# Si number density = 24.424863 Si / 1000 Ang^3
#
#
#
# Elastic Constant Matrix: (Units=GPa)
#
#
# Indices 1 2 3 4 5 6 
#
# 1 137.8571 -3.3907 19.0786 0.0000 0.0000 0.0000
# 2 -3.3907 126.9160 71.2649 0.0000 0.0000 0.0000
# 3 19.0786 71.2649 101.3891 0.0000 0.0000 0.0000
# 4 0.0000 0.0000 0.0000 50.1891 0.0000 0.0000
# 5 0.0000 0.0000 0.0000 0.0000 -15.0004 0.0000
# 6 0.0000 0.0000 0.0000 0.0000 0.0000 -83.1939
#
#
#
# Elastic Compliance Matrix: (Units=1/GPa)
#
#
# Indices 1 2 3 4 5 6 
#
# 1 0.007657 0.001675 -0.002618 0.000000 0.000000 0.000000
# 2 0.001675 0.013383 -0.009722 0.000000 0.000000 0.000000
# 3 -0.002618 -0.009722 0.017189 0.000000 0.000000 0.000000
# 4 0.000000 0.000000 0.000000 0.019925 0.000000 0.000000
# 5 0.000000 0.000000 0.000000 0.000000 -0.066665 0.000000
# 6 0.000000 0.000000 0.000000 0.000000 0.000000 -0.012020
#
#
# Mechanical properties :
#
#
# Convention : Reuss Voigt Hill
#
# Bulk Modulus (GPa) = 59.17531 60.00754 59.59143
# Shear Modulus (GPa) = 777.40249 9.01293 393.20771
#
# Velocity S-wave (km/s) = 17.85985 1.92304 12.70182
# Velocity P-wave (km/s) = 21.20328 5.43620 15.47791
#
# Compressibility (1/GPa) = 0.01689894
#
# Stress axis : x y z
#
# Youngs Moduli (GPa) = 130.59286 74.72272 58.17725
#
# Poissons Ratio (x) = -0.12513 0.15231
# Poissons Ratio (y) = -0.21869 0.56558
# Poissons Ratio (z) = 0.34189 0.72643
#
# Static dielectric constant tensor:
#      x y z
#    x 1.933940 0.000000 0.000000 
#    y 0.000000 2.036690 0.000000 
#    z 0.000000 0.000000 1.891530 
# 
# From -- ./inp_files/2852.got.cif
#   From: 2010.05.17/outbox.cif.g08.bks.cpg/sg31_2_cif.got.tgz:2852.got - 2010.06.03 17:08:30.
