data_PCOD9343062
_publ_section_title
;
Structure prediction by ZEFSAII (Michael W. Deem and Ramdas Pophale) SiO2 
 PCOD9343062
Probable space group: P M N 21
;
_chemical_formula_sum "Si O2"
_cell_formula_units_Z 32
_cell_length_a 7.788353
_cell_length_b 11.568414
_cell_length_c 16.818435
_cell_angle_alpha 90.000000
_cell_angle_beta 90.000000
_cell_angle_gamma 90.000000
_cell_volume 1515.322357
_symmetry_space_group_name_H-M "P M N 21"
_symmetry_group_IT_number 31
_symmetry_cell_setting 'orthorhombic'
loop_
_space_group_symop_operation_xyz
x,y,z
1/2-x,-y,1/2+z
-x,y,z
1/2+x,-y,1/2+z
loop_
_atom_site_type_symbol
_atom_site_label
_atom_site_fract_x
_atom_site_fract_y
_atom_site_fract_z
Si Si1 0.292379 0.727164 0.977890
Si Si2 0.304803 0.316786 0.795202
Si Si3 0.202425 0.417680 0.631498
Si Si4 0.210010 0.443779 0.339234
Si Si5 0.294220 0.916744 0.631953
Si Si6 0.300319 0.010945 0.462676
Si Si7 0.707186 0.658559 0.669662
Si Si8 0.197357 0.056822 0.790308
O O1 0.500000 0.740781 0.973127
O O2 0.237220 0.639727 0.909364
O O3 0.210576 0.851659 0.969878
O O4 0.250932 0.666111 0.060321
O O5 0.500000 0.291236 0.820017
O O6 0.303982 0.376416 0.708669
O O7 0.231406 0.423094 0.846965
O O8 0.209969 0.195636 0.788543
O O9 0.237589 0.552307 0.613822
O O10 0.000000 0.404749 0.648235
O O11 0.265475 0.384031 0.256907
O O12 0.000000 0.449057 0.338277
O O13 0.500000 0.910761 0.624444
O O14 0.227064 0.961170 0.546100
O O15 0.230100 0.786637 0.649364
O O16 0.264848 0.999205 0.708711
O O17 0.500000 0.972862 0.459659
O O18 0.222994 0.979133 0.376003
O O19 0.500000 0.662403 0.670563
O O20 0.000000 0.019474 0.792421
#
# Coordination Sequence:
#
# PCOD9343062 Si02
#       8
#     4   4   4   4   4   4   4   4
#     4  10  20  35  55  78 105 138 179 225 272 326
#     4  10  20  36  57  78 104 143 187 224 266 329
#     4  10  20  33  53  82 112 139 171 223 283 329
#     4   8  16  32  53  76 100 129 172 222 263 310
#     4  10  21  39  61  82 110 153 196 229 270 333
#     4  10  23  39  55  81 115 147 184 232 282 333
#     4   9  18  34  56  78 102 138 183 224 265 323
#     4  11  23  38  56  83 118 149 182 233 289 331
#
# _framework density 21.117619000000001
#
# number of rings (size 3 to 8) (size 9 to 14) (size 15 to 20)
#    0.000    2.250    0.000    3.375    0.000    7.000 
#    0.000    4.375    0.000    0.000    0.000    0.000 
#    0.000    0.000    0.000    0.000    0.000    0.000 
#
# Total GULP energy -178487.382108 kJ/mol
# GULP energy per Si atom -5577.730691 kJ/mol
# Density = 2.106955 g / cm^3
# Si number density = 21.117619 Si / 1000 Ang^3
#
#
#
# Elastic Constant Matrix: (Units=GPa)
#
#
# Indices 1 2 3 4 5 6 
#
# 1 23.0024 -7.3035 4.9250 0.0000 0.0000 0.0000
# 2 -7.3035 128.4693 39.9800 0.0000 0.0000 0.0000
# 3 4.9250 39.9800 89.0232 0.0000 0.0000 0.0000
# 4 0.0000 0.0000 0.0000 36.3569 0.0000 0.0000
# 5 0.0000 0.0000 0.0000 0.0000 14.9818 0.0000
# 6 0.0000 0.0000 0.0000 0.0000 0.0000 35.6693
#
#
#
# Elastic Compliance Matrix: (Units=1/GPa)
#
#
# Indices 1 2 3 4 5 6 
#
# 1 0.045640 0.003930 -0.004290 0.000000 0.000000 0.000000
# 2 0.003930 0.009387 -0.004433 0.000000 0.000000 0.000000
# 3 -0.004290 -0.004433 0.013461 0.000000 0.000000 0.000000
# 4 0.000000 0.000000 0.000000 0.027505 0.000000 0.000000
# 5 0.000000 0.000000 0.000000 0.000000 0.066747 0.000000
# 6 0.000000 0.000000 0.000000 0.000000 0.000000 0.028035
#
#
# Mechanical properties :
#
#
# Convention : Reuss Voigt Hill
#
# Bulk Modulus (GPa) = 16.97743 35.07755 26.02749
# Shear Modulus (GPa) = 22.72769 30.92785 26.82777
#
# Velocity S-wave (km/s) = 3.28417 3.83110 3.56813
# Velocity P-wave (km/s) = 4.73687 6.01800 5.41546
#
# Compressibility (1/GPa) = 0.05890174
#
# Stress axis : x y z
#
# Youngs Moduli (GPa) = 21.91068 106.53119 74.28765
#
# Poissons Ratio (x) = -0.41862 0.31867
# Poissons Ratio (y) = -0.08610 0.32932
# Poissons Ratio (z) = 0.09399 0.47226
#
# Static dielectric constant tensor:
#      x y z
#    x 1.785890 0.000000 0.000000 
#    y 0.000000 1.740750 0.000000 
#    z 0.000000 0.000000 1.774400 
# 
# From -- ./inp_files/5021.got.cif
#   From: 2010.05.17/outbox.cif.g08.bks.cpg/sg31_3_cif.got.tgz:5021.got - 2010.06.03 17:08:30.
