data_PCOD9343908
_publ_section_title
;
Structure prediction by ZEFSAII (Michael W. Deem and Ramdas Pophale) SiO2 
 PCOD9343908
Probable space group: P B A 2
;
_chemical_formula_sum "Si O2"
_cell_formula_units_Z 32
_cell_length_a 8.313050
_cell_length_b 33.687924
_cell_length_c 5.276336
_cell_angle_alpha 90.000000
_cell_angle_beta 90.000000
_cell_angle_gamma 90.000000
_cell_volume 1477.634713
_symmetry_space_group_name_H-M "P B A 2"
_symmetry_group_IT_number 32
_symmetry_cell_setting 'orthorhombic'
loop_
_space_group_symop_operation_xyz
x,y,z
-x,-y,z
1/2-x,1/2+y,z
1/2+x,1/2-y,z
loop_
_atom_site_type_symbol
_atom_site_label
_atom_site_fract_x
_atom_site_fract_y
_atom_site_fract_z
Si Si1 0.848148 0.704598 0.320890
Si Si2 0.727817 0.794094 0.387386
Si Si3 0.782582 0.078290 0.036910
Si Si4 0.322730 0.996937 0.789322
Si Si5 0.227340 0.837632 0.821275
Si Si6 0.941644 0.039717 0.417616
Si Si7 0.344135 0.663124 0.886728
Si Si8 0.353594 0.573533 0.821474
O O1 0.786651 0.748883 0.374917
O O2 0.784637 0.676083 0.545631
O O3 0.039636 0.704341 0.330648
O O4 0.790501 0.691010 0.043800
O O5 0.761713 0.811488 0.665583
O O6 0.813986 0.819199 0.164995
O O7 0.723005 0.118103 0.910081
O O8 0.970806 0.071353 0.954571
O O9 0.675918 0.039865 0.982131
O O10 0.819777 0.075000 0.332878
O O11 0.268067 0.039111 0.901570
O O12 0.500000 0.000000 0.671235
O O13 0.174213 0.983588 0.613515
O O14 0.534212 0.663176 0.830301
O O15 0.093548 0.063149 0.533032
O O16 0.000000 0.000000 0.262008
O O17 0.289007 0.617435 0.864106
#
# Coordination Sequence:
#
# PCOD9343908 Si02
#       8
#     4   4   4   4   4   4   4   4
#     4  12  26  47  69 102 134 179 216 279 335 413
#     4  12  26  46  72  97 140 172 223 268 346 398
#     4  10  21  37  65  85 124 166 226 263 326 388
#     4  10  21  36  55  88 129 169 211 272 330 382
#     4  11  25  42  73 100 136 171 230 273 340 391
#     4   9  18  36  60  87 117 171 220 270 315 396
#     4  11  24  43  70 104 132 178 221 283 327 408
#     4   9  21  37  62  87 126 164 223 262 325 386
#
# _framework density 21.656233
#
# number of rings (size 3 to 8) (size 9 to 14) (size 15 to 20)
#    0.000    1.500    0.000    5.625    8.750    2.500 
#    0.000    0.000    0.000    0.000    0.000    0.000 
#    0.000    0.000    0.000    0.000    0.000    0.000 
#
# Total GULP energy -178461.566073 kJ/mol
# GULP energy per Si atom -5576.923940 kJ/mol
# Density = 2.160694 g / cm^3
# Si number density = 21.656233 Si / 1000 Ang^3
#
#
#
# Elastic Constant Matrix: (Units=GPa)
#
#
# Indices 1 2 3 4 5 6 
#
# 1 61.7260 14.7279 -20.1812 0.0000 0.0000 0.0000
# 2 14.7279 153.7399 -8.8418 0.0000 0.0000 0.0000
# 3 -20.1812 -8.8418 28.5619 0.0000 0.0000 0.0000
# 4 0.0000 0.0000 0.0000 32.0533 0.0000 0.0000
# 5 0.0000 0.0000 0.0000 0.0000 30.7066 0.0000
# 6 0.0000 0.0000 0.0000 0.0000 0.0000 16.2989
#
#
#
# Elastic Compliance Matrix: (Units=1/GPa)
#
#
# Indices 1 2 3 4 5 6 
#
# 1 0.021281 -0.001195 0.014667 0.000000 0.000000 0.000000
# 2 -0.001195 0.006690 0.001226 0.000000 0.000000 0.000000
# 3 0.014667 0.001226 0.045754 0.000000 0.000000 0.000000
# 4 0.000000 0.000000 0.000000 0.031198 0.000000 0.000000
# 5 0.000000 0.000000 0.000000 0.000000 0.032566 0.000000
# 6 0.000000 0.000000 0.000000 0.000000 0.000000 0.061354
#
#
# Mechanical properties :
#
#
# Convention : Reuss Voigt Hill
#
# Bulk Modulus (GPa) = 9.69736 23.93754 16.81745
# Shear Modulus (GPa) = 24.53132 33.03328 28.78230
#
# Velocity S-wave (km/s) = 3.36930 3.90981 3.64957
# Velocity P-wave (km/s) = 4.42988 5.60888 5.05388
#
# Compressibility (1/GPa) = 0.10312081
#
# Stress axis : x y z
#
# Youngs Moduli (GPa) = 46.99018 149.48768 21.85579
#
# Poissons Ratio (x) = 0.17866 -0.32055
# Poissons Ratio (y) = 0.05616 -0.02680
# Poissons Ratio (z) = -0.68919 -0.18332
#
# Static dielectric constant tensor:
#      x y z
#    x 1.769250 0.000000 0.000000 
#    y 0.000000 1.841540 0.000000 
#    z 0.000000 0.000000 2.057340 
# 
# From -- ./inp_files/640.got.cif
#   From: 2010.05.17/outbox.cif.g08.bks.cpg/sg32_1_cif.got.tgz:640.got - 2010.06.03 17:12:27.
