data_PCOD9343960
_publ_section_title
;
Structure prediction by ZEFSAII (Michael W. Deem and Ramdas Pophale) SiO2 
 PCOD9343960
Probable space group: P B A 2
;
_chemical_formula_sum "Si O2"
_cell_formula_units_Z 30
_cell_length_a 5.671012
_cell_length_b 28.134992
_cell_length_c 8.533214
_cell_angle_alpha 90.000000
_cell_angle_beta 90.000000
_cell_angle_gamma 90.000000
_cell_volume 1361.507379
_symmetry_space_group_name_H-M "P B A 2"
_symmetry_group_IT_number 32
_symmetry_cell_setting 'orthorhombic'
loop_
_space_group_symop_operation_xyz
x,y,z
-x,-y,z
1/2-x,1/2+y,z
1/2+x,1/2-y,z
loop_
_atom_site_type_symbol
_atom_site_label
_atom_site_fract_x
_atom_site_fract_y
_atom_site_fract_z
Si Si1 0.556728 0.399755 0.521240
Si Si2 0.432468 0.644725 0.020122
Si Si3 0.268064 0.420072 0.233262
Si Si4 0.883986 0.338911 0.289573
Si Si5 0.152182 0.574898 0.807284
Si Si6 0.990712 0.276398 0.568169
Si Si7 0.000000 0.500000 0.043332
Si Si8 0.278334 0.853853 0.760816
O O1 0.380646 0.427519 0.404772
O O2 0.711779 0.430251 0.643250
O O3 0.407157 0.362130 0.621885
O O4 0.725421 0.368643 0.411723
O O5 0.530421 0.600833 0.122148
O O6 0.279907 0.675233 0.142250
O O7 0.265008 0.619743 0.895443
O O8 0.648220 0.664709 0.916757
O O9 0.081746 0.376656 0.239106
O O10 0.147898 0.465084 0.154085
O O11 0.992910 0.296600 0.390709
O O12 0.884837 0.593345 0.786316
O O13 0.157920 0.531024 0.924522
O O14 0.232028 0.246347 0.590991
O O15 0.026202 0.319201 0.691028
#
# Coordination Sequence:
#
# PCOD9343960 Si02
#       8
#     4   4   4   4   4   4   2   4
#     4  10  21  40  73  95 130 200 231 278 366 440
#     4  10  22  39  74  93 128 202 223 278 372 445
#     4  11  22  42  68  99 137 186 229 300 344 448
#     4  11  21  44  69 101 140 184 236 286 382 434
#     4  11  22  42  68  99 137 186 229 300 344 448
#     4  12  27  44  74 110 144 187 249 320 360 451
#     4  12  24  42  66 106 146 170 254 290 364 422
#     4  11  21  44  69 101 140 184 236 286 382 434
#
# _framework density 22.034400999999999
#
# number of rings (size 3 to 8) (size 9 to 14) (size 15 to 20)
#    0.000    1.067    5.333    0.800    3.733    0.533 
#    0.000    5.333    0.000    0.000    0.000    0.000 
#    0.000    0.000    0.000    0.000    0.000    0.000 
#
# Total GULP energy -167540.902231 kJ/mol
# GULP energy per Si atom -5584.696741 kJ/mol
# Density = 2.198425 g / cm^3
# Si number density = 22.034401 Si / 1000 Ang^3
#
#
#
# Elastic Constant Matrix: (Units=GPa)
#
#
# Indices 1 2 3 4 5 6 
#
# 1 82.4253 15.2328 47.9176 0.0000 0.0000 0.0000
# 2 15.2328 36.7831 20.8831 0.0000 0.0000 0.0000
# 3 47.9176 20.8831 147.7318 0.0000 0.0000 0.0000
# 4 0.0000 0.0000 0.0000 -2.0811 0.0000 0.0000
# 5 0.0000 0.0000 0.0000 0.0000 65.8939 0.0000
# 6 0.0000 0.0000 0.0000 0.0000 0.0000 18.3740
#
#
#
# Elastic Compliance Matrix: (Units=1/GPa)
#
#
# Indices 1 2 3 4 5 6 
#
# 1 0.015440 -0.003861 -0.004462 0.000000 0.000000 0.000000
# 2 -0.003861 0.030524 -0.003063 0.000000 0.000000 0.000000
# 3 -0.004462 -0.003063 0.008649 0.000000 0.000000 0.000000
# 4 0.000000 0.000000 0.000000 -0.480522 0.000000 0.000000
# 5 0.000000 0.000000 0.000000 0.000000 0.015176 0.000000
# 6 0.000000 0.000000 0.000000 0.000000 0.000000 0.054425
#
#
# Mechanical properties :
#
#
# Convention : Reuss Voigt Hill
#
# Bulk Modulus (GPa) = 31.40497 48.33411 39.86954
# Shear Modulus (GPa) = -15.48357 28.63113 6.57378
#
# Velocity S-wave (km/s) = -2.65372 3.60861 1.72913
# Velocity P-wave (km/s) = 2.21223 6.27265 4.70319
#
# Compressibility (1/GPa) = 0.03184210
#
# Stress axis : x y z
#
# Youngs Moduli (GPa) = 64.76778 32.76121 115.61626
#
# Poissons Ratio (x) = 0.12648 0.51591
# Poissons Ratio (y) = 0.25004 0.35409
# Poissons Ratio (z) = 0.28901 0.10033
#
# Static dielectric constant tensor:
#      x y z
#    x 1.914020 0.000000 0.000000 
#    y 0.000000 1.861040 0.000000 
#    z 0.000000 0.000000 1.823200 
# 
# From -- ./inp_files/2057.got.cif
#   From: 2010.05.17/outbox.cif.g08.bks.cpg/sg32_2_cif.got.tgz:2057.got - 2010.06.03 17:12:27.
