data_PCOD9343627
_publ_section_title
;
Structure prediction by ZEFSAII (Michael W. Deem and Ramdas Pophale) SiO2 
 PCOD9343627
Probable space group: P M N 21
;
_chemical_formula_sum "Si O2"
_cell_formula_units_Z 32
_cell_length_a 9.000000
_cell_length_b 15.000000
_cell_length_c 12.000000
_cell_angle_alpha 90.000000
_cell_angle_beta 90.000000
_cell_angle_gamma 90.000000
_cell_volume 1620.000000
_symmetry_space_group_name_H-M "P M N 21"
_symmetry_group_IT_number 31
_symmetry_cell_setting 'orthorhombic'
loop_
_space_group_symop_operation_xyz
x,y,z
1/2-x,-y,1/2+z
-x,y,z
1/2+x,-y,1/2+z
loop_
_atom_site_type_symbol
_atom_site_label
_atom_site_fract_x
_atom_site_fract_y
_atom_site_fract_z
Si Si1 0.320999 0.987428 0.478980
Si Si2 0.677632 0.258066 0.603708
Si Si3 0.677980 0.151823 0.154746
Si Si4 0.170214 0.146455 0.782483
Si Si5 0.325399 0.516936 0.426737
Si Si6 0.332006 0.722610 0.492068
Si Si7 0.680426 0.556458 0.164084
Si Si8 0.678889 0.832280 0.901686
O O1 0.500000 0.998174 0.494849
O O2 0.253891 0.926284 0.578591
O O3 0.300690 0.940767 0.357077
O O4 0.232260 0.078534 0.465437
O O5 0.500000 0.265987 0.594447
O O6 0.721088 0.174830 0.683945
O O7 0.750529 0.344217 0.662872
O O8 0.751478 0.244209 0.481666
O O9 0.500000 0.138158 0.163234
O O10 0.750223 0.162576 0.277442
O O11 0.716930 0.240399 0.082578
O O12 0.179460 0.220442 0.879533
O O13 0.000000 0.143410 0.739801
O O14 0.500000 0.488028 0.432499
O O15 0.317041 0.621485 0.455399
O O16 0.282742 0.511970 0.290162
O O17 0.240782 0.478189 0.539903
O O18 0.500000 0.737536 0.537090
O O19 0.500000 0.557786 0.160454
O O20 0.500000 0.825565 0.895809
#
# Coordination Sequence:
#
# PCOD9343627 Si02
#       8
#     4   4   4   4   4   4   4   4
#     4  10  22  41  64  91 124 164 211 260 315 377
#     4  12  25  41  64  93 127 166 214 265 322 388
#     4  11  23  40  61  91 128 162 208 263 320 385
#     4   9  18  37  64  90 121 160 202 252 307 367
#     4  10  22  42  67  97 133 173 219 274 330 396
#     4   9  18  38  65  89 121 163 207 255 312 375
#     4  11  24  44  68  97 135 175 220 274 337 403
#     4  12  26  43  63  88 125 169 215 265 325 385
#
# _framework density 19.753086
#
# number of rings (size 3 to 8) (size 9 to 14) (size 15 to 20)
#    0.000    1.500    1.250    4.875    1.750    5.000 
#    0.000    2.500    0.000    0.000    0.000    0.000 
#    0.000    0.000    0.000    0.000    0.000    0.000 
#
# Total GULP energy -178429.125292 kJ/mol
# GULP energy per Si atom -5575.910165 kJ/mol
# Density = 1.970813 g / cm^3
# Si number density = 19.753086 Si / 1000 Ang^3
#
#
#
# Elastic Constant Matrix: (Units=GPa)
#
#
# Indices 1 2 3 4 5 6 
#
# 1 143.7793 17.4963 60.5618 0.0000 0.0000 0.0000
# 2 17.4963 39.1382 16.8599 0.0000 0.0000 0.0000
# 3 60.5618 16.8599 152.3887 0.0000 0.0000 0.0000
# 4 0.0000 0.0000 0.0000 27.7345 0.0000 0.0000
# 5 0.0000 0.0000 0.0000 0.0000 42.4129 0.0000
# 6 0.0000 0.0000 0.0000 0.0000 0.0000 26.6691
#
#
#
# Elastic Compliance Matrix: (Units=1/GPa)
#
#
# Indices 1 2 3 4 5 6 
#
# 1 0.008578 -0.002484 -0.003134 0.000000 0.000000 0.000000
# 2 -0.002484 0.027549 -0.002061 0.000000 0.000000 0.000000
# 3 -0.003134 -0.002061 0.008036 0.000000 0.000000 0.000000
# 4 0.000000 0.000000 0.000000 0.036056 0.000000 0.000000
# 5 0.000000 0.000000 0.000000 0.000000 0.023578 0.000000
# 6 0.000000 0.000000 0.000000 0.000000 0.000000 0.037497
#
#
# Mechanical properties :
#
#
# Convention : Reuss Voigt Hill
#
# Bulk Modulus (GPa) = 34.71747 58.34915 46.53331
# Shear Modulus (GPa) = 30.07489 35.38918 32.73204
#
# Velocity S-wave (km/s) = 3.90621 4.23729 4.07512
# Velocity P-wave (km/s) = 6.16105 7.31730 6.76393
#
# Compressibility (1/GPa) = 0.02880395
#
# Stress axis : x y z
#
# Youngs Moduli (GPa) = 116.58408 36.29929 124.44573
#
# Poissons Ratio (x) = 0.09018 0.39001
# Poissons Ratio (y) = 0.28965 0.25643
# Poissons Ratio (z) = 0.36537 0.07480
#
# Static dielectric constant tensor:
#      x y z
#    x 1.677230 0.000000 0.000000 
#    y 0.000000 1.771620 0.000000 
#    z 0.000000 0.000000 1.711840 
# 
# From -- ./inp_files/3702.got.cif
#   From: 2010.05.17/outbox.ucp.g08.bks.cvg/sg31_2_cif.got.tgz:3702.got - 2010.06.11 10:34:26.
