data_PCOD9343786
_publ_section_title
;
Structure prediction by ZEFSAII (Michael W. Deem and Ramdas Pophale) SiO2 
 PCOD9343786
Probable space group: P B A 2
;
_chemical_formula_sum "Si O2"
_cell_formula_units_Z 28
_cell_length_a 12.915060
_cell_length_b 13.494933
_cell_length_c 8.879281
_cell_angle_alpha 90.000000
_cell_angle_beta 90.000000
_cell_angle_gamma 90.000000
_cell_volume 1547.550967
_symmetry_space_group_name_H-M "P B A 2"
_symmetry_group_IT_number 32
_symmetry_cell_setting 'orthorhombic'
loop_
_space_group_symop_operation_xyz
x,y,z
-x,-y,z
1/2-x,1/2+y,z
1/2+x,1/2-y,z
loop_
_atom_site_type_symbol
_atom_site_label
_atom_site_fract_x
_atom_site_fract_y
_atom_site_fract_z
Si Si1 0.250000 0.250000 0.325940
Si Si2 0.814954 0.886876 0.754748
Si Si3 0.618078 0.189360 0.600448
Si Si4 0.618079 0.810640 0.600448
Si Si5 0.379043 0.382700 0.098367
Si Si6 0.814953 0.113124 0.754748
Si Si7 0.620957 0.382699 0.098367
O O1 0.171831 0.308434 0.436933
O O2 0.328169 0.191566 0.436933
O O3 0.315362 0.322529 0.220817
O O4 0.184638 0.177472 0.220816
O O5 0.874430 0.803159 0.659790
O O6 0.694995 0.871447 0.709004
O O7 0.847025 0.000000 0.722972
O O8 0.834694 0.866816 0.930445
O O9 0.500000 0.156269 0.599179
O O10 0.694994 0.128553 0.709004
O O11 0.625571 0.696842 0.659790
O O12 0.500000 0.354154 0.099378
O O13 0.372616 0.500000 0.129182
O O14 0.334693 0.366816 0.930446
#
# Coordination Sequence:
#
# PCOD9343786 Si02
#       7
#     4   4   4   4   4   4   4
#     4  10  20  34  52  78 108 136 170 212 252 304
#     4   9  19  35  55  78 102 131 173 218 256 301
#     4  10  21  35  53  77 105 139 173 208 254 304
#     4  10  21  35  53  77 105 139 173 208 254 304
#     4  10  20  35  56  79 103 134 171 213 260 305
#     4   9  19  35  55  78 102 131 173 218 256 301
#     4  10  20  35  56  79 103 134 171 213 260 305
#
# _framework density 18.093101999999998
#
# number of rings (size 3 to 8) (size 9 to 14) (size 15 to 20)
#    0.000    2.571    0.000    3.429    0.000    6.857 
#    0.000    1.429    0.000    6.000    0.000    0.000 
#    0.000    0.000    0.000    0.000    0.000    0.000 
#
# Total GULP energy -156206.893921 kJ/mol
# GULP energy per Si atom -5578.817640 kJ/mol
# Density = 1.805192 g / cm^3
# Si number density = 18.093102 Si / 1000 Ang^3
#
#
#
# Elastic Constant Matrix: (Units=GPa)
#
#
# Indices 1 2 3 4 5 6 
#
# 1 152.4081 15.6987 76.0088 0.0000 0.0000 0.0000
# 2 15.6987 53.4631 48.3233 0.0000 0.0000 0.0000
# 3 76.0088 48.3233 129.5886 0.0000 0.0000 0.0000
# 4 0.0000 0.0000 0.0000 -53.6263 0.0000 0.0000
# 5 0.0000 0.0000 0.0000 0.0000 13.8012 0.0000
# 6 0.0000 0.0000 0.0000 0.0000 0.0000 19.9487
#
#
#
# Elastic Compliance Matrix: (Units=1/GPa)
#
#
# Indices 1 2 3 4 5 6 
#
# 1 0.009679 0.003453 -0.006965 0.000000 0.000000 0.000000
# 2 0.003453 0.029446 -0.013006 0.000000 0.000000 0.000000
# 3 -0.006965 -0.013006 0.016652 0.000000 0.000000 0.000000
# 4 0.000000 0.000000 0.000000 -0.018648 0.000000 0.000000
# 5 0.000000 0.000000 0.000000 0.000000 0.072458 0.000000
# 6 0.000000 0.000000 0.000000 0.000000 0.000000 0.050129
#
#
# Mechanical properties :
#
#
# Convention : Reuss Voigt Hill
#
# Bulk Modulus (GPa) = 43.97175 68.39126 56.18150
# Shear Modulus (GPa) = 24.95869 9.05330 17.00600
#
# Velocity S-wave (km/s) = 3.71814 2.23933 3.06913
# Velocity P-wave (km/s) = 6.54129 6.67591 6.60895
#
# Compressibility (1/GPa) = 0.02274188
#
# Stress axis : x y z
#
# Youngs Moduli (GPa) = 103.31485 33.96055 60.05390
#
# Poissons Ratio (x) = -0.11727 0.41827
# Poissons Ratio (y) = -0.35676 0.78104
# Poissons Ratio (z) = 0.71957 0.44168
#
# Static dielectric constant tensor:
#      x y z
#    x 1.624150 0.000000 0.000000 
#    y 0.000000 1.618530 0.000000 
#    z 0.000000 0.000000 1.601510 
# 
# From -- ./inp_files/3106.got.cif
#   From: 2010.05.17/outbox.cif.g08.bks.cpg/sg32_2_cif.got.tgz:3106.got - 2010.06.03 17:12:27.
