data_PCOD9343424
_publ_section_title
;
Structure prediction by ZEFSAII (Michael W. Deem and Ramdas Pophale) SiO2 
 PCOD9343424
Probable space group: P M N 21
;
_chemical_formula_sum "Si O2"
_cell_formula_units_Z 24
_cell_length_a 14.486905
_cell_length_b 8.971539
_cell_length_c 8.929414
_cell_angle_alpha 90.000000
_cell_angle_beta 90.000000
_cell_angle_gamma 90.000000
_cell_volume 1160.554448
_symmetry_space_group_name_H-M "P M N 21"
_symmetry_group_IT_number 31
_symmetry_cell_setting 'orthorhombic'
loop_
_space_group_symop_operation_xyz
x,y,z
1/2-x,-y,1/2+z
-x,y,z
1/2+x,-y,1/2+z
loop_
_atom_site_type_symbol
_atom_site_label
_atom_site_fract_x
_atom_site_fract_y
_atom_site_fract_z
Si Si1 0.891466 0.901505 0.601630
Si Si2 0.720319 0.292208 0.897523
Si Si3 0.103996 0.408331 0.034392
Si Si4 0.393661 0.256780 0.408734
Si Si5 0.223725 0.187494 0.582729
Si Si6 0.606376 0.584945 0.894748
O O1 0.845298 0.840903 0.450114
O O2 0.882245 0.777880 0.732862
O O3 0.000000 0.934080 0.584359
O O4 0.831996 0.046044 0.642640
O O5 0.745701 0.286247 0.723796
O O6 0.664013 0.439976 0.938833
O O7 0.817093 0.296701 0.982903
O O8 0.106793 0.414992 0.214138
O O9 0.000000 0.364540 0.989445
O O10 0.121900 0.570852 0.957882
O O11 0.500000 0.221962 0.448430
O O12 0.318796 0.157663 0.495051
O O13 0.157200 0.275581 0.469107
O O14 0.500000 0.576298 0.944468
#
# Coordination Sequence:
#
# PCOD9343424 Si02
#       6
#     4   4   4   4   4   4
#     4  11  26  44  64  94 136 184 227 271 336 408
#     4  12  23  40  65  99 128 173 224 277 338 397
#     4  10  22  40  64  96 127 165 219 276 333 388
#     4  10  21  41  66  92 129 174 222 276 331 395
#     4  12  24  42  66  98 136 176 222 277 336 402
#     4  11  22  39  65  95 130 168 222 281 332 394
#
# _framework density 20.679769
#
# number of rings (size 3 to 8) (size 9 to 14) (size 15 to 20)
#    0.000    1.000    3.333    3.000    2.333    2.000 
#    0.000    0.833    0.000    0.000    0.000    0.000 
#    0.000    0.000    0.000    0.000    0.000    0.000 
#
# Total GULP energy -134084.223070 kJ/mol
# GULP energy per Si atom -5586.842628 kJ/mol
# Density = 2.063270 g / cm^3
# Si number density = 20.679769 Si / 1000 Ang^3
#
#
#
# Elastic Constant Matrix: (Units=GPa)
#
#
# Indices 1 2 3 4 5 6 
#
# 1 145.6523 18.8239 37.2846 0.0000 0.0000 0.0000
# 2 18.8239 35.0800 17.3320 0.0000 0.0000 0.0000
# 3 37.2846 17.3320 53.4735 0.0000 0.0000 0.0000
# 4 0.0000 0.0000 0.0000 23.7357 0.0000 0.0000
# 5 0.0000 0.0000 0.0000 0.0000 23.8959 0.0000
# 6 0.0000 0.0000 0.0000 0.0000 0.0000 23.1874
#
#
#
# Elastic Compliance Matrix: (Units=1/GPa)
#
#
# Indices 1 2 3 4 5 6 
#
# 1 0.008466 -0.001937 -0.005276 0.000000 0.000000 0.000000
# 2 -0.001937 0.034385 -0.009795 0.000000 0.000000 0.000000
# 3 -0.005276 -0.009795 0.025554 0.000000 0.000000 0.000000
# 4 0.000000 0.000000 0.000000 0.042131 0.000000 0.000000
# 5 0.000000 0.000000 0.000000 0.000000 0.041848 0.000000
# 6 0.000000 0.000000 0.000000 0.000000 0.000000 0.043127
#
#
# Mechanical properties :
#
#
# Convention : Reuss Voigt Hill
#
# Bulk Modulus (GPa) = 29.07690 42.34298 35.70994
# Shear Modulus (GPa) = 20.74794 24.88148 22.81471
#
# Velocity S-wave (km/s) = 3.17092 3.47245 3.32511
# Velocity P-wave (km/s) = 5.24380 6.04956 5.66104
#
# Compressibility (1/GPa) = 0.03439156
#
# Stress axis : x y z
#
# Youngs Moduli (GPa) = 118.11394 29.08276 39.13303
#
# Poissons Ratio (x) = 0.05632 0.20645
# Poissons Ratio (y) = 0.22874 0.38329
# Poissons Ratio (z) = 0.62311 0.28485
#
# Static dielectric constant tensor:
#      x y z
#    x 1.722780 0.000000 0.000000 
#    y 0.000000 1.741920 0.000000 
#    z 0.000000 0.000000 1.746360 
# 
# From -- ./inp_files/2434.got.cif
#   From: 2010.05.17/outbox.cif.g08.bks.cpg/sg31_2_cif.got.tgz:2434.got - 2010.06.03 17:08:30.
