data_PCOD9343149
_publ_section_title
;
Structure prediction by ZEFSAII (Michael W. Deem and Ramdas Pophale) SiO2 
 PCOD9343149
Probable space group: P M N 21
;
_chemical_formula_sum "Si O2"
_cell_formula_units_Z 24
_cell_length_a 13.172400
_cell_length_b 11.954893
_cell_length_c 7.538260
_cell_angle_alpha 90.000000
_cell_angle_beta 90.000000
_cell_angle_gamma 90.000000
_cell_volume 1187.084724
_symmetry_space_group_name_H-M "P M N 21"
_symmetry_group_IT_number 31
_symmetry_cell_setting 'orthorhombic'
loop_
_space_group_symop_operation_xyz
x,y,z
1/2-x,-y,1/2+z
-x,y,z
1/2+x,-y,1/2+z
loop_
_atom_site_type_symbol
_atom_site_label
_atom_site_fract_x
_atom_site_fract_y
_atom_site_fract_z
Si Si1 0.810787 0.206854 0.968450
Si Si2 0.621416 0.833821 0.063096
Si Si3 0.380947 0.975246 0.742975
Si Si4 0.382119 0.555527 0.377432
Si Si5 0.240379 0.373303 0.547669
Si Si6 0.882079 0.769033 0.293828
O O1 0.843871 0.165378 0.768972
O O2 0.866969 0.326675 0.982908
O O3 0.690830 0.232269 0.963690
O O4 0.831291 0.110475 0.107615
O O5 0.500000 0.814749 0.062099
O O6 0.683162 0.733850 0.965553
O O7 0.644628 0.943406 0.946703
O O8 0.500000 0.952599 0.724228
O O9 0.368265 0.106727 0.711732
O O10 0.500000 0.521015 0.391226
O O11 0.297233 0.467002 0.437665
O O12 0.348034 0.580263 0.175813
O O13 0.331063 0.321372 0.666506
O O14 0.000000 0.750328 0.327212
#
# Coordination Sequence:
#
# PCOD9343149 Si02
#       6
#     4   4   4   4   4   4
#     4  10  21  36  60  83 115 152 197 241 285 344
#     4   9  19  36  57  85 116 147 192 241 286 342
#     4  10  20  35  60  86 112 149 192 237 290 352
#     4  10  21  39  59  84 117 153 198 243 291 353
#     4  10  21  37  60  85 116 158 189 246 296 342
#     4   9  20  37  56  85 120 151 188 240 294 349
#
# _framework density 20.217597000000001
#
# number of rings (size 3 to 8) (size 9 to 14) (size 15 to 20)
#    0.000    2.667    0.000    3.500    7.000    0.000 
#    0.000    7.500    0.000    1.000    0.000    0.000 
#    0.000    0.000    0.000    0.000    0.000    0.000 
#
# Total GULP energy -133687.850353 kJ/mol
# GULP energy per Si atom -5570.327098 kJ/mol
# Density = 2.017158 g / cm^3
# Si number density = 20.217597 Si / 1000 Ang^3
#
#
#
# Elastic Constant Matrix: (Units=GPa)
#
#
# Indices 1 2 3 4 5 6 
#
# 1 109.1803 -3.1354 0.9058 0.0000 0.0000 0.0000
# 2 -3.1354 9.8264 9.1405 0.0000 0.0000 0.0000
# 3 0.9058 9.1405 27.3669 0.0000 0.0000 0.0000
# 4 0.0000 0.0000 0.0000 14.8873 0.0000 0.0000
# 5 0.0000 0.0000 0.0000 0.0000 17.9514 0.0000
# 6 0.0000 0.0000 0.0000 0.0000 0.0000 27.6142
#
#
#
# Elastic Compliance Matrix: (Units=1/GPa)
#
#
# Indices 1 2 3 4 5 6 
#
# 1 0.009311 0.004726 -0.001887 0.000000 0.000000 0.000000
# 2 0.004726 0.150034 -0.050268 0.000000 0.000000 0.000000
# 3 -0.001887 -0.050268 0.053392 0.000000 0.000000 0.000000
# 4 0.000000 0.000000 0.000000 0.067171 0.000000 0.000000
# 5 0.000000 0.000000 0.000000 0.000000 0.055706 0.000000
# 6 0.000000 0.000000 0.000000 0.000000 0.000000 0.036213
#
#
# Mechanical properties :
#
#
# Convention : Reuss Voigt Hill
#
# Bulk Modulus (GPa) = 8.48324 17.79951 13.14138
# Shear Modulus (GPa) = 9.88187 21.38808 15.63498
#
# Velocity S-wave (km/s) = 2.21323 3.25606 2.78391
# Velocity P-wave (km/s) = 3.27662 4.79155 4.10458
#
# Compressibility (1/GPa) = 0.11787943
#
# Stress axis : x y z
#
# Youngs Moduli (GPa) = 107.40538 6.66517 18.72929
#
# Poissons Ratio (x) = -0.03150 0.03533
# Poissons Ratio (y) = -0.50756 0.94148
# Poissons Ratio (z) = 0.20262 0.33504
#
# Static dielectric constant tensor:
#      x y z
#    x 1.727100 0.000000 0.000000 
#    y 0.000000 1.751530 0.000000 
#    z 0.000000 0.000000 1.754070 
# 
# From -- ./inp_files/2091.got.cif
#   From: 2010.05.17/outbox.cif.g08.bks.cpg/sg31_2_cif.got.tgz:2091.got - 2010.06.03 17:08:30.
