data_PCOD9343455
_publ_section_title
;
Structure prediction by ZEFSAII (Michael W. Deem and Ramdas Pophale) SiO2 
 PCOD9343455
Probable space group: P M N 21
;
_chemical_formula_sum "Si O2"
_cell_formula_units_Z 24
_cell_length_a 12.245352
_cell_length_b 10.150406
_cell_length_c 7.134265
_cell_angle_alpha 90.000000
_cell_angle_beta 90.000000
_cell_angle_gamma 90.000000
_cell_volume 886.755569
_symmetry_space_group_name_H-M "P M N 21"
_symmetry_group_IT_number 31
_symmetry_cell_setting 'orthorhombic'
loop_
_space_group_symop_operation_xyz
x,y,z
1/2-x,-y,1/2+z
-x,y,z
1/2+x,-y,1/2+z
loop_
_atom_site_type_symbol
_atom_site_label
_atom_site_fract_x
_atom_site_fract_y
_atom_site_fract_z
Si Si1 0.153337 0.280380 0.928180
Si Si2 0.615106 0.421806 0.376624
Si Si3 0.378046 0.924539 0.980989
Si Si4 0.383000 0.360419 0.822148
Si Si5 0.152977 0.345252 0.345909
Si Si6 0.879181 0.001614 0.041936
O O1 0.124235 0.421967 0.837246
O O2 0.282988 0.275885 0.891333
O O3 0.117370 0.130009 0.905360
O O4 0.112577 0.311621 0.139369
O O5 0.500000 0.373503 0.305305
O O6 0.622725 0.393031 0.600226
O O7 0.718209 0.345628 0.304022
O O8 0.500000 0.972150 0.051873
O O9 0.379910 0.764894 0.991412
O O10 0.382689 0.959192 0.759950
O O11 0.248421 0.953125 0.026837
O O12 0.500000 0.299853 0.861024
O O13 0.374680 0.507326 0.908186
O O14 0.000000 0.931648 0.009507
#
# Coordination Sequence:
#
# PCOD9343455 Si02
#       6
#     4   4   4   4   4   4
#     4   9  18  33  52  74 102 137 175 214 261 318
#     4   9  17  30  50  76 105 136 170 211 261 317
#     4  10  22  40  60  81 108 145 188 232 277 326
#     4   9  17  30  50  76 105 136 170 211 261 317
#     4   9  18  33  52  74 102 137 175 214 261 318
#     4  10  22  40  60  81 108 145 188 232 277 326
#
# _framework density 27.064955999999999
#
# number of rings (size 3 to 8) (size 9 to 14) (size 15 to 20)
#    0.000    2.667    0.000    1.000    0.000    8.000 
#    0.000    6.667    0.000    6.000    0.000    0.000 
#    0.000    0.000    0.000    0.000    0.000    0.000 
#
# Total GULP energy -133786.789462 kJ/mol
# GULP energy per Si atom -5574.449561 kJ/mol
# Density = 2.700336 g / cm^3
# Si number density = 27.064956 Si / 1000 Ang^3
#
#
#
# Elastic Constant Matrix: (Units=GPa)
#
#
# Indices 1 2 3 4 5 6 
#
# 1 328.7755 40.2741 25.4571 0.0000 0.0000 0.0000
# 2 40.2741 70.0315 9.4085 0.0000 0.0000 0.0000
# 3 25.4571 9.4085 78.8159 0.0000 0.0000 0.0000
# 4 0.0000 0.0000 0.0000 28.9807 0.0000 0.0000
# 5 0.0000 0.0000 0.0000 0.0000 16.4078 0.0000
# 6 0.0000 0.0000 0.0000 0.0000 0.0000 -15.6646
#
#
#
# Elastic Compliance Matrix: (Units=1/GPa)
#
#
# Indices 1 2 3 4 5 6 
#
# 1 0.003329 -0.001799 -0.000860 0.000000 0.000000 0.000000
# 2 -0.001799 0.015484 -0.001267 0.000000 0.000000 0.000000
# 3 -0.000860 -0.001267 0.013117 0.000000 0.000000 0.000000
# 4 0.000000 0.000000 0.000000 0.034506 0.000000 0.000000
# 5 0.000000 0.000000 0.000000 0.000000 0.060947 0.000000
# 6 0.000000 0.000000 0.000000 0.000000 0.000000 -0.063838
#
#
# Mechanical properties :
#
#
# Convention : Reuss Voigt Hill
#
# Bulk Modulus (GPa) = 41.53413 69.76692 55.65052
# Shear Modulus (GPa) = 62.95497 32.77700 47.86598
#
# Velocity S-wave (km/s) = 4.82817 3.48379 4.20999
# Velocity P-wave (km/s) = 6.81623 6.48197 6.65120
#
# Compressibility (1/GPa) = 0.02407659
#
# Stress axis : x y z
#
# Youngs Moduli (GPa) = 300.43272 64.58321 76.23699
#
# Poissons Ratio (x) = 0.11616 0.06559
# Poissons Ratio (y) = 0.54036 0.09663
# Poissons Ratio (z) = 0.25849 0.08185
#
# Static dielectric constant tensor:
#      x y z
#    x 2.228660 0.000000 0.000000 
#    y 0.000000 2.109550 0.000000 
#    z 0.000000 0.000000 2.128240 
# 
# From -- ./inp_files/2098.got.cif
#   From: 2010.05.17/outbox.cif.g08.bks.cpg/sg31_2_cif.got.tgz:2098.got - 2010.06.03 17:08:30.
