data_PCOD9343185
_publ_section_title
;
Structure prediction by ZEFSAII (Michael W. Deem and Ramdas Pophale) SiO2 
 PCOD9343185
Probable space group: P M N 21
;
_chemical_formula_sum "Si O2"
_cell_formula_units_Z 24
_cell_length_a 9.237462
_cell_length_b 5.412004
_cell_length_c 20.119964
_cell_angle_alpha 90.000000
_cell_angle_beta 90.000000
_cell_angle_gamma 90.000000
_cell_volume 1005.861008
_symmetry_space_group_name_H-M "P M N 21"
_symmetry_group_IT_number 31
_symmetry_cell_setting 'orthorhombic'
loop_
_space_group_symop_operation_xyz
x,y,z
1/2-x,-y,1/2+z
-x,y,z
1/2+x,-y,1/2+z
loop_
_atom_site_type_symbol
_atom_site_label
_atom_site_fract_x
_atom_site_fract_y
_atom_site_fract_z
Si Si1 0.344494 0.892335 0.778020
Si Si2 0.172946 0.537045 0.965132
Si Si3 0.174763 0.963417 0.519874
Si Si4 0.156179 0.231630 0.841397
Si Si5 0.342983 0.491179 0.207253
Si Si6 0.159019 0.839131 0.138186
O O1 0.500000 0.767057 0.790481
O O2 0.216570 0.720922 0.753735
O O3 0.292431 0.050471 0.840796
O O4 0.362342 0.053145 0.711353
O O5 0.181715 0.469685 0.886824
O O6 0.000000 0.542038 0.980909
O O7 0.252079 0.792270 0.985130
O O8 0.251736 0.294087 0.996511
O O9 0.225620 0.008190 0.596048
O O10 0.000000 0.960799 0.513028
O O11 0.142463 0.298007 0.763790
O O12 0.000000 0.123570 0.863239
O O13 0.500000 0.442804 0.177795
O O14 0.227659 0.570919 0.152085
O O15 0.000000 0.835172 0.106455
#
# Coordination Sequence:
#
# PCOD9343185 Si02
#       6
#     4   4   4   4   4   4
#     4  10  21  36  60  92 125 163 207 264 328 392
#     4  11  25  47  72  98 134 182 229 276 334 405
#     4  12  27  46  69 101 136 176 227 284 340 396
#     4   9  21  40  62  89 122 165 215 263 323 393
#     4  10  20  36  61  92 125 162 208 268 326 390
#     4  10  22  41  62  88 124 168 216 265 329 400
#
# _framework density 23.860157000000001
#
# number of rings (size 3 to 8) (size 9 to 14) (size 15 to 20)
#    0.000    1.667    0.000    3.500    4.667    4.000 
#    0.000    0.000    0.000    0.000    0.000    0.000 
#    0.000    0.000    0.000    0.000    0.000    0.000 
#
# Total GULP energy -133823.435413 kJ/mol
# GULP energy per Si atom -5575.976476 kJ/mol
# Density = 2.380585 g / cm^3
# Si number density = 23.860157 Si / 1000 Ang^3
#
#
#
# Elastic Constant Matrix: (Units=GPa)
#
#
# Indices 1 2 3 4 5 6 
#
# 1 174.5131 54.2534 26.6596 0.0000 0.0000 0.0000
# 2 54.2534 95.8538 23.4991 0.0000 0.0000 0.0000
# 3 26.6596 23.4991 57.1734 0.0000 0.0000 0.0000
# 4 0.0000 0.0000 0.0000 34.6962 0.0000 0.0000
# 5 0.0000 0.0000 0.0000 0.0000 -195.1252 0.0000
# 6 0.0000 0.0000 0.0000 0.0000 0.0000 28.4659
#
#
#
# Elastic Compliance Matrix: (Units=1/GPa)
#
#
# Indices 1 2 3 4 5 6 
#
# 1 0.007126 -0.003579 -0.001852 0.000000 0.000000 0.000000
# 2 -0.003579 0.013399 -0.003838 0.000000 0.000000 0.000000
# 3 -0.001852 -0.003838 0.019932 0.000000 0.000000 0.000000
# 4 0.000000 0.000000 0.000000 0.028822 0.000000 0.000000
# 5 0.000000 0.000000 0.000000 0.000000 -0.005125 0.000000
# 6 0.000000 0.000000 0.000000 0.000000 0.000000 0.035130
#
#
# Mechanical properties :
#
#
# Convention : Reuss Voigt Hill
#
# Bulk Modulus (GPa) = 45.62370 59.59606 52.60988
# Shear Modulus (GPa) = 39.95906 -11.51741 14.22082
#
# Velocity S-wave (km/s) = 4.09677 -2.19944 2.44397
# Velocity P-wave (km/s) = 6.44522 4.31062 5.48280
#
# Compressibility (1/GPa) = 0.02191843
#
# Stress axis : x y z
#
# Youngs Moduli (GPa) = 140.33433 74.62995 50.17138
#
# Poissons Ratio (x) = 0.26712 0.09290
# Poissons Ratio (y) = 0.50230 0.19258
# Poissons Ratio (z) = 0.25984 0.28646
#
# Static dielectric constant tensor:
#      x y z
#    x 2.058920 0.000000 0.000000 
#    y 0.000000 1.966200 0.000000 
#    z 0.000000 0.000000 1.951020 
# 
# From -- ./inp_files/6413.got.cif
#   From: 2010.05.17/outbox.cif.g08.bks.cpg/sg31_4_cif.got.tgz:6413.got - 2010.06.03 17:08:30.
