data_PCOD9343096
_publ_section_title
;
Structure prediction by ZEFSAII (Michael W. Deem and Ramdas Pophale) SiO2 
 PCOD9343096
Probable space group: P M N 21
;
_chemical_formula_sum "Si O2"
_cell_formula_units_Z 32
_cell_length_a 7.947696
_cell_length_b 14.897277
_cell_length_c 12.865848
_cell_angle_alpha 90.000000
_cell_angle_beta 90.000000
_cell_angle_gamma 90.000000
_cell_volume 1523.303908
_symmetry_space_group_name_H-M "P M N 21"
_symmetry_group_IT_number 31
_symmetry_cell_setting 'orthorhombic'
loop_
_space_group_symop_operation_xyz
x,y,z
1/2-x,-y,1/2+z
-x,y,z
1/2+x,-y,1/2+z
loop_
_atom_site_type_symbol
_atom_site_label
_atom_site_fract_x
_atom_site_fract_y
_atom_site_fract_z
Si Si1 0.206301 0.836528 0.317360
Si Si2 0.196486 0.352136 0.351391
Si Si3 0.302462 0.341631 0.119915
Si Si4 0.193824 0.806908 0.984531
Si Si5 0.701836 0.042083 0.626687
Si Si6 0.203373 0.851823 0.553114
Si Si7 0.699628 0.525607 0.039438
Si Si8 0.307104 0.323950 0.686504
O O1 0.262225 0.909174 0.231696
O O2 0.258535 0.860021 0.433233
O O3 0.262189 0.737048 0.279933
O O4 0.000000 0.834058 0.314999
O O5 0.286637 0.359595 0.242077
O O6 0.213775 0.251886 0.398596
O O7 0.266531 0.419355 0.440125
O O8 0.000000 0.371224 0.334869
O O9 0.500000 0.337881 0.092421
O O10 0.232005 0.243509 0.095027
O O11 0.228711 0.426852 0.058723
O O12 0.000000 0.817643 0.950403
O O13 0.264931 0.901249 0.026142
O O14 0.193535 0.745355 0.088877
O O15 0.500000 0.053352 0.624792
O O16 0.742238 0.938285 0.617520
O O17 0.000000 0.850915 0.555036
O O18 0.500000 0.518180 0.022815
O O19 0.722616 0.587195 0.141950
O O20 0.500000 0.347431 0.710862
#
# Coordination Sequence:
#
# PCOD9343096 Si02
#       8
#     4   4   4   4   4   4   4   4
#     4   8  16  33  55  76 100 133 170 208 253 303
#     4  10  20  34  55  81 105 133 174 220 259 300
#     4  10  22  38  52  71 106 144 172 206 260 319
#     4   8  15  30  52  77 105 135 165 203 257 312
#     4   9  18  34  55  78 104 134 172 216 258 303
#     4  10  21  36  53  74 102 138 176 210 251 306
#     4   9  19  35  53  76 105 135 170 214 260 306
#     4   8  14  28  53  79  99 126 167 209 248 299
#
# _framework density 21.006971
#
# number of rings (size 3 to 8) (size 9 to 14) (size 15 to 20)
#    0.000    3.000    0.000    1.875    0.000    4.000 
#    0.000    8.125    0.000    0.000    0.000    0.000 
#    0.000    0.000    0.000    0.000    0.000    0.000 
#
# Total GULP energy -178402.410787 kJ/mol
# GULP energy per Si atom -5575.075337 kJ/mol
# Density = 2.095916 g / cm^3
# Si number density = 21.006971 Si / 1000 Ang^3
#
#
#
# Elastic Constant Matrix: (Units=GPa)
#
#
# Indices 1 2 3 4 5 6 
#
# 1 15.5866 3.2878 -3.7998 0.0000 0.0000 0.0000
# 2 3.2878 162.6482 48.5655 0.0000 0.0000 0.0000
# 3 -3.7998 48.5655 67.8250 0.0000 0.0000 0.0000
# 4 0.0000 0.0000 0.0000 20.4303 0.0000 0.0000
# 5 0.0000 0.0000 0.0000 0.0000 14.6221 0.0000
# 6 0.0000 0.0000 0.0000 0.0000 0.0000 16.8385
#
#
#
# Elastic Compliance Matrix: (Units=1/GPa)
#
#
# Indices 1 2 3 4 5 6 
#
# 1 0.066263 -0.003114 0.005942 0.000000 0.000000 0.000000
# 2 -0.003114 0.007967 -0.005879 0.000000 0.000000 0.000000
# 3 0.005942 -0.005879 0.019286 0.000000 0.000000 0.000000
# 4 0.000000 0.000000 0.000000 0.048947 0.000000 0.000000
# 5 0.000000 0.000000 0.000000 0.000000 0.068390 0.000000
# 6 0.000000 0.000000 0.000000 0.000000 0.000000 0.059388
#
#
# Mechanical properties :
#
#
# Convention : Reuss Voigt Hill
#
# Bulk Modulus (GPa) = 11.43976 38.01855 24.72915
# Shear Modulus (GPa) = 16.36769 23.57858 19.97313
#
# Velocity S-wave (km/s) = 2.79436 3.35388 3.08683
# Velocity P-wave (km/s) = 3.98357 5.75634 4.94996
#
# Compressibility (1/GPa) = 0.08741444
#
# Stress axis : x y z
#
# Youngs Moduli (GPa) = 15.09135 125.52489 51.85058
#
# Poissons Ratio (x) = 0.39084 -0.30808
# Poissons Ratio (y) = 0.04699 0.30482
# Poissons Ratio (z) = -0.08967 0.73794
#
# Static dielectric constant tensor:
#      x y z
#    x 1.757590 0.000000 0.000000 
#    y 0.000000 1.786940 0.000000 
#    z 0.000000 0.000000 1.760740 
# 
# From -- ./inp_files/3641.got.cif
#   From: 2010.05.17/outbox.cif.g08.bks.cpg/sg31_2_cif.got.tgz:3641.got - 2010.06.03 17:08:30.
