data_PCOD9343647
_publ_section_title
;
Structure prediction by ZEFSAII (Michael W. Deem and Ramdas Pophale) SiO2 
 PCOD9343647
Probable space group: P B A 2
;
_chemical_formula_sum "Si O2"
_cell_formula_units_Z 30
_cell_length_a 19.224565
_cell_length_b 7.778591
_cell_length_c 8.677086
_cell_angle_alpha 90.000000
_cell_angle_beta 90.000000
_cell_angle_gamma 90.000000
_cell_volume 1297.571686
_symmetry_space_group_name_H-M "P B A 2"
_symmetry_group_IT_number 32
_symmetry_cell_setting 'orthorhombic'
loop_
_space_group_symop_operation_xyz
x,y,z
-x,-y,z
1/2-x,1/2+y,z
1/2+x,1/2-y,z
loop_
_atom_site_type_symbol
_atom_site_label
_atom_site_fract_x
_atom_site_fract_y
_atom_site_fract_z
Si Si1 0.480660 0.267800 0.384460
Si Si2 0.338956 0.558512 0.727845
Si Si3 0.722225 0.180963 0.336068
Si Si4 0.643239 0.516938 0.364370
Si Si5 0.683918 0.058683 0.685054
Si Si6 0.500000 0.000000 0.950863
Si Si7 0.429062 0.247293 0.726485
Si Si8 0.593532 0.056401 0.233336
O O1 0.433967 0.425036 0.321676
O O2 0.472763 0.278997 0.569200
O O3 0.557274 0.218767 0.323345
O O4 0.436410 0.103169 0.328432
O O5 0.355087 0.525398 0.546299
O O6 0.343871 0.762432 0.758774
O O7 0.258569 0.501639 0.751672
O O8 0.392282 0.417872 0.795026
O O9 0.689479 0.364550 0.296990
O O10 0.804449 0.175693 0.334467
O O11 0.700421 0.115243 0.508053
O O12 0.675787 0.062273 0.227680
O O13 0.630310 0.899067 0.691388
O O14 0.479593 0.159993 0.847432
O O15 0.562454 0.046694 0.064496
#
# Coordination Sequence:
#
# PCOD9343647 Si02
#       8
#     4   4   4   4   4   2   4   4
#     4   9  18  33  57  86 106 147 185 231 282 345
#     4   9  18  30  53  93 119 140 177 240 290 350
#     4  10  18  30  55  85 116 142 179 239 286 345
#     4   9  18  29  53  91 116 135 180 239 297 332
#     4  10  17  30  57  91 114 140 185 232 297 343
#     4  10  24  38  58  76 114 162 196 230 284 342
#     4  11  19  35  61  81 116 151 190 235 292 334
#     4  10  20  37  58  77 112 151 198 226 280 347
#
# _framework density 23.120108999999999
#
# number of rings (size 3 to 8) (size 9 to 14) (size 15 to 20)
#    0.000    2.400    2.667    1.600    3.733    0.533 
#    0.000    0.667   20.533    0.000    0.000    0.000 
#    0.000    0.000    0.000    0.000    0.000    0.000 
#
# Total GULP energy -167357.491001 kJ/mol
# GULP energy per Si atom -5578.583033 kJ/mol
# Density = 2.306749 g / cm^3
# Si number density = 23.120109 Si / 1000 Ang^3
#
#
#
# Elastic Constant Matrix: (Units=GPa)
#
#
# Indices 1 2 3 4 5 6 
#
# 1 106.4414 3.0499 10.6773 0.0000 0.0000 0.0000
# 2 3.0499 85.5525 -8.8371 0.0000 0.0000 0.0000
# 3 10.6773 -8.8371 42.2307 0.0000 0.0000 0.0000
# 4 0.0000 0.0000 0.0000 -11.9262 0.0000 0.0000
# 5 0.0000 0.0000 0.0000 0.0000 12.3963 0.0000
# 6 0.0000 0.0000 0.0000 0.0000 0.0000 16.8540
#
#
#
# Elastic Compliance Matrix: (Units=1/GPa)
#
#
# Indices 1 2 3 4 5 6 
#
# 1 0.009670 -0.000610 -0.002573 0.000000 0.000000 0.000000
# 2 -0.000610 0.011986 0.002662 0.000000 0.000000 0.000000
# 3 -0.002573 0.002662 0.024887 0.000000 0.000000 0.000000
# 4 0.000000 0.000000 0.000000 -0.083849 0.000000 0.000000
# 5 0.000000 0.000000 0.000000 0.000000 0.080669 0.000000
# 6 0.000000 0.000000 0.000000 0.000000 0.000000 0.059333
#
#
# Mechanical properties :
#
#
# Convention : Reuss Voigt Hill
#
# Bulk Modulus (GPa) = 21.97740 27.11165 24.54453
# Shear Modulus (GPa) = 42.05011 18.75376 30.40193
#
# Velocity S-wave (km/s) = 4.26933 2.85115 3.63017
# Velocity P-wave (km/s) = 5.81629 4.75296 5.31130
#
# Compressibility (1/GPa) = 0.04550129
#
# Stress axis : x y z
#
# Youngs Moduli (GPa) = 103.40818 83.43414 40.18153
#
# Poissons Ratio (x) = 0.05094 0.10338
# Poissons Ratio (y) = 0.06313 -0.10698
# Poissons Ratio (z) = 0.26604 -0.22214
#
# Static dielectric constant tensor:
#      x y z
#    x 1.904710 0.000000 0.000000 
#    y 0.000000 2.140150 0.000000 
#    z 0.000000 0.000000 1.825890 
# 
# From -- ./inp_files/2574.got.cif
#   From: 2010.05.17/outbox.cif.g08.bks.cpg/sg32_2_cif.got.tgz:2574.got - 2010.06.03 17:12:27.
