data_PCOD9343378
_publ_section_title
;
Structure prediction by ZEFSAII (Michael W. Deem and Ramdas Pophale) SiO2 
 PCOD9343378
Probable space group: P M N 21
;
_chemical_formula_sum "Si O2"
_cell_formula_units_Z 20
_cell_length_a 13.068159
_cell_length_b 9.458230
_cell_length_c 7.621099
_cell_angle_alpha 90.000000
_cell_angle_beta 90.000000
_cell_angle_gamma 90.000000
_cell_volume 941.980438
_symmetry_space_group_name_H-M "P M N 21"
_symmetry_group_IT_number 31
_symmetry_cell_setting 'orthorhombic'
loop_
_space_group_symop_operation_xyz
x,y,z
1/2-x,-y,1/2+z
-x,y,z
1/2+x,-y,1/2+z
loop_
_atom_site_type_symbol
_atom_site_label
_atom_site_fract_x
_atom_site_fract_y
_atom_site_fract_z
Si Si1 0.262988 0.158751 0.156370
Si Si2 0.877698 0.574645 0.638003
Si Si3 0.621898 0.625108 0.833171
Si Si4 0.378606 0.071819 0.480710
Si Si5 0.877266 0.611034 0.047433
O O1 0.317772 0.290277 0.060197
O O2 0.180876 0.233525 0.285150
O O3 0.352073 0.092018 0.275438
O O4 0.197813 0.048124 0.047635
O O5 0.854755 0.435622 0.525677
O O6 0.853906 0.567832 0.845610
O O7 0.000000 0.598709 0.621577
O O8 0.500000 0.646231 0.819377
O O9 0.652864 0.503982 0.691804
O O10 0.500000 0.043390 0.506041
O O11 0.351190 0.223539 0.569165
O O12 0.000000 0.610548 0.055933
#
# Coordination Sequence:
#
# PCOD9343378 Si02
#       5
#     4   4   4   4   4
#     4  11  23  39  66  91 125 169 220 256 325 388
#     4   9  20  38  60  90 123 157 208 264 321 384
#     4  10  21  38  63  94 122 157 212 270 323 381
#     4  10  23  44  62  91 134 170 214 266 322 387
#     4   8  17  37  62  84 122 167 197 256 324 372
#
# _framework density 21.231864000000002
#
# number of rings (size 3 to 8) (size 9 to 14) (size 15 to 20)
#    0.000    2.400    0.000    2.400    8.400    0.000 
#    3.600    3.000    0.000    0.000    0.000    0.000 
#    0.000    0.000    0.000    0.000    0.000    0.000 
#
# Total GULP energy -111633.510608 kJ/mol
# GULP energy per Si atom -5581.675530 kJ/mol
# Density = 2.118354 g / cm^3
# Si number density = 21.231864 Si / 1000 Ang^3
#
#
#
# Elastic Constant Matrix: (Units=GPa)
#
#
# Indices 1 2 3 4 5 6 
#
# 1 76.8505 8.7839 -1.7729 0.0000 0.0000 0.0000
# 2 8.7839 41.3966 5.5733 0.0000 0.0000 0.0000
# 3 -1.7729 5.5733 20.9013 0.0000 0.0000 0.0000
# 4 0.0000 0.0000 0.0000 35.4182 0.0000 0.0000
# 5 0.0000 0.0000 0.0000 0.0000 38.4250 0.0000
# 6 0.0000 0.0000 0.0000 0.0000 0.0000 43.1883
#
#
#
# Elastic Compliance Matrix: (Units=1/GPa)
#
#
# Indices 1 2 3 4 5 6 
#
# 1 0.013413 -0.003111 0.001967 0.000000 0.000000 0.000000
# 2 -0.003111 0.025778 -0.007137 0.000000 0.000000 0.000000
# 3 0.001967 -0.007137 0.049914 0.000000 0.000000 0.000000
# 4 0.000000 0.000000 0.000000 0.028234 0.000000 0.000000
# 5 0.000000 0.000000 0.000000 0.000000 0.026025 0.000000
# 6 0.000000 0.000000 0.000000 0.000000 0.000000 0.023154
#
#
# Mechanical properties :
#
#
# Convention : Reuss Voigt Hill
#
# Bulk Modulus (GPa) = 13.78503 18.25746 16.02125
# Shear Modulus (GPa) = 24.12413 31.84389 27.98401
#
# Velocity S-wave (km/s) = 3.37445 3.87695 3.63439
# Velocity P-wave (km/s) = 4.65717 5.35338 5.01737
#
# Compressibility (1/GPa) = 0.07254245
#
# Stress axis : x y z
#
# Youngs Moduli (GPa) = 74.55312 38.79335 20.03447
#
# Poissons Ratio (x) = 0.12069 -0.03941
# Poissons Ratio (y) = 0.23194 0.14300
# Poissons Ratio (z) = -0.14667 0.27689
#
# Static dielectric constant tensor:
#      x y z
#    x 1.837480 0.000000 0.000000 
#    y 0.000000 1.745810 0.000000 
#    z 0.000000 0.000000 1.775120 
# 
# From -- ./inp_files/2336.got.cif
#   From: 2010.05.17/outbox.cif.g08.bks.cpg/sg31_2_cif.got.tgz:2336.got - 2010.06.03 17:08:30.
