data_PCOD9343157
_publ_section_title
;
Structure prediction by ZEFSAII (Michael W. Deem and Ramdas Pophale) SiO2 
 PCOD9343157
Probable space group: P M N 21
;
_chemical_formula_sum "Si O2"
_cell_formula_units_Z 32
_cell_length_a 8.115289
_cell_length_b 14.999657
_cell_length_c 10.336228
_cell_angle_alpha 90.000000
_cell_angle_beta 90.000000
_cell_angle_gamma 90.000000
_cell_volume 1258.193390
_symmetry_space_group_name_H-M "P M N 21"
_symmetry_group_IT_number 31
_symmetry_cell_setting 'orthorhombic'
loop_
_space_group_symop_operation_xyz
x,y,z
1/2-x,-y,1/2+z
-x,y,z
1/2+x,-y,1/2+z
loop_
_atom_site_type_symbol
_atom_site_label
_atom_site_fract_x
_atom_site_fract_y
_atom_site_fract_z
Si Si1 0.302036 0.557994 0.856570
Si Si2 0.299193 0.762798 0.869848
Si Si3 0.187019 0.040013 0.700810
Si Si4 0.192802 0.054678 0.960143
Si Si5 0.688057 0.222648 0.652880
Si Si6 0.802931 0.425182 0.697349
Si Si7 0.802150 0.226677 0.085085
Si Si8 0.301733 0.428604 0.034438
O O1 0.500000 0.558168 0.839407
O O2 0.244905 0.659686 0.858318
O O3 0.243282 0.537128 0.696619
O O4 0.250216 0.446277 0.866546
O O5 0.500000 0.766565 0.885315
O O6 0.249793 0.799291 0.730471
O O7 0.214829 0.793947 0.999947
O O8 0.197032 0.147280 0.713639
O O9 0.000000 0.011590 0.675198
O O10 0.292318 0.005686 0.583895
O O11 0.262751 0.006533 0.834984
O O12 0.267218 0.151096 0.991996
O O13 0.000000 0.065881 0.928796
O O14 0.500000 0.206772 0.689429
O O15 0.729885 0.325676 0.684670
O O16 0.781937 0.455409 0.525464
O O17 0.000000 0.418544 0.707473
O O18 0.766343 0.328192 0.047923
O O19 0.000000 0.219639 0.085576
O O20 0.500000 0.418406 0.033619
#
# Coordination Sequence:
#
# PCOD9343157 Si02
#       8
#     4   4   4   4   4   4   4   4
#     4  10  20  36  55  83 126 173 225 278 328 388
#     4  10  20  38  62  92 131 178 226 276 336 396
#     4  11  26  49  76 104 139 177 219 281 348 412
#     4  10  25  49  74 107 139 172 225 278 339 419
#     4  12  26  42  65  96 133 175 226 280 336 408
#     4  11  22  38  58  86 126 173 222 275 329 387
#     4  10  22  40  65  94 130 172 219 274 333 401
#     4  10  21  36  55  84 126 170 218 272 321 381
#
# _framework density 25.433291000000001
#
# number of rings (size 3 to 8) (size 9 to 14) (size 15 to 20)
#    0.000    1.500    2.500    1.875    3.500    3.500 
#    0.000    0.000    0.000    0.000    0.000    0.000 
#    0.000    0.000    0.000    0.000    0.000    0.000 
#
# Total GULP energy -178531.766502 kJ/mol
# GULP energy per Si atom -5579.117703 kJ/mol
# Density = 2.537540 g / cm^3
# Si number density = 25.433291 Si / 1000 Ang^3
#
#
#
# Elastic Constant Matrix: (Units=GPa)
#
#
# Indices 1 2 3 4 5 6 
#
# 1 46.6159 -8.8859 23.8437 0.0000 0.0000 0.0000
# 2 -8.8859 80.7252 42.9514 0.0000 0.0000 0.0000
# 3 23.8437 42.9514 183.3877 0.0000 0.0000 0.0000
# 4 0.0000 0.0000 0.0000 48.6486 0.0000 0.0000
# 5 0.0000 0.0000 0.0000 0.0000 22.3472 0.0000
# 6 0.0000 0.0000 0.0000 0.0000 0.0000 33.8356
#
#
#
# Elastic Compliance Matrix: (Units=1/GPa)
#
#
# Indices 1 2 3 4 5 6 
#
# 1 0.024659 0.005050 -0.004389 0.000000 0.000000 0.000000
# 2 0.005050 0.015185 -0.004213 0.000000 0.000000 0.000000
# 3 -0.004389 -0.004213 0.007010 0.000000 0.000000 0.000000
# 4 0.000000 0.000000 0.000000 0.020556 0.000000 0.000000
# 5 0.000000 0.000000 0.000000 0.000000 0.044748 0.000000
# 6 0.000000 0.000000 0.000000 0.000000 0.000000 0.029555
#
#
# Mechanical properties :
#
#
# Convention : Reuss Voigt Hill
#
# Bulk Modulus (GPa) = 25.15716 47.39414 36.27565
# Shear Modulus (GPa) = 30.85125 37.82094 34.33610
#
# Velocity S-wave (km/s) = 3.48663 3.86043 3.67828
# Velocity P-wave (km/s) = 5.11094 6.20852 5.68627
#
# Compressibility (1/GPa) = 0.03975011
#
# Stress axis : x y z
#
# Youngs Moduli (GPa) = 40.55268 65.85367 142.64731
#
# Poissons Ratio (x) = -0.33253 0.62605
# Poissons Ratio (y) = -0.20477 0.60098
# Poissons Ratio (z) = 0.17798 0.27745
#
# Static dielectric constant tensor:
#      x y z
#    x 1.851460 0.000000 0.000000 
#    y 0.000000 1.977870 0.000000 
#    z 0.000000 0.000000 2.592520 
# 
# From -- ./inp_files/3658.got.cif
#   From: 2010.05.17/outbox.cif.g08.bks.cpg/sg31_2_cif.got.tgz:3658.got - 2010.06.03 17:08:30.
