data_PCOD9343364
_publ_section_title
;
Structure prediction by ZEFSAII (Michael W. Deem and Ramdas Pophale) SiO2 
 PCOD9343364
Probable space group: P M N 21
;
_chemical_formula_sum "Si O2"
_cell_formula_units_Z 26
_cell_length_a 7.893905
_cell_length_b 13.707863
_cell_length_c 9.383373
_cell_angle_alpha 90.000000
_cell_angle_beta 90.000000
_cell_angle_gamma 90.000000
_cell_volume 1015.361358
_symmetry_space_group_name_H-M "P M N 21"
_symmetry_group_IT_number 31
_symmetry_cell_setting 'orthorhombic'
loop_
_space_group_symop_operation_xyz
x,y,z
1/2-x,-y,1/2+z
-x,y,z
1/2+x,-y,1/2+z
loop_
_atom_site_type_symbol
_atom_site_label
_atom_site_fract_x
_atom_site_fract_y
_atom_site_fract_z
Si Si1 0.813148 0.819227 0.444320
Si Si2 0.194756 0.870569 0.031548
Si Si3 0.812050 0.295882 0.191871
Si Si4 0.203370 0.494912 0.052267
Si Si5 0.809828 0.006862 0.780414
Si Si6 0.300691 0.627646 0.288662
Si Si7 0.500000 0.748189 0.976478
O O1 0.789594 0.785990 0.607268
O O2 0.689558 0.901026 0.387547
O O3 0.794067 0.721647 0.348769
O O4 0.000000 0.860040 0.422785
O O5 0.200649 0.957489 0.147727
O O6 0.347517 0.798706 0.071319
O O7 0.000000 0.833868 0.024157
O O8 0.247807 0.917646 0.879438
O O9 0.743100 0.401087 0.146872
O O10 0.000000 0.289956 0.122192
O O11 0.852734 0.286107 0.357273
O O12 0.278208 0.589653 0.127914
O O13 0.000000 0.505754 0.057482
O O14 0.253578 0.461777 0.893907
O O15 0.000000 0.986585 0.730733
O O16 0.500000 0.643243 0.308526
#
# Coordination Sequence:
#
# PCOD9343364 Si02
#       7
#     4   4   4   4   4   4   2
#     4  11  22  37  63  94 123 164 216 266 315 387
#     4  11  26  43  67  97 129 169 217 265 316 390
#     4   8  19  38  62  86 123 163 201 251 317 379
#     4   9  18  37  58  85 117 156 206 249 306 375
#     4  11  25  44  66  92 129 171 211 263 328 375
#     4  10  21  38  60  87 123 163 207 257 318 382
#     4  10  22  44  66  94 132 170 206 272 322 378
#
# _framework density 25.606648
#
# number of rings (size 3 to 8) (size 9 to 14) (size 15 to 20)
#    0.462    1.538    0.769    3.231    4.308    3.692 
#    2.769    0.000    0.000    0.000    0.000    0.000 
#    0.000    0.000    0.000    0.000    0.000    0.000 
#
# Total GULP energy -144895.891039 kJ/mol
# GULP energy per Si atom -5572.918886 kJ/mol
# Density = 2.554837 g / cm^3
# Si number density = 25.606648 Si / 1000 Ang^3
#
#
#
# Elastic Constant Matrix: (Units=GPa)
#
#
# Indices 1 2 3 4 5 6 
#
# 1 94.1344 7.1588 7.5229 0.0000 0.0000 0.0000
# 2 7.1588 74.4889 29.3495 0.0000 0.0000 0.0000
# 3 7.5229 29.3495 125.4152 0.0000 0.0000 0.0000
# 4 0.0000 0.0000 0.0000 54.1562 0.0000 0.0000
# 5 0.0000 0.0000 0.0000 0.0000 23.1028 0.0000
# 6 0.0000 0.0000 0.0000 0.0000 0.0000 -1.3934
#
#
#
# Elastic Compliance Matrix: (Units=1/GPa)
#
#
# Indices 1 2 3 4 5 6 
#
# 1 0.010724 -0.000856 -0.000443 0.000000 0.000000 0.000000
# 2 -0.000856 0.014857 -0.003425 0.000000 0.000000 0.000000
# 3 -0.000443 -0.003425 0.008802 0.000000 0.000000 0.000000
# 4 0.000000 0.000000 0.000000 0.018465 0.000000 0.000000
# 5 0.000000 0.000000 0.000000 0.000000 0.043285 0.000000
# 6 0.000000 0.000000 0.000000 0.000000 0.000000 -0.717671
#
#
# Mechanical properties :
#
#
# Convention : Reuss Voigt Hill
#
# Bulk Modulus (GPa) = 40.10707 42.45564 41.28135
# Shear Modulus (GPa) = -8.28117 31.84030 11.77956
#
# Velocity S-wave (km/s) = -1.80028 3.53007 2.14713
# Velocity P-wave (km/s) = 3.37274 5.76464 4.72263
#
# Compressibility (1/GPa) = 0.02493326
#
# Stress axis : x y z
#
# Youngs Moduli (GPa) = 93.25215 67.30954 113.61459
#
# Poissons Ratio (x) = 0.05762 0.05032
# Poissons Ratio (y) = 0.07983 0.38918
# Poissons Ratio (z) = 0.04130 0.23056
#
# Static dielectric constant tensor:
#      x y z
#    x 1.993220 0.000000 0.000000 
#    y 0.000000 2.054510 0.000000 
#    z 0.000000 0.000000 2.078860 
# 
# From -- ./inp_files/1783.got.cif
#   From: 2010.05.17/outbox.cif.g08.bks.cpg/sg31_1_cif.got.tgz:1783.got - 2010.06.03 17:08:30.
