data_PCOD9343262
_publ_section_title
;
Structure prediction by ZEFSAII (Michael W. Deem and Ramdas Pophale) SiO2 
 PCOD9343262
Probable space group: P M N 21
;
_chemical_formula_sum "Si O2"
_cell_formula_units_Z 24
_cell_length_a 8.437591
_cell_length_b 14.032825
_cell_length_c 10.383460
_cell_angle_alpha 90.000000
_cell_angle_beta 90.000000
_cell_angle_gamma 90.000000
_cell_volume 1229.435285
_symmetry_space_group_name_H-M "P M N 21"
_symmetry_group_IT_number 31
_symmetry_cell_setting 'orthorhombic'
loop_
_space_group_symop_operation_xyz
x,y,z
1/2-x,-y,1/2+z
-x,y,z
1/2+x,-y,1/2+z
loop_
_atom_site_type_symbol
_atom_site_label
_atom_site_fract_x
_atom_site_fract_y
_atom_site_fract_z
Si Si1 0.189733 0.423922 0.643980
Si Si2 0.690197 0.216574 0.725553
Si Si3 0.690091 0.920569 0.003370
Si Si4 0.191495 0.573001 0.860261
Si Si5 0.306795 0.140727 0.000963
Si Si6 0.691968 0.215013 0.278141
O O1 0.247011 0.317914 0.677528
O O2 0.245635 0.497699 0.753132
O O3 0.249709 0.451145 0.502543
O O4 0.000000 0.424983 0.642803
O O5 0.500000 0.219537 0.723876
O O6 0.745510 0.134773 0.627727
O O7 0.745141 0.192475 0.870276
O O8 0.500000 0.919307 0.007513
O O9 0.746642 0.863552 0.877718
O O10 0.743540 0.030325 0.000509
O O11 0.243588 0.680014 0.823128
O O12 0.000000 0.572996 0.861246
O O13 0.500000 0.141476 0.000138
O O14 0.256228 0.191103 0.132984
O O15 0.500000 0.213062 0.281354
#
# Coordination Sequence:
#
# PCOD9343262 Si02
#       6
#     4   4   4   4   4   4
#     4  11  24  41  63  92 121 152 194 246 296 348
#     4  11  22  39  62  87 119 161 199 239 294 358
#     4  11  21  37  59  88 121 154 197 250 295 344
#     4  10  23  41  63  89 118 155 199 241 295 355
#     4   9  21  37  59  88 118 156 203 244 289 346
#     4  10  20  39  62  84 115 158 198 238 291 357
#
# _framework density 19.521156999999999
#
# number of rings (size 3 to 8) (size 9 to 14) (size 15 to 20)
#    0.000    1.667    1.667    2.500    2.333    1.333 
#    0.000    5.000    0.000    0.000    0.000    0.000 
#    0.000    0.000    0.000    0.000    0.000    0.000 
#
# Total GULP energy -134152.212956 kJ/mol
# GULP energy per Si atom -5589.675540 kJ/mol
# Density = 1.947673 g / cm^3
# Si number density = 19.521157 Si / 1000 Ang^3
#
#
#
# Elastic Constant Matrix: (Units=GPa)
#
#
# Indices 1 2 3 4 5 6 
#
# 1 21.5048 19.1288 22.9689 0.0000 0.0000 0.0000
# 2 19.1288 87.8904 62.7723 0.0000 0.0000 0.0000
# 3 22.9689 62.7723 198.0841 0.0000 0.0000 0.0000
# 4 0.0000 0.0000 0.0000 43.0042 0.0000 0.0000
# 5 0.0000 0.0000 0.0000 0.0000 7.3201 0.0000
# 6 0.0000 0.0000 0.0000 0.0000 0.0000 12.0183
#
#
#
# Elastic Compliance Matrix: (Units=1/GPa)
#
#
# Indices 1 2 3 4 5 6 
#
# 1 0.059608 -0.010388 -0.003620 0.000000 0.000000 0.000000
# 2 -0.010388 0.016517 -0.004030 0.000000 0.000000 0.000000
# 3 -0.003620 -0.004030 0.006745 0.000000 0.000000 0.000000
# 4 0.000000 0.000000 0.000000 0.023254 0.000000 0.000000
# 5 0.000000 0.000000 0.000000 0.000000 0.136611 0.000000
# 6 0.000000 0.000000 0.000000 0.000000 0.000000 0.083206
#
#
# Mechanical properties :
#
#
# Convention : Reuss Voigt Hill
#
# Bulk Modulus (GPa) = 21.36989 57.46879 39.41934
# Shear Modulus (GPa) = 13.24108 25.97582 19.60845
#
# Velocity S-wave (km/s) = 2.60723 3.65176 3.17278
# Velocity P-wave (km/s) = 4.47598 6.87631 5.80164
#
# Compressibility (1/GPa) = 0.04679482
#
# Stress axis : x y z
#
# Youngs Moduli (GPa) = 16.77632 60.54515 148.25657
#
# Poissons Ratio (x) = 0.62893 0.53668
# Poissons Ratio (y) = 0.17427 0.59741
# Poissons Ratio (z) = 0.06073 0.24397
#
# Static dielectric constant tensor:
#      x y z
#    x 1.675840 0.000000 0.000000 
#    y 0.000000 1.655960 0.000000 
#    z 0.000000 0.000000 1.662470 
# 
# From -- ./inp_files/1709.got.cif
#   From: 2010.05.17/outbox.cif.g08.bks.cpg/sg31_1_cif.got.tgz:1709.got - 2010.06.03 17:08:30.
