data_PCOD9343899
_publ_section_title
;
Structure prediction by ZEFSAII (Michael W. Deem and Ramdas Pophale) SiO2 
 PCOD9343899
Probable space group: P B A 2
;
_chemical_formula_sum "Si O2"
_cell_formula_units_Z 20
_cell_length_a 14.321269
_cell_length_b 9.571628
_cell_length_c 5.759363
_cell_angle_alpha 90.000000
_cell_angle_beta 90.000000
_cell_angle_gamma 90.000000
_cell_volume 789.481151
_symmetry_space_group_name_H-M "P B A 2"
_symmetry_group_IT_number 32
_symmetry_cell_setting 'orthorhombic'
loop_
_space_group_symop_operation_xyz
x,y,z
-x,-y,z
1/2-x,1/2+y,z
1/2+x,1/2-y,z
loop_
_atom_site_type_symbol
_atom_site_label
_atom_site_fract_x
_atom_site_fract_y
_atom_site_fract_z
Si Si1 0.000000 0.000000 0.786541
Si Si2 0.387067 0.824338 0.132716
Si Si3 0.553261 0.743730 0.453791
Si Si4 0.239498 0.353705 0.529230
Si Si5 0.000000 0.500000 0.762535
Si Si6 0.190416 0.096861 0.843672
O O1 0.004930 0.867044 0.622943
O O2 0.904335 0.983651 0.916267
O O3 0.483838 0.761672 0.236935
O O4 0.331223 0.906016 0.331953
O O5 0.310765 0.707276 0.055806
O O6 0.426437 0.920914 0.928077
O O7 0.658153 0.685716 0.427747
O O8 0.549742 0.886495 0.600150
O O9 0.196839 0.211221 0.635618
O O10 0.252990 0.468523 0.732146
#
# Coordination Sequence:
#
# PCOD9343899 Si02
#       6
#     2   4   4   4   2   4
#     4  10  20  52  72 102 160 202 252 338 380 454
#     4  12  26  50  83 116 155 217 275 320 426 487
#     4  11  26  50  77 112 163 210 262 339 400 480
#     4  11  28  50  77 116 163 204 274 345 396 484
#     4  12  26  48  82 110 164 212 266 334 404 498
#     4  11  26  49  75 112 163 203 269 338 393 485
#
# _framework density 25.333093000000002
#
# number of rings (size 3 to 8) (size 9 to 14) (size 15 to 20)
#    0.000    0.800    4.000    0.600    8.400    4.000 
#    0.000    0.000    0.000    0.000    0.000    0.000 
#    0.000    0.000    0.000    0.000    0.000    0.000 
#
# Total GULP energy -111653.361031 kJ/mol
# GULP energy per Si atom -5582.668052 kJ/mol
# Density = 2.527543 g / cm^3
# Si number density = 25.333093 Si / 1000 Ang^3
#
#
#
# Elastic Constant Matrix: (Units=GPa)
#
#
# Indices 1 2 3 4 5 6 
#
# 1 150.2365 40.4317 48.8481 0.0000 0.0000 0.0000
# 2 40.4317 147.7526 36.2944 0.0000 0.0000 0.0000
# 3 48.8481 36.2944 75.3983 0.0000 0.0000 0.0000
# 4 0.0000 0.0000 0.0000 43.2024 0.0000 0.0000
# 5 0.0000 0.0000 0.0000 0.0000 220.3333 0.0000
# 6 0.0000 0.0000 0.0000 0.0000 0.0000 32.7544
#
#
#
# Elastic Compliance Matrix: (Units=1/GPa)
#
#
# Indices 1 2 3 4 5 6 
#
# 1 0.008592 -0.001116 -0.005029 0.000000 0.000000 0.000000
# 2 -0.001116 0.007821 -0.003042 0.000000 0.000000 0.000000
# 3 -0.005029 -0.003042 0.017985 0.000000 0.000000 0.000000
# 4 0.000000 0.000000 0.000000 0.023147 0.000000 0.000000
# 5 0.000000 0.000000 0.000000 0.000000 0.004539 0.000000
# 6 0.000000 0.000000 0.000000 0.000000 0.000000 0.030530
#
#
# Mechanical properties :
#
#
# Convention : Reuss Voigt Hill
#
# Bulk Modulus (GPa) = 62.40523 69.39287 65.89905
# Shear Modulus (GPa) = 42.98196 75.77890 59.38043
#
# Velocity S-wave (km/s) = 4.12354 5.47521 4.84673
# Velocity P-wave (km/s) = 6.88177 8.21110 7.57565
#
# Compressibility (1/GPa) = 0.01602430
#
# Stress axis : x y z
#
# Youngs Moduli (GPa) = 116.39257 127.86812 55.60077
#
# Poissons Ratio (x) = 0.14266 0.27963
# Poissons Ratio (y) = 0.12986 0.16912
# Poissons Ratio (z) = 0.58536 0.38895
#
# Static dielectric constant tensor:
#      x y z
#    x 1.997160 0.000000 0.000000 
#    y 0.000000 1.971050 0.000000 
#    z 0.000000 0.000000 1.975940 
# 
# From -- ./inp_files/454.got.cif
#   From: 2010.05.17/outbox.cif.g08.bks.cpg/sg32_1_cif.got.tgz:454.got - 2010.06.03 17:12:27.
