data_PCOD9343191
_publ_section_title
;
Structure prediction by ZEFSAII (Michael W. Deem and Ramdas Pophale) SiO2 
 PCOD9343191
Probable space group: P M N 21
;
_chemical_formula_sum "Si O2"
_cell_formula_units_Z 30
_cell_length_a 21.625317
_cell_length_b 6.231366
_cell_length_c 10.975629
_cell_angle_alpha 90.000000
_cell_angle_beta 90.000000
_cell_angle_gamma 90.000000
_cell_volume 1479.023795
_symmetry_space_group_name_H-M "P M N 21"
_symmetry_group_IT_number 31
_symmetry_cell_setting 'orthorhombic'
loop_
_space_group_symop_operation_xyz
x,y,z
1/2-x,-y,1/2+z
-x,y,z
1/2+x,-y,1/2+z
loop_
_atom_site_type_symbol
_atom_site_label
_atom_site_fract_x
_atom_site_fract_y
_atom_site_fract_z
Si Si1 0.393997 0.098769 0.253500
Si Si2 0.929584 0.609160 0.252538
Si Si3 0.658545 0.767921 0.684562
Si Si4 0.428329 0.064376 0.529873
Si Si5 0.000000 0.618824 0.619146
Si Si6 0.292712 0.334279 0.105463
Si Si7 0.645475 0.066219 0.902200
Si Si8 0.112584 0.292673 0.595029
O O1 0.408016 0.129432 0.395103
O O2 0.446031 0.219625 0.174743
O O3 0.329440 0.202251 0.210126
O O4 0.394704 0.847994 0.217746
O O5 0.883066 0.412376 0.248519
O O6 0.925400 0.737737 0.124649
O O7 0.000000 0.540485 0.271916
O O8 0.908826 0.778229 0.355024
O O9 0.720619 0.665650 0.632791
O O10 0.673670 0.950646 0.784301
O O11 0.616339 0.881209 0.582525
O O12 0.500000 0.991304 0.527509
O O13 0.054668 0.447720 0.579191
O O14 0.325432 0.564757 0.098106
O O15 0.307264 0.206758 0.980784
O O16 0.618530 0.883404 0.989505
#
# Coordination Sequence:
#
# PCOD9343191 Si02
#       8
#     4   4   4   4   2   4   4   4
#     4  10  21  41  63  99 134 171 208 270 328 392
#     4  10  23  44  67  98 132 171 224 272 329 397
#     4  11  24  43  68  95 127 177 225 276 330 395
#     4  10  22  42  67  97 133 169 212 269 336 394
#     4  10  20  36  64  98 130 164 212 262 322 390
#     4  10  24  43  64  96 132 172 230 267 332 395
#     4  10  23  45  64  93 131 176 219 280 327 396
#     4  10  22  41  64  96 131 173 215 267 332 393
#
# _framework density 20.283650000000002
#
# number of rings (size 3 to 8) (size 9 to 14) (size 15 to 20)
#    0.000    1.867    0.667    1.600    2.800    6.933 
#   16.800    0.000    0.000    0.000    0.000    0.000 
#    0.000    0.000    0.000    0.000    0.000    0.000 
#
# Total GULP energy -167185.851901 kJ/mol
# GULP energy per Si atom -5572.861730 kJ/mol
# Density = 2.023748 g / cm^3
# Si number density = 20.283650 Si / 1000 Ang^3
#
#
#
# Elastic Constant Matrix: (Units=GPa)
#
#
# Indices 1 2 3 4 5 6 
#
# 1 119.8728 36.1760 24.6821 0.0000 0.0000 0.0000
# 2 36.1760 89.1732 25.4879 0.0000 0.0000 0.0000
# 3 24.6821 25.4879 79.2628 0.0000 0.0000 0.0000
# 4 0.0000 0.0000 0.0000 15.7434 0.0000 0.0000
# 5 0.0000 0.0000 0.0000 0.0000 1.4399 0.0000
# 6 0.0000 0.0000 0.0000 0.0000 0.0000 8.0665
#
#
#
# Elastic Compliance Matrix: (Units=1/GPa)
#
#
# Indices 1 2 3 4 5 6 
#
# 1 0.009771 -0.003408 -0.001947 0.000000 0.000000 0.000000
# 2 -0.003408 0.013537 -0.003292 0.000000 0.000000 0.000000
# 3 -0.001947 -0.003292 0.014281 0.000000 0.000000 0.000000
# 4 0.000000 0.000000 0.000000 0.063519 0.000000 0.000000
# 5 0.000000 0.000000 0.000000 0.000000 0.694485 0.000000
# 6 0.000000 0.000000 0.000000 0.000000 0.000000 0.123969
#
#
# Mechanical properties :
#
#
# Convention : Reuss Voigt Hill
#
# Bulk Modulus (GPa) = 49.26894 51.22231 50.24563
# Shear Modulus (GPa) = 5.29873 18.51416 11.90645
#
# Velocity S-wave (km/s) = 1.61802 3.02447 2.42543
# Velocity P-wave (km/s) = 5.27573 6.12408 5.71567
#
# Compressibility (1/GPa) = 0.02029676
#
# Stress axis : x y z
#
# Youngs Moduli (GPa) = 102.33905 73.86904 70.02240
#
# Poissons Ratio (x) = 0.25172 0.13634
# Poissons Ratio (y) = 0.34873 0.23051
# Poissons Ratio (z) = 0.19926 0.24318
#
# Static dielectric constant tensor:
#      x y z
#    x 1.696580 0.000000 0.000000 
#    y 0.000000 1.715550 0.000000 
#    z 0.000000 0.000000 1.751180 
# 
# From -- ./inp_files/4486.got.cif
#   From: 2010.05.17/outbox.cif.g08.bks.cpg/sg31_3_cif.got.tgz:4486.got - 2010.06.03 17:08:30.
