data_PCOD9343691
_publ_section_title
;
Structure prediction by ZEFSAII (Michael W. Deem and Ramdas Pophale) SiO2 
 PCOD9343691
Probable space group: P B A 2
;
_chemical_formula_sum "Si O2"
_cell_formula_units_Z 30
_cell_length_a 5.184026
_cell_length_b 25.643667
_cell_length_c 10.815833
_cell_angle_alpha 90.000000
_cell_angle_beta 90.000000
_cell_angle_gamma 90.000000
_cell_volume 1437.829112
_symmetry_space_group_name_H-M "P B A 2"
_symmetry_group_IT_number 32
_symmetry_cell_setting 'orthorhombic'
loop_
_space_group_symop_operation_xyz
x,y,z
-x,-y,z
1/2-x,1/2+y,z
1/2+x,1/2-y,z
loop_
_atom_site_type_symbol
_atom_site_label
_atom_site_fract_x
_atom_site_fract_y
_atom_site_fract_z
Si Si1 0.066369 0.884146 0.828570
Si Si2 0.121414 0.551053 0.219872
Si Si3 0.173163 0.159495 0.206142
Si Si4 0.500000 0.500000 0.422467
Si Si5 0.162096 0.359965 0.339763
Si Si6 0.202344 0.413742 0.583376
Si Si7 0.628274 0.281658 0.954594
Si Si8 0.938479 0.441112 0.826112
O O1 0.105304 0.887306 0.681285
O O2 0.344042 0.902182 0.881221
O O3 0.964910 0.828802 0.869681
O O4 0.847385 0.925714 0.861172
O O5 0.278897 0.599199 0.158982
O O6 0.298508 0.530340 0.333144
O O7 0.000000 0.500000 0.155526
O O8 0.881632 0.583470 0.275364
O O9 0.943815 0.158607 0.304664
O O10 0.439209 0.173605 0.274939
O O11 0.108000 0.196555 0.093657
O O12 0.345322 0.459895 0.510128
O O13 0.114475 0.371740 0.482745
O O14 0.982992 0.434730 0.676993
O O15 0.422177 0.235656 0.934900
O O16 0.000000 0.500000 0.857723
#
# Coordination Sequence:
#
# PCOD9343691 Si02
#       8
#     4   4   4   2   4   4   4   4
#     4  10  24  38  63  97 125 165 228 273 317 378
#     4  10  19  30  54  91 137 173 204 234 293 389
#     4  10  22  39  60  94 121 156 216 265 321 379
#     4  12  16  30  54  96 132 194 200 224 284 408
#     4  10  20  32  58  90 135 161 197 246 304 385
#     4  10  21  29  59  94 140 170 212 238 302 388
#     4  12  26  50  78  87 108 162 238 300 340 377
#     4  10  21  35  58  94 140 178 202 242 301 394
#
# _framework density 20.864787
#
# number of rings (size 3 to 8) (size 9 to 14) (size 15 to 20)
#    1.600    0.000    2.667    2.800    5.600    0.000 
#    0.000    0.667    5.867    4.800    0.000    0.000 
#    0.000    0.000    0.000    0.000    0.000    0.000 
#
# Total GULP energy -167227.154137 kJ/mol
# GULP energy per Si atom -5574.238471 kJ/mol
# Density = 2.081730 g / cm^3
# Si number density = 20.864787 Si / 1000 Ang^3
#
#
#
# Elastic Constant Matrix: (Units=GPa)
#
#
# Indices 1 2 3 4 5 6 
#
# 1 66.9116 -5.3522 0.1370 0.0000 0.0000 0.0000
# 2 -5.3522 33.6884 6.8769 0.0000 0.0000 0.0000
# 3 0.1370 6.8769 50.2866 0.0000 0.0000 0.0000
# 4 0.0000 0.0000 0.0000 29.8581 0.0000 0.0000
# 5 0.0000 0.0000 0.0000 0.0000 11.3310 0.0000
# 6 0.0000 0.0000 0.0000 0.0000 0.0000 30.1448
#
#
#
# Elastic Compliance Matrix: (Units=1/GPa)
#
#
# Indices 1 2 3 4 5 6 
#
# 1 0.015145 0.002484 -0.000381 0.000000 0.000000 0.000000
# 2 0.002484 0.030944 -0.004238 0.000000 0.000000 0.000000
# 3 -0.000381 -0.004238 0.020467 0.000000 0.000000 0.000000
# 4 0.000000 0.000000 0.000000 0.033492 0.000000 0.000000
# 5 0.000000 0.000000 0.000000 0.000000 0.088253 0.000000
# 6 0.000000 0.000000 0.000000 0.000000 0.000000 0.033173
#
#
# Mechanical properties :
#
#
# Convention : Reuss Voigt Hill
#
# Bulk Modulus (GPa) = 16.05554 17.13445 16.59499
# Shear Modulus (GPa) = 20.28352 24.21511 22.24931
#
# Velocity S-wave (km/s) = 3.12130 3.41041 3.26906
# Velocity P-wave (km/s) = 4.54992 4.87215 4.71379
#
# Compressibility (1/GPa) = 0.06228381
#
# Stress axis : x y z
#
# Youngs Moduli (GPa) = 66.03034 32.31678 48.85995
#
# Poissons Ratio (x) = -0.08027 0.01861
# Poissons Ratio (y) = -0.16401 0.20709
# Poissons Ratio (z) = 0.02515 0.13697
#
# Static dielectric constant tensor:
#      x y z
#    x 1.759110 0.000000 0.000000 
#    y 0.000000 1.758760 0.000000 
#    z 0.000000 0.000000 1.765670 
# 
# From -- ./inp_files/3593.got.cif
#   From: 2010.05.17/outbox.cif.g08.bks.cpg/sg32_2_cif.got.tgz:3593.got - 2010.06.03 17:12:27.
