data_PCOD9343148
_publ_section_title
;
Structure prediction by ZEFSAII (Michael W. Deem and Ramdas Pophale) SiO2 
 PCOD9343148
Probable space group: P M N 21
;
_chemical_formula_sum "Si O2"
_cell_formula_units_Z 32
_cell_length_a 9.197258
_cell_length_b 16.004828
_cell_length_c 11.240542
_cell_angle_alpha 90.000000
_cell_angle_beta 90.000000
_cell_angle_gamma 90.000000
_cell_volume 1654.613766
_symmetry_space_group_name_H-M "P M N 21"
_symmetry_group_IT_number 31
_symmetry_cell_setting 'orthorhombic'
loop_
_space_group_symop_operation_xyz
x,y,z
1/2-x,-y,1/2+z
-x,y,z
1/2+x,-y,1/2+z
loop_
_atom_site_type_symbol
_atom_site_label
_atom_site_fract_x
_atom_site_fract_y
_atom_site_fract_z
Si Si1 0.171749 0.023175 0.658890
Si Si2 0.664661 0.287985 0.630200
Si Si3 0.829368 0.140539 0.197454
Si Si4 0.336512 0.141634 0.826208
Si Si5 0.324125 0.545144 0.471391
Si Si6 0.329936 0.738179 0.500781
Si Si7 0.675187 0.545403 0.198146
Si Si8 0.326983 0.832228 0.967754
O O1 0.248457 0.063849 0.774156
O O2 0.200243 0.087716 0.551538
O O3 0.000000 0.018259 0.676862
O O4 0.238639 0.932773 0.636696
O O5 0.500000 0.318162 0.608038
O O6 0.656562 0.210840 0.721513
O O7 0.763165 0.360693 0.684581
O O8 0.739676 0.247454 0.515474
O O9 0.786171 0.146534 0.334049
O O10 0.000000 0.117916 0.189868
O O11 0.813612 0.230388 0.135590
O O12 0.500000 0.116420 0.859361
O O13 0.256391 0.192900 0.927557
O O14 0.500000 0.537919 0.485114
O O15 0.284088 0.643508 0.478751
O O16 0.288380 0.516488 0.334842
O O17 0.246289 0.501775 0.584377
O O18 0.500000 0.743460 0.467452
O O19 0.500000 0.544005 0.188584
O O20 0.500000 0.814706 0.973513
#
# Coordination Sequence:
#
# PCOD9343148 Si02
#       8
#     4   4   4   4   4   4   4   4
#     4  10  21  36  56  82 114 155 197 245 297 352
#     4  10  20  36  61  89 115 148 194 245 297 357
#     4  10  22  38  57  84 118 156 198 248 303 362
#     4  10  20  35  59  86 114 148 193 243 289 349
#     4  10  23  42  63  92 130 166 213 263 313 381
#     4  10  21  39  61  85 119 159 197 246 304 360
#     4  11  23  40  65  94 127 166 207 259 316 376
#     4   9  20  38  56  80 117 154 197 245 299 365
#
# _framework density 19.339860000000002
#
# number of rings (size 3 to 8) (size 9 to 14) (size 15 to 20)
#    0.000    2.000    1.250    1.500    1.750    5.000 
#    0.000    1.250    0.000    0.000    0.000    0.000 
#    0.000    0.000    0.000    0.000    0.000    0.000 
#
# Total GULP energy -178520.514929 kJ/mol
# GULP energy per Si atom -5578.766092 kJ/mol
# Density = 1.929584 g / cm^3
# Si number density = 19.339860 Si / 1000 Ang^3
#
#
#
# Elastic Constant Matrix: (Units=GPa)
#
#
# Indices 1 2 3 4 5 6 
#
# 1 50.7444 29.4579 54.4112 0.0000 0.0000 0.0000
# 2 29.4579 60.8122 36.4569 0.0000 0.0000 0.0000
# 3 54.4112 36.4569 101.4026 0.0000 0.0000 0.0000
# 4 0.0000 0.0000 0.0000 20.5509 0.0000 0.0000
# 5 0.0000 0.0000 0.0000 0.0000 26.3434 0.0000
# 6 0.0000 0.0000 0.0000 0.0000 0.0000 33.1617
#
#
#
# Elastic Compliance Matrix: (Units=1/GPa)
#
#
# Indices 1 2 3 4 5 6 
#
# 1 0.051294 -0.010640 -0.023698 0.000000 0.000000 0.000000
# 2 -0.010640 0.023169 -0.002621 0.000000 0.000000 0.000000
# 3 -0.023698 -0.002621 0.023520 0.000000 0.000000 0.000000
# 4 0.000000 0.000000 0.000000 0.048660 0.000000 0.000000
# 5 0.000000 0.000000 0.000000 0.000000 0.037960 0.000000
# 6 0.000000 0.000000 0.000000 0.000000 0.000000 0.030155
#
#
# Mechanical properties :
#
#
# Convention : Reuss Voigt Hill
#
# Bulk Modulus (GPa) = 41.55354 50.40124 45.97739
# Shear Modulus (GPa) = 16.85214 22.18674 19.51944
#
# Velocity S-wave (km/s) = 2.95510 3.39071 3.18037
# Velocity P-wave (km/s) = 5.75987 6.43791 6.10830
#
# Compressibility (1/GPa) = 0.02406534
#
# Stress axis : x y z
#
# Youngs Moduli (GPa) = 19.49546 43.16050 42.51704
#
# Poissons Ratio (x) = 0.45923 1.00758
# Poissons Ratio (y) = 0.20743 0.11142
# Poissons Ratio (z) = 0.46201 0.11311
#
# Static dielectric constant tensor:
#      x y z
#    x 1.664520 0.000000 0.000000 
#    y 0.000000 1.649260 0.000000 
#    z 0.000000 0.000000 1.708540 
# 
# From -- ./inp_files/3585.got.cif
#   From: 2010.05.17/outbox.cif.g08.bks.cpg/sg31_2_cif.got.tgz:3585.got - 2010.06.03 17:08:30.
