data_PCOD9343102
_publ_section_title
;
Structure prediction by ZEFSAII (Michael W. Deem and Ramdas Pophale) SiO2 
 PCOD9343102
Probable space group: P M N 21
;
_chemical_formula_sum "Si O2"
_cell_formula_units_Z 32
_cell_length_a 9.165217
_cell_length_b 29.323198
_cell_length_c 5.406914
_cell_angle_alpha 90.000000
_cell_angle_beta 90.000000
_cell_angle_gamma 90.000000
_cell_volume 1453.126915
_symmetry_space_group_name_H-M "P M N 21"
_symmetry_group_IT_number 31
_symmetry_cell_setting 'orthorhombic'
loop_
_space_group_symop_operation_xyz
x,y,z
1/2-x,-y,1/2+z
-x,y,z
1/2+x,-y,1/2+z
loop_
_atom_site_type_symbol
_atom_site_label
_atom_site_fract_x
_atom_site_fract_y
_atom_site_fract_z
Si Si1 0.840954 0.399196 0.561490
Si Si2 0.343578 0.696756 0.327482
Si Si3 0.823576 0.520709 0.269609
Si Si4 0.157452 0.648178 0.712070
Si Si5 0.176478 0.872648 0.161794
Si Si6 0.177204 0.979840 0.226509
Si Si7 0.839385 0.741737 0.979336
Si Si8 0.824156 0.825336 0.659093
O O1 0.862764 0.348713 0.664163
O O2 0.726750 0.427158 0.723218
O O3 0.772281 0.389869 0.293295
O O4 0.000000 0.421836 0.553891
O O5 0.500000 0.704420 0.455927
O O6 0.213394 0.679407 0.494412
O O7 0.290649 0.740170 0.174235
O O8 0.749004 0.503182 0.524569
O O9 0.000000 0.516396 0.270465
O O10 0.000000 0.627183 0.671009
O O11 0.144446 0.688422 0.915209
O O12 0.206401 0.925669 0.206688
O O13 0.229112 0.854875 0.894827
O O14 0.000000 0.868399 0.153748
O O15 0.230893 0.842944 0.395423
O O16 0.000000 0.986747 0.229334
O O17 0.249923 0.002161 0.981323
O O18 0.800874 0.773228 0.746201
O O19 0.000000 0.757455 0.072014
O O20 0.000000 0.830725 0.646503
#
# Coordination Sequence:
#
# PCOD9343102 Si02
#       8
#     4   4   4   4   4   4   4   4
#     4  10  22  41  62  87 120 160 205 253 309 371
#     4  10  21  36  57  82 115 157 198 243 299 363
#     4  12  27  48  73 102 136 174 217 267 323 388
#     4  10  20  34  56  86 117 149 195 251 305 358
#     4   9  18  32  53  84 116 150 197 250 305 365
#     4  11  22  38  62  92 123 161 207 262 321 383
#     4   9  19  33  53  82 110 144 192 247 299 347
#     4   9  17  30  52  81 115 149 191 249 303 355
#
# _framework density 22.021476
#
# number of rings (size 3 to 8) (size 9 to 14) (size 15 to 20)
#    0.000    2.000    0.000    3.375    3.500    4.000 
#    0.000    0.000    0.000    4.500    0.000    0.000 
#    0.000    0.000    0.000    0.000    0.000    0.000 
#
# Total GULP energy -178333.028856 kJ/mol
# GULP energy per Si atom -5572.907152 kJ/mol
# Density = 2.197135 g / cm^3
# Si number density = 22.021476 Si / 1000 Ang^3
#
#
#
# Elastic Constant Matrix: (Units=GPa)
#
#
# Indices 1 2 3 4 5 6 
#
# 1 104.0110 28.6662 30.3145 0.0000 0.0000 0.0000
# 2 28.6662 74.2162 26.8052 0.0000 0.0000 0.0000
# 3 30.3145 26.8052 99.4153 0.0000 0.0000 0.0000
# 4 0.0000 0.0000 0.0000 32.9023 0.0000 0.0000
# 5 0.0000 0.0000 0.0000 0.0000 21.0371 0.0000
# 6 0.0000 0.0000 0.0000 0.0000 0.0000 24.2025
#
#
#
# Elastic Compliance Matrix: (Units=1/GPa)
#
#
# Indices 1 2 3 4 5 6 
#
# 1 0.011300 -0.003457 -0.002514 0.000000 0.000000 0.000000
# 2 -0.003457 0.015985 -0.003256 0.000000 0.000000 0.000000
# 3 -0.002514 -0.003256 0.011703 0.000000 0.000000 0.000000
# 4 0.000000 0.000000 0.000000 0.030393 0.000000 0.000000
# 5 0.000000 0.000000 0.000000 0.000000 0.047535 0.000000
# 6 0.000000 0.000000 0.000000 0.000000 0.000000 0.041318
#
#
# Mechanical properties :
#
#
# Convention : Reuss Voigt Hill
#
# Bulk Modulus (GPa) = 48.69603 49.91271 49.30437
# Shear Modulus (GPa) = 27.24319 28.41881 27.83100
#
# Velocity S-wave (km/s) = 3.52109 3.59626 3.55887
# Velocity P-wave (km/s) = 6.22027 6.32129 6.27098
#
# Compressibility (1/GPa) = 0.02053556
#
# Stress axis : x y z
#
# Youngs Moduli (GPa) = 88.49834 62.55743 85.44673
#
# Poissons Ratio (x) = 0.21624 0.21478
# Poissons Ratio (y) = 0.30591 0.27822
# Poissons Ratio (z) = 0.22245 0.20369
#
# Static dielectric constant tensor:
#      x y z
#    x 1.943580 0.000000 0.000000 
#    y 0.000000 1.827890 0.000000 
#    z 0.000000 0.000000 1.888100 
# 
# From -- ./inp_files/179.got.cif
#   From: 2010.05.17/outbox.cif.g08.bks.cpg/sg31_1_cif.got.tgz:179.got - 2010.06.03 17:08:30.
