data_PCOD9343953
_publ_section_title
;
Structure prediction by ZEFSAII (Michael W. Deem and Ramdas Pophale) SiO2 
 PCOD9343953
Probable space group: P B A 2
;
_chemical_formula_sum "Si O2"
_cell_formula_units_Z 30
_cell_length_a 4.963840
_cell_length_b 20.702210
_cell_length_c 11.643053
_cell_angle_alpha 90.000000
_cell_angle_beta 90.000000
_cell_angle_gamma 90.000000
_cell_volume 1196.468746
_symmetry_space_group_name_H-M "P B A 2"
_symmetry_group_IT_number 32
_symmetry_cell_setting 'orthorhombic'
loop_
_space_group_symop_operation_xyz
x,y,z
-x,-y,z
1/2-x,1/2+y,z
1/2+x,1/2-y,z
loop_
_atom_site_type_symbol
_atom_site_label
_atom_site_fract_x
_atom_site_fract_y
_atom_site_fract_z
Si Si1 0.113493 0.071939 0.178920
Si Si2 0.260780 0.210690 0.041162
Si Si3 0.243399 0.709290 0.320848
Si Si4 0.116751 0.204581 0.585729
Si Si5 0.116646 0.406725 0.028898
Si Si6 0.761310 0.455765 0.408086
Si Si7 0.317980 0.565262 0.656435
Si Si8 0.500000 0.000000 0.847543
O O1 0.388287 0.064541 0.111774
O O2 0.189016 0.095625 0.307989
O O3 0.878140 0.105519 0.106351
O O4 0.000000 0.000000 0.196469
O O5 0.958145 0.229548 0.011575
O O6 0.243625 0.196830 0.179990
O O7 0.433120 0.152852 0.985964
O O8 0.920645 0.722584 0.326448
O O9 0.850547 0.812013 0.449365
O O10 0.392621 0.241850 0.611840
O O11 0.057783 0.136938 0.651187
O O12 0.189842 0.457682 0.930370
O O13 0.500000 0.500000 0.425631
O O14 0.845451 0.434745 0.535335
O O15 0.000000 0.500000 0.361043
O O16 0.500000 0.500000 0.657363
O O17 0.136853 0.552425 0.766129
#
# Coordination Sequence:
#
# PCOD9343953 Si02
#       8
#     4   4   4   4   4   4   4   2
#     4  11  21  41  63 104 138 177 229 298 368 437
#     4  10  21  41  64 100 142 180 238 291 364 450
#     4   8  16  34  60  93 135 181 218 279 358 444
#     4  10  23  44  71 106 148 191 249 311 380 459
#     4  12  25  42  72  99 139 191 235 298 360 438
#     4  10  21  40  65 102 145 182 231 297 374 441
#     4  11  27  48  76 107 153 203 257 316 383 460
#     4  12  28  50  72 104 140 202 258 308 370 450
#
# _framework density 25.073785000000001
#
# number of rings (size 3 to 8) (size 9 to 14) (size 15 to 20)
#    0.000    1.600    2.000    2.400    5.600    0.000 
#    7.200    1.333    0.000    0.000    0.000    0.000 
#    0.000    0.000    0.000    0.000    0.000    0.000 
#
# Total GULP energy -167053.722132 kJ/mol
# GULP energy per Si atom -5568.457404 kJ/mol
# Density = 2.501672 g / cm^3
# Si number density = 25.073785 Si / 1000 Ang^3
#
#
#
# Elastic Constant Matrix: (Units=GPa)
#
#
# Indices 1 2 3 4 5 6 
#
# 1 116.0599 4.1344 30.4072 0.0000 0.0000 0.0000
# 2 4.1344 51.7018 27.7670 0.0000 0.0000 0.0000
# 3 30.4072 27.7670 94.7990 0.0000 0.0000 0.0000
# 4 0.0000 0.0000 0.0000 40.9900 0.0000 0.0000
# 5 0.0000 0.0000 0.0000 0.0000 10.3719 0.0000
# 6 0.0000 0.0000 0.0000 0.0000 0.0000 40.6837
#
#
#
# Elastic Compliance Matrix: (Units=1/GPa)
#
#
# Indices 1 2 3 4 5 6 
#
# 1 0.009453 0.001035 -0.003335 0.000000 0.000000 0.000000
# 2 0.001035 0.023066 -0.007088 0.000000 0.000000 0.000000
# 3 -0.003335 -0.007088 0.013695 0.000000 0.000000 0.000000
# 4 0.000000 0.000000 0.000000 0.024396 0.000000 0.000000
# 5 0.000000 0.000000 0.000000 0.000000 0.096414 0.000000
# 6 0.000000 0.000000 0.000000 0.000000 0.000000 0.024580
#
#
# Mechanical properties :
#
#
# Convention : Reuss Voigt Hill
#
# Bulk Modulus (GPa) = 36.44693 43.01978 39.73335
# Shear Modulus (GPa) = 22.77635 31.75927 27.26781
#
# Velocity S-wave (km/s) = 3.01719 3.56284 3.30131
# Velocity P-wave (km/s) = 5.16772 5.84120 5.51475
#
# Compressibility (1/GPa) = 0.02743715
#
# Stress axis : x y z
#
# Youngs Moduli (GPa) = 105.78402 43.35456 73.02130
#
# Poissons Ratio (x) = -0.04489 0.24356
# Poissons Ratio (y) = -0.10953 0.51758
# Poissons Ratio (z) = 0.35284 0.30730
#
# Static dielectric constant tensor:
#      x y z
#    x 1.918110 0.000000 0.000000 
#    y 0.000000 2.176380 0.000000 
#    z 0.000000 0.000000 2.044210 
# 
# From -- ./inp_files/3591.got.cif
#   From: 2010.05.17/outbox.cif.g08.bks.cpg/sg32_2_cif.got.tgz:3591.got - 2010.06.03 17:12:27.
