data_PCOD9343033
_publ_section_title
;
Structure prediction by ZEFSAII (Michael W. Deem and Ramdas Pophale) SiO2 
 PCOD9343033
Probable space group: P M N 21
;
_chemical_formula_sum "Si O2"
_cell_formula_units_Z 28
_cell_length_a 16.572383
_cell_length_b 5.613360
_cell_length_c 14.355089
_cell_angle_alpha 90.000000
_cell_angle_beta 90.000000
_cell_angle_gamma 90.000000
_cell_volume 1335.407302
_symmetry_space_group_name_H-M "P M N 21"
_symmetry_group_IT_number 31
_symmetry_cell_setting 'orthorhombic'
loop_
_space_group_symop_operation_xyz
x,y,z
1/2-x,-y,1/2+z
-x,y,z
1/2+x,-y,1/2+z
loop_
_atom_site_type_symbol
_atom_site_label
_atom_site_fract_x
_atom_site_fract_y
_atom_site_fract_z
Si Si1 0.120852 0.397103 0.020350
Si Si2 0.360484 0.110084 0.473012
Si Si3 0.410460 0.228802 0.898597
Si Si4 0.773114 0.097208 0.634907
Si Si5 0.811040 0.591743 0.556271
Si Si6 0.088822 0.409284 0.239471
Si Si7 0.278023 0.917894 0.826018
O O1 0.219477 0.402873 0.015155
O O2 0.096841 0.410298 0.128750
O O3 0.091673 0.644012 0.976859
O O4 0.096836 0.146398 0.974735
O O5 0.306194 0.100721 0.568282
O O6 0.299823 0.136316 0.386514
O O7 0.500000 0.149815 0.923384
O O8 0.412953 0.343248 0.795553
O O9 0.342668 0.029437 0.896581
O O10 0.376246 0.413561 0.973877
O O11 0.816931 0.346368 0.613308
O O12 0.816858 0.844256 0.611541
O O13 0.747812 0.089958 0.742228
O O14 0.169618 0.284901 0.276351
O O15 0.000000 0.295901 0.261629
#
# Coordination Sequence:
#
# PCOD9343033 Si02
#       7
#     4   4   4   4   4   4   4
#     4  10  19  38  53  79 115 152 198 237 275 355
#     4  10  20  34  58  79 115 148 200 244 282 338
#     4  11  23  36  56  88 127 160 188 237 311 377
#     4  10  20  34  58  79 115 148 200 244 282 338
#     4  10  19  38  53  79 115 152 198 237 275 355
#     4  11  23  36  56  88 127 160 188 237 311 377
#     4  12  21  36  60  88 123 156 194 258 295 360
#
# _framework density 20.967386999999999
#
# number of rings (size 3 to 8) (size 9 to 14) (size 15 to 20)
#    0.000    1.429    5.714    3.857    0.000    0.000 
#    0.000    0.000    0.000    0.000    0.000    6.000 
#    0.000    0.000    0.000    0.000    0.000    0.000 
#
# Total GULP energy -156146.051181 kJ/mol
# GULP energy per Si atom -5576.644685 kJ/mol
# Density = 2.091966 g / cm^3
# Si number density = 20.967387 Si / 1000 Ang^3
#
#
#
# Elastic Constant Matrix: (Units=GPa)
#
#
# Indices 1 2 3 4 5 6 
#
# 1 65.3132 25.4344 44.8715 0.0000 0.0000 0.0000
# 2 25.4344 162.6238 19.5200 0.0000 0.0000 0.0000
# 3 44.8715 19.5200 67.3083 0.0000 0.0000 0.0000
# 4 0.0000 0.0000 0.0000 28.7811 0.0000 0.0000
# 5 0.0000 0.0000 0.0000 0.0000 9.2167 0.0000
# 6 0.0000 0.0000 0.0000 0.0000 0.0000 -29.0155
#
#
#
# Elastic Compliance Matrix: (Units=1/GPa)
#
#
# Indices 1 2 3 4 5 6 
#
# 1 0.029056 -0.002299 -0.018703 0.000000 0.000000 0.000000
# 2 -0.002299 0.006553 -0.000368 0.000000 0.000000 0.000000
# 3 -0.018703 -0.000368 0.027432 0.000000 0.000000 0.000000
# 4 0.000000 0.000000 0.000000 0.034745 0.000000 0.000000
# 5 0.000000 0.000000 0.000000 0.000000 0.108498 0.000000
# 6 0.000000 0.000000 0.000000 0.000000 0.000000 -0.034464
#
#
# Mechanical properties :
#
#
# Convention : Reuss Voigt Hill
#
# Bulk Modulus (GPa) = 49.25985 52.76633 51.01309
# Shear Modulus (GPa) = 22.59097 15.49111 19.04104
#
# Velocity S-wave (km/s) = 3.28599 2.72107 3.01678
# Velocity P-wave (km/s) = 6.15967 5.92392 6.04295
#
# Compressibility (1/GPa) = 0.02030051
#
# Stress axis : x y z
#
# Youngs Moduli (GPa) = 34.41646 152.60434 36.45333
#
# Poissons Ratio (x) = 0.35089 0.68180
# Poissons Ratio (y) = 0.07914 0.01340
# Poissons Ratio (z) = 0.64371 0.05609
#
# Static dielectric constant tensor:
#      x y z
#    x 1.711440 0.000000 0.000000 
#    y 0.000000 1.879950 0.000000 
#    z 0.000000 0.000000 1.751820 
# 
# From -- ./inp_files/4469.got.cif
#   From: 2010.05.17/outbox.cif.g08.bks.cpg/sg31_3_cif.got.tgz:4469.got - 2010.06.03 17:08:30.
