data_PCOD9343030
_publ_section_title
;
Structure prediction by ZEFSAII (Michael W. Deem and Ramdas Pophale) SiO2 
 PCOD9343030
Probable space group: P M N 21
;
_chemical_formula_sum "Si O2"
_cell_formula_units_Z 32
_cell_length_a 8.632813
_cell_length_b 15.702267
_cell_length_c 12.334835
_cell_angle_alpha 90.000000
_cell_angle_beta 90.000000
_cell_angle_gamma 90.000000
_cell_volume 1672.045286
_symmetry_space_group_name_H-M "P M N 21"
_symmetry_group_IT_number 31
_symmetry_cell_setting 'orthorhombic'
loop_
_space_group_symop_operation_xyz
x,y,z
1/2-x,-y,1/2+z
-x,y,z
1/2+x,-y,1/2+z
loop_
_atom_site_type_symbol
_atom_site_label
_atom_site_fract_x
_atom_site_fract_y
_atom_site_fract_z
Si Si1 0.686166 0.754635 0.391840
Si Si2 0.179327 0.651961 0.780523
Si Si3 0.689523 0.414384 0.508431
Si Si4 0.685730 0.250313 0.648166
Si Si5 0.185433 0.394623 0.052124
Si Si6 0.820875 0.851833 0.792910
Si Si7 0.182824 0.092731 0.511527
Si Si8 0.812656 0.898752 0.549345
O O1 0.500000 0.754009 0.388452
O O2 0.749289 0.753559 0.269839
O O3 0.741215 0.671592 0.460357
O O4 0.741095 0.837436 0.458780
O O5 0.239542 0.601962 0.884838
O O6 0.270221 0.638678 0.670284
O O7 0.181424 0.750950 0.811935
O O8 0.000000 0.627863 0.760815
O O9 0.500000 0.412496 0.508380
O O10 0.738970 0.336538 0.585830
O O11 0.742107 0.508309 0.541935
O O12 0.500000 0.252193 0.652529
O O13 0.736139 0.167334 0.579886
O O14 0.000000 0.397143 0.042294
O O15 0.718947 0.894296 0.884942
O O16 0.770234 0.867797 0.669893
O O17 0.000000 0.881133 0.803390
O O18 0.000000 0.098880 0.532230
O O19 0.234453 0.997204 0.540091
O O20 0.000000 0.893601 0.539593
#
# Coordination Sequence:
#
# PCOD9343030 Si02
#       8
#     4   4   4   4   4   4   4   4
#     4  11  24  40  60  89 124 158 197 251 303 346
#     4  10  19  37  64  86 111 152 201 245 289 349
#     4   9  20  39  60  85 119 158 197 240 293 357
#     4  11  23  42  64  85 119 165 203 239 296 362
#     4  10  22  39  59  87 122 155 193 246 301 347
#     4  10  20  39  64  86 115 157 202 244 293 355
#     4  11  24  40  61  92 123 153 198 252 300 348
#     4  10  23  42  62  88 121 160 201 241 293 360
#
# _framework density 19.138235999999999
#
# number of rings (size 3 to 8) (size 9 to 14) (size 15 to 20)
#    0.000    1.750    2.500    1.125    3.500    2.500 
#    0.000    1.250    0.000    0.000    0.000    0.000 
#    0.000    0.000    0.000    0.000    0.000    0.000 
#
# Total GULP energy -178683.262978 kJ/mol
# GULP energy per Si atom -5583.851968 kJ/mol
# Density = 1.909468 g / cm^3
# Si number density = 19.138236 Si / 1000 Ang^3
#
#
#
# Elastic Constant Matrix: (Units=GPa)
#
#
# Indices 1 2 3 4 5 6 
#
# 1 21.5631 27.8528 18.0864 0.0000 0.0000 0.0000
# 2 27.8528 114.0959 39.0429 0.0000 0.0000 0.0000
# 3 18.0864 39.0429 103.8892 0.0000 0.0000 0.0000
# 4 0.0000 0.0000 0.0000 27.9689 0.0000 0.0000
# 5 0.0000 0.0000 0.0000 0.0000 27.5778 0.0000
# 6 0.0000 0.0000 0.0000 0.0000 0.0000 11.7317
#
#
#
# Elastic Compliance Matrix: (Units=1/GPa)
#
#
# Indices 1 2 3 4 5 6 
#
# 1 0.071658 -0.015176 -0.006772 0.000000 0.000000 0.000000
# 2 -0.015176 0.013272 -0.002346 0.000000 0.000000 0.000000
# 3 -0.006772 -0.002346 0.011686 0.000000 0.000000 0.000000
# 4 0.000000 0.000000 0.000000 0.035754 0.000000 0.000000
# 5 0.000000 0.000000 0.000000 0.000000 0.036261 0.000000
# 6 0.000000 0.000000 0.000000 0.000000 0.000000 0.085239
#
#
# Mechanical properties :
#
#
# Convention : Reuss Voigt Hill
#
# Bulk Modulus (GPa) = 20.82070 45.50138 33.16104
# Shear Modulus (GPa) = 15.70026 23.76010 19.73018
#
# Velocity S-wave (km/s) = 2.86730 3.52731 3.21429
# Velocity P-wave (km/s) = 4.67596 6.35736 5.58035
#
# Compressibility (1/GPa) = 0.04802912
#
# Stress axis : x y z
#
# Youngs Moduli (GPa) = 13.95524 75.34710 85.57137
#
# Poissons Ratio (x) = 1.14344 0.57948
# Poissons Ratio (y) = 0.21178 0.20073
# Poissons Ratio (z) = 0.09450 0.17675
#
# Static dielectric constant tensor:
#      x y z
#    x 1.664270 0.000000 0.000000 
#    y 0.000000 1.664490 0.000000 
#    z 0.000000 0.000000 1.631290 
# 
# From -- ./inp_files/3606.got.cif
#   From: 2010.05.17/outbox.cif.g08.bks.cpg/sg31_2_cif.got.tgz:3606.got - 2010.06.03 17:08:30.
