data_PCOD9343210
_publ_section_title
;
Structure prediction by ZEFSAII (Michael W. Deem and Ramdas Pophale) SiO2 
 PCOD9343210
Probable space group: P M N 21
;
_chemical_formula_sum "Si O2"
_cell_formula_units_Z 32
_cell_length_a 18.702135
_cell_length_b 14.856123
_cell_length_c 5.138510
_cell_angle_alpha 90.000000
_cell_angle_beta 90.000000
_cell_angle_gamma 90.000000
_cell_volume 1427.689877
_symmetry_space_group_name_H-M "P M N 21"
_symmetry_group_IT_number 31
_symmetry_cell_setting 'orthorhombic'
loop_
_space_group_symop_operation_xyz
x,y,z
1/2-x,-y,1/2+z
-x,y,z
1/2+x,-y,1/2+z
loop_
_atom_site_type_symbol
_atom_site_label
_atom_site_fract_x
_atom_site_fract_y
_atom_site_fract_z
Si Si1 0.917222 0.546083 0.281750
Si Si2 0.690477 0.103647 0.009774
Si Si3 0.581510 0.573236 0.283257
Si Si4 0.651760 0.845730 0.503187
Si Si5 0.167276 0.716645 0.157559
Si Si6 0.575638 0.992020 0.783360
Si Si7 0.828061 0.270032 0.506763
Si Si8 0.076012 0.842235 0.903530
O O1 0.919066 0.505079 0.569043
O O2 0.858155 0.624372 0.283854
O O3 0.000000 0.573668 0.221899
O O4 0.898024 0.470464 0.061757
O O5 0.774628 0.098401 0.035260
O O6 0.647773 0.126037 0.267784
O O7 0.649322 0.012352 0.931312
O O8 0.678139 0.195514 0.841091
O O9 0.500000 0.608952 0.311615
O O10 0.630658 0.647777 0.144093
O O11 0.653092 0.810009 0.209863
O O12 0.588322 0.911751 0.582576
O O13 0.652803 0.764292 0.716420
O O14 0.243188 0.709027 0.013713
O O15 0.097658 0.743158 0.989116
O O16 0.500000 0.976709 0.927712
O O17 0.568459 0.086562 0.634018
O O18 0.000000 0.842627 0.756768
#
# Coordination Sequence:
#
# PCOD9343210 Si02
#       8
#     4   4   4   4   4   4   4   4
#     4  10  22  39  63  93 123 159 203 253 310 383
#     4  10  22  38  61  89 127 168 201 263 315 383
#     4  10  23  42  63  90 124 163 206 256 318 368
#     4  11  25  41  66  92 124 166 220 260 313 374
#     4  10  22  38  58  92 126 156 209 244 313 375
#     4  10  24  40  60  93 127 167 220 266 317 378
#     4  11  24  43  64  91 123 165 210 264 312 373
#     4  10  20  37  59  86 124 162 199 254 314 368
#
# _framework density 22.413830000000001
#
# number of rings (size 3 to 8) (size 9 to 14) (size 15 to 20)
#    0.000    1.750    1.250    1.500    5.250    3.500 
#    0.000    0.000    0.000    0.000    0.000    0.000 
#    0.000    0.000    0.000    0.000    0.000    0.000 
#
# Total GULP energy -178324.344767 kJ/mol
# GULP energy per Si atom -5572.635774 kJ/mol
# Density = 2.236282 g / cm^3
# Si number density = 22.413830 Si / 1000 Ang^3
#
#
#
# Elastic Constant Matrix: (Units=GPa)
#
#
# Indices 1 2 3 4 5 6 
#
# 1 72.1628 31.1553 -12.4179 0.0000 0.0000 0.0000
# 2 31.1553 50.7950 -12.8523 0.0000 0.0000 0.0000
# 3 -12.4179 -12.8523 49.4791 0.0000 0.0000 0.0000
# 4 0.0000 0.0000 0.0000 20.0832 0.0000 0.0000
# 5 0.0000 0.0000 0.0000 0.0000 24.6498 0.0000
# 6 0.0000 0.0000 0.0000 0.0000 0.0000 -18.9897
#
#
#
# Elastic Compliance Matrix: (Units=1/GPa)
#
#
# Indices 1 2 3 4 5 6 
#
# 1 0.019008 -0.011187 0.001865 0.000000 0.000000 0.000000
# 2 -0.011187 0.027656 0.004376 0.000000 0.000000 0.000000
# 3 0.001865 0.004376 0.021815 0.000000 0.000000 0.000000
# 4 0.000000 0.000000 0.000000 0.049793 0.000000 0.000000
# 5 0.000000 0.000000 0.000000 0.000000 0.040568 0.000000
# 6 0.000000 0.000000 0.000000 0.000000 0.000000 -0.052660
#
#
# Mechanical properties :
#
#
# Convention : Reuss Voigt Hill
#
# Bulk Modulus (GPa) = 17.06871 20.46746 18.76809
# Shear Modulus (GPa) = 36.87272 16.25212 26.56242
#
# Velocity S-wave (km/s) = 4.06037 2.69568 3.44625
# Velocity P-wave (km/s) = 5.44187 4.34055 4.92211
#
# Compressibility (1/GPa) = 0.05858674
#
# Stress axis : x y z
#
# Youngs Moduli (GPa) = 52.60866 36.15885 45.83957
#
# Poissons Ratio (x) = 0.40451 -0.08548
# Poissons Ratio (y) = 0.58853 -0.20059
# Poissons Ratio (z) = -0.09810 -0.15823
#
# Static dielectric constant tensor:
#      x y z
#    x 1.915490 0.000000 0.000000 
#    y 0.000000 1.853450 0.000000 
#    z 0.000000 0.000000 1.907050 
# 
# From -- ./inp_files/867.got.cif
#   From: 2010.05.17/outbox.cif.g08.bks.cpg/sg31_1_cif.got.tgz:867.got - 2010.06.03 17:08:30.
