data_PCOD9343833
_publ_section_title
;
Structure prediction by ZEFSAII (Michael W. Deem and Ramdas Pophale) SiO2 
 PCOD9343833
Probable space group: P B A 2
;
_chemical_formula_sum "Si O2"
_cell_formula_units_Z 22
_cell_length_a 25.080534
_cell_length_b 5.271451
_cell_length_c 7.275894
_cell_angle_alpha 90.000000
_cell_angle_beta 90.000000
_cell_angle_gamma 90.000000
_cell_volume 961.951810
_symmetry_space_group_name_H-M "P B A 2"
_symmetry_group_IT_number 32
_symmetry_cell_setting 'orthorhombic'
loop_
_space_group_symop_operation_xyz
x,y,z
-x,-y,z
1/2-x,1/2+y,z
1/2+x,1/2-y,z
loop_
_atom_site_type_symbol
_atom_site_label
_atom_site_fract_x
_atom_site_fract_y
_atom_site_fract_z
Si Si1 0.279856 0.221161 0.876190
Si Si2 0.127205 0.074323 0.869476
Si Si3 0.432285 0.373075 0.563383
Si Si4 0.835008 0.517863 0.578314
Si Si5 0.607442 0.220122 0.265685
Si Si6 0.000000 0.500000 0.381878
O O1 0.243452 0.454640 0.941080
O O2 0.338872 0.322819 0.920873
O O3 0.287911 0.159388 0.655940
O O4 0.160007 0.245215 0.720527
O O5 0.073702 0.014095 0.757090
O O6 0.118301 0.214834 0.057775
O O7 0.409551 0.541835 0.395350
O O8 0.389780 0.143047 0.591559
O O9 0.487126 0.240573 0.509153
O O10 0.840362 0.609590 0.369410
O O11 0.554174 0.046430 0.271394
#
# Coordination Sequence:
#
# PCOD9343833 Si02
#       6
#     4   4   4   4   4   2
#     4  11  21  39  67  96 135 170 220 269 329 401
#     4  10  21  40  66  92 130 175 211 273 339 387
#     4   9  20  38  60  86 123 170 209 271 326 388
#     4   9  20  39  64  88 122 167 204 265 327 385
#     4  10  21  40  62  91 124 169 219 271 331 392
#     4  10  20  38  58  84 128 164 220 274 318 398
#
# _framework density 22.870168
#
# number of rings (size 3 to 8) (size 9 to 14) (size 15 to 20)
#    0.000    2.182    1.818    0.545    0.000    5.818 
#    0.000   23.636    0.000    0.000    0.000    0.000 
#    0.000    0.000    0.000    0.000    0.000    0.000 
#
# Total GULP energy -122536.914959 kJ/mol
# GULP energy per Si atom -5569.859771 kJ/mol
# Density = 2.281811 g / cm^3
# Si number density = 22.870168 Si / 1000 Ang^3
#
#
#
# Elastic Constant Matrix: (Units=GPa)
#
#
# Indices 1 2 3 4 5 6 
#
# 1 55.4163 17.2463 21.9407 0.0000 0.0000 0.0000
# 2 17.2463 100.4267 27.7337 0.0000 0.0000 0.0000
# 3 21.9407 27.7337 144.1416 0.0000 0.0000 0.0000
# 4 0.0000 0.0000 0.0000 22.0319 0.0000 0.0000
# 5 0.0000 0.0000 0.0000 0.0000 13.5849 0.0000
# 6 0.0000 0.0000 0.0000 0.0000 0.0000 35.4322
#
#
#
# Elastic Compliance Matrix: (Units=1/GPa)
#
#
# Indices 1 2 3 4 5 6 
#
# 1 0.019884 -0.002724 -0.002503 0.000000 0.000000 0.000000
# 2 -0.002724 0.010889 -0.001681 0.000000 0.000000 0.000000
# 3 -0.002503 -0.001681 0.007642 0.000000 0.000000 0.000000
# 4 0.000000 0.000000 0.000000 0.045389 0.000000 0.000000
# 5 0.000000 0.000000 0.000000 0.000000 0.073611 0.000000
# 6 0.000000 0.000000 0.000000 0.000000 0.000000 0.028223
#
#
# Mechanical properties :
#
#
# Convention : Reuss Voigt Hill
#
# Bulk Modulus (GPa) = 40.64797 48.20289 44.42543
# Shear Modulus (GPa) = 24.07877 29.74739 26.91308
#
# Velocity S-wave (km/s) = 3.24828 3.61044 3.43414
# Velocity P-wave (km/s) = 5.64627 6.20507 5.93225
#
# Compressibility (1/GPa) = 0.02460148
#
# Stress axis : x y z
#
# Youngs Moduli (GPa) = 50.29256 91.83295 130.85723
#
# Poissons Ratio (x) = 0.25011 0.32748
# Poissons Ratio (y) = 0.13697 0.21992
# Poissons Ratio (z) = 0.12586 0.15434
#
# Static dielectric constant tensor:
#      x y z
#    x 1.963360 0.000000 0.000000 
#    y 0.000000 2.009530 0.000000 
#    z 0.000000 0.000000 1.831620 
# 
# From -- ./inp_files/229.got.cif
#   From: 2010.05.17/outbox.cif.g08.bks.cpg/sg32_1_cif.got.tgz:229.got - 2010.06.03 17:12:27.
