data_PCOD9343515
_publ_section_title
;
Structure prediction by ZEFSAII (Michael W. Deem and Ramdas Pophale) SiO2 
 PCOD9343515
Probable space group: P M N 21
;
_chemical_formula_sum "Si O2"
_cell_formula_units_Z 32
_cell_length_a 12.422189
_cell_length_b 13.162523
_cell_length_c 7.955450
_cell_angle_alpha 90.000000
_cell_angle_beta 90.000000
_cell_angle_gamma 90.000000
_cell_volume 1300.774535
_symmetry_space_group_name_H-M "P M N 21"
_symmetry_group_IT_number 31
_symmetry_cell_setting 'orthorhombic'
loop_
_space_group_symop_operation_xyz
x,y,z
1/2-x,-y,1/2+z
-x,y,z
1/2+x,-y,1/2+z
loop_
_atom_site_type_symbol
_atom_site_label
_atom_site_fract_x
_atom_site_fract_y
_atom_site_fract_z
Si Si1 0.882864 0.807199 0.859770
Si Si2 0.617136 0.307199 0.019711
Si Si3 0.873859 0.120592 0.045242
Si Si4 0.666065 0.807992 0.025808
Si Si5 0.694726 0.506449 0.155303
Si Si6 0.305274 0.993551 0.224178
Si Si7 0.873859 0.379408 0.334239
Si Si8 0.666065 0.692008 0.353673
O O1 0.848706 0.750000 0.689741
O O2 0.000000 0.770490 0.910869
O O3 0.884723 0.921993 0.795094
O O4 0.794867 0.800388 0.003333
O O5 0.500000 0.270490 0.968612
O O6 0.615277 0.421993 0.084387
O O7 0.705133 0.300388 0.876148
O O8 0.000000 0.090566 0.049426
O O9 0.803765 0.057374 0.182520
O O10 0.805602 0.085258 0.878854
O O11 0.875407 0.243684 0.012957
O O12 0.651170 0.927114 0.067401
O O13 0.624593 0.743684 0.866524
O O14 0.623664 0.750000 0.189741
O O15 0.803765 0.442626 0.196962
O O16 0.694398 0.585258 0.000627
O O17 0.651170 0.572886 0.312081
O O18 0.000000 0.409434 0.330055
#
# Coordination Sequence:
#
# PCOD9343515 Si02
#       8
#     4   4   4   4   4   4   4   4
#     4  11  22  39  65  94 129 175 221 277 334 381
#     4  11  22  39  65  94 129 175 221 277 334 381
#     4  11  24  44  68  96 136 178 221 281 337 390
#     4  10  23  41  65  94 133 170 220 278 321 403
#     4  11  22  40  68  95 134 174 224 274 328 401
#     4  11  22  40  68  95 134 174 224 274 328 401
#     4  11  24  44  68  96 136 178 221 281 337 390
#     4  10  23  41  65  94 133 170 220 278 321 403
#
# _framework density 24.600726000000002
#
# number of rings (size 3 to 8) (size 9 to 14) (size 15 to 20)
#    0.000    1.250    5.000    0.750    0.000    6.000 
#    0.000    8.750    0.000    0.000    0.000    0.000 
#    0.000    0.000    0.000    0.000    0.000    0.000 
#
# Total GULP energy -178179.851390 kJ/mol
# GULP energy per Si atom -5568.120356 kJ/mol
# Density = 2.454473 g / cm^3
# Si number density = 24.600726 Si / 1000 Ang^3
#
#
#
# Elastic Constant Matrix: (Units=GPa)
#
#
# Indices 1 2 3 4 5 6 
#
# 1 160.1946 15.2838 26.0425 0.0000 0.0000 0.0000
# 2 15.2838 97.4495 -8.7590 0.0000 0.0000 0.0000
# 3 26.0425 -8.7590 86.4167 0.0000 0.0000 0.0000
# 4 0.0000 0.0000 0.0000 23.7772 0.0000 0.0000
# 5 0.0000 0.0000 0.0000 0.0000 -35.6297 0.0000
# 6 0.0000 0.0000 0.0000 0.0000 0.0000 14.8957
#
#
#
# Elastic Compliance Matrix: (Units=1/GPa)
#
#
# Indices 1 2 3 4 5 6 
#
# 1 0.006711 -0.001246 -0.002149 0.000000 0.000000 0.000000
# 2 -0.001246 0.010587 0.001448 0.000000 0.000000 0.000000
# 3 -0.002149 0.001448 0.012366 0.000000 0.000000 0.000000
# 4 0.000000 0.000000 0.000000 0.042057 0.000000 0.000000
# 5 0.000000 0.000000 0.000000 0.000000 -0.028067 0.000000
# 6 0.000000 0.000000 0.000000 0.000000 0.000000 0.067133
#
#
# Mechanical properties :
#
#
# Convention : Reuss Voigt Hill
#
# Bulk Modulus (GPa) = 38.80084 45.46616 42.13350
# Shear Modulus (GPa) = 40.56139 21.37490 30.96814
#
# Velocity S-wave (km/s) = 4.06493 2.95086 3.55185
# Velocity P-wave (km/s) = 6.15126 5.48925 5.82966
#
# Compressibility (1/GPa) = 0.02577264
#
# Stress axis : x y z
#
# Youngs Moduli (GPa) = 149.01958 94.45305 80.86607
#
# Poissons Ratio (x) = 0.11765 0.17374
# Poissons Ratio (y) = 0.18562 -0.11713
# Poissons Ratio (z) = 0.32017 -0.13681
#
# Static dielectric constant tensor:
#      x y z
#    x 2.040920 0.000000 0.000000 
#    y 0.000000 2.226550 0.000000 
#    z 0.000000 0.000000 2.074430 
# 
# From -- ./inp_files/2247.got.cif
#   From: 2010.05.17/outbox.cif.g08.bks.cpg/sg31_2_cif.got.tgz:2247.got - 2010.06.03 17:08:30.
