data_PCOD9343150
_publ_section_title
;
Structure prediction by ZEFSAII (Michael W. Deem and Ramdas Pophale) SiO2 
 PCOD9343150
Probable space group: P M N 21
;
_chemical_formula_sum "Si O2"
_cell_formula_units_Z 32
_cell_length_a 15.557483
_cell_length_b 10.131410
_cell_length_c 8.656333
_cell_angle_alpha 90.000000
_cell_angle_beta 90.000000
_cell_angle_gamma 90.000000
_cell_volume 1364.404619
_symmetry_space_group_name_H-M "P M N 21"
_symmetry_group_IT_number 31
_symmetry_cell_setting 'orthorhombic'
loop_
_space_group_symop_operation_xyz
x,y,z
1/2-x,-y,1/2+z
-x,y,z
1/2+x,-y,1/2+z
loop_
_atom_site_type_symbol
_atom_site_label
_atom_site_fract_x
_atom_site_fract_y
_atom_site_fract_z
Si Si1 0.902581 0.352620 0.631830
Si Si2 0.649588 0.916743 0.654317
Si Si3 0.317733 0.016745 0.348377
Si Si4 0.095898 0.372705 0.266058
Si Si5 0.714612 0.420650 0.266858
Si Si6 0.094873 0.805757 0.636725
Si Si7 0.908289 0.820163 0.278176
Si Si8 0.233101 0.741583 0.067535
O O1 0.909010 0.395786 0.451397
O O2 0.849597 0.459751 0.731217
O O3 0.831307 0.237242 0.621025
O O4 0.000000 0.326540 0.684821
O O5 0.736150 0.972348 0.736249
O O6 0.615261 0.782656 0.730760
O O7 0.665041 0.900283 0.470112
O O8 0.588579 0.039547 0.692252
O O9 0.396070 0.066673 0.244879
O O10 0.297279 0.135371 0.467142
O O11 0.186291 0.437131 0.213825
O O12 0.000000 0.405255 0.203542
O O13 0.669154 0.297057 0.181272
O O14 0.723139 0.378311 0.446301
O O15 0.104011 0.844175 0.459049
O O16 0.000000 0.744916 0.659008
O O17 0.830969 0.735803 0.210289
O O18 0.000000 0.750914 0.256150
#
# Coordination Sequence:
#
# PCOD9343150 Si02
#       8
#     4   4   4   4   4   4   4   4
#     4  10  20  37  63  91 120 167 216 266 330 389
#     4  11  19  35  62  92 129 168 210 257 321 380
#     4  10  20  35  60  94 127 170 204 260 316 382
#     4  10  21  39  63  92 127 167 219 266 322 395
#     4  10  20  37  61  90 119 164 210 275 327 376
#     4  10  20  37  57  88 126 164 213 264 313 384
#     4  10  22  35  58  91 126 171 214 252 312 388
#     4   9  20  39  58  90 128 161 214 266 315 380
#
# _framework density 23.453451999999999
#
# number of rings (size 3 to 8) (size 9 to 14) (size 15 to 20)
#    0.000    2.000    3.750    1.500    0.000    7.500 
#    0.000    1.875    0.000    5.250    0.000    0.000 
#    0.000    0.000    0.000    0.000    0.000    0.000 
#
# Total GULP energy -178469.891888 kJ/mol
# GULP energy per Si atom -5577.184122 kJ/mol
# Density = 2.340007 g / cm^3
# Si number density = 23.453452 Si / 1000 Ang^3
#
#
#
# Elastic Constant Matrix: (Units=GPa)
#
#
# Indices 1 2 3 4 5 6 
#
# 1 216.7364 19.8969 58.7798 0.0000 0.0000 0.0000
# 2 19.8969 52.0685 15.3428 0.0000 0.0000 0.0000
# 3 58.7798 15.3428 99.2731 0.0000 0.0000 0.0000
# 4 0.0000 0.0000 0.0000 30.3607 0.0000 0.0000
# 5 0.0000 0.0000 0.0000 0.0000 29.1068 0.0000
# 6 0.0000 0.0000 0.0000 0.0000 0.0000 20.0516
#
#
#
# Elastic Compliance Matrix: (Units=1/GPa)
#
#
# Indices 1 2 3 4 5 6 
#
# 1 0.005569 -0.001212 -0.003110 0.000000 0.000000 0.000000
# 2 -0.001212 0.020385 -0.002433 0.000000 0.000000 0.000000
# 3 -0.003110 -0.002433 0.012291 0.000000 0.000000 0.000000
# 4 0.000000 0.000000 0.000000 0.032937 0.000000 0.000000
# 5 0.000000 0.000000 0.000000 0.000000 0.034356 0.000000
# 6 0.000000 0.000000 0.000000 0.000000 0.000000 0.049871
#
#
# Mechanical properties :
#
#
# Convention : Reuss Voigt Hill
#
# Bulk Modulus (GPa) = 40.42810 61.79079 51.10944
# Shear Modulus (GPa) = 28.22244 34.17437 31.19840
#
# Velocity S-wave (km/s) = 3.47268 3.82136 3.65118
# Velocity P-wave (km/s) = 5.77532 6.77301 6.29397
#
# Compressibility (1/GPa) = 0.02473527
#
# Stress axis : x y z
#
# Youngs Moduli (GPa) = 179.58035 49.05471 81.36257
#
# Poissons Ratio (x) = 0.05943 0.25303
# Poissons Ratio (y) = 0.21757 0.19797
# Poissons Ratio (z) = 0.55848 0.11936
#
# Static dielectric constant tensor:
#      x y z
#    x 1.962030 0.000000 0.000000 
#    y 0.000000 1.966670 0.000000 
#    z 0.000000 0.000000 1.880770 
# 
# From -- ./inp_files/2579.got.cif
#   From: 2010.05.17/outbox.cif.g08.bks.cpg/sg31_2_cif.got.tgz:2579.got - 2010.06.03 17:08:30.
