data_PCOD9343270
_publ_section_title
;
Structure prediction by ZEFSAII (Michael W. Deem and Ramdas Pophale) SiO2 
 PCOD9343270
Probable space group: P M N 21
;
_chemical_formula_sum "Si O2"
_cell_formula_units_Z 24
_cell_length_a 26.877421
_cell_length_b 5.158489
_cell_length_c 7.362370
_cell_angle_alpha 90.000000
_cell_angle_beta 90.000000
_cell_angle_gamma 90.000000
_cell_volume 1020.769634
_symmetry_space_group_name_H-M "P M N 21"
_symmetry_group_IT_number 31
_symmetry_cell_setting 'orthorhombic'
loop_
_space_group_symop_operation_xyz
x,y,z
1/2-x,-y,1/2+z
-x,y,z
1/2+x,-y,1/2+z
loop_
_atom_site_type_symbol
_atom_site_label
_atom_site_fract_x
_atom_site_fract_y
_atom_site_fract_z
Si Si1 0.500000 0.397356 0.484401
Si Si2 0.214883 0.295469 0.298997
Si Si3 0.899531 0.810860 0.095240
Si Si4 0.108561 0.090936 0.734516
Si Si5 0.161114 0.809621 0.435929
Si Si6 0.183045 0.451803 0.912536
Si Si7 0.000000 0.108458 0.739391
O O1 0.549290 0.343830 0.598109
O O2 0.500000 0.678134 0.397996
O O3 0.500000 0.185247 0.318930
O O4 0.203715 0.023518 0.396300
O O5 0.203244 0.280237 0.083239
O O6 0.270896 0.391849 0.329746
O O7 0.180944 0.525243 0.386013
O O8 0.855842 0.638006 0.011331
O O9 0.881076 0.892470 0.290443
O O10 0.904948 0.031188 0.944047
O O11 0.134654 0.856351 0.627663
O O12 0.054430 0.151352 0.647255
O O13 0.152442 0.297289 0.760665
#
# Coordination Sequence:
#
# PCOD9343270 Si02
#       7
#     2   4   4   4   4   4   2
#     4  10  20  39  70  91 131 169 220 267 333 393
#     4  11  26  42  63 100 128 175 226 267 331 402
#     4  10  23  43  65  96 131 172 218 273 331 394
#     4  11  23  42  70  91 137 171 217 277 331 390
#     4  11  26  42  64  99 133 167 225 269 329 400
#     4  11  23  41  68  90 136 173 220 276 333 392
#     4  10  22  39  66 103 121 173 224 263 331 401
#
# _framework density 23.511673999999999
#
# number of rings (size 3 to 8) (size 9 to 14) (size 15 to 20)
#    0.000    1.333    3.333    1.000    7.000    0.667 
#    0.000    0.000    0.000    6.000    0.000    0.000 
#    0.000    0.000    0.000    0.000    0.000    0.000 
#
# Total GULP energy -134141.389678 kJ/mol
# GULP energy per Si atom -5589.224570 kJ/mol
# Density = 2.345816 g / cm^3
# Si number density = 23.511674 Si / 1000 Ang^3
#
#
#
# Elastic Constant Matrix: (Units=GPa)
#
#
# Indices 1 2 3 4 5 6 
#
# 1 159.0481 11.3196 41.4253 0.0000 0.0000 0.0000
# 2 11.3196 73.4813 26.2780 0.0000 0.0000 0.0000
# 3 41.4253 26.2780 78.2884 0.0000 0.0000 0.0000
# 4 0.0000 0.0000 0.0000 24.7281 0.0000 0.0000
# 5 0.0000 0.0000 0.0000 0.0000 15.7901 0.0000
# 6 0.0000 0.0000 0.0000 0.0000 0.0000 58.2090
#
#
#
# Elastic Compliance Matrix: (Units=1/GPa)
#
#
# Indices 1 2 3 4 5 6 
#
# 1 0.007298 0.000292 -0.003960 0.000000 0.000000 0.000000
# 2 0.000292 0.015477 -0.005349 0.000000 0.000000 0.000000
# 3 -0.003960 -0.005349 0.016664 0.000000 0.000000 0.000000
# 4 0.000000 0.000000 0.000000 0.040440 0.000000 0.000000
# 5 0.000000 0.000000 0.000000 0.000000 0.063331 0.000000
# 6 0.000000 0.000000 0.000000 0.000000 0.000000 0.017179
#
#
# Mechanical properties :
#
#
# Convention : Reuss Voigt Hill
#
# Bulk Modulus (GPa) = 46.71883 52.09597 49.40740
# Shear Modulus (GPa) = 26.94576 35.19844 31.07210
#
# Velocity S-wave (km/s) = 3.38902 3.87339 3.63927
# Velocity P-wave (km/s) = 5.93528 6.49690 6.22243
#
# Compressibility (1/GPa) = 0.02140465
#
# Stress axis : x y z
#
# Youngs Moduli (GPa) = 137.02511 64.61215 60.00971
#
# Poissons Ratio (x) = -0.01885 0.23761
# Poissons Ratio (y) = -0.03998 0.32101
# Poissons Ratio (z) = 0.54256 0.34563
#
# Static dielectric constant tensor:
#      x y z
#    x 1.958120 0.000000 0.000000 
#    y 0.000000 1.905210 0.000000 
#    z 0.000000 0.000000 1.915840 
# 
# From -- ./inp_files/3061.got.cif
#   From: 2010.05.17/outbox.cif.g08.bks.cpg/sg31_2_cif.got.tgz:3061.got - 2010.06.03 17:08:30.
