data_PCOD9343416
_publ_section_title
;
Structure prediction by ZEFSAII (Michael W. Deem and Ramdas Pophale) SiO2 
 PCOD9343416
Probable space group: P M N 21
;
_chemical_formula_sum "Si O2"
_cell_formula_units_Z 32
_cell_length_a 30.006790
_cell_length_b 5.542564
_cell_length_c 7.646480
_cell_angle_alpha 90.000000
_cell_angle_beta 90.000000
_cell_angle_gamma 90.000000
_cell_volume 1271.720911
_symmetry_space_group_name_H-M "P M N 21"
_symmetry_group_IT_number 31
_symmetry_cell_setting 'orthorhombic'
loop_
_space_group_symop_operation_xyz
x,y,z
1/2-x,-y,1/2+z
-x,y,z
1/2+x,-y,1/2+z
loop_
_atom_site_type_symbol
_atom_site_label
_atom_site_fract_x
_atom_site_fract_y
_atom_site_fract_z
Si Si1 0.363288 0.274983 0.131970
Si Si2 0.905567 0.172824 0.970743
Si Si3 0.447509 0.306534 0.553587
Si Si4 0.383446 0.862452 0.851207
Si Si5 0.259326 0.171797 0.598292
Si Si6 0.180528 0.059120 0.854225
Si Si7 0.447547 0.468275 0.947359
Si Si8 0.300280 0.518371 0.880397
O O1 0.347449 0.186612 0.321076
O O2 0.410936 0.400369 0.095514
O O3 0.318808 0.396045 0.055636
O O4 0.369900 0.044121 0.002419
O O5 0.928368 0.431293 0.996755
O O6 0.886149 0.062315 0.151463
O O7 0.936003 0.935448 0.937534
O O8 0.861587 0.234245 0.857857
O O9 0.500000 0.328182 0.538660
O O10 0.439775 0.311236 0.768723
O O11 0.430625 0.736311 0.896497
O O12 0.344127 0.667328 0.835747
O O13 0.214735 0.099609 0.698606
O O14 0.287899 0.330530 0.731194
O O15 0.242324 0.322272 0.430797
O O16 0.288831 0.954288 0.524735
O O17 0.500000 0.457354 0.993125
#
# Coordination Sequence:
#
# PCOD9343416 Si02
#       8
#     4   4   4   4   4   4   4   4
#     4  11  21  45  66  98 138 181 232 297 359 434
#     4  11  24  41  71 104 143 191 241 302 362 433
#     4  10  21  42  72 108 143 188 242 296 359 445
#     4  10  21  40  66  96 137 179 234 293 361 424
#     4  12  27  45  69 102 139 188 241 310 358 455
#     4  12  28  44  71  99 145 184 245 296 382 423
#     4   9  20  37  67 103 135 180 234 289 351 437
#     4  11  25  42  70  96 136 179 243 297 367 427
#
# _framework density 25.162752000000001
#
# number of rings (size 3 to 8) (size 9 to 14) (size 15 to 20)
#    0.000    1.250    2.500    2.625    7.000    2.000 
#    0.000    1.250    0.000    0.000    0.000    0.000 
#    0.000    0.000    0.000    0.000    0.000    0.000 
#
# Total GULP energy -178585.232906 kJ/mol
# GULP energy per Si atom -5580.788528 kJ/mol
# Density = 2.510548 g / cm^3
# Si number density = 25.162752 Si / 1000 Ang^3
#
#
#
# Elastic Constant Matrix: (Units=GPa)
#
#
# Indices 1 2 3 4 5 6 
#
# 1 140.4131 23.0544 33.3694 0.0000 0.0000 0.0000
# 2 23.0544 50.9347 7.4975 0.0000 0.0000 0.0000
# 3 33.3694 7.4975 56.6566 0.0000 0.0000 0.0000
# 4 0.0000 0.0000 0.0000 32.9698 0.0000 0.0000
# 5 0.0000 0.0000 0.0000 0.0000 37.9257 0.0000
# 6 0.0000 0.0000 0.0000 0.0000 0.0000 21.0823
#
#
#
# Elastic Compliance Matrix: (Units=1/GPa)
#
#
# Indices 1 2 3 4 5 6 
#
# 1 0.008787 -0.003279 -0.004741 0.000000 0.000000 0.000000
# 2 -0.003279 0.021247 -0.000880 0.000000 0.000000 0.000000
# 3 -0.004741 -0.000880 0.020559 0.000000 0.000000 0.000000
# 4 0.000000 0.000000 0.000000 0.030331 0.000000 0.000000
# 5 0.000000 0.000000 0.000000 0.000000 0.026367 0.000000
# 6 0.000000 0.000000 0.000000 0.000000 0.000000 0.047433
#
#
# Mechanical properties :
#
#
# Convention : Reuss Voigt Hill
#
# Bulk Modulus (GPa) = 30.49590 41.76077 36.12833
# Shear Modulus (GPa) = 27.25437 30.66777 28.96107
#
# Velocity S-wave (km/s) = 3.29465 3.49489 3.39625
# Velocity P-wave (km/s) = 5.15934 5.73741 5.45604
#
# Compressibility (1/GPa) = 0.03279130
#
# Stress axis : x y z
#
# Youngs Moduli (GPa) = 113.80338 47.06581 48.63990
#
# Poissons Ratio (x) = 0.15434 0.23062
# Poissons Ratio (y) = 0.37320 0.04281
# Poissons Ratio (z) = 0.53959 0.04143
#
# Static dielectric constant tensor:
#      x y z
#    x 1.956160 0.000000 0.000000 
#    y 0.000000 2.164020 0.000000 
#    z 0.000000 0.000000 2.086200 
# 
# From -- ./inp_files/3209.got.cif
#   From: 2010.05.17/outbox.cif.g08.bks.cpg/sg31_2_cif.got.tgz:3209.got - 2010.06.03 17:08:30.
