data_PCOD9343052
_publ_section_title
;
Structure prediction by ZEFSAII (Michael W. Deem and Ramdas Pophale) SiO2 
 PCOD9343052
Probable space group: P M N 21
;
_chemical_formula_sum "Si O2"
_cell_formula_units_Z 24
_cell_length_a 7.521234
_cell_length_b 14.477687
_cell_length_c 7.850452
_cell_angle_alpha 90.000000
_cell_angle_beta 90.000000
_cell_angle_gamma 90.000000
_cell_volume 854.836281
_symmetry_space_group_name_H-M "P M N 21"
_symmetry_group_IT_number 31
_symmetry_cell_setting 'orthorhombic'
loop_
_space_group_symop_operation_xyz
x,y,z
1/2-x,-y,1/2+z
-x,y,z
1/2+x,-y,1/2+z
loop_
_atom_site_type_symbol
_atom_site_label
_atom_site_fract_x
_atom_site_fract_y
_atom_site_fract_z
Si Si1 0.789733 0.143448 0.300240
Si Si2 0.708104 0.648207 0.043685
Si Si3 0.712619 0.972000 0.482635
Si Si4 0.206401 0.180451 0.746808
Si Si5 0.790341 0.698413 0.574441
Si Si6 0.783311 0.527613 0.375300
O O1 0.740230 0.247921 0.251844
O O2 0.000000 0.141954 0.290132
O O3 0.745218 0.080956 0.463247
O O4 0.712123 0.080579 0.146531
O O5 0.500000 0.664859 0.003960
O O6 0.785034 0.745857 0.111299
O O7 0.714889 0.582643 0.212236
O O8 0.785597 0.575838 0.907291
O O9 0.500000 0.960379 0.481816
O O10 0.786781 0.914964 0.319393
O O11 0.000000 0.165639 0.699659
O O12 0.204692 0.239407 0.925114
O O13 0.730496 0.594649 0.533993
O O14 0.000000 0.700770 0.543968
O O15 0.000000 0.523512 0.367673
#
# Coordination Sequence:
#
# PCOD9343052 Si02
#       6
#     4   4   4   4   4   4
#     4  10  20  33  50  72  95 122 158 195 233 280
#     4   9  17  31  50  70  95 126 157 192 233 276
#     4   9  18  32  49  70  95 122 154 193 234 276
#     4   8  15  29  48  68  92 123 158 192 228 276
#     4   9  16  28  47  68  93 125 158 192 230 274
#     4   9  18  31  48  72  98 124 157 194 232 276
#
# _framework density 28.075548999999999
#
# number of rings (size 3 to 8) (size 9 to 14) (size 15 to 20)
#    0.000    3.000    0.000    2.000    0.000    4.667 
#    0.000    1.667    0.000    4.000    0.000    0.000 
#    0.000    0.000    0.000    0.000    0.000    0.000 
#
# Total GULP energy -134194.664705 kJ/mol
# GULP energy per Si atom -5591.444363 kJ/mol
# Density = 2.801165 g / cm^3
# Si number density = 28.075549 Si / 1000 Ang^3
#
#
#
# Elastic Constant Matrix: (Units=GPa)
#
#
# Indices 1 2 3 4 5 6 
#
# 1 108.8851 -2.0941 -11.0115 0.0000 0.0000 0.0000
# 2 -2.0941 228.6017 8.6907 0.0000 0.0000 0.0000
# 3 -11.0115 8.6907 91.7500 0.0000 0.0000 0.0000
# 4 0.0000 0.0000 0.0000 59.3699 0.0000 0.0000
# 5 0.0000 0.0000 0.0000 0.0000 -1.5996 0.0000
# 6 0.0000 0.0000 0.0000 0.0000 0.0000 18.9004
#
#
#
# Elastic Compliance Matrix: (Units=1/GPa)
#
#
# Indices 1 2 3 4 5 6 
#
# 1 0.009297 0.000043 0.001112 0.000000 0.000000 0.000000
# 2 0.000043 0.004390 -0.000411 0.000000 0.000000 0.000000
# 3 0.001112 -0.000411 0.011072 0.000000 0.000000 0.000000
# 4 0.000000 0.000000 0.000000 0.016844 0.000000 0.000000
# 5 0.000000 0.000000 0.000000 0.000000 -0.625142 0.000000
# 6 0.000000 0.000000 0.000000 0.000000 0.000000 0.052909
#
#
# Mechanical properties :
#
#
# Convention : Reuss Voigt Hill
#
# Bulk Modulus (GPa) = 38.09950 46.71190 42.40570
# Shear Modulus (GPa) = -9.55349 44.24424 17.34537
#
# Velocity S-wave (km/s) = -1.84666 3.97407 2.48828
# Velocity P-wave (km/s) = 3.00881 6.14261 4.83656
#
# Compressibility (1/GPa) = 0.02624706
#
# Stress axis : x y z
#
# Youngs Moduli (GPa) = 107.55873 227.76821 90.32190
#
# Poissons Ratio (x) = -0.00977 -0.10042
# Poissons Ratio (y) = -0.00461 0.03710
# Poissons Ratio (z) = -0.11958 0.09355
#
# Static dielectric constant tensor:
#      x y z
#    x 1.984110 0.000000 0.000000 
#    y 0.000000 2.200700 0.000000 
#    z 0.000000 0.000000 2.367530 
# 
# From -- ./inp_files/1672.got.cif
#   From: 2010.05.17/outbox.cif.g08.bks.cpg/sg31_1_cif.got.tgz:1672.got - 2010.06.03 17:08:30.
