data_PCOD9343251
_publ_section_title
;
Structure prediction by ZEFSAII (Michael W. Deem and Ramdas Pophale) SiO2 
 PCOD9343251
Probable space group: P M N 21
;
_chemical_formula_sum "Si O2"
_cell_formula_units_Z 32
_cell_length_a 7.875771
_cell_length_b 12.438097
_cell_length_c 15.618074
_cell_angle_alpha 90.000000
_cell_angle_beta 90.000000
_cell_angle_gamma 90.000000
_cell_volume 1529.940339
_symmetry_space_group_name_H-M "P M N 21"
_symmetry_group_IT_number 31
_symmetry_cell_setting 'orthorhombic'
loop_
_space_group_symop_operation_xyz
x,y,z
1/2-x,-y,1/2+z
-x,y,z
1/2+x,-y,1/2+z
loop_
_atom_site_type_symbol
_atom_site_label
_atom_site_fract_x
_atom_site_fract_y
_atom_site_fract_z
Si Si1 0.705777 0.997750 0.840560
Si Si2 0.207195 0.982028 0.536361
Si Si3 0.296691 0.552019 0.528567
Si Si4 0.298516 0.853603 0.179272
Si Si5 0.703528 0.396270 0.678571
Si Si6 0.302110 0.239225 0.125012
Si Si7 0.306495 0.758056 0.810505
Si Si8 0.794959 0.471613 0.344074
O O1 0.500000 0.997641 0.839050
O O2 0.769006 0.876417 0.821898
O O3 0.757127 0.080104 0.765865
O O4 0.762359 0.022018 0.937586
O O5 0.255413 0.872275 0.583696
O O6 0.000000 0.985887 0.534413
O O7 0.267781 0.080876 0.595829
O O8 0.500000 0.560118 0.535297
O O9 0.237290 0.456714 0.592449
O O10 0.218100 0.663153 0.560288
O O11 0.247890 0.529746 0.431592
O O12 0.500000 0.853022 0.171364
O O13 0.242949 0.729915 0.182296
O O14 0.500000 0.404916 0.679832
O O15 0.768032 0.462414 0.761419
O O16 0.500000 0.228502 0.149650
O O17 0.196116 0.264026 0.209423
O O18 0.500000 0.765747 0.843349
O O19 0.226483 0.650652 0.849235
O O20 0.000000 0.463666 0.335904
#
# Coordination Sequence:
#
# PCOD9343251 Si02
#       8
#     4   4   4   4   4   4   4   4
#     4  10  21  39  63  87 118 161 201 237 297 363
#     4   9  21  39  59  86 119 156 193 240 295 352
#     4  11  24  42  62  90 123 154 200 252 299 353
#     4  11  23  40  61  89 122 153 199 253 292 346
#     4  10  23  43  61  82 122 165 195 239 301 362
#     4  11  21  38  63  87 119 158 200 247 302 357
#     4  10  20  38  64  89 117 156 203 252 299 354
#     4  10  22  41  63  88 120 159 201 244 301 361
#
# _framework density 20.915848
#
# number of rings (size 3 to 8) (size 9 to 14) (size 15 to 20)
#    0.000    1.750    2.500    1.125    3.500    2.000 
#    0.000    1.875    0.000    0.000    0.000    0.000 
#    0.000    0.000    0.000    0.000    0.000    0.000 
#
# Total GULP energy -178702.172560 kJ/mol
# GULP energy per Si atom -5584.442892 kJ/mol
# Density = 2.086824 g / cm^3
# Si number density = 20.915848 Si / 1000 Ang^3
#
#
#
# Elastic Constant Matrix: (Units=GPa)
#
#
# Indices 1 2 3 4 5 6 
#
# 1 28.0930 1.0809 -7.1065 0.0000 0.0000 0.0000
# 2 1.0809 98.8793 -9.4603 0.0000 0.0000 0.0000
# 3 -7.1065 -9.4603 59.8226 0.0000 0.0000 0.0000
# 4 0.0000 0.0000 0.0000 32.9960 0.0000 0.0000
# 5 0.0000 0.0000 0.0000 0.0000 7.5750 0.0000
# 6 0.0000 0.0000 0.0000 0.0000 0.0000 16.3976
#
#
#
# Elastic Compliance Matrix: (Units=1/GPa)
#
#
# Indices 1 2 3 4 5 6 
#
# 1 0.036699 0.000016 0.004362 0.000000 0.000000 0.000000
# 2 0.000016 0.010269 0.001626 0.000000 0.000000 0.000000
# 3 0.004362 0.001626 0.017491 0.000000 0.000000 0.000000
# 4 0.000000 0.000000 0.000000 0.030307 0.000000 0.000000
# 5 0.000000 0.000000 0.000000 0.000000 0.132012 0.000000
# 6 0.000000 0.000000 0.000000 0.000000 0.000000 0.060985
#
#
# Mechanical properties :
#
#
# Convention : Reuss Voigt Hill
#
# Bulk Modulus (GPa) = 13.07752 17.31369 15.19561
# Shear Modulus (GPa) = 16.59787 24.87913 20.73850
#
# Velocity S-wave (km/s) = 2.82007 3.45264 3.15226
# Velocity P-wave (km/s) = 4.10728 4.91833 4.53099
#
# Compressibility (1/GPa) = 0.07646707
#
# Stress axis : x y z
#
# Youngs Moduli (GPa) = 27.24881 97.38318 57.17106
#
# Poissons Ratio (x) = -0.00157 -0.24939
# Poissons Ratio (y) = -0.00044 -0.09295
# Poissons Ratio (z) = -0.11886 -0.15833
#
# Static dielectric constant tensor:
#      x y z
#    x 1.773510 0.000000 0.000000 
#    y 0.000000 1.759330 0.000000 
#    z 0.000000 0.000000 1.726700 
# 
# From -- ./inp_files/4938.got.cif
#   From: 2010.05.17/outbox.cif.g08.bks.cpg/sg31_3_cif.got.tgz:4938.got - 2010.06.03 17:08:30.
