data_PCOD9343582
_publ_section_title
;
Structure prediction by ZEFSAII (Michael W. Deem and Ramdas Pophale) SiO2 
 PCOD9343582
Probable space group: P M N 21
;
_chemical_formula_sum "Si O2"
_cell_formula_units_Z 20
_cell_length_a 17.779794
_cell_length_b 5.191833
_cell_length_c 8.699546
_cell_angle_alpha 90.000000
_cell_angle_beta 90.000000
_cell_angle_gamma 90.000000
_cell_volume 803.052666
_symmetry_space_group_name_H-M "P M N 21"
_symmetry_group_IT_number 31
_symmetry_cell_setting 'orthorhombic'
loop_
_space_group_symop_operation_xyz
x,y,z
1/2-x,-y,1/2+z
-x,y,z
1/2+x,-y,1/2+z
loop_
_atom_site_type_symbol
_atom_site_label
_atom_site_fract_x
_atom_site_fract_y
_atom_site_fract_z
Si Si1 0.205019 0.994666 0.175390
Si Si2 0.500000 0.498891 0.668054
Si Si3 0.205019 0.505335 0.380403
Si Si4 0.628153 0.683609 0.448592
Si Si5 0.500000 0.001105 0.887737
Si Si6 0.371847 0.816391 0.107200
O O1 0.200862 0.250001 0.277896
O O2 0.149950 0.050509 0.034625
O O3 0.185474 0.750001 0.277897
O O4 0.290940 0.956118 0.122214
O O5 0.570804 0.529072 0.553955
O O6 0.500000 0.249997 0.777895
O O7 0.500000 0.749997 0.777897
O O8 0.290940 0.543883 0.433578
O O9 0.149951 0.449491 0.521168
O O10 0.600437 0.750001 0.277896
O O11 0.570804 0.970926 0.001837
#
# Coordination Sequence:
#
# PCOD9343582 Si02
#       6
#     4   2   4   4   2   4
#     4  11  25  45  76 117 154 191 242 308 379 443
#     4  12  31  52  73 104 153 206 247 302 375 444
#     4  11  25  45  76 117 154 191 242 308 379 443
#     4  11  25  48  78 113 148 194 252 311 366 440
#     4  12  31  52  73 104 153 206 247 302 375 444
#     4  11  25  48  78 113 148 194 252 311 366 440
#
# _framework density 24.904966999999999
#
# number of rings (size 3 to 8) (size 9 to 14) (size 15 to 20)
#    0.000    0.800    0.000    6.600    0.000   20.800 
#    0.000    3.000    0.000    0.000    0.000    0.000 
#    0.000    0.000    0.000    0.000    0.000    0.000 
#
# Total GULP energy -112291.396628 kJ/mol
# GULP energy per Si atom -5614.569831 kJ/mol
# Density = 2.484828 g / cm^3
# Si number density = 24.904967 Si / 1000 Ang^3
#
#
#
# Elastic Constant Matrix: (Units=GPa)
#
#
# Indices 1 2 3 4 5 6 
#
# 1 143.7866 57.4519 97.3637 0.0000 0.0000 0.0000
# 2 57.4519 208.9612 119.0279 0.0000 0.0000 0.0000
# 3 97.3637 119.0279 247.6168 0.0000 0.0000 0.0000
# 4 0.0000 0.0000 0.0000 39.4845 0.0000 0.0000
# 5 0.0000 0.0000 0.0000 0.0000 44.6879 0.0000
# 6 0.0000 0.0000 0.0000 0.0000 0.0000 25.1855
#
#
#
# Elastic Compliance Matrix: (Units=1/GPa)
#
#
# Indices 1 2 3 4 5 6 
#
# 1 0.009546 -0.000670 -0.003431 0.000000 0.000000 0.000000
# 2 -0.000670 0.006637 -0.002927 0.000000 0.000000 0.000000
# 3 -0.003431 -0.002927 0.006795 0.000000 0.000000 0.000000
# 4 0.000000 0.000000 0.000000 0.025326 0.000000 0.000000
# 5 0.000000 0.000000 0.000000 0.000000 0.022377 0.000000
# 6 0.000000 0.000000 0.000000 0.000000 0.000000 0.039705
#
#
# Mechanical properties :
#
#
# Convention : Reuss Voigt Hill
#
# Bulk Modulus (GPa) = 112.09494 127.56129 119.82811
# Shear Modulus (GPa) = 39.24113 43.63967 41.44040
#
# Velocity S-wave (km/s) = 3.97373 4.19053 4.08357
# Velocity P-wave (km/s) = 8.13393 8.64549 8.39361
#
# Compressibility (1/GPa) = 0.00892101
#
# Stress axis : x y z
#
# Youngs Moduli (GPa) = 104.75548 150.67020 147.17286
#
# Poissons Ratio (x) = 0.10094 0.50502
# Poissons Ratio (y) = 0.07018 0.43077
# Poissons Ratio (z) = 0.35947 0.44100
#
# Static dielectric constant tensor:
#      x y z
#    x 2.007730 0.000000 0.000000 
#    y 0.000000 1.948030 0.000000 
#    z 0.000000 0.000000 2.021740 
# 
# From -- ./inp_files/3109.got.cif
#   From: 2010.05.17/outbox.cif.g08.bks.cpg/sg31_2_cif.got.tgz:3109.got - 2010.06.03 17:08:30.
