data_PCOD9343316
_publ_section_title
;
Structure prediction by ZEFSAII (Michael W. Deem and Ramdas Pophale) SiO2 
 PCOD9343316
Probable space group: P M N 21
;
_chemical_formula_sum "Si O2"
_cell_formula_units_Z 24
_cell_length_a 13.747991
_cell_length_b 15.296917
_cell_length_c 5.507183
_cell_angle_alpha 90.000000
_cell_angle_beta 90.000000
_cell_angle_gamma 90.000000
_cell_volume 1158.170923
_symmetry_space_group_name_H-M "P M N 21"
_symmetry_group_IT_number 31
_symmetry_cell_setting 'orthorhombic'
loop_
_space_group_symop_operation_xyz
x,y,z
1/2-x,-y,1/2+z
-x,y,z
1/2+x,-y,1/2+z
loop_
_atom_site_type_symbol
_atom_site_label
_atom_site_fract_x
_atom_site_fract_y
_atom_site_fract_z
Si Si1 0.707609 0.537859 0.552270
Si Si2 0.894481 0.988628 0.405255
Si Si3 0.000000 0.542590 0.137499
Si Si4 0.302395 0.279546 0.946066
Si Si5 0.000000 0.655349 0.642886
Si Si6 0.889691 0.820954 0.052813
Si Si7 0.238179 0.109438 0.167555
O O1 0.735572 0.487503 0.301539
O O2 0.596614 0.515821 0.614536
O O3 0.736153 0.637104 0.489107
O O4 0.865080 0.071152 0.242452
O O5 0.000000 0.999399 0.524305
O O6 0.898106 0.899103 0.251763
O O7 0.802947 0.972519 0.578033
O O8 0.000000 0.591541 0.401269
O O9 0.000000 0.604492 0.897688
O O10 0.399225 0.290752 0.112252
O O11 0.240053 0.191551 0.987321
O O12 0.352119 0.266492 0.684098
O O13 0.000000 0.812827 0.957893
O O14 0.804498 0.852287 0.880620
#
# Coordination Sequence:
#
# PCOD9343316 Si02
#       7
#     4   4   2   4   2   4   4
#     4  12  25  45  70  99 135 180 224 276 345 411
#     4  10  21  40  61  89 122 168 219 258 330 404
#     4  12  24  46  72  98 132 184 224 278 342 420
#     4  11  25  38  62 101 129 165 221 280 337 399
#     4  12  24  42  72 104 132 170 230 284 350 400
#     4  10  21  36  63  92 121 160 210 275 329 384
#     4  11  22  39  62  92 131 168 215 278 333 396
#
# _framework density 20.722328999999998
#
# number of rings (size 3 to 8) (size 9 to 14) (size 15 to 20)
#    0.000    1.000    5.833    0.500    7.000    0.000 
#    1.500    0.000    1.833    0.000    0.000    0.000 
#    0.000    0.000    0.000    0.000    0.000    0.000 
#
# Total GULP energy -133896.001729 kJ/mol
# GULP energy per Si atom -5579.000072 kJ/mol
# Density = 2.067516 g / cm^3
# Si number density = 20.722329 Si / 1000 Ang^3
#
#
#
# Elastic Constant Matrix: (Units=GPa)
#
#
# Indices 1 2 3 4 5 6 
#
# 1 84.1652 42.5006 17.7148 0.0000 0.0000 0.0000
# 2 42.5006 99.3499 18.0678 0.0000 0.0000 0.0000
# 3 17.7148 18.0678 75.7706 0.0000 0.0000 0.0000
# 4 0.0000 0.0000 0.0000 38.8929 0.0000 0.0000
# 5 0.0000 0.0000 0.0000 0.0000 25.9773 0.0000
# 6 0.0000 0.0000 0.0000 0.0000 0.0000 14.3441
#
#
#
# Elastic Compliance Matrix: (Units=1/GPa)
#
#
# Indices 1 2 3 4 5 6 
#
# 1 0.015478 -0.006233 -0.002132 0.000000 0.000000 0.000000
# 2 -0.006233 0.013032 -0.001650 0.000000 0.000000 0.000000
# 3 -0.002132 -0.001650 0.014090 0.000000 0.000000 0.000000
# 4 0.000000 0.000000 0.000000 0.025712 0.000000 0.000000
# 5 0.000000 0.000000 0.000000 0.000000 0.038495 0.000000
# 6 0.000000 0.000000 0.000000 0.000000 0.000000 0.069715
#
#
# Mechanical properties :
#
#
# Convention : Reuss Voigt Hill
#
# Bulk Modulus (GPa) = 44.31073 46.20577 45.25825
# Shear Modulus (GPa) = 24.50065 27.90968 26.20516
#
# Velocity S-wave (km/s) = 3.44223 3.67391 3.55996
# Velocity P-wave (km/s) = 6.10149 6.35160 6.22780
#
# Compressibility (1/GPa) = 0.02256790
#
# Stress axis : x y z
#
# Youngs Moduli (GPa) = 64.60835 76.73337 70.97361
#
# Poissons Ratio (x) = 0.47831 0.15133
# Poissons Ratio (y) = 0.40273 0.11712
# Poissons Ratio (z) = 0.13776 0.12663
#
# Static dielectric constant tensor:
#      x y z
#    x 1.727560 0.000000 0.000000 
#    y 0.000000 1.764080 0.000000 
#    z 0.000000 0.000000 1.882230 
# 
# From -- ./inp_files/627.got.cif
#   From: 2010.05.17/outbox.cif.g08.bks.cpg/sg31_1_cif.got.tgz:627.got - 2010.06.03 17:08:30.
