data_PCOD9343238
_publ_section_title
;
Structure prediction by ZEFSAII (Michael W. Deem and Ramdas Pophale) SiO2 
 PCOD9343238
Probable space group: P M N 21
;
_chemical_formula_sum "Si O2"
_cell_formula_units_Z 32
_cell_length_a 7.514502
_cell_length_b 12.863611
_cell_length_c 14.686395
_cell_angle_alpha 90.000000
_cell_angle_beta 90.000000
_cell_angle_gamma 90.000000
_cell_volume 1419.640261
_symmetry_space_group_name_H-M "P M N 21"
_symmetry_group_IT_number 31
_symmetry_cell_setting 'orthorhombic'
loop_
_space_group_symop_operation_xyz
x,y,z
1/2-x,-y,1/2+z
-x,y,z
1/2+x,-y,1/2+z
loop_
_atom_site_type_symbol
_atom_site_label
_atom_site_fract_x
_atom_site_fract_y
_atom_site_fract_z
Si Si1 0.289037 0.415201 0.491640
Si Si2 0.217395 0.747383 0.138293
Si Si3 0.285258 0.380455 0.099286
Si Si4 0.789357 0.829483 0.510683
Si Si5 0.286489 0.091087 0.318557
Si Si6 0.717924 0.328460 0.295954
Si Si7 0.287073 0.139417 0.807505
Si Si8 0.713432 0.053528 0.525152
O O1 0.500000 0.394609 0.486827
O O2 0.217576 0.346147 0.575703
O O3 0.264651 0.532235 0.526069
O O4 0.221616 0.379189 0.392049
O O5 0.278047 0.770025 0.240550
O O6 0.000000 0.741091 0.140658
O O7 0.270909 0.852010 0.086503
O O8 0.500000 0.379737 0.102400
O O9 0.218546 0.269247 0.063431
O O10 0.225615 0.389991 0.204693
O O11 0.713981 0.845236 0.409108
O O12 0.000000 0.812239 0.501866
O O13 0.766208 0.939999 0.558627
O O14 0.500000 0.097091 0.318878
O O15 0.226744 0.206322 0.288221
O O16 0.221106 0.074251 0.422519
O O17 0.243564 0.979301 0.273880
O O18 0.500000 0.328782 0.297107
O O19 0.500000 0.148774 0.812028
O O20 0.500000 0.056258 0.521729
#
# Coordination Sequence:
#
# PCOD9343238 Si02
#       8
#     4   4   4   4   4   4   4   4
#     4  10  20  38  60  79 102 140 189 228 262 315
#     4   9  17  31  52  76 102 135 171 213 263 308
#     4  10  22  38  55  78 109 144 179 222 276 321
#     4   9  19  34  49  71 107 142 168 203 262 323
#     4   9  16  30  52  76 102 136 176 212 253 312
#     4   9  18  35  57  77 103 141 178 218 271 323
#     4   9  18  31  48  75 110 142 168 207 266 320
#     4   9  16  29  51  76 101 130 169 215 255 300
#
# _framework density 22.540918999999999
#
# number of rings (size 3 to 8) (size 9 to 14) (size 15 to 20)
#    0.000    2.750    1.250    0.000    1.750    1.500 
#    0.000    4.375    0.000    0.000    0.000    0.000 
#    0.000    0.000    0.000    0.000    0.000    0.000 
#
# Total GULP energy -178452.169890 kJ/mol
# GULP energy per Si atom -5576.630309 kJ/mol
# Density = 2.248961 g / cm^3
# Si number density = 22.540919 Si / 1000 Ang^3
#
#
#
# Elastic Constant Matrix: (Units=GPa)
#
#
# Indices 1 2 3 4 5 6 
#
# 1 56.5847 -7.8570 3.8326 0.0000 0.0000 0.0000
# 2 -7.8570 82.2307 20.1463 0.0000 0.0000 0.0000
# 3 3.8326 20.1463 71.0212 0.0000 0.0000 0.0000
# 4 0.0000 0.0000 0.0000 30.8725 0.0000 0.0000
# 5 0.0000 0.0000 0.0000 0.0000 3.5959 0.0000
# 6 0.0000 0.0000 0.0000 0.0000 0.0000 23.5064
#
#
#
# Elastic Compliance Matrix: (Units=1/GPa)
#
#
# Indices 1 2 3 4 5 6 
#
# 1 0.018073 0.002113 -0.001575 0.000000 0.000000 0.000000
# 2 0.002113 0.013316 -0.003891 0.000000 0.000000 0.000000
# 3 -0.001575 -0.003891 0.015269 0.000000 0.000000 0.000000
# 4 0.000000 0.000000 0.000000 0.032391 0.000000 0.000000
# 5 0.000000 0.000000 0.000000 0.000000 0.278097 0.000000
# 6 0.000000 0.000000 0.000000 0.000000 0.000000 0.042542
#
#
# Mechanical properties :
#
#
# Convention : Reuss Voigt Hill
#
# Bulk Modulus (GPa) = 25.03055 26.89785 25.96420
# Shear Modulus (GPa) = 11.91294 24.50926 18.21110
#
# Velocity S-wave (km/s) = 2.30141 3.30104 2.84546
# Velocity P-wave (km/s) = 4.26504 5.14664 4.72644
#
# Compressibility (1/GPa) = 0.03995118
#
# Stress axis : x y z
#
# Youngs Moduli (GPa) = 55.33240 75.09694 65.49174
#
# Poissons Ratio (x) = -0.15865 0.10312
# Poissons Ratio (y) = -0.11689 0.25485
# Poissons Ratio (z) = 0.08712 0.29223
#
# Static dielectric constant tensor:
#      x y z
#    x 1.850540 0.000000 0.000000 
#    y 0.000000 1.813780 0.000000 
#    z 0.000000 0.000000 1.869650 
# 
# From -- ./inp_files/5009.got.cif
#   From: 2010.05.17/outbox.cif.g08.bks.cpg/sg31_3_cif.got.tgz:5009.got - 2010.06.03 17:08:30.
