data_PCOD9343236
_publ_section_title
;
Structure prediction by ZEFSAII (Michael W. Deem and Ramdas Pophale) SiO2 
 PCOD9343236
Probable space group: P M N 21
;
_chemical_formula_sum "Si O2"
_cell_formula_units_Z 16
_cell_length_a 8.785941
_cell_length_b 7.132485
_cell_length_c 11.714246
_cell_angle_alpha 90.000000
_cell_angle_beta 90.000000
_cell_angle_gamma 90.000000
_cell_volume 734.080165
_symmetry_space_group_name_H-M "P M N 21"
_symmetry_group_IT_number 31
_symmetry_cell_setting 'orthorhombic'
loop_
_space_group_symop_operation_xyz
x,y,z
1/2-x,-y,1/2+z
-x,y,z
1/2+x,-y,1/2+z
loop_
_atom_site_type_symbol
_atom_site_label
_atom_site_fract_x
_atom_site_fract_y
_atom_site_fract_z
Si Si1 0.321739 0.658537 0.541000
Si Si2 0.824549 0.742258 0.315307
Si Si3 0.320926 0.079561 0.230605
Si Si4 0.176180 0.348941 0.401101
O O1 0.500000 0.646833 0.565687
O O2 0.289324 0.767248 0.421866
O O3 0.231792 0.776272 0.633960
O O4 0.250943 0.454887 0.509026
O O5 0.821203 0.516730 0.304600
O O6 0.000000 0.787907 0.344415
O O7 0.766163 0.881961 0.219611
O O8 0.500000 0.053029 0.227479
O O9 0.266385 0.177025 0.348580
O O10 0.000000 0.302764 0.422683
#
# Coordination Sequence:
#
# PCOD9343236 Si02
#       4
#     4   4   4   4
#     4  10  20  38  59  84 117 148 188 236 280 334
#     4   9  20  39  59  83 116 147 188 238 280 333
#     4  12  22  36  61  86 115 154 188 228 286 338
#     4   9  20  39  59  83 116 147 188 238 280 333
#
# _framework density 21.795983
#
# number of rings (size 3 to 8) (size 9 to 14) (size 15 to 20)
#    1.500    0.500    0.000    5.250    0.000    0.000 
#    4.500    0.000    0.000    0.000    0.000    0.000 
#    0.000    0.000    0.000    0.000    0.000    0.000 
#
# Total GULP energy -89168.428672 kJ/mol
# GULP energy per Si atom -5573.026792 kJ/mol
# Density = 2.174637 g / cm^3
# Si number density = 21.795983 Si / 1000 Ang^3
#
#
#
# Elastic Constant Matrix: (Units=GPa)
#
#
# Indices 1 2 3 4 5 6 
#
# 1 123.7389 17.9047 -6.3558 0.0000 0.0000 0.0000
# 2 17.9047 65.9894 5.0860 0.0000 0.0000 0.0000
# 3 -6.3558 5.0860 13.2558 0.0000 0.0000 0.0000
# 4 0.0000 0.0000 0.0000 28.4968 0.0000 0.0000
# 5 0.0000 0.0000 0.0000 0.0000 28.0207 0.0000
# 6 0.0000 0.0000 0.0000 0.0000 0.0000 21.4162
#
#
#
# Elastic Compliance Matrix: (Units=1/GPa)
#
#
# Indices 1 2 3 4 5 6 
#
# 1 0.008754 -0.002781 0.005264 0.000000 0.000000 0.000000
# 2 -0.002781 0.016499 -0.007664 0.000000 0.000000 0.000000
# 3 0.005264 -0.007664 0.080903 0.000000 0.000000 0.000000
# 4 0.000000 0.000000 0.000000 0.035092 0.000000 0.000000
# 5 0.000000 0.000000 0.000000 0.000000 0.035688 0.000000
# 6 0.000000 0.000000 0.000000 0.000000 0.000000 0.046694
#
#
# Mechanical properties :
#
#
# Convention : Reuss Voigt Hill
#
# Bulk Modulus (GPa) = 10.43885 26.25044 18.34465
# Shear Modulus (GPa) = 18.80244 28.01000 23.40622
#
# Velocity S-wave (km/s) = 2.94029 3.58872 3.28056
# Velocity P-wave (km/s) = 4.04064 5.40756 4.77329
#
# Compressibility (1/GPa) = 0.09579600
#
# Stress axis : x y z
#
# Youngs Moduli (GPa) = 114.22891 60.60901 12.36045
#
# Poissons Ratio (x) = 0.16856 -0.06507
# Poissons Ratio (y) = 0.31768 0.09473
# Poissons Ratio (z) = -0.60136 0.46450
#
# Static dielectric constant tensor:
#      x y z
#    x 1.705550 0.000000 0.000000 
#    y 0.000000 1.807780 0.000000 
#    z 0.000000 0.000000 1.867280 
# 
# From -- ./inp_files/3286.got.cif
#   From: 2010.05.17/outbox.cif.g08.bks.cpg/sg31_2_cif.got.tgz:3286.got - 2010.06.03 17:08:30.
