data_PCOD9343717
_publ_section_title
;
Structure prediction by ZEFSAII (Michael W. Deem and Ramdas Pophale) SiO2 
 PCOD9343717
Probable space group: P B A 2
;
_chemical_formula_sum "Si O2"
_cell_formula_units_Z 32
_cell_length_a 12.150999
_cell_length_b 11.961503
_cell_length_c 9.421682
_cell_angle_alpha 90.000000
_cell_angle_beta 90.000000
_cell_angle_gamma 90.000000
_cell_volume 1369.386937
_symmetry_space_group_name_H-M "P B A 2"
_symmetry_group_IT_number 32
_symmetry_cell_setting 'orthorhombic'
loop_
_space_group_symop_operation_xyz
x,y,z
-x,-y,z
1/2-x,1/2+y,z
1/2+x,1/2-y,z
loop_
_atom_site_type_symbol
_atom_site_label
_atom_site_fract_x
_atom_site_fract_y
_atom_site_fract_z
Si Si1 0.397919 0.918174 0.369270
Si Si2 0.069851 0.159516 0.698498
Si Si3 0.643836 0.342784 0.128455
Si Si4 0.275713 0.085540 0.871336
Si Si5 0.607090 0.077407 0.685766
Si Si6 0.563220 0.708379 0.949555
Si Si7 0.798545 0.146379 0.210182
Si Si8 0.987387 0.838068 0.382161
O O1 0.346341 0.935910 0.526289
O O2 0.302431 0.932607 0.253742
O O3 0.447906 0.792085 0.369624
O O4 0.500000 0.000000 0.346686
O O5 0.189580 0.121471 0.749291
O O6 0.076438 0.294415 0.702840
O O7 0.038881 0.124649 0.540483
O O8 0.974913 0.135948 0.814188
O O9 0.736658 0.264911 0.194702
O O10 0.582347 0.399895 0.259476
O O11 0.704050 0.416619 0.012697
O O12 0.550320 0.272824 0.039826
O O13 0.369681 0.181035 0.899155
O O14 0.323489 0.969247 0.816445
O O15 0.500000 0.000000 0.684138
O O16 0.637215 0.641555 0.061887
O O17 0.886654 0.153916 0.336345
#
# Coordination Sequence:
#
# PCOD9343717 Si02
#       8
#     4   4   4   4   4   4   4   4
#     4   9  19  35  54  90 129 156 209 279 318 381
#     4  10  20  33  59  99 122 164 221 268 329 399
#     4   8  17  33  55  86 116 158 211 254 314 403
#     4  10  19  34  62  84 124 173 204 273 333 387
#     4  10  19  36  56  92 129 156 215 281 320 378
#     4   9  17  32  58  85 119 158 211 259 318 393
#     4   9  17  34  62  83 119 169 202 259 327 386
#     4   9  18  34  59  91 120 159 216 263 316 396
#
# _framework density 23.368120999999999
#
# number of rings (size 3 to 8) (size 9 to 14) (size 15 to 20)
#    0.000    2.750    1.250    0.000    0.000    3.000 
#    0.000    0.000   66.000    6.750    3.250    0.000 
#    0.000    0.000    0.000    0.000    0.000    0.000 
#
# Total GULP energy -178755.717520 kJ/mol
# GULP energy per Si atom -5586.116172 kJ/mol
# Density = 2.331493 g / cm^3
# Si number density = 23.368121 Si / 1000 Ang^3
#
#
#
# Elastic Constant Matrix: (Units=GPa)
#
#
# Indices 1 2 3 4 5 6 
#
# 1 117.1370 28.4959 77.1600 0.0000 0.0000 0.0000
# 2 28.4959 76.4124 22.4223 0.0000 0.0000 0.0000
# 3 77.1600 22.4223 176.2070 0.0000 0.0000 0.0000
# 4 0.0000 0.0000 0.0000 14.5276 0.0000 0.0000
# 5 0.0000 0.0000 0.0000 0.0000 30.6427 0.0000
# 6 0.0000 0.0000 0.0000 0.0000 0.0000 23.2897
#
#
#
# Elastic Compliance Matrix: (Units=1/GPa)
#
#
# Indices 1 2 3 4 5 6 
#
# 1 0.012722 -0.003230 -0.005160 0.000000 0.000000 0.000000
# 2 -0.003230 0.014415 -0.000420 0.000000 0.000000 0.000000
# 3 -0.005160 -0.000420 0.007988 0.000000 0.000000 0.000000
# 4 0.000000 0.000000 0.000000 0.068834 0.000000 0.000000
# 5 0.000000 0.000000 0.000000 0.000000 0.032634 0.000000
# 6 0.000000 0.000000 0.000000 0.000000 0.000000 0.042937
#
#
# Mechanical properties :
#
#
# Convention : Reuss Voigt Hill
#
# Bulk Modulus (GPa) = 57.12658 69.54585 63.33622
# Shear Modulus (GPa) = 24.63245 29.80389 27.21817
#
# Velocity S-wave (km/s) = 3.25022 3.57516 3.41656
# Velocity P-wave (km/s) = 6.21166 6.84602 6.53654
#
# Compressibility (1/GPa) = 0.01750499
#
# Stress axis : x y z
#
# Youngs Moduli (GPa) = 78.60679 69.37384 125.18861
#
# Poissons Ratio (x) = 0.22408 0.64593
# Poissons Ratio (y) = 0.25391 0.05256
# Poissons Ratio (z) = 0.40558 0.02912
#
# Static dielectric constant tensor:
#      x y z
#    x 1.869780 0.000000 0.000000 
#    y 0.000000 1.886160 0.000000 
#    z 0.000000 0.000000 1.919310 
# 
# From -- ./inp_files/2882.got.cif
#   From: 2010.05.17/outbox.cif.g08.bks.cpg/sg32_2_cif.got.tgz:2882.got - 2010.06.03 17:12:27.
