data_PCOD9343463
_publ_section_title
;
Structure prediction by ZEFSAII (Michael W. Deem and Ramdas Pophale) SiO2 
 PCOD9343463
Probable space group: P M N 21
;
_chemical_formula_sum "Si O2"
_cell_formula_units_Z 20
_cell_length_a 10.279726
_cell_length_b 10.072811
_cell_length_c 8.890751
_cell_angle_alpha 90.000000
_cell_angle_beta 90.000000
_cell_angle_gamma 90.000000
_cell_volume 920.599366
_symmetry_space_group_name_H-M "P M N 21"
_symmetry_group_IT_number 31
_symmetry_cell_setting 'orthorhombic'
loop_
_space_group_symop_operation_xyz
x,y,z
1/2-x,-y,1/2+z
-x,y,z
1/2+x,-y,1/2+z
loop_
_atom_site_type_symbol
_atom_site_label
_atom_site_fract_x
_atom_site_fract_y
_atom_site_fract_z
Si Si1 0.849428 0.897211 0.078550
Si Si2 0.848552 0.706023 0.814294
Si Si3 0.230209 0.331257 0.784769
Si Si4 0.145344 0.205805 0.079206
Si Si5 0.853689 0.465527 0.488761
O O1 0.773751 0.795381 0.185443
O O2 0.000000 0.888061 0.124902
O O3 0.814000 0.051492 0.079095
O O4 0.841860 0.843346 0.908289
O O5 0.754613 0.718652 0.672998
O O6 0.775904 0.606202 0.926220
O O7 0.000000 0.678149 0.782686
O O8 0.167232 0.437622 0.668017
O O9 0.342804 0.401641 0.885594
O O10 0.141095 0.269721 0.914633
O O11 0.000000 0.216147 0.145998
O O12 0.000000 0.412315 0.459339
#
# Coordination Sequence:
#
# PCOD9343463 Si02
#       5
#     4   4   4   4   4
#     4   9  20  39  61  89 123 163 211 264 321 378
#     4  10  22  40  62  90 126 166 211 263 319 378
#     4  11  23  39  63  93 128 165 210 263 319 378
#     4  11  22  38  62  91 126 166 211 262 317 380
#     4  11  24  42  64  91 125 166 211 258 314 380
#
# _framework density 21.724978
#
# number of rings (size 3 to 8) (size 9 to 14) (size 15 to 20)
#    0.000    1.600    0.000    4.200    0.000    5.600 
#    0.000    5.000    0.000    0.000    0.000    0.000 
#    0.000    0.000    0.000    0.000    0.000    0.000 
#
# Total GULP energy -111380.700939 kJ/mol
# GULP energy per Si atom -5569.035047 kJ/mol
# Density = 2.167553 g / cm^3
# Si number density = 21.724978 Si / 1000 Ang^3
#
#
#
# Elastic Constant Matrix: (Units=GPa)
#
#
# Indices 1 2 3 4 5 6 
#
# 1 127.5024 38.7092 56.8277 0.0000 0.0000 0.0000
# 2 38.7092 91.4707 40.5917 0.0000 0.0000 0.0000
# 3 56.8277 40.5917 137.0443 0.0000 0.0000 0.0000
# 4 0.0000 0.0000 0.0000 38.2224 0.0000 0.0000
# 5 0.0000 0.0000 0.0000 0.0000 24.4778 0.0000
# 6 0.0000 0.0000 0.0000 0.0000 0.0000 22.9649
#
#
#
# Elastic Compliance Matrix: (Units=1/GPa)
#
#
# Indices 1 2 3 4 5 6 
#
# 1 0.010213 -0.002812 -0.003402 0.000000 0.000000 0.000000
# 2 -0.002812 0.013361 -0.002791 0.000000 0.000000 0.000000
# 3 -0.003402 -0.002791 0.009534 0.000000 0.000000 0.000000
# 4 0.000000 0.000000 0.000000 0.026163 0.000000 0.000000
# 5 0.000000 0.000000 0.000000 0.000000 0.040853 0.000000
# 6 0.000000 0.000000 0.000000 0.000000 0.000000 0.043545
#
#
# Mechanical properties :
#
#
# Convention : Reuss Voigt Hill
#
# Bulk Modulus (GPa) = 66.23678 69.80831 68.02254
# Shear Modulus (GPa) = 29.99159 31.79228 30.89194
#
# Velocity S-wave (km/s) = 3.71955 3.82959 3.77497
# Velocity P-wave (km/s) = 7.00012 7.19422 7.09784
#
# Compressibility (1/GPa) = 0.01509735
#
# Stress axis : x y z
#
# Youngs Moduli (GPa) = 97.91364 74.84294 104.88336
#
# Poissons Ratio (x) = 0.21048 0.35682
# Poissons Ratio (y) = 0.27537 0.29277
# Poissons Ratio (z) = 0.33311 0.20891
#
# Static dielectric constant tensor:
#      x y z
#    x 1.739190 0.000000 0.000000 
#    y 0.000000 1.851010 0.000000 
#    z 0.000000 0.000000 1.825810 
# 
# From -- ./inp_files/1577.got.cif
#   From: 2010.05.17/outbox.cif.g08.bks.cpg/sg31_1_cif.got.tgz:1577.got - 2010.06.03 17:08:30.
