data_PCOD9343551
_publ_section_title
;
Structure prediction by ZEFSAII (Michael W. Deem and Ramdas Pophale) SiO2 
 PCOD9343551
Probable space group: P M N 21
;
_chemical_formula_sum "Si O2"
_cell_formula_units_Z 32
_cell_length_a 7.983598
_cell_length_b 12.821322
_cell_length_c 14.531798
_cell_angle_alpha 90.000000
_cell_angle_beta 90.000000
_cell_angle_gamma 90.000000
_cell_volume 1487.478922
_symmetry_space_group_name_H-M "P M N 21"
_symmetry_group_IT_number 31
_symmetry_cell_setting 'orthorhombic'
loop_
_space_group_symop_operation_xyz
x,y,z
1/2-x,-y,1/2+z
-x,y,z
1/2+x,-y,1/2+z
loop_
_atom_site_type_symbol
_atom_site_label
_atom_site_fract_x
_atom_site_fract_y
_atom_site_fract_z
Si Si1 0.195186 0.409459 0.241020
Si Si2 0.294436 0.361620 0.750491
Si Si3 0.203941 0.662496 0.039722
Si Si4 0.691550 0.236907 0.918821
Si Si5 0.803331 0.435683 0.019359
Si Si6 0.196313 0.827014 0.755322
Si Si7 0.308395 0.926260 0.562865
Si Si8 0.293365 0.120863 0.451462
O O1 0.263978 0.520981 0.276796
O O2 0.204501 0.422211 0.129881
O O3 0.271156 0.297296 0.264107
O O4 0.000000 0.403612 0.266288
O O5 0.500000 0.364576 0.753354
O O6 0.244152 0.337519 0.646344
O O7 0.240981 0.270757 0.819479
O O8 0.256562 0.552268 0.996978
O O9 0.000000 0.659712 0.039529
O O10 0.256828 0.765599 0.987914
O O11 0.500000 0.199708 0.911637
O O12 0.697156 0.346177 0.973037
O O13 0.792930 0.156125 0.979783
O O14 0.000000 0.423241 0.994027
O O15 0.247190 0.872484 0.656458
O O16 0.266187 0.885826 0.845642
O O17 0.000000 0.841196 0.759494
O O18 0.500000 0.950902 0.582197
O O19 0.230694 0.031739 0.520923
O O20 0.500000 0.116546 0.451639
#
# Coordination Sequence:
#
# PCOD9343551 Si02
#       8
#     4   4   4   4   4   4   4   4
#     4   9  17  33  54  80 114 151 186 222 275 345
#     4   8  17  31  51  81 117 153 186 227 278 335
#     4   8  15  33  56  80 111 146 186 231 282 340
#     4  11  21  33  53  84 118 150 189 239 285 324
#     4   9  17  30  54  81 110 147 187 225 276 345
#     4  11  22  37  58  87 115 141 183 244 293 330
#     4  11  23  41  60  80 112 157 200 234 278 343
#     4   9  21  38  58  83 111 147 193 240 285 336
#
# _framework density 21.512910000000002
#
# number of rings (size 3 to 8) (size 9 to 14) (size 15 to 20)
#    0.000    2.500    1.250    2.625    1.750    1.000 
#    0.000    4.375    0.000    3.000    0.000    0.000 
#    0.000    0.000    0.000    0.000    0.000    0.000 
#
# Total GULP energy -178517.694257 kJ/mol
# GULP energy per Si atom -5578.677946 kJ/mol
# Density = 2.146395 g / cm^3
# Si number density = 21.512910 Si / 1000 Ang^3
#
#
#
# Elastic Constant Matrix: (Units=GPa)
#
#
# Indices 1 2 3 4 5 6 
#
# 1 14.4808 -6.2627 2.5329 0.0000 0.0000 0.0000
# 2 -6.2627 87.8447 23.0198 0.0000 0.0000 0.0000
# 3 2.5329 23.0198 68.7673 0.0000 0.0000 0.0000
# 4 0.0000 0.0000 0.0000 20.0547 0.0000 0.0000
# 5 0.0000 0.0000 0.0000 0.0000 0.1149 0.0000
# 6 0.0000 0.0000 0.0000 0.0000 0.0000 -11.1237
#
#
#
# Elastic Compliance Matrix: (Units=1/GPa)
#
#
# Indices 1 2 3 4 5 6 
#
# 1 0.072692 0.006450 -0.004837 0.000000 0.000000 0.000000
# 2 0.006450 0.013051 -0.004606 0.000000 0.000000 0.000000
# 3 -0.004837 -0.004606 0.016262 0.000000 0.000000 0.000000
# 4 0.000000 0.000000 0.000000 0.049864 0.000000 0.000000
# 5 0.000000 0.000000 0.000000 0.000000 8.704006 0.000000
# 6 0.000000 0.000000 0.000000 0.000000 0.000000 -0.089898
#
#
# Mechanical properties :
#
#
# Convention : Reuss Voigt Hill
#
# Bulk Modulus (GPa) = 10.41462 23.29698 16.85580
# Shear Modulus (GPa) = 0.56793 11.92937 6.24865
#
# Velocity S-wave (km/s) = 0.51436 2.35738 1.70614
# Velocity P-wave (km/s) = 2.28131 4.27346 3.42541
#
# Compressibility (1/GPa) = 0.09601890
#
# Stress axis : x y z
#
# Youngs Moduli (GPa) = 13.75660 76.62466 61.49347
#
# Poissons Ratio (x) = -0.49422 0.29742
# Poissons Ratio (y) = -0.08873 0.28325
# Poissons Ratio (z) = 0.06654 0.35295
#
# Static dielectric constant tensor:
#      x y z
#    x 1.766510 0.000000 0.000000 
#    y 0.000000 1.785840 0.000000 
#    z 0.000000 0.000000 1.823760 
# 
# From -- ./inp_files/4949.got.cif
#   From: 2010.05.17/outbox.cif.g08.bks.cpg/sg31_3_cif.got.tgz:4949.got - 2010.06.03 17:08:30.
