data_PCOD9343368
_publ_section_title
;
Structure prediction by ZEFSAII (Michael W. Deem and Ramdas Pophale) SiO2 
 PCOD9343368
Probable space group: P M N 21
;
_chemical_formula_sum "Si O2"
_cell_formula_units_Z 24
_cell_length_a 7.904556
_cell_length_b 12.079881
_cell_length_c 12.351274
_cell_angle_alpha 90.000000
_cell_angle_beta 90.000000
_cell_angle_gamma 90.000000
_cell_volume 1179.374933
_symmetry_space_group_name_H-M "P M N 21"
_symmetry_group_IT_number 31
_symmetry_cell_setting 'orthorhombic'
loop_
_space_group_symop_operation_xyz
x,y,z
1/2-x,-y,1/2+z
-x,y,z
1/2+x,-y,1/2+z
loop_
_atom_site_type_symbol
_atom_site_label
_atom_site_fract_x
_atom_site_fract_y
_atom_site_fract_z
Si Si1 0.301106 0.659236 0.500000
Si Si2 0.696756 0.176172 0.184270
Si Si3 0.793667 0.786128 0.926694
Si Si4 0.705387 0.419948 0.573124
Si Si5 0.697869 0.064808 0.622261
Si Si6 0.799998 0.268608 0.766936
O O1 0.500000 0.639371 0.479519
O O2 0.282753 0.750992 0.592080
O O3 0.232641 0.541792 0.542098
O O4 0.230975 0.702092 0.385559
O O5 0.500000 0.208243 0.184390
O O6 0.766406 0.198635 0.304611
O O7 0.712183 0.046827 0.157481
O O8 0.000000 0.790852 0.925913
O O9 0.746990 0.669363 0.980948
O O10 0.737581 0.882047 0.009698
O O11 0.500000 0.419928 0.581005
O O12 0.773059 0.371557 0.685853
O O13 0.500000 0.038407 0.609139
O O14 0.716620 0.162217 0.710509
O O15 0.000000 0.244249 0.774176
#
# Coordination Sequence:
#
# PCOD9343368 Si02
#       6
#     4   4   4   4   4   4
#     4  10  23  39  58  85 120 157 190 233 291 346
#     4  11  23  37  59  89 117 148 195 241 283 341
#     4   8  18  37  60  81 109 151 188 229 285 342
#     4   9  19  39  62  83 113 155 195 232 286 345
#     4  10  21  40  62  83 115 155 192 234 293 347
#     4  10  21  38  61  87 116 152 194 237 288 343
#
# _framework density 20.349764
#
# number of rings (size 3 to 8) (size 9 to 14) (size 15 to 20)
#    0.000    2.333    0.000    2.500    4.667    2.000 
#    0.000    7.500    0.000    0.000    0.000    0.000 
#    0.000    0.000    0.000    0.000    0.000    0.000 
#
# Total GULP energy -134014.648169 kJ/mol
# GULP energy per Si atom -5583.943674 kJ/mol
# Density = 2.030345 g / cm^3
# Si number density = 20.349764 Si / 1000 Ang^3
#
#
#
# Elastic Constant Matrix: (Units=GPa)
#
#
# Indices 1 2 3 4 5 6 
#
# 1 22.0707 -18.1829 -12.9286 0.0000 0.0000 0.0000
# 2 -18.1829 100.1354 70.8931 0.0000 0.0000 0.0000
# 3 -12.9286 70.8931 176.0928 0.0000 0.0000 0.0000
# 4 0.0000 0.0000 0.0000 13.3072 0.0000 0.0000
# 5 0.0000 0.0000 0.0000 0.0000 19.8607 0.0000
# 6 0.0000 0.0000 0.0000 0.0000 0.0000 25.7943
#
#
#
# Elastic Compliance Matrix: (Units=1/GPa)
#
#
# Indices 1 2 3 4 5 6 
#
# 1 0.053280 0.009658 0.000024 0.000000 0.000000 0.000000
# 2 0.009658 0.015718 -0.005619 0.000000 0.000000 0.000000
# 3 0.000024 -0.005619 0.007943 0.000000 0.000000 0.000000
# 4 0.000000 0.000000 0.000000 0.075147 0.000000 0.000000
# 5 0.000000 0.000000 0.000000 0.000000 0.050351 0.000000
# 6 0.000000 0.000000 0.000000 0.000000 0.000000 0.038768
#
#
# Mechanical properties :
#
#
# Convention : Reuss Voigt Hill
#
# Bulk Modulus (GPa) = 11.75561 41.98466 26.87013
# Shear Modulus (GPa) = 19.12510 29.02694 24.07602
#
# Velocity S-wave (km/s) = 3.06897 3.78087 3.44337
# Velocity P-wave (km/s) = 4.28339 6.30367 5.38905
#
# Compressibility (1/GPa) = 0.08506580
#
# Stress axis : x y z
#
# Youngs Moduli (GPa) = 18.76891 63.62035 125.90236
#
# Poissons Ratio (x) = -0.61445 -0.00296
# Poissons Ratio (y) = -0.18127 0.70743
# Poissons Ratio (z) = -0.00044 0.35748
#
# Static dielectric constant tensor:
#      x y z
#    x 1.733930 0.000000 0.000000 
#    y 0.000000 1.681400 0.000000 
#    z 0.000000 0.000000 1.713040 
# 
# From -- ./inp_files/3439.got.cif
#   From: 2010.05.17/outbox.cif.g08.bks.cpg/sg31_2_cif.got.tgz:3439.got - 2010.06.03 17:08:30.
