data_PCOD9343727
_publ_section_title
;
Structure prediction by ZEFSAII (Michael W. Deem and Ramdas Pophale) SiO2 
 PCOD9343727
Probable space group: P B A 2
;
_chemical_formula_sum "Si O2"
_cell_formula_units_Z 32
_cell_length_a 15.911514
_cell_length_b 5.394682
_cell_length_c 16.479086
_cell_angle_alpha 90.000000
_cell_angle_beta 90.000000
_cell_angle_gamma 90.000000
_cell_volume 1414.524503
_symmetry_space_group_name_H-M "P B A 2"
_symmetry_group_IT_number 32
_symmetry_cell_setting 'orthorhombic'
loop_
_space_group_symop_operation_xyz
x,y,z
-x,-y,z
1/2-x,1/2+y,z
1/2+x,1/2-y,z
loop_
_atom_site_type_symbol
_atom_site_label
_atom_site_fract_x
_atom_site_fract_y
_atom_site_fract_z
Si Si1 0.796227 0.326891 0.142040
Si Si2 0.526184 0.749757 0.806470
Si Si3 0.193055 0.780035 0.310293
Si Si4 0.055307 0.751796 0.451095
Si Si5 0.265139 0.705704 0.968954
Si Si6 0.205326 0.869705 0.771611
Si Si7 0.959170 0.752421 0.990939
Si Si8 0.802571 0.184207 0.580269
O O1 0.776933 0.617207 0.153571
O O2 0.849606 0.247091 0.219898
O O3 0.801459 0.296553 0.044234
O O4 0.500000 0.500000 0.762418
O O5 0.624763 0.730498 0.820611
O O6 0.479009 0.750472 0.894000
O O7 0.500000 0.000000 0.763466
O O8 0.259129 0.547076 0.316796
O O9 0.123074 0.748328 0.378140
O O10 0.111692 0.779546 0.531638
O O11 0.000000 0.500000 0.451488
O O12 0.000000 0.000000 0.442317
O O13 0.251361 0.454554 0.922417
O O14 0.359997 0.719346 0.999314
O O15 0.279628 0.665197 0.779710
O O16 0.181649 0.826048 0.676565
O O17 0.000000 0.500000 0.024174
O O18 0.000000 0.000000 0.026044
O O19 0.743728 0.423166 0.560192
#
# Coordination Sequence:
#
# PCOD9343727 Si02
#       8
#     4   4   4   4   4   4   4   4
#     4   8  16  30  55  80 100 134 188 230 266 319
#     4  10  21  38  56  80 116 151 181 225 294 346
#     4  10  19  36  60  79 109 153 192 228 276 335
#     4  12  24  36  55  88 121 148 186 235 286 337
#     4  10  19  35  60  84 107 142 194 237 268 333
#     4  10  21  38  61  85 110 146 198 241 270 327
#     4  10  21  38  55  81 117 148 178 228 295 345
#     4  10  21  39  60  83 112 152 195 234 277 330
#
# _framework density 22.622443000000001
#
# number of rings (size 3 to 8) (size 9 to 14) (size 15 to 20)
#    0.000    2.000    0.000    3.750    0.000    1.000 
#    0.000   15.000    0.000   40.500    0.000    0.000 
#    0.000    0.000    0.000    0.000    0.000    0.000 
#
# Total GULP energy -178383.540312 kJ/mol
# GULP energy per Si atom -5574.485635 kJ/mol
# Density = 2.257095 g / cm^3
# Si number density = 22.622443 Si / 1000 Ang^3
#
#
#
# Elastic Constant Matrix: (Units=GPa)
#
#
# Indices 1 2 3 4 5 6 
#
# 1 77.2270 62.1309 12.6220 0.0000 0.0000 0.0000
# 2 62.1309 232.7904 14.4873 0.0000 0.0000 0.0000
# 3 12.6220 14.4873 62.1352 0.0000 0.0000 0.0000
# 4 0.0000 0.0000 0.0000 24.1057 0.0000 0.0000
# 5 0.0000 0.0000 0.0000 0.0000 4.9787 0.0000
# 6 0.0000 0.0000 0.0000 0.0000 0.0000 42.4847
#
#
#
# Elastic Compliance Matrix: (Units=1/GPa)
#
#
# Indices 1 2 3 4 5 6 
#
# 1 0.016837 -0.004344 -0.002407 0.000000 0.000000 0.000000
# 2 -0.004344 0.005480 -0.000395 0.000000 0.000000 0.000000
# 3 -0.002407 -0.000395 0.016675 0.000000 0.000000 0.000000
# 4 0.000000 0.000000 0.000000 0.041484 0.000000 0.000000
# 5 0.000000 0.000000 0.000000 0.000000 0.200856 0.000000
# 6 0.000000 0.000000 0.000000 0.000000 0.000000 0.023538
#
#
# Mechanical properties :
#
#
# Convention : Reuss Voigt Hill
#
# Bulk Modulus (GPa) = 40.48786 61.18145 50.83465
# Shear Modulus (GPa) = 15.27204 33.17466 24.22335
#
# Velocity S-wave (km/s) = 2.60106 3.83358 3.27581
# Velocity P-wave (km/s) = 5.19199 6.83362 6.06857
#
# Compressibility (1/GPa) = 0.02469876
#
# Stress axis : x y z
#
# Youngs Moduli (GPa) = 59.39265 182.49218 59.96956
#
# Poissons Ratio (x) = 0.79274 0.14437
# Poissons Ratio (y) = 0.25800 0.02370
# Poissons Ratio (z) = 0.14298 0.07212
#
# Static dielectric constant tensor:
#      x y z
#    x 1.867500 0.000000 0.000000 
#    y 0.000000 1.920440 0.000000 
#    z 0.000000 0.000000 1.913670 
# 
# From -- ./inp_files/4221.got.cif
#   From: 2010.05.17/outbox.cif.g08.bks.cpg/sg32_3_cif.got.tgz:4221.got - 2010.06.03 17:12:27.
