data_PCOD9343355
_publ_section_title
;
Structure prediction by ZEFSAII (Michael W. Deem and Ramdas Pophale) SiO2 
 PCOD9343355
Probable space group: P M N 21
;
_chemical_formula_sum "Si O2"
_cell_formula_units_Z 24
_cell_length_a 8.451736
_cell_length_b 12.298964
_cell_length_c 12.286447
_cell_angle_alpha 90.000000
_cell_angle_beta 90.000000
_cell_angle_gamma 90.000000
_cell_volume 1277.146639
_symmetry_space_group_name_H-M "P M N 21"
_symmetry_group_IT_number 31
_symmetry_cell_setting 'orthorhombic'
loop_
_space_group_symop_operation_xyz
x,y,z
1/2-x,-y,1/2+z
-x,y,z
1/2+x,-y,1/2+z
loop_
_atom_site_type_symbol
_atom_site_label
_atom_site_fract_x
_atom_site_fract_y
_atom_site_fract_z
Si Si1 0.810194 0.916803 0.158860
Si Si2 0.689536 0.335334 0.279683
Si Si3 0.308548 0.784120 0.361219
Si Si4 0.691354 0.838309 0.605419
Si Si5 0.189710 0.282040 0.519325
Si Si6 0.307545 0.577495 0.223890
O O1 0.752714 0.872954 0.275557
O O2 0.745128 0.832465 0.069530
O O3 0.000000 0.913643 0.155703
O O4 0.757072 0.039556 0.135361
O O5 0.500000 0.336681 0.276866
O O6 0.750000 0.247799 0.193299
O O7 0.743802 0.304548 0.400586
O O8 0.748480 0.456368 0.248609
O O9 0.500000 0.787318 0.358797
O O10 0.255551 0.806500 0.483796
O O11 0.258815 0.666436 0.314186
O O12 0.500000 0.837266 0.605838
O O13 0.241464 0.373668 0.607132
O O14 0.000000 0.282432 0.515304
O O15 0.500000 0.575669 0.224217
#
# Coordination Sequence:
#
# PCOD9343355 Si02
#       6
#     4   4   4   4   4   4
#     4  10  21  38  59  88 117 147 195 240 283 341
#     4  11  23  37  58  89 119 149 193 242 284 336
#     4   9  19  39  62  82 113 156 193 232 289 344
#     4  10  23  39  58  86 118 154 192 234 286 344
#     4  10  21  40  62  84 116 156 192 232 292 347
#     4   8  18  37  59  83 113 150 191 234 284 342
#
# _framework density 18.791889999999999
#
# number of rings (size 3 to 8) (size 9 to 14) (size 15 to 20)
#    0.000    2.333    0.000    2.500    4.667    2.000 
#    0.000    7.500    0.000    0.000    0.000    0.000 
#    0.000    0.000    0.000    0.000    0.000    0.000 
#
# Total GULP energy -134002.907908 kJ/mol
# GULP energy per Si atom -5583.454496 kJ/mol
# Density = 1.874912 g / cm^3
# Si number density = 18.791890 Si / 1000 Ang^3
#
#
#
# Elastic Constant Matrix: (Units=GPa)
#
#
# Indices 1 2 3 4 5 6 
#
# 1 18.1154 28.7035 25.6096 0.0000 0.0000 0.0000
# 2 28.7035 197.4098 136.8272 0.0000 0.0000 0.0000
# 3 25.6096 136.8272 202.8619 0.0000 0.0000 0.0000
# 4 0.0000 0.0000 0.0000 13.1452 0.0000 0.0000
# 5 0.0000 0.0000 0.0000 0.0000 29.5813 0.0000
# 6 0.0000 0.0000 0.0000 0.0000 0.0000 23.6391
#
#
#
# Elastic Compliance Matrix: (Units=1/GPa)
#
#
# Indices 1 2 3 4 5 6 
#
# 1 0.073316 -0.007972 -0.003879 0.000000 0.000000 0.000000
# 2 -0.007972 0.010380 -0.005994 0.000000 0.000000 0.000000
# 3 -0.003879 -0.005994 0.009462 0.000000 0.000000 0.000000
# 4 0.000000 0.000000 0.000000 0.076074 0.000000 0.000000
# 5 0.000000 0.000000 0.000000 0.000000 0.033805 0.000000
# 6 0.000000 0.000000 0.000000 0.000000 0.000000 0.042303
#
#
# Mechanical properties :
#
#
# Convention : Reuss Voigt Hill
#
# Bulk Modulus (GPa) = 17.40100 88.96309 53.18204
# Shear Modulus (GPa) = 16.65637 28.42289 22.53963
#
# Velocity S-wave (km/s) = 2.98041 3.89332 3.46704
# Velocity P-wave (km/s) = 4.59606 8.22524 6.66252
#
# Compressibility (1/GPa) = 0.05746796
#
# Stress axis : x y z
#
# Youngs Moduli (GPa) = 13.63958 96.34322 105.68271
#
# Poissons Ratio (x) = 0.76803 0.40991
# Poissons Ratio (y) = 0.10873 0.63351
# Poissons Ratio (z) = 0.05290 0.57753
#
# Static dielectric constant tensor:
#      x y z
#    x 1.651400 0.000000 0.000000 
#    y 0.000000 1.639140 0.000000 
#    z 0.000000 0.000000 1.619340 
# 
# From -- ./inp_files/3437.got.cif
#   From: 2010.05.17/outbox.cif.g08.bks.cpg/sg31_2_cif.got.tgz:3437.got - 2010.06.03 17:08:30.
