data_PCOD9343649
_publ_section_title
;
Structure prediction by ZEFSAII (Michael W. Deem and Ramdas Pophale) SiO2 
 PCOD9343649
Probable space group: P B A 2
;
_chemical_formula_sum "Si O2"
_cell_formula_units_Z 32
_cell_length_a 12.746549
_cell_length_b 13.874890
_cell_length_c 9.999229
_cell_angle_alpha 90.000000
_cell_angle_beta 90.000000
_cell_angle_gamma 90.000000
_cell_volume 1768.433296
_symmetry_space_group_name_H-M "P B A 2"
_symmetry_group_IT_number 32
_symmetry_cell_setting 'orthorhombic'
loop_
_space_group_symop_operation_xyz
x,y,z
-x,-y,z
1/2-x,1/2+y,z
1/2+x,1/2-y,z
loop_
_atom_site_type_symbol
_atom_site_label
_atom_site_fract_x
_atom_site_fract_y
_atom_site_fract_z
Si Si1 0.373826 0.486061 0.010340
Si Si2 0.291105 0.318779 0.846227
Si Si3 0.846696 0.620032 0.604281
Si Si4 0.830959 0.215873 0.433637
Si Si5 0.984213 0.225012 0.672196
Si Si6 0.212775 0.576064 0.508284
Si Si7 0.318951 0.631976 0.785617
Si Si8 0.622522 0.523148 0.312002
O O1 0.500000 0.500000 0.997532
O O2 0.347277 0.510671 0.163054
O O3 0.330744 0.380732 0.970186
O O4 0.321474 0.552149 0.898091
O O5 0.232192 0.383423 0.732355
O O6 0.394356 0.270521 0.782523
O O7 0.211482 0.230711 0.861006
O O8 0.780532 0.685390 0.499472
O O9 0.861450 0.515045 0.540777
O O10 0.950749 0.677405 0.645449
O O11 0.923601 0.194856 0.539241
O O12 0.828726 0.331919 0.424971
O O13 0.854146 0.138274 0.319046
O O14 0.066649 0.146301 0.721687
O O15 0.247251 0.614483 0.654989
O O16 0.309273 0.529140 0.426221
O O17 0.500000 0.500000 0.331583
#
# Coordination Sequence:
#
# PCOD9343649 Si02
#       8
#     4   4   4   4   4   4   4   4
#     4  11  22  37  57  81 110 149 192 230 277 331
#     4  10  19  33  53  83 114 140 181 229 284 327
#     4   9  19  30  51  86 110 138 182 220 286 333
#     4  10  20  35  54  83 111 145 185 226 283 329
#     4  10  17  32  53  83 115 137 174 237 276 327
#     4  11  19  35  56  82 114 140 186 231 278 336
#     4  11  20  33  58  87 111 141 182 232 287 325
#     4  10  24  38  55  81 111 151 193 231 276 331
#
# _framework density 18.095113999999999
#
# number of rings (size 3 to 8) (size 9 to 14) (size 15 to 20)
#    0.000    1.750    6.250    0.750    0.000    2.000 
#    0.000    0.000    0.000    0.000    0.000    1.750 
#    0.000    0.000    0.000    0.000    0.000    0.000 
#
# Total GULP energy -178187.404305 kJ/mol
# GULP energy per Si atom -5568.356385 kJ/mol
# Density = 1.805393 g / cm^3
# Si number density = 18.095114 Si / 1000 Ang^3
#
#
#
# Elastic Constant Matrix: (Units=GPa)
#
#
# Indices 1 2 3 4 5 6 
#
# 1 33.2628 7.9511 0.2801 0.0000 0.0000 0.0000
# 2 7.9511 100.2024 28.0836 0.0000 0.0000 0.0000
# 3 0.2801 28.0836 56.8128 0.0000 0.0000 0.0000
# 4 0.0000 0.0000 0.0000 3.9492 0.0000 0.0000
# 5 0.0000 0.0000 0.0000 0.0000 11.5410 0.0000
# 6 0.0000 0.0000 0.0000 0.0000 0.0000 22.8694
#
#
#
# Elastic Compliance Matrix: (Units=1/GPa)
#
#
# Indices 1 2 3 4 5 6 
#
# 1 0.030718 -0.002780 0.001223 0.000000 0.000000 0.000000
# 2 -0.002780 0.011836 -0.005837 0.000000 0.000000 0.000000
# 3 0.001223 -0.005837 0.020481 0.000000 0.000000 0.000000
# 4 0.000000 0.000000 0.000000 0.253214 0.000000 0.000000
# 5 0.000000 0.000000 0.000000 0.000000 0.086648 0.000000
# 6 0.000000 0.000000 0.000000 0.000000 0.000000 0.043727
#
#
# Mechanical properties :
#
#
# Convention : Reuss Voigt Hill
#
# Bulk Modulus (GPa) = 20.72699 29.21193 24.96946
# Shear Modulus (GPa) = 10.47132 17.93614 14.20373
#
# Velocity S-wave (km/s) = 2.40819 3.15177 2.80473
# Velocity P-wave (km/s) = 4.38313 5.42434 4.93129
#
# Compressibility (1/GPa) = 0.04824626
#
# Stress axis : x y z
#
# Youngs Moduli (GPa) = 32.55434 84.48513 48.82550
#
# Poissons Ratio (x) = 0.23489 -0.05971
# Poissons Ratio (y) = 0.09051 0.28501
# Poissons Ratio (z) = -0.03981 0.49316
#
# Static dielectric constant tensor:
#      x y z
#    x 1.631050 0.000000 0.000000 
#    y 0.000000 1.684310 0.000000 
#    z 0.000000 0.000000 1.594610 
# 
# From -- ./inp_files/2872.got.cif
#   From: 2010.05.17/outbox.cif.g08.bks.cpg/sg32_2_cif.got.tgz:2872.got - 2010.06.03 17:12:27.
