data_PCOD9343281
_publ_section_title
;
Structure prediction by ZEFSAII (Michael W. Deem and Ramdas Pophale) SiO2 
 PCOD9343281
Probable space group: P M N 21
;
_chemical_formula_sum "Si O2"
_cell_formula_units_Z 32
_cell_length_a 8.692934
_cell_length_b 12.257939
_cell_length_c 15.487872
_cell_angle_alpha 90.000000
_cell_angle_beta 90.000000
_cell_angle_gamma 90.000000
_cell_volume 1650.348219
_symmetry_space_group_name_H-M "P M N 21"
_symmetry_group_IT_number 31
_symmetry_cell_setting 'orthorhombic'
loop_
_space_group_symop_operation_xyz
x,y,z
1/2-x,-y,1/2+z
-x,y,z
1/2+x,-y,1/2+z
loop_
_atom_site_type_symbol
_atom_site_label
_atom_site_fract_x
_atom_site_fract_y
_atom_site_fract_z
Si Si1 0.677062 0.242361 0.629630
Si Si2 0.683735 0.597570 0.530008
Si Si3 0.680084 0.530046 0.866735
Si Si4 0.680019 0.538259 0.187104
Si Si5 0.814979 0.013382 0.683250
Si Si6 0.186786 0.994592 0.882646
Si Si7 0.813835 0.146960 0.041836
Si Si8 0.821958 0.748380 0.925610
O O1 0.500000 0.243533 0.659348
O O2 0.773254 0.335874 0.675771
O O3 0.748282 0.123771 0.642819
O O4 0.677900 0.268665 0.528147
O O5 0.500000 0.590367 0.517728
O O6 0.764898 0.538738 0.449584
O O7 0.729402 0.533825 0.616883
O O8 0.726629 0.725390 0.536362
O O9 0.500000 0.513066 0.852078
O O10 0.774403 0.495914 0.782856
O O11 0.717095 0.656585 0.884203
O O12 0.500000 0.524036 0.171342
O O13 0.000000 0.013494 0.680603
O O14 0.765288 0.012879 0.783780
O O15 0.754107 0.912870 0.625951
O O16 0.230240 0.871562 0.908014
O O17 0.000000 0.998759 0.883913
O O18 0.237690 0.080875 0.955600
O O19 0.000000 0.139296 0.046464
O O20 0.000000 0.736862 0.895340
#
# Coordination Sequence:
#
# PCOD9343281 Si02
#       8
#     4   4   4   4   4   4   4   4
#     4  11  22  41  68  93 125 165 212 267 323 380
#     4  11  24  43  67  95 130 172 215 266 325 386
#     4  12  26  43  65  96 131 166 214 268 320 387
#     4  12  26  44  67  93 128 171 216 268 324 383
#     4  11  23  38  63  96 128 164 214 263 312 374
#     4   9  20  40  63  90 122 165 209 252 308 375
#     4  10  22  43  65  87 125 171 211 256 316 379
#     4  10  20  40  68  90 121 166 213 262 318 378
#
# _framework density 19.389848000000001
#
# number of rings (size 3 to 8) (size 9 to 14) (size 15 to 20)
#    0.000    1.250    2.500    3.375    3.500    1.500 
#    0.000    1.875    0.000    0.000    0.000    0.000 
#    0.000    0.000    0.000    0.000    0.000    0.000 
#
# Total GULP energy -178875.910447 kJ/mol
# GULP energy per Si atom -5589.872201 kJ/mol
# Density = 1.934572 g / cm^3
# Si number density = 19.389848 Si / 1000 Ang^3
#
#
#
# Elastic Constant Matrix: (Units=GPa)
#
#
# Indices 1 2 3 4 5 6 
#
# 1 35.8603 10.0165 -8.3551 0.0000 0.0000 0.0000
# 2 10.0165 74.9308 -14.6785 0.0000 0.0000 0.0000
# 3 -8.3551 -14.6785 45.8145 0.0000 0.0000 0.0000
# 4 0.0000 0.0000 0.0000 29.0901 0.0000 0.0000
# 5 0.0000 0.0000 0.0000 0.0000 25.9669 0.0000
# 6 0.0000 0.0000 0.0000 0.0000 0.0000 63.0306
#
#
#
# Elastic Compliance Matrix: (Units=1/GPa)
#
#
# Indices 1 2 3 4 5 6 
#
# 1 0.029789 -0.003113 0.004435 0.000000 0.000000 0.000000
# 2 -0.003113 0.014565 0.004099 0.000000 0.000000 0.000000
# 3 0.004435 0.004099 0.023949 0.000000 0.000000 0.000000
# 4 0.000000 0.000000 0.000000 0.034376 0.000000 0.000000
# 5 0.000000 0.000000 0.000000 0.000000 0.038511 0.000000
# 6 0.000000 0.000000 0.000000 0.000000 0.000000 0.015865
#
#
# Mechanical properties :
#
#
# Convention : Reuss Voigt Hill
#
# Bulk Modulus (GPa) = 12.63525 14.50794 13.57159
# Shear Modulus (GPa) = 28.96957 34.92571 31.94764
#
# Velocity S-wave (km/s) = 3.86950 4.24870 4.06353
# Velocity P-wave (km/s) = 5.14729 5.61846 5.38803
#
# Compressibility (1/GPa) = 0.07914365
#
# Stress axis : x y z
#
# Youngs Moduli (GPa) = 33.56955 68.65910 41.75515
#
# Poissons Ratio (x) = 0.21375 -0.18519
# Poissons Ratio (y) = 0.10451 -0.17114
# Poissons Ratio (z) = -0.14888 -0.28141
#
# Static dielectric constant tensor:
#      x y z
#    x 1.657680 0.000000 0.000000 
#    y 0.000000 1.657650 0.000000 
#    z 0.000000 0.000000 1.693470 
# 
# From -- ./inp_files/4954.got.cif
#   From: 2010.05.17/outbox.cif.g08.bks.cpg/sg31_3_cif.got.tgz:4954.got - 2010.06.03 17:08:30.
