data_PCOD9343067
_publ_section_title
;
Structure prediction by ZEFSAII (Michael W. Deem and Ramdas Pophale) SiO2 
 PCOD9343067
Probable space group: P M N 21
;
_chemical_formula_sum "Si O2"
_cell_formula_units_Z 24
_cell_length_a 14.737586
_cell_length_b 10.058730
_cell_length_c 7.036460
_cell_angle_alpha 90.000000
_cell_angle_beta 90.000000
_cell_angle_gamma 90.000000
_cell_volume 1043.094670
_symmetry_space_group_name_H-M "P M N 21"
_symmetry_group_IT_number 31
_symmetry_cell_setting 'orthorhombic'
loop_
_space_group_symop_operation_xyz
x,y,z
1/2-x,-y,1/2+z
-x,y,z
1/2+x,-y,1/2+z
loop_
_atom_site_type_symbol
_atom_site_label
_atom_site_fract_x
_atom_site_fract_y
_atom_site_fract_z
Si Si1 0.500000 0.152293 0.807251
Si Si2 0.802893 0.825141 0.825822
Si Si3 0.000000 0.756876 0.883908
Si Si4 0.000000 0.537043 0.420033
Si Si5 0.312520 0.660914 0.347569
Si Si6 0.186160 0.413167 0.407470
Si Si7 0.699667 0.094314 0.766798
Si Si8 0.500000 0.545404 0.370897
O O1 0.500000 0.158782 0.577164
O O2 0.500000 0.304750 0.883436
O O3 0.597601 0.084572 0.852233
O O4 0.736699 0.700933 0.790382
O O5 0.906674 0.789066 0.773040
O O6 0.756030 0.958850 0.753840
O O7 0.808971 0.847196 0.054353
O O8 0.000000 0.603511 0.954578
O O9 0.909849 0.468528 0.339508
O O10 0.000000 0.499439 0.645762
O O11 0.251454 0.539231 0.415186
O O12 0.260316 0.798134 0.379030
O O13 0.413001 0.633178 0.419763
O O14 0.323759 0.643909 0.119389
#
# Coordination Sequence:
#
# PCOD9343067 Si02
#       8
#     2   4   2   2   4   4   4   2
#     4  10  20  37  58  82 112 148 186 229 282 334
#     4  10  22  38  57  82 115 150 187 230 277 333
#     4  10  20  37  58  82 112 148 186 229 282 334
#     4  10  20  33  56  88 114 142 186 233 278 332
#     4  10  20  35  56  83 112 144 185 231 276 328
#     4  10  20  35  56  83 112 144 185 231 276 328
#     4  10  22  38  57  82 115 150 187 230 277 333
#     4  10  20  33  56  88 114 142 186 233 278 332
#
# _framework density 23.008459999999999
#
# number of rings (size 3 to 8) (size 9 to 14) (size 15 to 20)
#    0.000    2.000    3.333    0.000    0.000    4.000 
#    0.000    1.667    0.000    0.000    0.000    0.000 
#    0.000    0.000    0.000    0.000    0.000    0.000 
#
# Total GULP energy -134148.207973 kJ/mol
# GULP energy per Si atom -5589.508666 kJ/mol
# Density = 2.295609 g / cm^3
# Si number density = 23.008460 Si / 1000 Ang^3
#
#
#
# Elastic Constant Matrix: (Units=GPa)
#
#
# Indices 1 2 3 4 5 6 
#
# 1 262.6888 91.2834 -7.8309 0.0000 0.0000 0.0000
# 2 91.2834 134.5036 -15.6965 0.0000 0.0000 0.0000
# 3 -7.8309 -15.6965 54.5213 0.0000 0.0000 0.0000
# 4 0.0000 0.0000 0.0000 40.9641 0.0000 0.0000
# 5 0.0000 0.0000 0.0000 0.0000 8.9031 0.0000
# 6 0.0000 0.0000 0.0000 0.0000 0.0000 24.7243
#
#
#
# Elastic Compliance Matrix: (Units=1/GPa)
#
#
# Indices 1 2 3 4 5 6 
#
# 1 0.004985 -0.003415 -0.000267 0.000000 0.000000 0.000000
# 2 -0.003415 0.010032 0.002398 0.000000 0.000000 0.000000
# 3 -0.000267 0.002398 0.018993 0.000000 0.000000 0.000000
# 4 0.000000 0.000000 0.000000 0.024412 0.000000 0.000000
# 5 0.000000 0.000000 0.000000 0.000000 0.112321 0.000000
# 6 0.000000 0.000000 0.000000 0.000000 0.000000 0.040446
#
#
# Mechanical properties :
#
#
# Convention : Reuss Voigt Hill
#
# Bulk Modulus (GPa) = 31.80359 65.24732 48.52545
# Shear Modulus (GPa) = 22.29774 40.51547 31.40661
#
# Velocity S-wave (km/s) = 3.11643 4.20085 3.69860
# Velocity P-wave (km/s) = 5.17707 7.20757 6.27500
#
# Compressibility (1/GPa) = 0.03144299
#
# Stress axis : x y z
#
# Youngs Moduli (GPa) = 200.58650 99.68178 52.64987
#
# Poissons Ratio (x) = 0.34037 0.01406
# Poissons Ratio (y) = 0.68492 -0.12624
# Poissons Ratio (z) = 0.05356 -0.23901
#
# Static dielectric constant tensor:
#      x y z
#    x 1.839830 0.000000 0.000000 
#    y 0.000000 1.779030 0.000000 
#    z 0.000000 0.000000 1.958030 
# 
# From -- ./inp_files/2132.got.cif
#   From: 2010.05.17/outbox.cif.g08.bks.cpg/sg31_2_cif.got.tgz:2132.got - 2010.06.03 17:08:30.
