data_PCOD9343550
_publ_section_title
;
Structure prediction by ZEFSAII (Michael W. Deem and Ramdas Pophale) SiO2 
 PCOD9343550
Probable space group: P M N 21
;
_chemical_formula_sum "Si O2"
_cell_formula_units_Z 32
_cell_length_a 7.630363
_cell_length_b 10.870455
_cell_length_c 14.644957
_cell_angle_alpha 90.000000
_cell_angle_beta 90.000000
_cell_angle_gamma 90.000000
_cell_volume 1214.733539
_symmetry_space_group_name_H-M "P M N 21"
_symmetry_group_IT_number 31
_symmetry_cell_setting 'orthorhombic'
loop_
_space_group_symop_operation_xyz
x,y,z
1/2-x,-y,1/2+z
-x,y,z
1/2+x,-y,1/2+z
loop_
_atom_site_type_symbol
_atom_site_label
_atom_site_fract_x
_atom_site_fract_y
_atom_site_fract_z
Si Si1 0.294153 0.433368 0.775210
Si Si2 0.202690 0.951834 0.452405
Si Si3 0.714672 0.807834 0.062801
Si Si4 0.700616 0.688619 0.438231
Si Si5 0.787462 0.435898 0.108047
Si Si6 0.786998 0.340626 0.398143
Si Si7 0.799084 0.074903 0.743619
Si Si8 0.290370 0.810220 0.724482
O O1 0.500000 0.456926 0.765160
O O2 0.276636 0.313266 0.836453
O O3 0.219951 0.456006 0.674455
O O4 0.224167 0.538798 0.844321
O O5 0.290216 0.823920 0.480205
O O6 0.215841 0.952300 0.342118
O O7 0.000000 0.941349 0.476095
O O8 0.268938 0.072798 0.502990
O O9 0.500000 0.804973 0.065911
O O10 0.774623 0.693076 1.000000
O O11 0.775725 0.833040 0.166207
O O12 0.500000 0.657750 0.425881
O O13 0.786963 0.592129 0.508176
O O14 0.751707 0.310185 0.164367
O O15 0.000000 0.444805 0.097620
O O16 0.742977 0.230593 0.327774
O O17 0.000000 0.346069 0.401287
O O18 0.000000 0.111764 0.761790
O O19 0.795974 0.938492 0.697886
O O20 0.500000 0.828030 0.721077
#
# Coordination Sequence:
#
# PCOD9343550 Si02
#       8
#     4   4   4   4   4   4   4   4
#     4   9  18  36  61  83 105 144 195 232 272 338
#     4  11  22  39  60  81 112 154 194 225 268 340
#     4   9  18  33  55  82 111 145 182 226 276 331
#     4  11  22  38  57  83 119 148 180 236 294 327
#     4   8  17  34  59  85 109 144 189 236 281 328
#     4   8  14  30  56  78  98 133 182 228 265 318
#     4  11  21  32  50  82 119 147 177 226 285 329
#     4   9  15  30  56  78 101 141 189 225 265 327
#
# _framework density 26.343226999999999
#
# number of rings (size 3 to 8) (size 9 to 14) (size 15 to 20)
#    0.000    2.500    1.250    3.375    0.000    0.000 
#    2.250    6.250    0.000    0.000    0.000    0.000 
#    0.000    0.000    0.000    0.000    0.000    0.000 
#
# Total GULP energy -178825.611729 kJ/mol
# GULP energy per Si atom -5588.300367 kJ/mol
# Density = 2.628327 g / cm^3
# Si number density = 26.343227 Si / 1000 Ang^3
#
#
#
# Elastic Constant Matrix: (Units=GPa)
#
#
# Indices 1 2 3 4 5 6 
#
# 1 58.4627 -4.8411 6.7211 0.0000 0.0000 0.0000
# 2 -4.8411 66.0374 13.9926 0.0000 0.0000 0.0000
# 3 6.7211 13.9926 170.2734 0.0000 0.0000 0.0000
# 4 0.0000 0.0000 0.0000 47.7287 0.0000 0.0000
# 5 0.0000 0.0000 0.0000 0.0000 -9.1901 0.0000
# 6 0.0000 0.0000 0.0000 0.0000 0.0000 22.7290
#
#
#
# Elastic Compliance Matrix: (Units=1/GPa)
#
#
# Indices 1 2 3 4 5 6 
#
# 1 0.017316 0.001439 -0.000802 0.000000 0.000000 0.000000
# 2 0.001439 0.015531 -0.001333 0.000000 0.000000 0.000000
# 3 -0.000802 -0.001333 0.006014 0.000000 0.000000 0.000000
# 4 0.000000 0.000000 0.000000 0.020952 0.000000 0.000000
# 5 0.000000 0.000000 0.000000 0.000000 -0.108813 0.000000
# 6 0.000000 0.000000 0.000000 0.000000 0.000000 0.043997
#
#
# Mechanical properties :
#
#
# Convention : Reuss Voigt Hill
#
# Bulk Modulus (GPa) = 26.68791 36.27986 31.48388
# Shear Modulus (GPa) = 563.17161 30.84691 297.00926
#
# Velocity S-wave (km/s) = 14.63716 3.42564 10.62971
# Velocity P-wave (km/s) = 17.19927 5.42666 12.75271
#
# Compressibility (1/GPa) = 0.03747015
#
# Stress axis : x y z
#
# Youngs Moduli (GPa) = 57.74907 64.38774 166.27573
#
# Poissons Ratio (x) = -0.09267 0.13332
# Poissons Ratio (y) = -0.08312 0.22166
# Poissons Ratio (z) = 0.04630 0.08584
#
# Static dielectric constant tensor:
#      x y z
#    x 2.110220 0.000000 0.000000 
#    y 0.000000 2.130020 0.000000 
#    z 0.000000 0.000000 2.133730 
# 
# From -- ./inp_files/5114.got.cif
#   From: 2010.05.17/outbox.cif.g08.bks.cpg/sg31_3_cif.got.tgz:5114.got - 2010.06.03 17:08:30.
