data_PCOD9343139
_publ_section_title
;
Structure prediction by ZEFSAII (Michael W. Deem and Ramdas Pophale) SiO2 
 PCOD9343139
Probable space group: P M N 21
;
_chemical_formula_sum "Si O2"
_cell_formula_units_Z 32
_cell_length_a 8.755637
_cell_length_b 12.857935
_cell_length_c 14.685423
_cell_angle_alpha 90.000000
_cell_angle_beta 90.000000
_cell_angle_gamma 90.000000
_cell_volume 1653.276278
_symmetry_space_group_name_H-M "P M N 21"
_symmetry_group_IT_number 31
_symmetry_cell_setting 'orthorhombic'
loop_
_space_group_symop_operation_xyz
x,y,z
1/2-x,-y,1/2+z
-x,y,z
1/2+x,-y,1/2+z
loop_
_atom_site_type_symbol
_atom_site_label
_atom_site_fract_x
_atom_site_fract_y
_atom_site_fract_z
Si Si1 0.182638 0.975675 0.818000
Si Si2 0.815968 0.478654 0.133200
Si Si3 0.816112 0.216235 0.830922
Si Si4 0.316100 0.704348 0.131220
Si Si5 0.181100 0.706422 0.514130
Si Si6 0.685295 0.799091 0.945303
Si Si7 0.825948 0.352402 0.297369
Si Si8 0.674482 0.847154 0.661215
O O1 0.246765 0.899079 0.895526
O O2 0.248205 0.936574 0.721061
O O3 0.000000 0.967086 0.814974
O O4 0.224623 0.094508 0.837067
O O5 0.759097 0.593332 0.112996
O O6 0.754512 0.394813 0.061262
O O7 0.757607 0.442319 0.234111
O O8 0.000000 0.472788 0.134343
O O9 0.772552 0.256301 0.731005
O O10 0.000000 0.224931 0.840199
O O11 0.737476 0.278947 0.911648
O O12 0.500000 0.692684 0.128793
O O13 0.275624 0.784017 0.050477
O O14 0.237146 0.806060 0.573133
O O15 0.000000 0.698555 0.519130
O O16 0.500000 0.803292 0.935699
O O17 0.740953 0.696444 0.889169
O O18 0.829529 0.252764 0.229360
O O19 0.000000 0.383826 0.319007
O O20 0.500000 0.873208 0.637799
#
# Coordination Sequence:
#
# PCOD9343139 Si02
#       8
#     4   4   4   4   4   4   4   4
#     4  10  20  35  57  85 116 152 194 238 285 339
#     4  10  20  36  58  84 116 149 181 228 290 343
#     4  10  23  41  56  79 120 159 190 235 291 339
#     4  10  22  39  57  80 114 153 192 233 282 344
#     4  11  22  37  60  87 113 148 198 243 282 343
#     4   9  18  35  58  82 110 148 193 239 287 338
#     4   7  13  28  51  77 104 136 174 217 268 325
#     4   9  17  33  57  84 115 147 182 231 287 337
#
# _framework density 19.355508
#
# number of rings (size 3 to 8) (size 9 to 14) (size 15 to 20)
#    0.000    2.500    0.000    3.750    0.000    4.000 
#    0.000    3.125    0.000    0.000    0.000    0.000 
#    0.000    0.000    0.000    0.000    0.000    0.000 
#
# Total GULP energy -178517.251832 kJ/mol
# GULP energy per Si atom -5578.664120 kJ/mol
# Density = 1.931145 g / cm^3
# Si number density = 19.355508 Si / 1000 Ang^3
#
#
#
# Elastic Constant Matrix: (Units=GPa)
#
#
# Indices 1 2 3 4 5 6 
#
# 1 48.9268 34.9200 46.6379 0.0000 0.0000 0.0000
# 2 34.9200 90.6416 50.1476 0.0000 0.0000 0.0000
# 3 46.6379 50.1476 144.2667 0.0000 0.0000 0.0000
# 4 0.0000 0.0000 0.0000 22.2070 0.0000 0.0000
# 5 0.0000 0.0000 0.0000 0.0000 20.0371 0.0000
# 6 0.0000 0.0000 0.0000 0.0000 0.0000 21.7717
#
#
#
# Elastic Compliance Matrix: (Units=1/GPa)
#
#
# Indices 1 2 3 4 5 6 
#
# 1 0.034401 -0.008791 -0.008065 0.000000 0.000000 0.000000
# 2 -0.008791 0.015906 -0.002687 0.000000 0.000000 0.000000
# 3 -0.008065 -0.002687 0.010473 0.000000 0.000000 0.000000
# 4 0.000000 0.000000 0.000000 0.045031 0.000000 0.000000
# 5 0.000000 0.000000 0.000000 0.000000 0.049907 0.000000
# 6 0.000000 0.000000 0.000000 0.000000 0.000000 0.045931
#
#
# Mechanical properties :
#
#
# Convention : Reuss Voigt Hill
#
# Bulk Modulus (GPa) = 46.09731 60.80511 53.45121
# Shear Modulus (GPa) = 20.16404 22.94515 21.55460
#
# Velocity S-wave (km/s) = 3.23115 3.44678 3.34071
# Velocity P-wave (km/s) = 6.14722 6.87921 6.52349
#
# Compressibility (1/GPa) = 0.02169324
#
# Stress axis : x y z
#
# Youngs Moduli (GPa) = 29.06908 62.87012 95.48464
#
# Poissons Ratio (x) = 0.55269 0.77010
# Poissons Ratio (y) = 0.25554 0.25657
# Poissons Ratio (z) = 0.23445 0.16893
#
# Static dielectric constant tensor:
#      x y z
#    x 1.655540 0.000000 0.000000 
#    y 0.000000 1.676330 0.000000 
#    z 0.000000 0.000000 1.695800 
# 
# From -- ./inp_files/5012.got.cif
#   From: 2010.05.17/outbox.cif.g08.bks.cpg/sg31_3_cif.got.tgz:5012.got - 2010.06.03 17:08:30.
