data_PCOD9343317
_publ_section_title
;
Structure prediction by ZEFSAII (Michael W. Deem and Ramdas Pophale) SiO2 
 PCOD9343317
Probable space group: P M N 21
;
_chemical_formula_sum "Si O2"
_cell_formula_units_Z 20
_cell_length_a 18.133524
_cell_length_b 8.730019
_cell_length_c 5.734379
_cell_angle_alpha 90.000000
_cell_angle_beta 90.000000
_cell_angle_gamma 90.000000
_cell_volume 907.786654
_symmetry_space_group_name_H-M "P M N 21"
_symmetry_group_IT_number 31
_symmetry_cell_setting 'orthorhombic'
loop_
_space_group_symop_operation_xyz
x,y,z
1/2-x,-y,1/2+z
-x,y,z
1/2+x,-y,1/2+z
loop_
_atom_site_type_symbol
_atom_site_label
_atom_site_fract_x
_atom_site_fract_y
_atom_site_fract_z
Si Si1 0.346498 0.893192 0.544510
Si Si2 0.737249 0.581455 0.025686
Si Si3 0.083139 0.926988 0.648997
Si Si4 0.418778 0.730949 0.923493
Si Si5 0.702223 0.168357 0.804300
O O1 0.403169 0.774630 0.654052
O O2 0.283078 0.806731 0.408658
O O3 0.387287 0.026589 0.402448
O O4 0.300661 0.989939 0.734603
O O5 0.745250 0.479991 0.263552
O O6 0.794915 0.717988 0.086436
O O7 0.652102 0.637597 0.007248
O O8 0.137217 0.821954 0.493830
O O9 0.000000 0.867334 0.652925
O O10 0.081351 0.099057 0.537696
O O11 0.500000 0.663116 0.959028
#
# Coordination Sequence:
#
# PCOD9343317 Si02
#       5
#     4   4   4   4   4
#     4  11  18  35  68 101 128 168 212 285 363 401
#     4  12  27  45  67  96 133 191 240 272 317 400
#     4  10  21  36  64 102 133 166 212 284 363 409
#     4  10  22  41  65  98 130 166 225 293 342 395
#     4  11  21  37  63  95 134 169 219 280 338 405
#
# _framework density 22.031609
#
# number of rings (size 3 to 8) (size 9 to 14) (size 15 to 20)
#    0.000    1.200    4.000    3.000    2.800    0.800 
#    0.000    2.000    0.000    0.000    0.000    0.000 
#    0.000    0.000    0.000    0.000    0.000    0.000 
#
# Total GULP energy -111444.894381 kJ/mol
# GULP energy per Si atom -5572.244719 kJ/mol
# Density = 2.198146 g / cm^3
# Si number density = 22.031609 Si / 1000 Ang^3
#
#
#
# Elastic Constant Matrix: (Units=GPa)
#
#
# Indices 1 2 3 4 5 6 
#
# 1 165.7199 40.4043 57.9999 0.0000 0.0000 0.0000
# 2 40.4043 43.8428 29.9637 0.0000 0.0000 0.0000
# 3 57.9999 29.9637 91.7499 0.0000 0.0000 0.0000
# 4 0.0000 0.0000 0.0000 46.5934 0.0000 0.0000
# 5 0.0000 0.0000 0.0000 0.0000 13.5464 0.0000
# 6 0.0000 0.0000 0.0000 0.0000 0.0000 21.7537
#
#
#
# Elastic Compliance Matrix: (Units=1/GPa)
#
#
# Indices 1 2 3 4 5 6 
#
# 1 0.008656 -0.005455 -0.003690 0.000000 0.000000 0.000000
# 2 -0.005455 0.032800 -0.007264 0.000000 0.000000 0.000000
# 3 -0.003690 -0.007264 0.015604 0.000000 0.000000 0.000000
# 4 0.000000 0.000000 0.000000 0.021462 0.000000 0.000000
# 5 0.000000 0.000000 0.000000 0.000000 0.073820 0.000000
# 6 0.000000 0.000000 0.000000 0.000000 0.000000 0.045969
#
#
# Mechanical properties :
#
#
# Convention : Reuss Voigt Hill
#
# Bulk Modulus (GPa) = 41.24988 62.00538 51.62763
# Shear Modulus (GPa) = 20.90216 27.90836 24.40526
#
# Velocity S-wave (km/s) = 3.08350 3.56299 3.33188
# Velocity P-wave (km/s) = 5.60722 6.71800 6.18759
#
# Compressibility (1/GPa) = 0.02424249
#
# Stress axis : x y z
#
# Youngs Moduli (GPa) = 115.52950 30.48789 64.08536
#
# Poissons Ratio (x) = 0.16631 0.23650
# Poissons Ratio (y) = 0.63019 0.46549
# Poissons Ratio (z) = 0.42634 0.22145
#
# Static dielectric constant tensor:
#      x y z
#    x 1.804160 0.000000 0.000000 
#    y 0.000000 1.859260 0.000000 
#    z 0.000000 0.000000 2.017230 
# 
# From -- ./inp_files/768.got.cif
#   From: 2010.05.17/outbox.cif.g08.bks.cpg/sg31_1_cif.got.tgz:768.got - 2010.06.03 17:08:30.
