data_PCOD9343359
_publ_section_title
;
Structure prediction by ZEFSAII (Michael W. Deem and Ramdas Pophale) SiO2 
 PCOD9343359
Probable space group: P M N 21
;
_chemical_formula_sum "Si O2"
_cell_formula_units_Z 24
_cell_length_a 8.582519
_cell_length_b 15.898646
_cell_length_c 9.169976
_cell_angle_alpha 90.000000
_cell_angle_beta 90.000000
_cell_angle_gamma 90.000000
_cell_volume 1251.247181
_symmetry_space_group_name_H-M "P M N 21"
_symmetry_group_IT_number 31
_symmetry_cell_setting 'orthorhombic'
loop_
_space_group_symop_operation_xyz
x,y,z
1/2-x,-y,1/2+z
-x,y,z
1/2+x,-y,1/2+z
loop_
_atom_site_type_symbol
_atom_site_label
_atom_site_fract_x
_atom_site_fract_y
_atom_site_fract_z
Si Si1 0.311603 0.749380 0.225450
Si Si2 0.811761 0.584828 0.723583
Si Si3 0.186890 0.083189 0.217427
Si Si4 0.813116 0.752935 0.553494
Si Si5 0.188345 0.417555 0.551585
Si Si6 0.811597 0.081532 0.555914
O O1 0.500000 0.748933 0.232477
O O2 0.246793 0.750849 0.388323
O O3 0.263758 0.832868 0.137424
O O4 0.261655 0.665574 0.139575
O O5 0.761257 0.669008 0.639119
O O6 0.760708 0.501665 0.636115
O O7 0.750048 0.583785 0.887602
O O8 0.000000 0.584413 0.727594
O O9 0.251594 0.164715 0.135354
O O10 0.236808 0.082876 0.386747
O O11 0.000000 0.085859 0.213340
O O12 0.244737 0.999268 0.137783
O O13 0.000000 0.754702 0.552542
O O14 0.000000 0.417509 0.546836
O O15 0.000000 0.076982 0.559883
#
# Coordination Sequence:
#
# PCOD9343359 Si02
#       6
#     4   4   4   4   4   4
#     4  10  21  38  60  85 114 149 190 234 280 334
#     4  10  22  38  57  85 118 151 189 234 283 334
#     4  11  23  39  60  84 112 149 189 231 282 336
#     4  11  23  38  57  84 117 150 188 234 282 335
#     4  10  21  38  60  86 116 151 192 235 279 334
#     4  10  22  39  58  84 115 146 186 234 282 335
#
# _framework density 19.180865000000001
#
# number of rings (size 3 to 8) (size 9 to 14) (size 15 to 20)
#    0.000    1.667    0.000    4.000    0.000    8.667 
#    0.000    0.000    0.000    0.000    0.000    0.000 
#    0.000    0.000    0.000    0.000    0.000    0.000 
#
# Total GULP energy -134197.043699 kJ/mol
# GULP energy per Si atom -5591.543487 kJ/mol
# Density = 1.913721 g / cm^3
# Si number density = 19.180865 Si / 1000 Ang^3
#
#
#
# Elastic Constant Matrix: (Units=GPa)
#
#
# Indices 1 2 3 4 5 6 
#
# 1 16.6191 48.8414 46.7655 0.0000 0.0000 0.0000
# 2 48.8414 264.6005 171.2705 0.0000 0.0000 0.0000
# 3 46.7655 171.2705 264.6362 0.0000 0.0000 0.0000
# 4 0.0000 0.0000 0.0000 46.5598 0.0000 0.0000
# 5 0.0000 0.0000 0.0000 0.0000 37.8899 0.0000
# 6 0.0000 0.0000 0.0000 0.0000 0.0000 -43.6862
#
#
#
# Elastic Compliance Matrix: (Units=1/GPa)
#
#
# Indices 1 2 3 4 5 6 
#
# 1 0.163644 -0.019770 -0.016124 0.000000 0.000000 0.000000
# 2 -0.019770 0.008892 -0.002261 0.000000 0.000000 0.000000
# 3 -0.016124 -0.002261 0.008092 0.000000 0.000000 0.000000
# 4 0.000000 0.000000 0.000000 0.021478 0.000000 0.000000
# 5 0.000000 0.000000 0.000000 0.000000 0.026392 0.000000
# 6 0.000000 0.000000 0.000000 0.000000 0.000000 -0.022891
#
#
# Mechanical properties :
#
#
# Convention : Reuss Voigt Hill
#
# Bulk Modulus (GPa) = 9.58605 119.95673 64.77139
# Shear Modulus (GPa) = 15.78832 26.75127 21.26979
#
# Velocity S-wave (km/s) = 2.87213 3.73860 3.33364
# Velocity P-wave (km/s) = 4.00093 9.01730 6.97564
#
# Compressibility (1/GPa) = 0.10431829
#
# Stress axis : x y z
#
# Youngs Moduli (GPa) = 6.11082 112.45797 123.58490
#
# Poissons Ratio (x) = 2.22327 1.99264
# Poissons Ratio (y) = 0.12081 0.27947
# Poissons Ratio (z) = 0.09853 0.25430
#
# Static dielectric constant tensor:
#      x y z
#    x 1.653860 0.000000 0.000000 
#    y 0.000000 1.644650 0.000000 
#    z 0.000000 0.000000 1.619250 
# 
# From -- ./inp_files/1700.got.cif
#   From: 2010.05.17/outbox.cif.g08.bks.cpg/sg31_1_cif.got.tgz:1700.got - 2010.06.03 17:08:30.
