data_PCOD9343816
_publ_section_title
;
Structure prediction by ZEFSAII (Michael W. Deem and Ramdas Pophale) SiO2 
 PCOD9343816
Probable space group: P B A 2
;
_chemical_formula_sum "Si O2"
_cell_formula_units_Z 30
_cell_length_a 14.221628
_cell_length_b 8.834968
_cell_length_c 11.645425
_cell_angle_alpha 90.000000
_cell_angle_beta 90.000000
_cell_angle_gamma 90.000000
_cell_volume 1463.220032
_symmetry_space_group_name_H-M "P B A 2"
_symmetry_group_IT_number 32
_symmetry_cell_setting 'orthorhombic'
loop_
_space_group_symop_operation_xyz
x,y,z
-x,-y,z
1/2-x,1/2+y,z
1/2+x,1/2-y,z
loop_
_atom_site_type_symbol
_atom_site_label
_atom_site_fract_x
_atom_site_fract_y
_atom_site_fract_z
Si Si1 0.211305 0.905988 0.486810
Si Si2 0.286262 0.430717 0.040823
Si Si3 0.179370 0.639710 0.336561
Si Si4 0.207394 0.146879 0.653268
Si Si5 0.500000 0.000000 0.947356
Si Si6 0.549206 0.773309 0.145707
Si Si7 0.340416 0.718330 0.162048
Si Si8 0.683198 0.088102 0.809855
O O1 0.294448 0.001156 0.421625
O O2 0.157944 0.029839 0.565259
O O3 0.156604 0.801167 0.396981
O O4 0.249292 0.775834 0.571568
O O5 0.372003 0.344066 0.102352
O O6 0.308896 0.605795 0.059767
O O7 0.195545 0.379833 0.115457
O O8 0.263212 0.395302 0.908726
O O9 0.096864 0.623524 0.243836
O O10 0.277182 0.669859 0.269463
O O11 0.280917 0.037978 0.719446
O O12 0.160557 0.251207 0.750016
O O13 0.590572 0.030204 0.871315
O O14 0.521810 0.862632 0.031669
O O15 0.449975 0.707352 0.187316
#
# Coordination Sequence:
#
# PCOD9343816 Si02
#       8
#     4   4   4   4   2   4   4   4
#     4   9  19  38  64  88 111 158 214 264 306 366
#     4  11  22  38  60  92 130 170 205 247 311 382
#     4  10  20  36  64  86 126 164 203 252 323 361
#     4   9  20  38  67  86 110 156 221 258 310 366
#     4  12  24  36  60  96 136 158 208 256 312 386
#     4  11  24  36  59  95 134 165 208 247 303 398
#     4  11  22  38  58  92 131 167 204 247 302 394
#     4  11  20  38  64  89 120 167 203 260 321 364
#
# _framework density 20.502725999999999
#
# number of rings (size 3 to 8) (size 9 to 14) (size 15 to 20)
#    0.000    1.600    1.333    5.200    1.867    0.000 
#    0.000    0.000   29.333    0.000    0.000    0.000 
#    0.000    0.000    0.000    0.000    0.000    0.000 
#
# Total GULP energy -167248.246166 kJ/mol
# GULP energy per Si atom -5574.941539 kJ/mol
# Density = 2.045606 g / cm^3
# Si number density = 20.502726 Si / 1000 Ang^3
#
#
#
# Elastic Constant Matrix: (Units=GPa)
#
#
# Indices 1 2 3 4 5 6 
#
# 1 95.3354 13.3239 29.8150 0.0000 0.0000 0.0000
# 2 13.3239 86.3559 25.5718 0.0000 0.0000 0.0000
# 3 29.8150 25.5718 87.5290 0.0000 0.0000 0.0000
# 4 0.0000 0.0000 0.0000 53.0911 0.0000 0.0000
# 5 0.0000 0.0000 0.0000 0.0000 10.7220 0.0000
# 6 0.0000 0.0000 0.0000 0.0000 0.0000 17.6793
#
#
#
# Elastic Compliance Matrix: (Units=1/GPa)
#
#
# Indices 1 2 3 4 5 6 
#
# 1 0.011777 -0.000689 -0.003810 0.000000 0.000000 0.000000
# 2 -0.000689 0.012717 -0.003481 0.000000 0.000000 0.000000
# 3 -0.003810 -0.003481 0.013740 0.000000 0.000000 0.000000
# 4 0.000000 0.000000 0.000000 0.018836 0.000000 0.000000
# 5 0.000000 0.000000 0.000000 0.000000 0.093266 0.000000
# 6 0.000000 0.000000 0.000000 0.000000 0.000000 0.056563
#
#
# Mechanical properties :
#
#
# Convention : Reuss Voigt Hill
#
# Bulk Modulus (GPa) = 44.89533 45.18240 45.03886
# Shear Modulus (GPa) = 21.71237 29.66577 25.68907
#
# Velocity S-wave (km/s) = 3.25776 3.80796 3.54356
# Velocity P-wave (km/s) = 6.00795 6.43578 6.22554
#
# Compressibility (1/GPa) = 0.02227403
#
# Stress axis : x y z
#
# Youngs Moduli (GPa) = 84.90967 78.63519 72.78219
#
# Poissons Ratio (x) = 0.05416 0.27733
# Poissons Ratio (y) = 0.05848 0.25333
# Poissons Ratio (z) = 0.32354 0.27370
#
# Static dielectric constant tensor:
#      x y z
#    x 1.700420 0.000000 0.000000 
#    y 0.000000 1.802360 0.000000 
#    z 0.000000 0.000000 1.810510 
# 
# From -- ./inp_files/3730.got.cif
#   From: 2010.05.17/outbox.cif.g08.bks.cpg/sg32_2_cif.got.tgz:3730.got - 2010.06.03 17:12:27.
