data_PCOD9343938
_publ_section_title
;
Structure prediction by ZEFSAII (Michael W. Deem and Ramdas Pophale) SiO2 
 PCOD9343938
Probable space group: P B A 2
;
_chemical_formula_sum "Si O2"
_cell_formula_units_Z 24
_cell_length_a 23.817421
_cell_length_b 8.164909
_cell_length_c 4.912077
_cell_angle_alpha 90.000000
_cell_angle_beta 90.000000
_cell_angle_gamma 90.000000
_cell_volume 955.237247
_symmetry_space_group_name_H-M "P B A 2"
_symmetry_group_IT_number 32
_symmetry_cell_setting 'orthorhombic'
loop_
_space_group_symop_operation_xyz
x,y,z
-x,-y,z
1/2-x,1/2+y,z
1/2+x,1/2-y,z
loop_
_atom_site_type_symbol
_atom_site_label
_atom_site_fract_x
_atom_site_fract_y
_atom_site_fract_z
Si Si1 0.716383 0.875038 0.922150
Si Si2 0.331146 0.763306 0.981293
Si Si3 0.894568 0.649780 0.484137
Si Si4 0.004408 0.315944 0.043021
Si Si5 0.648020 0.779569 0.447448
Si Si6 0.960156 0.146009 0.505799
O O1 0.783018 0.868926 0.954939
O O2 0.701136 0.784928 0.645301
O O3 0.697688 0.063210 0.916109
O O4 0.676299 0.792157 0.151602
O O5 0.386148 0.767691 0.781469
O O6 0.347256 0.771931 0.295811
O O7 0.947782 0.678794 0.283189
O O8 0.883253 0.455617 0.513603
O O9 0.000000 0.500000 0.936030
O O10 0.954624 0.263816 0.242742
O O11 0.992264 0.207715 0.775634
O O12 0.606573 0.632776 0.546454
O O13 0.000000 0.000000 0.404609
#
# Coordination Sequence:
#
# PCOD9343938 Si02
#       6
#     4   4   4   4   4   4
#     4  10  21  39  63  89 120 166 208 267 327 392
#     4  10  21  39  61  89 126 155 211 269 327 384
#     4  10  21  39  65  93 118 164 220 273 310 383
#     4  12  24  42  72  96 128 176 230 269 321 404
#     4  10  21  40  65  87 126 173 210 254 340 400
#     4  12  26  44  64  99 142 172 217 281 339 396
#
# _framework density 25.124649000000002
#
# number of rings (size 3 to 8) (size 9 to 14) (size 15 to 20)
#    0.000    1.333    1.667    4.000    4.667    0.000 
#    9.000    0.000    0.000    0.000    0.000    0.000 
#    0.000    0.000    0.000    0.000    0.000    0.000 
#
# Total GULP energy -133756.064286 kJ/mol
# GULP energy per Si atom -5573.169345 kJ/mol
# Density = 2.506746 g / cm^3
# Si number density = 25.124649 Si / 1000 Ang^3
#
#
#
# Elastic Constant Matrix: (Units=GPa)
#
#
# Indices 1 2 3 4 5 6 
#
# 1 31.7768 -1.0591 -8.7605 0.0000 0.0000 0.0000
# 2 -1.0591 31.6576 6.7360 0.0000 0.0000 0.0000
# 3 -8.7605 6.7360 105.0758 0.0000 0.0000 0.0000
# 4 0.0000 0.0000 0.0000 20.2641 0.0000 0.0000
# 5 0.0000 0.0000 0.0000 0.0000 25.7407 0.0000
# 6 0.0000 0.0000 0.0000 0.0000 0.0000 27.6674
#
#
#
# Elastic Compliance Matrix: (Units=1/GPa)
#
#
# Indices 1 2 3 4 5 6 
#
# 1 0.032218 0.000513 0.002653 0.000000 0.000000 0.000000
# 2 0.000513 0.032033 -0.002011 0.000000 0.000000 0.000000
# 3 0.002653 -0.002011 0.009867 0.000000 0.000000 0.000000
# 4 0.000000 0.000000 0.000000 0.049348 0.000000 0.000000
# 5 0.000000 0.000000 0.000000 0.000000 0.038849 0.000000
# 6 0.000000 0.000000 0.000000 0.000000 0.000000 0.036144
#
#
# Mechanical properties :
#
#
# Convention : Reuss Voigt Hill
#
# Bulk Modulus (GPa) = 13.08393 18.03811 15.56102
# Shear Modulus (GPa) = 22.56074 26.17403 24.36738
#
# Velocity S-wave (km/s) = 2.99984 3.23114 3.11764
# Velocity P-wave (km/s) = 4.14941 4.59515 4.37796
#
# Compressibility (1/GPa) = 0.07642965
#
# Stress axis : x y z
#
# Youngs Moduli (GPa) = 31.03850 31.21784 101.34749
#
# Poissons Ratio (x) = -0.01602 -0.26890
# Poissons Ratio (y) = -0.01593 0.20378
# Poissons Ratio (z) = -0.08235 0.06277
#
# Static dielectric constant tensor:
#      x y z
#    x 2.192080 0.000000 0.000000 
#    y 0.000000 2.073230 0.000000 
#    z 0.000000 0.000000 1.924240 
# 
# From -- ./inp_files/1643.got.cif
#   From: 2010.05.17/outbox.cif.g08.bks.cpg/sg32_1_cif.got.tgz:1643.got - 2010.06.03 17:12:27.
