data_PCOD9343345
_publ_section_title
;
Structure prediction by ZEFSAII (Michael W. Deem and Ramdas Pophale) SiO2 
 PCOD9343345
Probable space group: P M N 21
;
_chemical_formula_sum "Si O2"
_cell_formula_units_Z 20
_cell_length_a 17.566987
_cell_length_b 5.465092
_cell_length_c 8.063447
_cell_angle_alpha 90.000000
_cell_angle_beta 90.000000
_cell_angle_gamma 90.000000
_cell_volume 774.132843
_symmetry_space_group_name_H-M "P M N 21"
_symmetry_group_IT_number 31
_symmetry_cell_setting 'orthorhombic'
loop_
_space_group_symop_operation_xyz
x,y,z
1/2-x,-y,1/2+z
-x,y,z
1/2+x,-y,1/2+z
loop_
_atom_site_type_symbol
_atom_site_label
_atom_site_fract_x
_atom_site_fract_y
_atom_site_fract_z
Si Si1 0.381060 0.669344 0.033090
Si Si2 0.500000 0.463387 0.435456
Si Si3 0.000000 0.039117 0.717129
Si Si4 0.130431 0.612535 0.210043
Si Si5 0.776398 0.943388 0.005051
Si Si6 0.210739 0.670965 0.693264
O O1 0.430995 0.897087 0.089788
O O2 0.295588 0.764369 0.010858
O O3 0.364805 0.486953 0.185019
O O4 0.406486 0.494934 0.880300
O O5 0.500000 0.727257 0.343307
O O6 0.426791 0.453932 0.560723
O O7 0.500000 0.216107 0.318025
O O8 0.161525 0.883309 0.148896
O O9 0.211329 0.475027 0.219724
O O10 0.735522 0.200523 0.022522
O O11 0.806977 0.884832 0.824277
#
# Coordination Sequence:
#
# PCOD9343345 Si02
#       6
#     4   2   2   4   4   4
#     4  10  23  44  67 100 140 186 239 297 361 430
#     4  12  29  48  71 104 142 193 235 296 355 433
#     4  12  29  48  71 102 144 191 239 292 359 429
#     4  10  23  44  66 102 138 187 238 298 361 430
#     4  10  21  37  69 102 139 183 239 301 359 425
#     4  10  21  39  68 103 140 181 240 298 361 423
#
# _framework density 25.835356000000001
#
# number of rings (size 3 to 8) (size 9 to 14) (size 15 to 20)
#    0.000    1.600    0.000    3.000    8.400    3.200 
#    0.000    2.000    0.000    0.000    0.000    0.000 
#    0.000    0.000    0.000    0.000    0.000    0.000 
#
# Total GULP energy -111374.835656 kJ/mol
# GULP energy per Si atom -5568.741783 kJ/mol
# Density = 2.577655 g / cm^3
# Si number density = 25.835356 Si / 1000 Ang^3
#
#
#
# Elastic Constant Matrix: (Units=GPa)
#
#
# Indices 1 2 3 4 5 6 
#
# 1 72.6227 15.2506 41.2927 0.0000 0.0000 0.0000
# 2 15.2506 96.8834 29.8911 0.0000 0.0000 0.0000
# 3 41.2927 29.8911 104.7860 0.0000 0.0000 0.0000
# 4 0.0000 0.0000 0.0000 46.2064 0.0000 0.0000
# 5 0.0000 0.0000 0.0000 0.0000 35.8613 0.0000
# 6 0.0000 0.0000 0.0000 0.0000 0.0000 25.4483
#
#
#
# Elastic Compliance Matrix: (Units=1/GPa)
#
#
# Indices 1 2 3 4 5 6 
#
# 1 0.017789 -0.000699 -0.006811 0.000000 0.000000 0.000000
# 2 -0.000699 0.011345 -0.002961 0.000000 0.000000 0.000000
# 3 -0.006811 -0.002961 0.013072 0.000000 0.000000 0.000000
# 4 0.000000 0.000000 0.000000 0.021642 0.000000 0.000000
# 5 0.000000 0.000000 0.000000 0.000000 0.027885 0.000000
# 6 0.000000 0.000000 0.000000 0.000000 0.000000 0.039295
#
#
# Mechanical properties :
#
#
# Convention : Reuss Voigt Hill
#
# Bulk Modulus (GPa) = 47.02564 49.68455 48.35510
# Shear Modulus (GPa) = 31.43505 34.02705 32.73105
#
# Velocity S-wave (km/s) = 3.49197 3.63309 3.56323
# Velocity P-wave (km/s) = 5.87367 6.07224 5.97378
#
# Compressibility (1/GPa) = 0.02126499
#
# Stress axis : x y z
#
# Youngs Moduli (GPa) = 56.21421 88.14288 76.50079
#
# Poissons Ratio (x) = 0.06160 0.52103
# Poissons Ratio (y) = 0.03929 0.22651
# Poissons Ratio (z) = 0.38286 0.26098
#
# Static dielectric constant tensor:
#      x y z
#    x 2.052450 0.000000 0.000000 
#    y 0.000000 2.112830 0.000000 
#    z 0.000000 0.000000 2.239390 
# 
# From -- ./inp_files/2711.got.cif
#   From: 2010.05.17/outbox.cif.g08.bks.cpg/sg31_2_cif.got.tgz:2711.got - 2010.06.03 17:08:30.
