data_PCOD9343366
_publ_section_title
;
Structure prediction by ZEFSAII (Michael W. Deem and Ramdas Pophale) SiO2 
 PCOD9343366
Probable space group: P M N 21
;
_chemical_formula_sum "Si O2"
_cell_formula_units_Z 32
_cell_length_a 8.195130
_cell_length_b 15.614998
_cell_length_c 12.247336
_cell_angle_alpha 90.000000
_cell_angle_beta 90.000000
_cell_angle_gamma 90.000000
_cell_volume 1567.254093
_symmetry_space_group_name_H-M "P M N 21"
_symmetry_group_IT_number 31
_symmetry_cell_setting 'orthorhombic'
loop_
_space_group_symop_operation_xyz
x,y,z
1/2-x,-y,1/2+z
-x,y,z
1/2+x,-y,1/2+z
loop_
_atom_site_type_symbol
_atom_site_label
_atom_site_fract_x
_atom_site_fract_y
_atom_site_fract_z
Si Si1 0.698037 0.256546 0.419460
Si Si2 0.803466 0.893664 0.333432
Si Si3 0.302900 0.084996 0.290591
Si Si4 0.812879 0.390688 0.849305
Si Si5 0.689828 0.355050 0.085458
Si Si6 0.313092 0.572562 0.794755
Si Si7 0.802561 0.745176 0.172609
Si Si8 0.301348 0.162415 0.070026
O O1 0.500000 0.258805 0.415560
O O2 0.749930 0.166961 0.362743
O O3 0.760498 0.339776 0.354602
O O4 0.750302 0.259014 0.546486
O O5 0.747365 0.832069 0.234855
O O6 0.741577 0.857593 0.449150
O O7 0.000000 0.888406 0.333837
O O8 0.755932 0.992416 0.326793
O O9 0.500000 0.085257 0.292898
O O10 0.248233 0.099478 0.165600
O O11 0.793531 0.491242 0.827517
O O12 0.754635 0.334400 0.746554
O O13 0.000000 0.368961 0.872299
O O14 0.710128 0.370404 0.957442
O O15 0.500000 0.363791 0.116344
O O16 0.792234 0.414456 0.165042
O O17 0.743477 0.257716 0.105246
O O18 0.500000 0.553613 0.822270
O O19 0.000000 0.744602 0.172250
O O20 0.500000 0.160732 0.065979
#
# Coordination Sequence:
#
# PCOD9343366 Si02
#       8
#     4   4   4   4   4   4   4   4
#     4  10  22  42  65  89 124 167 212 260 316 376
#     4  10  21  38  60  89 121 162 206 256 314 374
#     4  10  21  38  60  89 121 162 206 256 314 374
#     4  12  26  43  65  95 128 166 211 258 315 378
#     4  11  21  43  71  92 123 164 209 263 318 372
#     4  12  26  43  65  95 128 166 211 258 315 378
#     4  10  22  42  65  89 124 167 212 260 316 376
#     4   9  18  37  63  84 115 160 205 251 314 374
#
# _framework density 20.417876
#
# number of rings (size 3 to 8) (size 9 to 14) (size 15 to 20)
#    0.000    1.500    2.500    2.625    3.500    1.500 
#    0.000    0.000    0.000    0.000    0.000    0.000 
#    0.000    0.000    0.000    0.000    0.000    0.000 
#
# Total GULP energy -178773.722587 kJ/mol
# GULP energy per Si atom -5586.678831 kJ/mol
# Density = 2.037140 g / cm^3
# Si number density = 20.417876 Si / 1000 Ang^3
#
#
#
# Elastic Constant Matrix: (Units=GPa)
#
#
# Indices 1 2 3 4 5 6 
#
# 1 23.6533 1.6343 4.2318 0.0000 0.0000 0.0000
# 2 1.6343 98.0452 25.8596 0.0000 0.0000 0.0000
# 3 4.2318 25.8596 105.8180 0.0000 0.0000 0.0000
# 4 0.0000 0.0000 0.0000 25.1805 0.0000 0.0000
# 5 0.0000 0.0000 0.0000 0.0000 20.3241 0.0000
# 6 0.0000 0.0000 0.0000 0.0000 0.0000 26.8975
#
#
#
# Elastic Compliance Matrix: (Units=1/GPa)
#
#
# Indices 1 2 3 4 5 6 
#
# 1 0.042589 -0.000279 -0.001635 0.000000 0.000000 0.000000
# 2 -0.000279 0.010904 -0.002654 0.000000 0.000000 0.000000
# 3 -0.001635 -0.002654 0.010164 0.000000 0.000000 0.000000
# 4 0.000000 0.000000 0.000000 0.039713 0.000000 0.000000
# 5 0.000000 0.000000 0.000000 0.000000 0.049203 0.000000
# 6 0.000000 0.000000 0.000000 0.000000 0.000000 0.037178
#
#
# Mechanical properties :
#
#
# Convention : Reuss Voigt Hill
#
# Bulk Modulus (GPa) = 18.34106 32.32979 25.33542
# Shear Modulus (GPa) = 23.03510 27.53313 25.28411
#
# Velocity S-wave (km/s) = 3.36249 3.67615 3.52281
# Velocity P-wave (km/s) = 4.90688 5.82127 5.38352
#
# Compressibility (1/GPa) = 0.05452249
#
# Stress axis : x y z
#
# Youngs Moduli (GPa) = 23.48016 91.71030 98.38607
#
# Poissons Ratio (x) = 0.02556 0.16087
# Poissons Ratio (y) = 0.00654 0.26107
# Poissons Ratio (z) = 0.03839 0.24336
#
# Static dielectric constant tensor:
#      x y z
#    x 1.714130 0.000000 0.000000 
#    y 0.000000 1.702670 0.000000 
#    z 0.000000 0.000000 1.715660 
# 
# From -- ./inp_files/3751.got.cif
#   From: 2010.05.17/outbox.cif.g08.bks.cpg/sg31_2_cif.got.tgz:3751.got - 2010.06.03 17:08:30.
