data_PCOD9343056
_publ_section_title
;
Structure prediction by ZEFSAII (Michael W. Deem and Ramdas Pophale) SiO2 
 PCOD9343056
Probable space group: P M N 21
;
_chemical_formula_sum "Si O2"
_cell_formula_units_Z 32
_cell_length_a 9.054968
_cell_length_b 11.875098
_cell_length_c 17.546442
_cell_angle_alpha 90.000000
_cell_angle_beta 90.000000
_cell_angle_gamma 90.000000
_cell_volume 1886.744912
_symmetry_space_group_name_H-M "P M N 21"
_symmetry_group_IT_number 31
_symmetry_cell_setting 'orthorhombic'
loop_
_space_group_symop_operation_xyz
x,y,z
1/2-x,-y,1/2+z
-x,y,z
1/2+x,-y,1/2+z
loop_
_atom_site_type_symbol
_atom_site_label
_atom_site_fract_x
_atom_site_fract_y
_atom_site_fract_z
Si Si1 0.825872 0.453173 0.493200
Si Si2 0.676774 0.340324 0.640218
Si Si3 0.172689 0.228411 0.414074
Si Si4 0.821910 0.112287 0.114306
Si Si5 0.830890 0.434158 0.210552
Si Si6 0.673692 0.219754 0.262176
Si Si7 0.169160 0.336439 0.037097
Si Si8 0.823887 0.126709 0.582527
O O1 0.736806 0.398302 0.563174
O O2 0.804834 0.362952 0.426132
O O3 0.767112 0.580059 0.486394
O O4 0.000000 0.454067 0.511522
O O5 0.500000 0.327624 0.636416
O O6 0.708539 0.433883 0.705079
O O7 0.755625 0.219900 0.639743
O O8 0.272410 0.184592 0.345791
O O9 0.201915 0.170696 0.495883
O O10 0.000000 0.210817 0.395800
O O11 0.759219 0.153535 0.195597
O O12 0.780737 0.208602 0.052036
O O13 0.000000 0.109038 0.117415
O O14 0.753476 0.992505 0.094240
O O15 0.721373 0.350545 0.252713
O O16 0.831594 0.388508 0.123022
O O17 0.000000 0.421949 0.238842
O O18 0.500000 0.206222 0.252312
O O19 0.000000 0.337638 0.010002
O O20 0.000000 0.119567 0.593303
#
# Coordination Sequence:
#
# PCOD9343056 Si02
#       8
#     4   4   4   4   4   4   4   4
#     4   9  16  26  44  69  94 121 152 191 237 282
#     4   9  16  27  45  68  94 124 154 188 235 288
#     4   9  19  34  49  69 100 132 160 200 256 309
#     4  10  20  34  51  71 100 136 170 207 252 302
#     4   8  15  28  45  66  94 125 153 185 234 292
#     4  11  21  31  49  75  99 127 166 211 253 296
#     4   8  15  27  44  67  93 122 153 187 232 285
#     4  10  20  33  51  75 100 129 170 215 251 292
#
# _framework density 16.960426999999999
#
# number of rings (size 3 to 8) (size 9 to 14) (size 15 to 20)
#    0.000    2.750    0.000    4.875    0.000    8.500 
#    0.000    0.000    0.000    1.500    0.000    5.250 
#    0.000    0.000    0.000    0.000    0.000    0.000 
#
# Total GULP energy -178165.474043 kJ/mol
# GULP energy per Si atom -5567.671064 kJ/mol
# Density = 1.692182 g / cm^3
# Si number density = 16.960427 Si / 1000 Ang^3
#
#
#
# Elastic Constant Matrix: (Units=GPa)
#
#
# Indices 1 2 3 4 5 6 
#
# 1 77.9418 53.6027 31.8450 0.0000 0.0000 0.0000
# 2 53.6027 139.0345 23.3635 0.0000 0.0000 0.0000
# 3 31.8450 23.3635 34.7464 0.0000 0.0000 0.0000
# 4 0.0000 0.0000 0.0000 10.2114 0.0000 0.0000
# 5 0.0000 0.0000 0.0000 0.0000 19.1293 0.0000
# 6 0.0000 0.0000 0.0000 0.0000 0.0000 38.5553
#
#
#
# Elastic Compliance Matrix: (Units=1/GPa)
#
#
# Indices 1 2 3 4 5 6 
#
# 1 0.024781 -0.006468 -0.018362 0.000000 0.000000 0.000000
# 2 -0.006468 0.009797 -0.000659 0.000000 0.000000 0.000000
# 3 -0.018362 -0.000659 0.046052 0.000000 0.000000 0.000000
# 4 0.000000 0.000000 0.000000 0.097930 0.000000 0.000000
# 5 0.000000 0.000000 0.000000 0.000000 0.052276 0.000000
# 6 0.000000 0.000000 0.000000 0.000000 0.000000 0.025937
#
#
# Mechanical properties :
#
#
# Convention : Reuss Voigt Hill
#
# Bulk Modulus (GPa) = 33.72646 52.14943 42.93795
# Shear Modulus (GPa) = 15.74128 23.10663 19.42396
#
# Velocity S-wave (km/s) = 3.04981 3.69505 3.38783
# Velocity P-wave (km/s) = 5.68598 7.00136 6.37767
#
# Compressibility (1/GPa) = 0.02965031
#
# Stress axis : x y z
#
# Youngs Moduli (GPa) = 40.35374 102.07206 21.71442
#
# Poissons Ratio (x) = 0.66023 0.39873
# Poissons Ratio (y) = 0.26102 0.01432
# Poissons Ratio (z) = 0.74099 0.06730
#
# Static dielectric constant tensor:
#      x y z
#    x 1.563650 0.000000 0.000000 
#    y 0.000000 1.616560 0.000000 
#    z 0.000000 0.000000 1.583420 
# 
# From -- ./inp_files/5872.got.cif
#   From: 2010.05.17/outbox.cif.g08.bks.cpg/sg31_3_cif.got.tgz:5872.got - 2010.06.03 17:08:30.
