data_PCOD9343418
_publ_section_title
;
Structure prediction by ZEFSAII (Michael W. Deem and Ramdas Pophale) SiO2 
 PCOD9343418
Probable space group: P M N 21
;
_chemical_formula_sum "Si O2"
_cell_formula_units_Z 32
_cell_length_a 30.304806
_cell_length_b 9.441161
_cell_length_c 4.921254
_cell_angle_alpha 90.000000
_cell_angle_beta 90.000000
_cell_angle_gamma 90.000000
_cell_volume 1408.032544
_symmetry_space_group_name_H-M "P M N 21"
_symmetry_group_IT_number 31
_symmetry_cell_setting 'orthorhombic'
loop_
_space_group_symop_operation_xyz
x,y,z
1/2-x,-y,1/2+z
-x,y,z
1/2+x,-y,1/2+z
loop_
_atom_site_type_symbol
_atom_site_label
_atom_site_fract_x
_atom_site_fract_y
_atom_site_fract_z
Si Si1 0.231348 0.162080 0.387000
Si Si2 0.725053 0.538838 0.862168
Si Si3 0.141754 0.497646 0.741617
Si Si4 0.047573 0.853769 0.129338
Si Si5 0.356959 0.833817 0.251563
Si Si6 0.549840 0.948117 0.129682
Si Si7 0.182464 0.920758 0.107985
Si Si8 0.374134 0.329519 0.763390
O O1 0.219706 0.306546 0.227442
O O2 0.191909 0.168663 0.612915
O O3 0.284428 0.163967 0.411904
O O4 0.219374 0.013677 0.255687
O O5 0.740975 0.442934 0.615396
O O6 0.683915 0.490257 0.040754
O O7 0.134176 0.332422 0.808258
O O8 0.110785 0.587636 0.534697
O O9 0.146000 0.570112 0.031436
O O10 0.049940 0.918950 0.428861
O O11 0.084691 0.738863 0.107649
O O12 0.000000 0.788925 0.077735
O O13 0.051455 0.988037 0.931266
O O14 0.402465 0.872756 0.090155
O O15 0.349408 0.961372 0.470649
O O16 0.500000 0.880260 0.094755
O O17 0.157126 0.809230 0.297804
#
# Coordination Sequence:
#
# PCOD9343418 Si02
#       8
#     4   4   4   4   4   4   4   4
#     4  11  25  38  64  93 128 169 222 276 325 383
#     4  11  24  43  63  87 129 177 221 268 328 394
#     4  11  27  42  64  94 136 176 219 266 340 398
#     4  10  21  40  69 100 131 164 215 280 333 389
#     4  11  25  43  64  95 135 176 210 278 333 389
#     4  10  21  41  70 104 129 167 220 272 333 393
#     4  12  24  40  67  93 130 169 231 276 328 384
#     4  12  25  45  66  98 129 176 225 274 327 404
#
# _framework density 22.726747
#
# number of rings (size 3 to 8) (size 9 to 14) (size 15 to 20)
#    0.000    1.000    2.500    3.750    8.750    1.000 
#    0.000    1.250    0.000    0.000    0.000    0.000 
#    0.000    0.000    0.000    0.000    0.000    0.000 
#
# Total GULP energy -178148.209719 kJ/mol
# GULP energy per Si atom -5567.131554 kJ/mol
# Density = 2.267502 g / cm^3
# Si number density = 22.726747 Si / 1000 Ang^3
#
#
#
# Elastic Constant Matrix: (Units=GPa)
#
#
# Indices 1 2 3 4 5 6 
#
# 1 106.1182 9.2321 9.6991 0.0000 0.0000 0.0000
# 2 9.2321 86.9554 26.6235 0.0000 0.0000 0.0000
# 3 9.6991 26.6235 58.6718 0.0000 0.0000 0.0000
# 4 0.0000 0.0000 0.0000 19.2392 0.0000 0.0000
# 5 0.0000 0.0000 0.0000 0.0000 22.9198 0.0000
# 6 0.0000 0.0000 0.0000 0.0000 0.0000 15.6701
#
#
#
# Elastic Compliance Matrix: (Units=1/GPa)
#
#
# Indices 1 2 3 4 5 6 
#
# 1 0.009597 -0.000619 -0.001305 0.000000 0.000000 0.000000
# 2 -0.000619 0.013396 -0.005976 0.000000 0.000000 0.000000
# 3 -0.001305 -0.005976 0.019972 0.000000 0.000000 0.000000
# 4 0.000000 0.000000 0.000000 0.051977 0.000000 0.000000
# 5 0.000000 0.000000 0.000000 0.000000 0.043630 0.000000
# 6 0.000000 0.000000 0.000000 0.000000 0.000000 0.063816
#
#
# Mechanical properties :
#
#
# Convention : Reuss Voigt Hill
#
# Bulk Modulus (GPa) = 36.81585 38.09497 37.45541
# Shear Modulus (GPa) = 22.00286 25.31186 23.65736
#
# Velocity S-wave (km/s) = 3.11488 3.34091 3.22987
# Velocity P-wave (km/s) = 5.40104 5.62857 5.51597
#
# Compressibility (1/GPa) = 0.02716221
#
# Stress axis : x y z
#
# Youngs Moduli (GPa) = 104.20317 74.65108 50.07110
#
# Poissons Ratio (x) = 0.04622 0.06537
# Poissons Ratio (y) = 0.06452 0.29923
# Poissons Ratio (z) = 0.13603 0.44613
#
# Static dielectric constant tensor:
#      x y z
#    x 2.007080 0.000000 0.000000 
#    y 0.000000 1.893610 0.000000 
#    z 0.000000 0.000000 1.899550 
# 
# From -- ./inp_files/1353.got.cif
#   From: 2010.05.17/outbox.cif.g08.bks.cpg/sg31_1_cif.got.tgz:1353.got - 2010.06.03 17:08:30.
