data_PCOD9343151
_publ_section_title
;
Structure prediction by ZEFSAII (Michael W. Deem and Ramdas Pophale) SiO2 
 PCOD9343151
Probable space group: P M N 21
;
_chemical_formula_sum "Si O2"
_cell_formula_units_Z 12
_cell_length_a 13.847595
_cell_length_b 5.353897
_cell_length_c 6.607292
_cell_angle_alpha 90.000000
_cell_angle_beta 90.000000
_cell_angle_gamma 90.000000
_cell_volume 489.855361
_symmetry_space_group_name_H-M "P M N 21"
_symmetry_group_IT_number 31
_symmetry_cell_setting 'orthorhombic'
loop_
_space_group_symop_operation_xyz
x,y,z
1/2-x,-y,1/2+z
-x,y,z
1/2+x,-y,1/2+z
loop_
_atom_site_type_symbol
_atom_site_label
_atom_site_fract_x
_atom_site_fract_y
_atom_site_fract_z
Si Si1 0.392445 0.731113 0.335480
Si Si2 0.107986 0.048872 0.265941
Si Si3 0.698989 0.231531 0.420093
O O1 0.500000 0.689497 0.253361
O O2 0.399665 0.755422 0.580723
O O3 0.325929 0.490034 0.311997
O O4 0.352902 0.008388 0.294503
O O5 0.188129 0.166186 0.411200
O O6 0.000000 0.997898 0.342103
O O7 0.152827 0.811216 0.143296
#
# Coordination Sequence:
#
# PCOD9343151 Si02
#       3
#     4   4   4
#     4   9  19  35  57  81 110 147 184 224 276 328
#     4   9  21  38  60  83 114 149 185 230 281 331
#     4  10  20  35  61  84 110 150 187 228 279 333
#
# _framework density 24.497028
#
# number of rings (size 3 to 8) (size 9 to 14) (size 15 to 20)
#    2.000    0.667    0.000    2.000    4.667    0.000 
#    0.000    5.000    0.000    0.000    0.000    0.000 
#    0.000    0.000    0.000    0.000    0.000    0.000 
#
# Total GULP energy -66802.630868 kJ/mol
# GULP energy per Si atom -5566.885906 kJ/mol
# Density = 2.444127 g / cm^3
# Si number density = 24.497028 Si / 1000 Ang^3
#
#
#
# Elastic Constant Matrix: (Units=GPa)
#
#
# Indices 1 2 3 4 5 6 
#
# 1 180.0942 37.9944 -2.9492 0.0000 0.0000 0.0000
# 2 37.9944 152.5940 -0.7885 0.0000 0.0000 0.0000
# 3 -2.9492 -0.7885 39.1612 0.0000 0.0000 0.0000
# 4 0.0000 0.0000 0.0000 15.3864 0.0000 0.0000
# 5 0.0000 0.0000 0.0000 0.0000 28.1468 0.0000
# 6 0.0000 0.0000 0.0000 0.0000 0.0000 7.2064
#
#
#
# Elastic Compliance Matrix: (Units=1/GPa)
#
#
# Indices 1 2 3 4 5 6 
#
# 1 0.005867 -0.001459 0.000412 0.000000 0.000000 0.000000
# 2 -0.001459 0.006917 0.000029 0.000000 0.000000 0.000000
# 3 0.000412 0.000029 0.025567 0.000000 0.000000 0.000000
# 4 0.000000 0.000000 0.000000 0.064992 0.000000 0.000000
# 5 0.000000 0.000000 0.000000 0.000000 0.035528 0.000000
# 6 0.000000 0.000000 0.000000 0.000000 0.000000 0.138765
#
#
# Mechanical properties :
#
#
# Convention : Reuss Voigt Hill
#
# Bulk Modulus (GPa) = 27.53510 48.92920 38.23215
# Shear Modulus (GPa) = 17.13647 32.65412 24.89529
#
# Velocity S-wave (km/s) = 2.64774 3.65496 3.19134
# Velocity P-wave (km/s) = 4.54004 6.15049 5.40558
#
# Compressibility (1/GPa) = 0.03631728
#
# Stress axis : x y z
#
# Youngs Moduli (GPa) = 170.44045 144.57761 39.11275
#
# Poissons Ratio (x) = 0.21090 -0.01613
# Poissons Ratio (y) = 0.24863 -0.00115
# Poissons Ratio (z) = -0.07030 -0.00425
#
# Static dielectric constant tensor:
#      x y z
#    x 1.975660 0.000000 0.000000 
#    y 0.000000 1.876110 0.000000 
#    z 0.000000 0.000000 2.050160 
# 
# From -- ./inp_files/1905.got.cif
#   From: 2010.05.17/outbox.cif.g08.bks.cpg/sg31_1_cif.got.tgz:1905.got - 2010.06.03 17:08:30.
