data_PCOD9343743
_publ_section_title
;
Structure prediction by ZEFSAII (Michael W. Deem and Ramdas Pophale) SiO2 
 PCOD9343743
Probable space group: P B A 2
;
_chemical_formula_sum "Si O2"
_cell_formula_units_Z 28
_cell_length_a 19.376157
_cell_length_b 8.872004
_cell_length_c 8.715223
_cell_angle_alpha 90.000000
_cell_angle_beta 90.000000
_cell_angle_gamma 90.000000
_cell_volume 1498.193394
_symmetry_space_group_name_H-M "P B A 2"
_symmetry_group_IT_number 32
_symmetry_cell_setting 'orthorhombic'
loop_
_space_group_symop_operation_xyz
x,y,z
-x,-y,z
1/2-x,1/2+y,z
1/2+x,1/2-y,z
loop_
_atom_site_type_symbol
_atom_site_label
_atom_site_fract_x
_atom_site_fract_y
_atom_site_fract_z
Si Si1 0.775456 0.083811 0.996070
Si Si2 0.423811 0.520575 0.683460
Si Si3 0.530208 0.335015 0.999028
Si Si4 0.894167 0.276133 0.872340
Si Si5 0.806786 0.799524 0.518823
Si Si6 0.332490 0.713611 0.159780
Si Si7 0.198299 0.510751 0.694055
O O1 0.831991 0.216087 0.979113
O O2 0.753374 0.027359 0.827831
O O3 0.708525 0.153658 0.075126
O O4 0.807116 0.945044 0.088440
O O5 0.500000 0.500000 0.613614
O O6 0.433059 0.626763 0.835033
O O7 0.403228 0.358238 0.749043
O O8 0.367285 0.588958 0.573549
O O9 0.500000 0.500000 0.045959
O O10 0.465985 0.225140 0.964316
O O11 0.586672 0.277683 0.118052
O O12 0.867751 0.421160 0.781712
O O13 0.812695 0.782673 0.337370
O O14 0.817021 0.639887 0.601470
O O15 0.735074 0.869227 0.581650
#
# Coordination Sequence:
#
# PCOD9343743 Si02
#       7
#     4   4   4   4   4   4   4
#     4  12  20  38  63  90 114 161 214 262 296 373
#     4   9  18  38  61  87 114 156 213 253 295 376
#     4   9  18  37  63  89 114 158 214 257 300 376
#     4  10  19  36  68  87 111 156 224 261 290 362
#     4  12  23  37  58  94 132 163 196 266 336 382
#     4  12  24  37  60  95 131 158 204 264 332 379
#     4  12  21  38  65  89 120 163 216 257 310 377
#
# _framework density 18.689176
#
# number of rings (size 3 to 8) (size 9 to 14) (size 15 to 20)
#    0.000    1.429    7.143    1.714    0.000    0.571 
#    0.000    6.429    0.000    3.429    0.000    0.000 
#    0.000    0.000    0.000    0.000    0.000    0.000 
#
# Total GULP energy -156347.434719 kJ/mol
# GULP energy per Si atom -5583.836954 kJ/mol
# Density = 1.864664 g / cm^3
# Si number density = 18.689176 Si / 1000 Ang^3
#
#
#
# Elastic Constant Matrix: (Units=GPa)
#
#
# Indices 1 2 3 4 5 6 
#
# 1 97.5228 31.2828 31.2228 0.0000 0.0000 0.0000
# 2 31.2828 50.8875 36.6642 0.0000 0.0000 0.0000
# 3 31.2228 36.6642 92.3578 0.0000 0.0000 0.0000
# 4 0.0000 0.0000 0.0000 21.0174 0.0000 0.0000
# 5 0.0000 0.0000 0.0000 0.0000 22.6791 0.0000
# 6 0.0000 0.0000 0.0000 0.0000 0.0000 32.4685
#
#
#
# Elastic Compliance Matrix: (Units=1/GPa)
#
#
# Indices 1 2 3 4 5 6 
#
# 1 0.012962 -0.006738 -0.001707 0.000000 0.000000 0.000000
# 2 -0.006738 0.031027 -0.010039 0.000000 0.000000 0.000000
# 3 -0.001707 -0.010039 0.015390 0.000000 0.000000 0.000000
# 4 0.000000 0.000000 0.000000 0.047580 0.000000 0.000000
# 5 0.000000 0.000000 0.000000 0.000000 0.044093 0.000000
# 6 0.000000 0.000000 0.000000 0.000000 0.000000 0.030799
#
#
# Mechanical properties :
#
#
# Convention : Reuss Voigt Hill
#
# Bulk Modulus (GPa) = 44.62345 48.78973 46.70659
# Shear Modulus (GPa) = 22.09562 24.67289 23.38426
#
# Velocity S-wave (km/s) = 3.44214 3.63736 3.54110
# Velocity P-wave (km/s) = 6.30288 6.61839 6.46256
#
# Compressibility (1/GPa) = 0.02240974
#
# Stress axis : x y z
#
# Youngs Moduli (GPa) = 77.14836 32.23038 64.97833
#
# Poissons Ratio (x) = 0.21718 0.11091
# Poissons Ratio (y) = 0.51986 0.65231
# Poissons Ratio (z) = 0.13169 0.32356
#
# Static dielectric constant tensor:
#      x y z
#    x 1.697030 0.000000 0.000000 
#    y 0.000000 1.646260 0.000000 
#    z 0.000000 0.000000 1.622230 
# 
# From -- ./inp_files/2507.got.cif
#   From: 2010.05.17/outbox.cif.g08.bks.cpg/sg32_2_cif.got.tgz:2507.got - 2010.06.03 17:12:27.
