data_PCOD9343677
_publ_section_title
;
Structure prediction by ZEFSAII (Michael W. Deem and Ramdas Pophale) SiO2 
 PCOD9343677
Probable space group: P B A 2
;
_chemical_formula_sum "Si O2"
_cell_formula_units_Z 30
_cell_length_a 11.883300
_cell_length_b 15.222901
_cell_length_c 8.908054
_cell_angle_alpha 90.000000
_cell_angle_beta 90.000000
_cell_angle_gamma 90.000000
_cell_volume 1611.451820
_symmetry_space_group_name_H-M "P B A 2"
_symmetry_group_IT_number 32
_symmetry_cell_setting 'orthorhombic'
loop_
_space_group_symop_operation_xyz
x,y,z
-x,-y,z
1/2-x,1/2+y,z
1/2+x,1/2-y,z
loop_
_atom_site_type_symbol
_atom_site_label
_atom_site_fract_x
_atom_site_fract_y
_atom_site_fract_z
Si Si1 0.474201 0.288674 0.101510
Si Si2 0.626754 0.132854 0.129729
Si Si3 0.889007 0.951739 0.176230
Si Si4 0.818686 0.093559 0.927741
Si Si5 0.284591 0.099627 0.437076
Si Si6 0.310139 0.301533 0.372109
Si Si7 0.500000 0.000000 0.337699
Si Si8 0.370330 0.466047 0.592850
O O1 0.525359 0.194505 0.082528
O O2 0.571713 0.361059 0.104218
O O3 0.418572 0.292115 0.265776
O O4 0.385789 0.319337 0.977798
O O5 0.711729 0.178581 0.250243
O O6 0.578334 0.054984 0.227450
O O7 0.691346 0.107949 0.978369
O O8 0.788239 0.930078 0.289523
O O9 0.000000 0.000000 0.247716
O O10 0.856915 0.018709 0.045419
O O11 0.847791 0.067673 0.760732
O O12 0.286996 0.205938 0.445779
O O13 0.411904 0.061617 0.427713
O O14 0.212974 0.048147 0.562175
O O15 0.334197 0.384848 0.481413
O O16 0.500000 0.500000 0.579732
#
# Coordination Sequence:
#
# PCOD9343677 Si02
#       8
#     4   4   4   4   4   4   2   4
#     4  10  19  36  64  93 118 155 216 277 309 364
#     4  11  21  39  65  90 130 160 218 280 322 384
#     4  10  18  36  66  91 115 162 218 267 308 366
#     4  10  23  42  60  96 129 169 216 256 332 400
#     4  12  22  39  66  95 130 167 215 277 327 391
#     4  11  23  38  63 102 122 166 226 268 328 378
#     4  12  22  38  62  96 128 164 208 274 336 380
#     4  12  25  45  65  94 138 179 215 267 326 400
#
# _framework density 18.616754
#
# number of rings (size 3 to 8) (size 9 to 14) (size 15 to 20)
#    0.000    1.067    5.333    4.000    0.000    0.000 
#    4.800    0.667    0.000    0.000    0.000    0.000 
#    0.000    0.000    0.000    0.000    0.000    0.000 
#
# Total GULP energy -167259.571198 kJ/mol
# GULP energy per Si atom -5575.319040 kJ/mol
# Density = 1.857438 g / cm^3
# Si number density = 18.616754 Si / 1000 Ang^3
#
#
#
# Elastic Constant Matrix: (Units=GPa)
#
#
# Indices 1 2 3 4 5 6 
#
# 1 49.4026 19.7230 15.1557 0.0000 0.0000 0.0000
# 2 19.7230 106.1483 25.6848 0.0000 0.0000 0.0000
# 3 15.1557 25.6848 87.9201 0.0000 0.0000 0.0000
# 4 0.0000 0.0000 0.0000 14.6705 0.0000 0.0000
# 5 0.0000 0.0000 0.0000 0.0000 15.3104 0.0000
# 6 0.0000 0.0000 0.0000 0.0000 0.0000 38.6406
#
#
#
# Elastic Compliance Matrix: (Units=1/GPa)
#
#
# Indices 1 2 3 4 5 6 
#
# 1 0.022513 -0.003491 -0.002861 0.000000 0.000000 0.000000
# 2 -0.003491 0.010679 -0.002518 0.000000 0.000000 0.000000
# 3 -0.002861 -0.002518 0.012603 0.000000 0.000000 0.000000
# 4 0.000000 0.000000 0.000000 0.068164 0.000000 0.000000
# 5 0.000000 0.000000 0.000000 0.000000 0.065315 0.000000
# 6 0.000000 0.000000 0.000000 0.000000 0.000000 0.025880
#
#
# Mechanical properties :
#
#
# Convention : Reuss Voigt Hill
#
# Bulk Modulus (GPa) = 35.64414 40.51089 38.07752
# Shear Modulus (GPa) = 21.52904 25.91813 23.72358
#
# Velocity S-wave (km/s) = 3.40433 3.73526 3.57363
# Velocity P-wave (km/s) = 5.88561 6.35693 6.12581
#
# Compressibility (1/GPa) = 0.02805510
#
# Stress axis : x y z
#
# Youngs Moduli (GPa) = 44.41838 93.64486 79.34791
#
# Poissons Ratio (x) = 0.32690 0.22702
# Poissons Ratio (y) = 0.15506 0.19979
# Poissons Ratio (z) = 0.12708 0.23579
#
# Static dielectric constant tensor:
#      x y z
#    x 1.864980 0.000000 0.000000 
#    y 0.000000 1.691300 0.000000 
#    z 0.000000 0.000000 1.620160 
# 
# From -- ./inp_files/2827.got.cif
#   From: 2010.05.17/outbox.cif.g08.bks.cpg/sg32_2_cif.got.tgz:2827.got - 2010.06.03 17:12:27.
