data_PCOD9343910
_publ_section_title
;
Structure prediction by ZEFSAII (Michael W. Deem and Ramdas Pophale) SiO2 
 PCOD9343910
Probable space group: P B A 2
;
_chemical_formula_sum "Si O2"
_cell_formula_units_Z 32
_cell_length_a 13.390813
_cell_length_b 5.406071
_cell_length_c 18.650573
_cell_angle_alpha 90.000000
_cell_angle_beta 90.000000
_cell_angle_gamma 90.000000
_cell_volume 1350.146421
_symmetry_space_group_name_H-M "P B A 2"
_symmetry_group_IT_number 32
_symmetry_cell_setting 'orthorhombic'
loop_
_space_group_symop_operation_xyz
x,y,z
-x,-y,z
1/2-x,1/2+y,z
1/2+x,1/2-y,z
loop_
_atom_site_type_symbol
_atom_site_label
_atom_site_fract_x
_atom_site_fract_y
_atom_site_fract_z
Si Si1 0.652351 0.841175 0.707420
Si Si2 0.686921 0.712194 0.113611
Si Si3 0.683885 0.714663 0.418439
Si Si4 0.435425 0.251306 0.564160
Si Si5 0.315035 0.192487 0.264276
Si Si6 0.492335 0.254381 0.904434
Si Si7 0.692476 0.827199 0.958132
Si Si8 0.878600 0.842832 0.764031
O O1 0.653146 0.772562 0.623496
O O2 0.758176 0.863307 0.749001
O O3 0.590457 0.616928 0.741317
O O4 0.600604 0.105102 0.715817
O O5 0.726512 0.428595 0.114881
O O6 0.630403 0.763388 0.188246
O O7 0.643282 0.767887 0.035444
O O8 0.738899 0.447524 0.421989
O O9 0.610546 0.730313 0.485209
O O10 0.633136 0.754051 0.340219
O O11 0.500000 0.500000 0.578412
O O12 0.500000 0.000000 0.568168
O O13 0.229876 0.412739 0.263822
O O14 0.500000 0.500000 0.948837
O O15 0.374438 0.235631 0.888886
O O16 0.429130 0.722177 0.840477
O O17 0.500000 0.000000 0.944643
O O18 0.776283 0.612808 0.955679
#
# Coordination Sequence:
#
# PCOD9343910 Si02
#       8
#     4   4   4   4   4   4   4   4
#     4  10  23  43  68  89 119 154 213 255 323 384
#     4   8  14  27  54  84 123 160 205 255 295 352
#     4  10  21  36  62  91 125 167 214 256 305 365
#     4  12  26  41  64  93 126 164 202 261 326 386
#     4   8  14  27  49  87 120 157 209 258 290 344
#     4  12  26  45  66  92 127 162 203 265 320 378
#     4  10  21  41  64  96 128 169 210 254 318 386
#     4  10  23  44  67  94 114 157 204 270 315 375
#
# _framework density 23.701134
#
# number of rings (size 3 to 8) (size 9 to 14) (size 15 to 20)
#    0.000    2.000    0.000    3.000    3.500    3.000 
#   13.500    0.000    0.000    1.500    0.000    0.000 
#    0.000    0.000    0.000    0.000    0.000    0.000 
#
# Total GULP energy -178145.691186 kJ/mol
# GULP energy per Si atom -5567.052850 kJ/mol
# Density = 2.364719 g / cm^3
# Si number density = 23.701134 Si / 1000 Ang^3
#
#
#
# Elastic Constant Matrix: (Units=GPa)
#
#
# Indices 1 2 3 4 5 6 
#
# 1 45.3271 3.8396 47.4312 0.0000 0.0000 0.0000
# 2 3.8396 188.5743 25.6143 0.0000 0.0000 0.0000
# 3 47.4312 25.6143 163.3450 0.0000 0.0000 0.0000
# 4 0.0000 0.0000 0.0000 29.2141 0.0000 0.0000
# 5 0.0000 0.0000 0.0000 0.0000 20.9333 0.0000
# 6 0.0000 0.0000 0.0000 0.0000 0.0000 25.2143
#
#
#
# Elastic Compliance Matrix: (Units=1/GPa)
#
#
# Indices 1 2 3 4 5 6 
#
# 1 0.031762 0.000619 -0.009320 0.000000 0.000000 0.000000
# 2 0.000619 0.005430 -0.001031 0.000000 0.000000 0.000000
# 3 -0.009320 -0.001031 0.008990 0.000000 0.000000 0.000000
# 4 0.000000 0.000000 0.000000 0.034230 0.000000 0.000000
# 5 0.000000 0.000000 0.000000 0.000000 0.047771 0.000000
# 6 0.000000 0.000000 0.000000 0.000000 0.000000 0.039660
#
#
# Mechanical properties :
#
#
# Convention : Reuss Voigt Hill
#
# Bulk Modulus (GPa) = 37.42762 61.22408 49.32585
# Shear Modulus (GPa) = 25.48243 36.42976 30.95610
#
# Velocity S-wave (km/s) = 3.28252 3.92477 3.61792
# Velocity P-wave (km/s) = 5.49475 6.81368 6.18945
#
# Compressibility (1/GPa) = 0.02671824
#
# Stress axis : x y z
#
# Youngs Moduli (GPa) = 31.48418 184.14745 111.23452
#
# Poissons Ratio (x) = -0.11403 1.03670
# Poissons Ratio (y) = -0.01950 0.11472
# Poissons Ratio (z) = 0.29343 0.18992
#
# Static dielectric constant tensor:
#      x y z
#    x 2.221620 0.000000 0.000000 
#    y 0.000000 2.010530 0.000000 
#    z 0.000000 0.000000 1.947580 
# 
# From -- ./inp_files/4250.got.cif
#   From: 2010.05.17/outbox.cif.g08.bks.cpg/sg32_3_cif.got.tgz:4250.got - 2010.06.03 17:12:27.
