data_PCOD9343532
_publ_section_title
;
Structure prediction by ZEFSAII (Michael W. Deem and Ramdas Pophale) SiO2 
 PCOD9343532
Probable space group: P M N 21
;
_chemical_formula_sum "Si O2"
_cell_formula_units_Z 14
_cell_length_a 10.508087
_cell_length_b 7.093787
_cell_length_c 8.696794
_cell_angle_alpha 90.000000
_cell_angle_beta 90.000000
_cell_angle_gamma 90.000000
_cell_volume 648.277557
_symmetry_space_group_name_H-M "P M N 21"
_symmetry_group_IT_number 31
_symmetry_cell_setting 'orthorhombic'
loop_
_space_group_symop_operation_xyz
x,y,z
1/2-x,-y,1/2+z
-x,y,z
1/2+x,-y,1/2+z
loop_
_atom_site_type_symbol
_atom_site_label
_atom_site_fract_x
_atom_site_fract_y
_atom_site_fract_z
Si Si1 0.644489 0.450767 0.871540
Si Si2 0.000000 0.687572 0.632948
Si Si3 0.265480 0.240643 0.566541
Si Si4 0.500000 0.757652 0.195719
Si Si5 0.500000 0.042305 0.428637
O O1 0.500000 0.528835 0.847809
O O2 0.688338 0.350601 0.718236
O O3 0.620229 0.307816 0.015179
O O4 0.739828 0.611233 0.928885
O O5 0.000000 0.469014 0.689498
O O6 0.000000 0.828269 0.773843
O O7 0.125956 0.168178 0.611358
O O8 0.373293 0.094734 0.520330
O O9 0.500000 0.830374 0.368802
#
# Coordination Sequence:
#
# PCOD9343532 Si02
#       5
#     4   2   4   2   2
#     4   9  19  37  65  97 126 166 209 264 313 386
#     4   8  19  41  61  95 127 165 210 263 312 377
#     4  11  20  41  65  96 131 168 217 264 327 382
#     4  10  24  40  58  94 132 154 212 272 304 384
#     4  12  23  39  71  91 123 181 212 263 328 379
#
# _framework density 21.595689
#
# number of rings (size 3 to 8) (size 9 to 14) (size 15 to 20)
#    0.857    1.143    2.857    3.429    0.000    2.286 
#    0.000    4.286    0.000    0.000    0.000    0.000 
#    0.000    0.000    0.000    0.000    0.000    0.000 
#
# Total GULP energy -78118.126126 kJ/mol
# GULP energy per Si atom -5579.866152 kJ/mol
# Density = 2.154654 g / cm^3
# Si number density = 21.595689 Si / 1000 Ang^3
#
#
#
# Elastic Constant Matrix: (Units=GPa)
#
#
# Indices 1 2 3 4 5 6 
#
# 1 120.8398 22.0404 46.4344 0.0000 0.0000 0.0000
# 2 22.0404 47.5615 40.5284 0.0000 0.0000 0.0000
# 3 46.4344 40.5284 100.8152 0.0000 0.0000 0.0000
# 4 0.0000 0.0000 0.0000 36.6853 0.0000 0.0000
# 5 0.0000 0.0000 0.0000 0.0000 37.0462 0.0000
# 6 0.0000 0.0000 0.0000 0.0000 0.0000 -6.9276
#
#
#
# Elastic Compliance Matrix: (Units=1/GPa)
#
#
# Indices 1 2 3 4 5 6 
#
# 1 0.010092 -0.001089 -0.004211 0.000000 0.000000 0.000000
# 2 -0.001089 0.032098 -0.012402 0.000000 0.000000 0.000000
# 3 -0.004211 -0.012402 0.016844 0.000000 0.000000 0.000000
# 4 0.000000 0.000000 0.000000 0.027259 0.000000 0.000000
# 5 0.000000 0.000000 0.000000 0.000000 0.026993 0.000000
# 6 0.000000 0.000000 0.000000 0.000000 0.000000 -0.144350
#
#
# Mechanical properties :
#
#
# Convention : Reuss Voigt Hill
#
# Bulk Modulus (GPa) = 42.31672 54.13588 48.22630
# Shear Modulus (GPa) = 409.28673 24.04168 216.66420
#
# Velocity S-wave (km/s) = 13.78165 3.34018 10.02723
# Velocity P-wave (km/s) = 16.51916 6.32440 12.50761
#
# Compressibility (1/GPa) = 0.02363132
#
# Stress axis : x y z
#
# Youngs Moduli (GPa) = 99.08862 31.15442 59.36744
#
# Poissons Ratio (x) = 0.03392 0.24997
# Poissons Ratio (y) = 0.10788 0.73629
# Poissons Ratio (z) = 0.41722 0.38638
#
# Static dielectric constant tensor:
#      x y z
#    x 1.819060 0.000000 0.000000 
#    y 0.000000 1.781910 0.000000 
#    z 0.000000 0.000000 1.791720 
# 
# From -- ./inp_files/1941.got.cif
#   From: 2010.05.17/outbox.cif.g08.bks.cpg/sg31_1_cif.got.tgz:1941.got - 2010.06.03 17:08:30.
