data_PCOD9343000
_publ_section_title
;
Structure prediction by ZEFSAII (Michael W. Deem and Ramdas Pophale) SiO2 
 PCOD9343000
Probable space group: P M N 21
;
_chemical_formula_sum "Si O2"
_cell_formula_units_Z 32
_cell_length_a 7.741441
_cell_length_b 11.071706
_cell_length_c 14.574721
_cell_angle_alpha 90.000000
_cell_angle_beta 90.000000
_cell_angle_gamma 90.000000
_cell_volume 1249.213311
_symmetry_space_group_name_H-M "P M N 21"
_symmetry_group_IT_number 31
_symmetry_cell_setting 'orthorhombic'
loop_
_space_group_symop_operation_xyz
x,y,z
1/2-x,-y,1/2+z
-x,y,z
1/2+x,-y,1/2+z
loop_
_atom_site_type_symbol
_atom_site_label
_atom_site_fract_x
_atom_site_fract_y
_atom_site_fract_z
Si Si1 0.794179 0.703315 0.004630
Si Si2 0.705193 0.339213 0.946969
Si Si3 0.208863 0.427590 0.336568
Si Si4 0.205623 0.556835 0.164400
Si Si5 0.203021 0.192805 0.109125
Si Si6 0.302111 0.065605 0.287584
Si Si7 0.287457 0.035147 0.494500
Si Si8 0.204809 0.806697 0.278811
O O1 0.718093 0.595260 0.066499
O O2 0.000000 0.700202 0.017571
O O3 0.760095 0.686026 0.897045
O O4 0.736087 0.835206 0.035446
O O5 0.500000 0.342357 0.933244
O O6 0.773270 0.461006 0.900463
O O7 0.770978 0.231348 0.880465
O O8 0.736628 0.310328 0.053021
O O9 0.274053 0.455566 0.234331
O O10 0.000000 0.429466 0.332547
O O11 0.222482 0.684264 0.219859
O O12 0.000000 0.530451 0.153458
O O13 0.231334 0.162753 0.215527
O O14 0.000000 0.195440 0.096659
O O15 0.277152 0.078445 0.052134
O O16 0.500000 0.098135 0.301181
O O17 0.225922 0.043560 0.389037
O O18 0.288319 0.930376 0.245444
O O19 0.500000 0.029767 0.495220
O O20 0.000000 0.831613 0.281001
#
# Coordination Sequence:
#
# PCOD9343000 Si02
#       8
#     4   4   4   4   4   4   4   4
#     4  10  19  36  59  80 105 145 190 226 266 326
#     4   9  18  34  56  79 106 139 176 224 280 328
#     4   9  19  37  57  80 110 142 176 227 284 326
#     4   8  16  33  58  81 105 141 184 226 275 326
#     4  11  21  36  57  82 110 146 189 227 269 330
#     4  11  21  34  51  79 116 150 178 220 281 333
#     4   9  20  37  56  79 113 148 179 223 279 329
#     4   9  16  31  56  80 103 139 184 225 266 324
#
# _framework density 25.616121
#
# number of rings (size 3 to 8) (size 9 to 14) (size 15 to 20)
#    0.000    2.500    1.250    3.000    0.000    2.500 
#    2.250    6.875    0.000    0.000    0.000    0.000 
#    0.000    0.000    0.000    0.000    0.000    0.000 
#
# Total GULP energy -178747.149416 kJ/mol
# GULP energy per Si atom -5585.848419 kJ/mol
# Density = 2.555782 g / cm^3
# Si number density = 25.616121 Si / 1000 Ang^3
#
#
#
# Elastic Constant Matrix: (Units=GPa)
#
#
# Indices 1 2 3 4 5 6 
#
# 1 38.3847 -3.2394 -6.6494 0.0000 0.0000 0.0000
# 2 -3.2394 64.8366 16.2293 0.0000 0.0000 0.0000
# 3 -6.6494 16.2293 129.9558 0.0000 0.0000 0.0000
# 4 0.0000 0.0000 0.0000 47.2030 0.0000 0.0000
# 5 0.0000 0.0000 0.0000 0.0000 20.1746 0.0000
# 6 0.0000 0.0000 0.0000 0.0000 0.0000 12.1730
#
#
#
# Elastic Compliance Matrix: (Units=1/GPa)
#
#
# Indices 1 2 3 4 5 6 
#
# 1 0.026349 0.001011 0.001222 0.000000 0.000000 0.000000
# 2 0.001011 0.015960 -0.001941 0.000000 0.000000 0.000000
# 3 0.001222 -0.001941 0.008000 0.000000 0.000000 0.000000
# 4 0.000000 0.000000 0.000000 0.021185 0.000000 0.000000
# 5 0.000000 0.000000 0.000000 0.000000 0.049567 0.000000
# 6 0.000000 0.000000 0.000000 0.000000 0.000000 0.082149
#
#
# Mechanical properties :
#
#
# Convention : Reuss Voigt Hill
#
# Bulk Modulus (GPa) = 19.64981 27.31756 23.48368
# Shear Modulus (GPa) = 22.76958 31.03257 26.90108
#
# Velocity S-wave (km/s) = 2.98464 3.48436 3.24414
# Velocity P-wave (km/s) = 4.42323 5.18412 4.81871
#
# Compressibility (1/GPa) = 0.05089107
#
# Stress axis : x y z
#
# Youngs Moduli (GPa) = 37.95211 62.65731 125.00163
#
# Poissons Ratio (x) = -0.06332 -0.15275
# Poissons Ratio (y) = -0.03835 0.24268
# Poissons Ratio (z) = -0.04638 0.12164
#
# Static dielectric constant tensor:
#      x y z
#    x 1.927470 0.000000 0.000000 
#    y 0.000000 2.064930 0.000000 
#    z 0.000000 0.000000 2.099370 
# 
# From -- ./inp_files/5086.got.cif
#   From: 2010.05.17/outbox.cif.g08.bks.cpg/sg31_3_cif.got.tgz:5086.got - 2010.06.03 17:08:30.
