data_PCOD9343753
_publ_section_title
;
Structure prediction by ZEFSAII (Michael W. Deem and Ramdas Pophale) SiO2 
 PCOD9343753
Probable space group: P B A 2
;
_chemical_formula_sum "Si O2"
_cell_formula_units_Z 20
_cell_length_a 12.330769
_cell_length_b 8.281502
_cell_length_c 8.401270
_cell_angle_alpha 90.000000
_cell_angle_beta 90.000000
_cell_angle_gamma 90.000000
_cell_volume 857.914909
_symmetry_space_group_name_H-M "P B A 2"
_symmetry_group_IT_number 32
_symmetry_cell_setting 'orthorhombic'
loop_
_space_group_symop_operation_xyz
x,y,z
-x,-y,z
1/2-x,1/2+y,z
1/2+x,1/2-y,z
loop_
_atom_site_type_symbol
_atom_site_label
_atom_site_fract_x
_atom_site_fract_y
_atom_site_fract_z
Si Si1 0.704119 0.440970 0.526010
Si Si2 0.431309 0.339162 0.309614
Si Si3 0.760267 0.679424 0.067236
Si Si4 0.376341 0.879545 0.366345
Si Si5 0.373210 0.549229 0.873257
O O1 0.630702 0.590213 0.463488
O O2 0.679999 0.293640 0.408441
O O3 0.826466 0.501799 0.498331
O O4 0.662124 0.392916 0.698503
O O5 0.500000 0.500000 0.258097
O O6 0.347955 0.293731 0.171581
O O7 0.501441 0.181994 0.352520
O O8 0.831586 0.575329 0.191699
O O9 0.709517 0.595941 0.912605
O O10 0.838658 0.820769 0.006821
O O11 0.500000 0.500000 0.875796
#
# Coordination Sequence:
#
# PCOD9343753 Si02
#       5
#     4   4   4   4   4
#     4  10  21  37  62  87 115 159 203 246 308 365
#     4   9  18  37  63  87 116 160 208 253 302 361
#     4  11  22  37  62  90 121 163 206 248 309 372
#     4  10  19  38  60  84 114 154 205 252 293 360
#     4  12  24  41  62  92 131 164 200 259 316 366
#
# _framework density 23.312335999999998
#
# number of rings (size 3 to 8) (size 9 to 14) (size 15 to 20)
#    0.000    1.600    0.000    8.400    0.000    0.000 
#    0.000   14.000    0.000   12.000    0.000    0.000 
#    0.000    0.000    0.000    0.000    0.000    0.000 
#
# Total GULP energy -111630.236338 kJ/mol
# GULP energy per Si atom -5581.511817 kJ/mol
# Density = 2.325928 g / cm^3
# Si number density = 23.312336 Si / 1000 Ang^3
#
#
#
# Elastic Constant Matrix: (Units=GPa)
#
#
# Indices 1 2 3 4 5 6 
#
# 1 115.6160 31.4182 37.1060 0.0000 0.0000 0.0000
# 2 31.4182 44.6655 10.9805 0.0000 0.0000 0.0000
# 3 37.1060 10.9805 99.4494 0.0000 0.0000 0.0000
# 4 0.0000 0.0000 0.0000 24.9443 0.0000 0.0000
# 5 0.0000 0.0000 0.0000 0.0000 31.6939 0.0000
# 6 0.0000 0.0000 0.0000 0.0000 0.0000 53.1941
#
#
#
# Elastic Compliance Matrix: (Units=1/GPa)
#
#
# Indices 1 2 3 4 5 6 
#
# 1 0.011821 -0.007433 -0.003590 0.000000 0.000000 0.000000
# 2 -0.007433 0.027687 -0.000284 0.000000 0.000000 0.000000
# 3 -0.003590 -0.000284 0.011426 0.000000 0.000000 0.000000
# 4 0.000000 0.000000 0.000000 0.040089 0.000000 0.000000
# 5 0.000000 0.000000 0.000000 0.000000 0.031552 0.000000
# 6 0.000000 0.000000 0.000000 0.000000 0.000000 0.018799
#
#
# Mechanical properties :
#
#
# Convention : Reuss Voigt Hill
#
# Bulk Modulus (GPa) = 35.30921 46.52669 40.91795
# Shear Modulus (GPa) = 28.83049 33.98154 31.40601
#
# Velocity S-wave (km/s) = 3.52050 3.82208 3.67438
# Velocity P-wave (km/s) = 5.63065 6.28323 5.96587
#
# Compressibility (1/GPa) = 0.02832123
#
# Stress axis : x y z
#
# Youngs Moduli (GPa) = 84.59306 36.11860 87.51823
#
# Poissons Ratio (x) = 0.26846 0.31419
# Poissons Ratio (y) = 0.62875 0.02483
# Poissons Ratio (z) = 0.30369 0.01025
#
# Static dielectric constant tensor:
#      x y z
#    x 1.964140 0.000000 0.000000 
#    y 0.000000 1.945910 0.000000 
#    z 0.000000 0.000000 1.811420 
# 
# From -- ./inp_files/2949.got.cif
#   From: 2010.05.17/outbox.cif.g08.bks.cpg/sg32_2_cif.got.tgz:2949.got - 2010.06.03 17:12:27.
