data_PCOD9343814
_publ_section_title
;
Structure prediction by ZEFSAII (Michael W. Deem and Ramdas Pophale) SiO2 
 PCOD9343814
Probable space group: P B A 2
;
_chemical_formula_sum "Si O2"
_cell_formula_units_Z 28
_cell_length_a 7.810456
_cell_length_b 16.150063
_cell_length_c 9.495815
_cell_angle_alpha 90.000000
_cell_angle_beta 90.000000
_cell_angle_gamma 90.000000
_cell_volume 1197.795993
_symmetry_space_group_name_H-M "P B A 2"
_symmetry_group_IT_number 32
_symmetry_cell_setting 'orthorhombic'
loop_
_space_group_symop_operation_xyz
x,y,z
-x,-y,z
1/2-x,1/2+y,z
1/2+x,1/2-y,z
loop_
_atom_site_type_symbol
_atom_site_label
_atom_site_fract_x
_atom_site_fract_y
_atom_site_fract_z
Si Si1 0.818657 0.538366 0.020470
Si Si2 0.673131 0.292593 0.134265
Si Si3 0.033019 0.688188 0.943284
Si Si4 0.131853 0.837612 0.575654
Si Si5 0.737454 0.834193 0.655869
Si Si6 0.796520 0.007669 0.720286
Si Si7 0.357576 0.370037 0.258814
O O1 0.701440 0.557385 0.154041
O O2 0.000000 0.500000 0.062377
O O3 0.736246 0.492603 0.886514
O O4 0.877125 0.625123 0.949505
O O5 0.554308 0.346317 0.231951
O O6 0.739310 0.209105 0.211588
O O7 0.838510 0.335068 0.070240
O O8 0.551088 0.272623 0.999379
O O9 0.141316 0.690136 0.801383
O O10 0.184262 0.741695 0.556029
O O11 0.244985 0.898815 0.672548
O O12 0.149466 0.881669 0.424788
O O13 0.943511 0.832122 0.645261
O O14 0.701338 0.932505 0.639689
O O15 0.000000 0.000000 0.694273
#
# Coordination Sequence:
#
# PCOD9343814 Si02
#       7
#     4   4   4   4   4   4   4
#     4  11  23  41  65  94 132 172 228 287 347 400
#     4   9  20  37  63  93 132 165 222 275 335 401
#     4  10  20  36  62  99 123 169 220 281 335 392
#     4  11  25  42  67  99 134 184 225 269 350 413
#     4  11  23  41  69  95 139 174 226 280 334 406
#     4  10  25  45  66 101 138 175 231 288 342 409
#     4  10  22  41  64  94 136 177 223 278 338 424
#
# _framework density 23.376269000000001
#
# number of rings (size 3 to 8) (size 9 to 14) (size 15 to 20)
#    0.000    1.714    1.429    1.714   12.000    0.000 
#    0.000   12.857    0.000    0.000    0.000    0.000 
#    0.000    0.000    0.000    0.000    0.000    0.000 
#
# Total GULP energy -156127.909221 kJ/mol
# GULP energy per Si atom -5575.996758 kJ/mol
# Density = 2.332306 g / cm^3
# Si number density = 23.376269 Si / 1000 Ang^3
#
#
#
# Elastic Constant Matrix: (Units=GPa)
#
#
# Indices 1 2 3 4 5 6 
#
# 1 49.8586 8.4619 17.4200 0.0000 0.0000 0.0000
# 2 8.4619 49.7727 16.6327 0.0000 0.0000 0.0000
# 3 17.4200 16.6327 94.1695 0.0000 0.0000 0.0000
# 4 0.0000 0.0000 0.0000 22.4049 0.0000 0.0000
# 5 0.0000 0.0000 0.0000 0.0000 17.7083 0.0000
# 6 0.0000 0.0000 0.0000 0.0000 0.0000 28.2808
#
#
#
# Elastic Compliance Matrix: (Units=1/GPa)
#
#
# Indices 1 2 3 4 5 6 
#
# 1 0.021731 -0.002499 -0.003579 0.000000 0.000000 0.000000
# 2 -0.002499 0.021639 -0.003360 0.000000 0.000000 0.000000
# 3 -0.003579 -0.003360 0.011875 0.000000 0.000000 0.000000
# 4 0.000000 0.000000 0.000000 0.044633 0.000000 0.000000
# 5 0.000000 0.000000 0.000000 0.000000 0.056471 0.000000
# 6 0.000000 0.000000 0.000000 0.000000 0.000000 0.035360
#
#
# Mechanical properties :
#
#
# Convention : Reuss Voigt Hill
#
# Bulk Modulus (GPa) = 27.49480 30.98110 29.23795
# Shear Modulus (GPa) = 22.45116 23.76454 23.10785
#
# Velocity S-wave (km/s) = 3.10244 3.19189 3.14748
# Velocity P-wave (km/s) = 4.96194 5.18326 5.07381
#
# Compressibility (1/GPa) = 0.03637052
#
# Stress axis : x y z
#
# Youngs Moduli (GPa) = 46.01693 46.21308 84.21365
#
# Poissons Ratio (x) = 0.11547 0.30137
# Poissons Ratio (y) = 0.11498 0.28294
# Poissons Ratio (z) = 0.16468 0.15526
#
# Static dielectric constant tensor:
#      x y z
#    x 1.880260 0.000000 0.000000 
#    y 0.000000 1.985760 0.000000 
#    z 0.000000 0.000000 1.903870 
# 
# From -- ./inp_files/2435.got.cif
#   From: 2010.05.17/outbox.cif.g08.bks.cpg/sg32_2_cif.got.tgz:2435.got - 2010.06.03 17:12:27.
