data_PCOD9343211
_publ_section_title
;
Structure prediction by ZEFSAII (Michael W. Deem and Ramdas Pophale) SiO2 
 PCOD9343211
Probable space group: P M N 21
;
_chemical_formula_sum "Si O2"
_cell_formula_units_Z 32
_cell_length_a 8.637278
_cell_length_b 14.691322
_cell_length_c 12.751892
_cell_angle_alpha 90.000000
_cell_angle_beta 90.000000
_cell_angle_gamma 90.000000
_cell_volume 1618.126243
_symmetry_space_group_name_H-M "P M N 21"
_symmetry_group_IT_number 31
_symmetry_cell_setting 'orthorhombic'
loop_
_space_group_symop_operation_xyz
x,y,z
1/2-x,-y,1/2+z
-x,y,z
1/2+x,-y,1/2+z
loop_
_atom_site_type_symbol
_atom_site_label
_atom_site_fract_x
_atom_site_fract_y
_atom_site_fract_z
Si Si1 0.820389 0.552076 0.336140
Si Si2 0.683915 0.370427 0.413584
Si Si3 0.684474 0.046886 0.546241
Si Si4 0.813998 0.266680 0.935899
Si Si5 0.177412 0.165330 0.727034
Si Si6 0.674708 0.631930 0.139305
Si Si7 0.314736 0.142872 0.109578
Si Si8 0.812158 0.831978 0.847133
O O1 0.726948 0.458969 0.347978
O O2 0.754592 0.634641 0.407378
O O3 0.793851 0.586150 0.218203
O O4 0.000000 0.537591 0.359589
O O5 0.500000 0.366794 0.432677
O O6 0.774475 0.382082 0.521691
O O7 0.730530 0.273478 0.364616
O O8 0.500000 0.035829 0.537782
O O9 0.725062 0.097988 0.655089
O O10 0.739236 0.106458 0.445833
O O11 0.763653 0.949099 0.551852
O O12 0.767365 0.195301 0.842891
O O13 0.000000 0.272720 0.931261
O O14 0.757623 0.226816 0.045729
O O15 0.174830 0.260920 0.665085
O O16 0.000000 0.130554 0.735598
O O17 0.500000 0.598558 0.159836
O O18 0.500000 0.151544 0.108543
O O19 0.261685 0.138324 0.231047
O O20 0.000000 0.836477 0.848199
#
# Coordination Sequence:
#
# PCOD9343211 Si02
#       8
#     4   4   4   4   4   4   4   4
#     4  11  23  39  61  92 126 167 212 260 315 384
#     4  11  21  39  64  90 121 165 211 263 320 378
#     4  11  22  39  62  91 121 159 207 256 312 375
#     4  10  22  42  63  89 125 164 208 263 316 370
#     4   9  19  36  60  86 116 153 196 255 313 363
#     4  10  20  37  59  88 121 157 203 260 317 375
#     4  11  24  42  62  90 127 171 211 256 318 381
#     4   9  22  42  63  88 125 164 204 257 315 372
#
# _framework density 19.775959
#
# number of rings (size 3 to 8) (size 9 to 14) (size 15 to 20)
#    0.000    1.750    1.250    3.750    1.750    3.500 
#    0.000    8.125    0.000    0.000    0.000    0.000 
#    0.000    0.000    0.000    0.000    0.000    0.000 
#
# Total GULP energy -178704.008969 kJ/mol
# GULP energy per Si atom -5584.500280 kJ/mol
# Density = 1.973095 g / cm^3
# Si number density = 19.775959 Si / 1000 Ang^3
#
#
#
# Elastic Constant Matrix: (Units=GPa)
#
#
# Indices 1 2 3 4 5 6 
#
# 1 39.5326 4.8735 5.8559 0.0000 0.0000 0.0000
# 2 4.8735 87.1070 35.6048 0.0000 0.0000 0.0000
# 3 5.8559 35.6048 58.6045 0.0000 0.0000 0.0000
# 4 0.0000 0.0000 0.0000 16.9348 0.0000 0.0000
# 5 0.0000 0.0000 0.0000 0.0000 25.4553 0.0000
# 6 0.0000 0.0000 0.0000 0.0000 0.0000 29.0196
#
#
#
# Elastic Compliance Matrix: (Units=1/GPa)
#
#
# Indices 1 2 3 4 5 6 
#
# 1 0.025693 -0.000516 -0.002254 0.000000 0.000000 0.000000
# 2 -0.000516 0.015283 -0.009234 0.000000 0.000000 0.000000
# 3 -0.002254 -0.009234 0.022899 0.000000 0.000000 0.000000
# 4 0.000000 0.000000 0.000000 0.059050 0.000000 0.000000
# 5 0.000000 0.000000 0.000000 0.000000 0.039285 0.000000
# 6 0.000000 0.000000 0.000000 0.000000 0.000000 0.034459
#
#
# Mechanical properties :
#
#
# Convention : Reuss Voigt Hill
#
# Bulk Modulus (GPa) = 25.08299 30.87918 27.98109
# Shear Modulus (GPa) = 21.37068 23.54259 22.45664
#
# Velocity S-wave (km/s) = 3.29087 3.45406 3.37345
# Velocity P-wave (km/s) = 5.21065 5.61745 5.41787
#
# Compressibility (1/GPa) = 0.03986766
#
# Stress axis : x y z
#
# Youngs Moduli (GPa) = 38.92105 65.43104 43.67086
#
# Poissons Ratio (x) = 0.03378 0.09842
# Poissons Ratio (y) = 0.02010 0.40324
# Poissons Ratio (z) = 0.08771 0.60417
#
# Static dielectric constant tensor:
#      x y z
#    x 1.671980 0.000000 0.000000 
#    y 0.000000 1.689610 0.000000 
#    z 0.000000 0.000000 1.703150 
# 
# From -- ./inp_files/3600.got.cif
#   From: 2010.05.17/outbox.cif.g08.bks.cpg/sg31_2_cif.got.tgz:3600.got - 2010.06.03 17:08:30.
