data_PCOD9343715
_publ_section_title
;
Structure prediction by ZEFSAII (Michael W. Deem and Ramdas Pophale) SiO2 
 PCOD9343715
Probable space group: P B A 2
;
_chemical_formula_sum "Si O2"
_cell_formula_units_Z 32
_cell_length_a 12.395491
_cell_length_b 11.971559
_cell_length_c 11.217185
_cell_angle_alpha 90.000000
_cell_angle_beta 90.000000
_cell_angle_gamma 90.000000
_cell_volume 1664.555680
_symmetry_space_group_name_H-M "P B A 2"
_symmetry_group_IT_number 32
_symmetry_cell_setting 'orthorhombic'
loop_
_space_group_symop_operation_xyz
x,y,z
-x,-y,z
1/2-x,1/2+y,z
1/2+x,1/2-y,z
loop_
_atom_site_type_symbol
_atom_site_label
_atom_site_fract_x
_atom_site_fract_y
_atom_site_fract_z
Si Si1 0.968500 0.669883 0.895060
Si Si2 0.155090 0.578236 0.281214
Si Si3 0.483070 0.865928 0.614709
Si Si4 0.411963 0.287503 0.425480
Si Si5 0.322566 0.867032 0.414447
Si Si6 0.659837 0.962917 0.005093
Si Si7 0.913492 0.904092 0.011368
Si Si8 0.605916 0.346364 0.284167
O O1 0.972378 0.663204 0.752660
O O2 0.884234 0.578571 0.949095
O O3 0.935959 0.792349 0.937475
O O4 0.086398 0.632168 0.943170
O O5 0.104632 0.695229 0.320422
O O6 0.125111 0.481622 0.371959
O O7 0.133387 0.544984 0.145777
O O8 0.284319 0.585354 0.297985
O O9 0.568859 0.788009 0.543320
O O10 0.376345 0.836924 0.539391
O O11 0.500000 0.000000 0.609228
O O12 0.304655 0.359643 0.431267
O O13 0.512807 0.360841 0.381938
O O14 0.354305 0.779634 0.311049
O O15 0.788781 0.943714 0.994242
O O16 0.931079 0.870478 0.150374
O O17 0.000000 0.000000 0.981474
#
# Coordination Sequence:
#
# PCOD9343715 Si02
#       8
#     4   4   4   4   4   4   4   4
#     4  11  24  44  65  90 127 171 226 267 318 380
#     4  10  19  34  60  89 123 152 198 249 311 380
#     4  11  21  42  62  87 114 167 214 255 306 364
#     4  10  21  36  60  88 124 157 197 256 312 377
#     4  10  21  36  61  91 117 160 201 250 314 373
#     4  10  23  40  65  98 123 171 212 268 327 388
#     4  11  25  41  66  95 131 168 209 265 329 390
#     4   9  21  36  57  91 122 155 190 245 317 378
#
# _framework density 19.224349
#
# number of rings (size 3 to 8) (size 9 to 14) (size 15 to 20)
#    0.000    1.750    2.500    1.500    5.250    4.000 
#    0.000    0.000    0.000    0.000    0.000    0.000 
#    0.000    0.000    0.000    0.000    0.000    0.000 
#
# Total GULP energy -178487.605189 kJ/mol
# GULP energy per Si atom -5577.737662 kJ/mol
# Density = 1.918059 g / cm^3
# Si number density = 19.224349 Si / 1000 Ang^3
#
#
#
# Elastic Constant Matrix: (Units=GPa)
#
#
# Indices 1 2 3 4 5 6 
#
# 1 101.3011 33.0429 44.7870 0.0000 0.0000 0.0000
# 2 33.0429 85.4994 53.6104 0.0000 0.0000 0.0000
# 3 44.7870 53.6104 132.2678 0.0000 0.0000 0.0000
# 4 0.0000 0.0000 0.0000 13.7423 0.0000 0.0000
# 5 0.0000 0.0000 0.0000 0.0000 10.4269 0.0000
# 6 0.0000 0.0000 0.0000 0.0000 0.0000 15.3596
#
#
#
# Elastic Compliance Matrix: (Units=1/GPa)
#
#
# Indices 1 2 3 4 5 6 
#
# 1 0.012098 -0.002825 -0.002952 0.000000 0.000000 0.000000
# 2 -0.002825 0.016341 -0.005667 0.000000 0.000000 0.000000
# 3 -0.002952 -0.005667 0.010857 0.000000 0.000000 0.000000
# 4 0.000000 0.000000 0.000000 0.072768 0.000000 0.000000
# 5 0.000000 0.000000 0.000000 0.000000 0.095906 0.000000
# 6 0.000000 0.000000 0.000000 0.000000 0.000000 0.065106
#
#
# Mechanical properties :
#
#
# Convention : Reuss Voigt Hill
#
# Bulk Modulus (GPa) = 60.94090 64.66098 62.80094
# Shear Modulus (GPa) = 16.58753 20.41428 18.50090
#
# Velocity S-wave (km/s) = 2.94060 3.26221 3.10557
# Velocity P-wave (km/s) = 6.58013 6.92079 6.75261
#
# Compressibility (1/GPa) = 0.01640934
#
# Stress axis : x y z
#
# Youngs Moduli (GPa) = 82.65906 61.19620 92.10937
#
# Poissons Ratio (x) = 0.17287 0.27186
# Poissons Ratio (y) = 0.23349 0.52196
# Poissons Ratio (z) = 0.24397 0.34678
#
# Static dielectric constant tensor:
#      x y z
#    x 1.699290 0.000000 0.000000 
#    y 0.000000 1.703100 0.000000 
#    z 0.000000 0.000000 1.638140 
# 
# From -- ./inp_files/3876.got.cif
#   From: 2010.05.17/outbox.cif.g08.bks.cpg/sg32_2_cif.got.tgz:3876.got - 2010.06.03 17:12:27.
