data_PCOD9343790
_publ_section_title
;
Structure prediction by ZEFSAII (Michael W. Deem and Ramdas Pophale) SiO2 
 PCOD9343790
Probable space group: P B A 2
;
_chemical_formula_sum "Si O2"
_cell_formula_units_Z 32
_cell_length_a 12.557432
_cell_length_b 12.426840
_cell_length_c 10.952835
_cell_angle_alpha 90.000000
_cell_angle_beta 90.000000
_cell_angle_gamma 90.000000
_cell_volume 1709.181121
_symmetry_space_group_name_H-M "P B A 2"
_symmetry_group_IT_number 32
_symmetry_cell_setting 'orthorhombic'
loop_
_space_group_symop_operation_xyz
x,y,z
-x,-y,z
1/2-x,1/2+y,z
1/2+x,1/2-y,z
loop_
_atom_site_type_symbol
_atom_site_label
_atom_site_fract_x
_atom_site_fract_y
_atom_site_fract_z
Si Si1 0.231752 0.771027 0.038380
Si Si2 0.229216 0.232112 0.443151
Si Si3 0.387447 0.435980 0.892035
Si Si4 0.874474 0.370659 0.240748
Si Si5 0.629502 0.729506 0.667774
Si Si6 0.771923 0.870235 0.812848
Si Si7 0.436866 0.614061 0.589459
Si Si8 0.877565 0.625988 0.240233
O O1 0.183465 0.677042 0.121895
O O2 0.317841 0.829739 0.121427
O O3 0.137864 0.853121 0.000105
O O4 0.281937 0.722702 0.914385
O O5 0.321407 0.180992 0.360350
O O6 0.278435 0.282538 0.566601
O O7 0.145631 0.139406 0.481724
O O8 0.173054 0.319973 0.359447
O O9 0.500000 0.500000 0.903321
O O10 0.381148 0.364654 0.768671
O O11 0.288444 0.518635 0.883760
O O12 0.864174 0.498480 0.245694
O O13 0.998793 0.344634 0.234681
O O14 0.664244 0.837711 0.740120
O O15 0.519217 0.713772 0.597042
O O16 0.865955 0.879308 0.712689
O O17 0.500000 0.500000 0.578342
#
# Coordination Sequence:
#
# PCOD9343790 Si02
#       8
#     4   4   4   4   4   4   4   4
#     4  10  23  37  62  89 118 162 205 246 304 360
#     4  10  23  37  62  89 118 162 205 246 304 360
#     4  11  20  37  60  90 123 157 199 256 303 364
#     4  10  22  42  60  84 120 166 202 252 302 356
#     4  10  20  34  57  87 122 155 193 243 308 361
#     4  10  20  34  57  87 122 155 193 243 308 361
#     4  11  20  37  60  90 123 157 199 256 303 364
#     4  10  22  42  60  82 126 156 206 252 296 356
#
# _framework density 18.722415999999999
#
# number of rings (size 3 to 8) (size 9 to 14) (size 15 to 20)
#    0.000    1.750    2.500    1.500    3.500    0.000 
#    0.000    0.000    0.000    5.250    0.000    0.000 
#    0.000    0.000    0.000    0.000    0.000    0.000 
#
# Total GULP energy -178328.962798 kJ/mol
# GULP energy per Si atom -5572.780087 kJ/mol
# Density = 1.867980 g / cm^3
# Si number density = 18.722416 Si / 1000 Ang^3
#
#
#
# Elastic Constant Matrix: (Units=GPa)
#
#
# Indices 1 2 3 4 5 6 
#
# 1 99.5869 52.2896 42.0566 0.0000 0.0000 0.0000
# 2 52.2896 52.7812 27.9606 0.0000 0.0000 0.0000
# 3 42.0566 27.9606 93.3454 0.0000 0.0000 0.0000
# 4 0.0000 0.0000 0.0000 13.5488 0.0000 0.0000
# 5 0.0000 0.0000 0.0000 0.0000 15.9616 0.0000
# 6 0.0000 0.0000 0.0000 0.0000 0.0000 35.8499
#
#
#
# Elastic Compliance Matrix: (Units=1/GPa)
#
#
# Indices 1 2 3 4 5 6 
#
# 1 0.022144 -0.019793 -0.004048 0.000000 0.000000 0.000000
# 2 -0.019793 0.040211 -0.003127 0.000000 0.000000 0.000000
# 3 -0.004048 -0.003127 0.013473 0.000000 0.000000 0.000000
# 4 0.000000 0.000000 0.000000 0.073807 0.000000 0.000000
# 5 0.000000 0.000000 0.000000 0.000000 0.062650 0.000000
# 6 0.000000 0.000000 0.000000 0.000000 0.000000 0.027894
#
#
# Mechanical properties :
#
#
# Convention : Reuss Voigt Hill
#
# Bulk Modulus (GPa) = 45.67858 54.48081 50.07969
# Shear Modulus (GPa) = 16.58849 21.29917 18.94383
#
# Velocity S-wave (km/s) = 2.97984 3.37654 3.18437
# Velocity P-wave (km/s) = 6.02412 6.66061 6.35035
#
# Compressibility (1/GPa) = 0.02189210
#
# Stress axis : x y z
#
# Youngs Moduli (GPa) = 45.15986 24.86859 74.22009
#
# Poissons Ratio (x) = 0.49222 0.30044
# Poissons Ratio (y) = 0.89385 0.23210
# Poissons Ratio (z) = 0.18281 0.07777
#
# Static dielectric constant tensor:
#      x y z
#    x 1.657770 0.000000 0.000000 
#    y 0.000000 1.653160 0.000000 
#    z 0.000000 0.000000 1.666810 
# 
# From -- ./inp_files/3875.got.cif
#   From: 2010.05.17/outbox.cif.g08.bks.cpg/sg32_2_cif.got.tgz:3875.got - 2010.06.03 17:12:27.
