data_PCOD9343085
_publ_section_title
;
Structure prediction by ZEFSAII (Michael W. Deem and Ramdas Pophale) SiO2 
 PCOD9343085
Probable space group: P M N 21
;
_chemical_formula_sum "Si O2"
_cell_formula_units_Z 32
_cell_length_a 7.414956
_cell_length_b 7.193559
_cell_length_c 25.618435
_cell_angle_alpha 90.000000
_cell_angle_beta 90.000000
_cell_angle_gamma 90.000000
_cell_volume 1366.485362
_symmetry_space_group_name_H-M "P M N 21"
_symmetry_group_IT_number 31
_symmetry_cell_setting 'orthorhombic'
loop_
_space_group_symop_operation_xyz
x,y,z
1/2-x,-y,1/2+z
-x,y,z
1/2+x,-y,1/2+z
loop_
_atom_site_type_symbol
_atom_site_label
_atom_site_fract_x
_atom_site_fract_y
_atom_site_fract_z
Si Si1 0.209950 0.788220 0.000000
Si Si2 0.711720 0.608591 0.222454
Si Si3 0.283107 0.359285 0.978464
Si Si4 0.278829 0.926500 0.291491
Si Si5 0.221511 0.803913 0.698058
Si Si6 0.210691 0.037378 0.907303
Si Si7 0.706966 0.243955 0.086988
Si Si8 0.716811 0.324035 0.609303
O O1 0.221195 0.571350 0.983453
O O2 0.291450 0.911461 0.953690
O O3 0.000000 0.838897 0.004151
O O4 0.282015 0.795329 0.059556
O O5 0.500000 0.582885 0.231622
O O6 0.782519 0.725304 0.270932
O O7 0.785345 0.404188 0.212089
O O8 0.729894 0.723371 0.168272
O O9 0.500000 0.361966 0.980932
O O10 0.225126 0.248764 0.927393
O O11 0.213100 0.242823 0.029015
O O12 0.500000 0.925264 0.292729
O O13 0.225463 0.065616 0.245440
O O14 0.214852 0.978592 0.349052
O O15 0.286316 0.847856 0.639093
O O16 0.000000 0.804447 0.695285
O O17 0.000000 0.985528 0.903529
O O18 0.500000 0.184794 0.082726
O O19 0.710870 0.466166 0.099953
O O20 0.500000 0.332804 0.607015
#
# Coordination Sequence:
#
# PCOD9343085 Si02
#       8
#     4   4   4   4   4   4   4   4
#     4   9  19  35  54  76 105 141 176 212 256 308
#     4   9  17  30  50  74  98 125 158 202 253 300
#     4  10  20  34  54  79 106 137 171 212 264 314
#     4   9  18  31  49  72  94 124 169 211 246 291
#     4   8  14  27  47  71  96 118 151 201 245 286
#     4  10  21  36  53  75 103 136 177 219 256 302
#     4   8  15  29  49  73 100 129 163 204 251 303
#     4   9  16  28  48  74 102 130 161 199 249 308
#
# _framework density 23.417739999999998
#
# number of rings (size 3 to 8) (size 9 to 14) (size 15 to 20)
#    0.000    3.000    0.000    1.500    0.000    3.500 
#    0.000    5.625    0.000    6.000    0.000    0.000 
#    0.000    0.000    0.000    0.000    0.000    0.000 
#
# Total GULP energy -178624.025260 kJ/mol
# GULP energy per Si atom -5582.000789 kJ/mol
# Density = 2.336444 g / cm^3
# Si number density = 23.417740 Si / 1000 Ang^3
#
#
#
# Elastic Constant Matrix: (Units=GPa)
#
#
# Indices 1 2 3 4 5 6 
#
# 1 88.1118 -4.2568 -7.5422 0.0000 0.0000 0.0000
# 2 -4.2568 63.8099 36.5217 0.0000 0.0000 0.0000
# 3 -7.5422 36.5217 147.7294 0.0000 0.0000 0.0000
# 4 0.0000 0.0000 0.0000 33.0645 0.0000 0.0000
# 5 0.0000 0.0000 0.0000 0.0000 -5.9129 0.0000
# 6 0.0000 0.0000 0.0000 0.0000 0.0000 7.1006
#
#
#
# Elastic Compliance Matrix: (Units=1/GPa)
#
#
# Indices 1 2 3 4 5 6 
#
# 1 0.011413 0.000498 0.000459 0.000000 0.000000 0.000000
# 2 0.000498 0.018276 -0.004493 0.000000 0.000000 0.000000
# 3 0.000459 -0.004493 0.007903 0.000000 0.000000 0.000000
# 4 0.000000 0.000000 0.000000 0.030244 0.000000 0.000000
# 5 0.000000 0.000000 0.000000 0.000000 -0.169123 0.000000
# 6 0.000000 0.000000 0.000000 0.000000 0.000000 0.140833
#
#
# Mechanical properties :
#
#
# Convention : Reuss Voigt Hill
#
# Bulk Modulus (GPa) = 32.76304 38.78852 35.77578
# Shear Modulus (GPa) = 88.04392 25.17901 56.61147
#
# Velocity S-wave (km/s) = 6.13830 3.28260 4.92210
# Velocity P-wave (km/s) = 8.01619 5.56480 6.90023
#
# Compressibility (1/GPa) = 0.03052220
#
# Stress axis : x y z
#
# Youngs Moduli (GPa) = 87.62232 54.71578 126.52936
#
# Poissons Ratio (x) = -0.02727 -0.05813
# Poissons Ratio (y) = -0.04367 0.56847
# Poissons Ratio (z) = -0.04026 0.24583
#
# Static dielectric constant tensor:
#      x y z
#    x 1.910270 0.000000 0.000000 
#    y 0.000000 1.896980 0.000000 
#    z 0.000000 0.000000 1.897350 
# 
# From -- ./inp_files/6453.got.cif
#   From: 2010.05.17/outbox.cif.g08.bks.cpg/sg31_4_cif.got.tgz:6453.got - 2010.06.03 17:08:30.
