data_PCOD9343121
_publ_section_title
;
Structure prediction by ZEFSAII (Michael W. Deem and Ramdas Pophale) SiO2 
 PCOD9343121
Probable space group: P M N 21
;
_chemical_formula_sum "Si O2"
_cell_formula_units_Z 32
_cell_length_a 9.054980
_cell_length_b 20.470866
_cell_length_c 10.222138
_cell_angle_alpha 90.000000
_cell_angle_beta 90.000000
_cell_angle_gamma 90.000000
_cell_volume 1894.809051
_symmetry_space_group_name_H-M "P M N 21"
_symmetry_group_IT_number 31
_symmetry_cell_setting 'orthorhombic'
loop_
_space_group_symop_operation_xyz
x,y,z
1/2-x,-y,1/2+z
-x,y,z
1/2+x,-y,1/2+z
loop_
_atom_site_type_symbol
_atom_site_label
_atom_site_fract_x
_atom_site_fract_y
_atom_site_fract_z
Si Si1 0.177277 0.449504 0.181040
Si Si2 0.177661 0.796878 0.196653
Si Si3 0.676214 0.700873 0.694844
Si Si4 0.178011 0.950719 0.899017
Si Si5 0.176909 0.554677 0.403972
Si Si6 0.177349 0.948577 0.201084
Si Si7 0.322467 0.199177 0.393334
Si Si8 0.176903 0.305298 0.891603
O O1 0.216213 0.375015 0.219832
O O2 0.212025 0.500577 0.294827
O O3 0.000000 0.450488 0.157775
O O4 0.259009 0.464706 0.045507
O O5 0.214128 0.872554 0.226930
O O6 0.259310 0.747451 0.291970
O O7 0.000000 0.789510 0.209044
O O8 0.216674 0.785398 0.044241
O O9 0.500000 0.706960 0.710358
O O10 0.754136 0.750388 0.792226
O O11 0.711875 0.713599 0.542261
O O12 0.222366 0.876002 0.866891
O O13 0.000000 0.953770 0.891557
O O14 0.247800 0.002512 0.801541
O O15 0.219441 0.963157 0.050471
O O16 0.249959 0.624059 0.368637
O O17 0.000000 0.561593 0.411253
O O18 0.000000 0.954367 0.209960
O O19 0.500000 0.201579 0.385066
O O20 0.000000 0.310620 0.880719
#
# Coordination Sequence:
#
# PCOD9343121 Si02
#       8
#     4   4   4   4   4   4   4   4
#     4   9  20  37  53  75 107 136 168 212 256 301
#     4   9  19  36  54  74 102 134 170 210 253 303
#     4   9  19  35  52  73 103 134 165 206 253 301
#     4   9  19  35  52  73 103 134 167 209 254 301
#     4  10  20  35  56  79 104 137 174 211 254 304
#     4   9  19  35  53  74 102 134 168 209 253 300
#     4   9  19  35  53  74 101 133 169 210 253 300
#     4  10  21  36  53  76 106 136 169 211 256 302
#
# _framework density 16.888245999999999
#
# number of rings (size 3 to 8) (size 9 to 14) (size 15 to 20)
#    0.000    2.750    0.000    3.000    0.000    7.500 
#    0.000   10.000    0.000    0.000    0.000    0.000 
#    0.000    0.000    0.000    0.000    0.000    0.000 
#
# Total GULP energy -178469.153336 kJ/mol
# GULP energy per Si atom -5577.161042 kJ/mol
# Density = 1.684981 g / cm^3
# Si number density = 16.888246 Si / 1000 Ang^3
#
#
#
# Elastic Constant Matrix: (Units=GPa)
#
#
# Indices 1 2 3 4 5 6 
#
# 1 44.3683 72.5107 74.1139 0.0000 0.0000 0.0000
# 2 72.5107 163.5885 154.5923 0.0000 0.0000 0.0000
# 3 74.1139 154.5923 165.3427 0.0000 0.0000 0.0000
# 4 0.0000 0.0000 0.0000 41.4076 0.0000 0.0000
# 5 0.0000 0.0000 0.0000 0.0000 35.5620 0.0000
# 6 0.0000 0.0000 0.0000 0.0000 0.0000 199.4061
#
#
#
# Elastic Compliance Matrix: (Units=1/GPa)
#
#
# Indices 1 2 3 4 5 6 
#
# 1 0.094301 -0.015920 -0.027385 0.000000 0.000000 0.000000
# 2 -0.015920 0.055187 -0.044463 0.000000 0.000000 0.000000
# 3 -0.027385 -0.044463 0.059896 0.000000 0.000000 0.000000
# 4 0.000000 0.000000 0.000000 0.024150 0.000000 0.000000
# 5 0.000000 0.000000 0.000000 0.000000 0.028120 0.000000
# 6 0.000000 0.000000 0.000000 0.000000 0.000000 0.005015
#
#
# Mechanical properties :
#
#
# Convention : Reuss Voigt Hill
#
# Bulk Modulus (GPa) = 29.54408 108.41479 68.97943
# Shear Modulus (GPa) = 11.02564 60.08064 35.55314
#
# Velocity S-wave (km/s) = 2.55788 5.97098 4.59322
# Velocity P-wave (km/s) = 5.12402 10.57694 8.31045
#
# Compressibility (1/GPa) = 0.03384772
#
# Stress axis : x y z
#
# Youngs Moduli (GPa) = 10.60429 18.12008 16.69574
#
# Poissons Ratio (x) = 0.28847 0.45722
# Poissons Ratio (y) = 0.16882 0.74235
# Poissons Ratio (z) = 0.29040 0.80568
#
# Static dielectric constant tensor:
#      x y z
#    x 1.562480 0.000000 0.000000 
#    y 0.000000 1.551990 0.000000 
#    z 0.000000 0.000000 1.549240 
# 
# From -- ./inp_files/1873.got.cif
#   From: 2010.05.17/outbox.cif.g08.bks.cpg/sg31_1_cif.got.tgz:1873.got - 2010.06.03 17:08:30.
