data_PCOD9343409
_publ_section_title
;
Structure prediction by ZEFSAII (Michael W. Deem and Ramdas Pophale) SiO2 
 PCOD9343409
Probable space group: P M N 21
;
_chemical_formula_sum "Si O2"
_cell_formula_units_Z 32
_cell_length_a 7.789628
_cell_length_b 15.728557
_cell_length_c 12.331576
_cell_angle_alpha 90.000000
_cell_angle_beta 90.000000
_cell_angle_gamma 90.000000
_cell_volume 1510.859858
_symmetry_space_group_name_H-M "P M N 21"
_symmetry_group_IT_number 31
_symmetry_cell_setting 'orthorhombic'
loop_
_space_group_symop_operation_xyz
x,y,z
1/2-x,-y,1/2+z
-x,y,z
1/2+x,-y,1/2+z
loop_
_atom_site_type_symbol
_atom_site_label
_atom_site_fract_x
_atom_site_fract_y
_atom_site_fract_z
Si Si1 0.696189 0.587175 0.738680
Si Si2 0.791875 0.915536 0.714719
Si Si3 0.789235 0.602836 0.273172
Si Si4 0.702517 0.242398 0.359661
Si Si5 0.696462 0.354024 0.014468
Si Si6 0.797246 0.168953 0.000224
Si Si7 0.792478 0.105391 0.766163
Si Si8 0.794757 0.744967 0.104612
O O1 0.500000 0.586856 0.776437
O O2 0.770438 0.494164 0.761824
O O3 0.778933 0.668677 0.796079
O O4 0.703208 0.600043 0.609564
O O5 0.728054 0.837053 0.789393
O O6 0.732939 0.900675 0.591869
O O7 0.000000 0.914146 0.715977
O O8 0.734386 0.008368 0.752997
O O9 0.737998 0.634550 0.392430
O O10 0.728922 0.666956 0.179185
O O11 0.000000 0.603424 0.269403
O O12 0.500000 0.225215 0.371215
O O13 0.774149 0.250545 0.481865
O O14 0.500000 0.384194 0.018738
O O15 0.703647 0.254021 0.038005
O O16 0.000000 0.187611 0.993831
O O17 0.734097 0.141853 0.881937
O O18 0.736935 0.168251 0.670446
O O19 0.000000 0.104823 0.767681
O O20 0.000000 0.732649 0.096802
#
# Coordination Sequence:
#
# PCOD9343409 Si02
#       8
#     4   4   4   4   4   4   4   4
#     4  11  23  39  60  88 121 154 196 249 294 344
#     4  10  22  40  59  84 121 159 194 239 295 352
#     4   9  21  39  59  86 119 154 195 242 293 347
#     4  10  22  39  61  85 116 158 199 238 291 354
#     4  11  21  39  63  86 117 156 197 242 297 355
#     4  11  22  38  62  90 117 150 198 251 294 343
#     4  10  23  40  59  88 122 154 193 247 299 343
#     4  10  21  40  63  85 115 159 200 238 289 354
#
# _framework density 21.179993
#
# number of rings (size 3 to 8) (size 9 to 14) (size 15 to 20)
#    0.000    1.750    2.500    1.125    3.500    1.500 
#    0.000    3.125    0.000    0.000    0.000    0.000 
#    0.000    0.000    0.000    0.000    0.000    0.000 
#
# Total GULP energy -178752.116276 kJ/mol
# GULP energy per Si atom -5586.003634 kJ/mol
# Density = 2.113179 g / cm^3
# Si number density = 21.179993 Si / 1000 Ang^3
#
#
#
# Elastic Constant Matrix: (Units=GPa)
#
#
# Indices 1 2 3 4 5 6 
#
# 1 27.8333 -4.4371 2.0313 0.0000 0.0000 0.0000
# 2 -4.4371 116.6795 38.6658 0.0000 0.0000 0.0000
# 3 2.0313 38.6658 127.1318 0.0000 0.0000 0.0000
# 4 0.0000 0.0000 0.0000 32.0484 0.0000 0.0000
# 5 0.0000 0.0000 0.0000 0.0000 8.5653 0.0000
# 6 0.0000 0.0000 0.0000 0.0000 0.0000 -1.7395
#
#
#
# Elastic Compliance Matrix: (Units=1/GPa)
#
#
# Indices 1 2 3 4 5 6 
#
# 1 0.036288 0.001748 -0.001112 0.000000 0.000000 0.000000
# 2 0.001748 0.009615 -0.002952 0.000000 0.000000 0.000000
# 3 -0.001112 -0.002952 0.008782 0.000000 0.000000 0.000000
# 4 0.000000 0.000000 0.000000 0.031203 0.000000 0.000000
# 5 0.000000 0.000000 0.000000 0.000000 0.116751 0.000000
# 6 0.000000 0.000000 0.000000 0.000000 0.000000 -0.574884
#
#
# Mechanical properties :
#
#
# Convention : Reuss Voigt Hill
#
# Bulk Modulus (GPa) = 19.97852 38.24052 29.10952
# Shear Modulus (GPa) = -14.24786 23.46713 4.60964
#
# Velocity S-wave (km/s) = -2.59647 3.33225 1.47687
# Velocity P-wave (km/s) = 0.68144 5.73580 4.08435
#
# Compressibility (1/GPa) = 0.05005375
#
# Stress axis : x y z
#
# Youngs Moduli (GPa) = 27.55729 104.00056 113.87530
#
# Poissons Ratio (x) = -0.18182 0.12658
# Poissons Ratio (y) = -0.04818 0.33620
# Poissons Ratio (z) = 0.03063 0.30704
#
# Static dielectric constant tensor:
#      x y z
#    x 1.782860 0.000000 0.000000 
#    y 0.000000 1.734700 0.000000 
#    z 0.000000 0.000000 1.736950 
# 
# From -- ./inp_files/3636.got.cif
#   From: 2010.05.17/outbox.cif.g08.bks.cpg/sg31_2_cif.got.tgz:3636.got - 2010.06.03 17:08:30.
