data_PCOD9343599
_publ_section_title
;
Structure prediction by ZEFSAII (Michael W. Deem and Ramdas Pophale) SiO2 
 PCOD9343599
Probable space group: P M N 21
;
_chemical_formula_sum "Si O2"
_cell_formula_units_Z 32
_cell_length_a 7.370440
_cell_length_b 8.025687
_cell_length_c 24.760635
_cell_angle_alpha 90.000000
_cell_angle_beta 90.000000
_cell_angle_gamma 90.000000
_cell_volume 1464.661992
_symmetry_space_group_name_H-M "P M N 21"
_symmetry_group_IT_number 31
_symmetry_cell_setting 'orthorhombic'
loop_
_space_group_symop_operation_xyz
x,y,z
1/2-x,-y,1/2+z
-x,y,z
1/2+x,-y,1/2+z
loop_
_atom_site_type_symbol
_atom_site_label
_atom_site_fract_x
_atom_site_fract_y
_atom_site_fract_z
Si Si1 0.721442 0.250237 0.346840
Si Si2 0.218397 0.557645 0.030457
Si Si3 0.221437 0.431736 0.915617
Si Si4 0.778566 0.067554 0.915766
Si Si5 0.777306 0.750518 0.722203
Si Si6 0.787330 0.440312 0.652419
Si Si7 0.281586 0.058167 0.530597
Si Si8 0.787378 0.060910 0.652552
O O1 0.500000 0.250237 0.347775
O O2 0.780654 0.415043 0.378768
O O3 0.776393 0.249798 0.284633
O O4 0.780653 0.085840 0.378991
O O5 0.272701 0.501831 0.090114
O O6 0.278006 0.749753 0.024588
O O7 0.000000 0.556222 0.029735
O O8 0.279191 0.459119 0.977702
O O9 0.277814 0.249570 0.896286
O O10 0.000000 0.435085 0.915605
O O11 0.000000 0.064179 0.915759
O O12 0.720857 0.040558 0.977871
O O13 0.714469 0.583726 0.691369
O O14 0.000000 0.750538 0.720278
O O15 0.714447 0.917554 0.691515
O O16 0.711754 0.250611 0.656073
O O17 0.000000 0.426280 0.664947
O O18 0.500000 0.056671 0.529934
O O19 0.227075 0.002732 0.590272
O O20 0.000000 0.075052 0.665141
#
# Coordination Sequence:
#
# PCOD9343599 Si02
#       8
#     4   4   4   4   4   4   4   4
#     4   9  16  28  42  61  91 121 148 185 228 266
#     4   9  16  28  46  68  95 120 146 185 228 270
#     4   9  16  25  40  64  91 117 145 182 228 271
#     4   9  16  25  40  64  91 117 145 182 228 271
#     4   9  18  30  45  63  89 125 158 185 220 270
#     4   9  18  31  45  65  93 122 151 185 223 266
#     4   9  16  28  46  68  95 120 146 185 228 270
#     4   9  18  31  45  65  93 122 151 185 223 266
#
# _framework density 21.848043000000001
#
# number of rings (size 3 to 8) (size 9 to 14) (size 15 to 20)
#    0.000    3.000    1.250    0.000    1.750    1.000 
#    0.000    5.000    0.000    0.000    0.000    3.500 
#    0.000    0.000    0.000    0.000    0.000    0.000 
#
# Total GULP energy -178623.726436 kJ/mol
# GULP energy per Si atom -5581.991451 kJ/mol
# Density = 2.179832 g / cm^3
# Si number density = 21.848043 Si / 1000 Ang^3
#
#
#
# Elastic Constant Matrix: (Units=GPa)
#
#
# Indices 1 2 3 4 5 6 
#
# 1 76.1903 6.8406 -0.7651 0.0000 0.0000 0.0000
# 2 6.8406 190.2863 134.0358 0.0000 0.0000 0.0000
# 3 -0.7651 134.0358 178.9602 0.0000 0.0000 0.0000
# 4 0.0000 0.0000 0.0000 12.3308 0.0000 0.0000
# 5 0.0000 0.0000 0.0000 0.0000 14.5025 0.0000
# 6 0.0000 0.0000 0.0000 0.0000 0.0000 -6.7733
#
#
#
# Elastic Compliance Matrix: (Units=1/GPa)
#
#
# Indices 1 2 3 4 5 6 
#
# 1 0.013232 -0.001091 0.000874 0.000000 0.000000 0.000000
# 2 -0.001091 0.011214 -0.008403 0.000000 0.000000 0.000000
# 3 0.000874 -0.008403 0.011885 0.000000 0.000000 0.000000
# 4 0.000000 0.000000 0.000000 0.081098 0.000000 0.000000
# 5 0.000000 0.000000 0.000000 0.000000 0.068954 0.000000
# 6 0.000000 0.000000 0.000000 0.000000 0.000000 -0.147639
#
#
# Mechanical properties :
#
#
# Convention : Reuss Voigt Hill
#
# Bulk Modulus (GPa) = 52.38495 80.62880 66.50687
# Shear Modulus (GPa) = 80.19548 24.36704 52.28126
#
# Velocity S-wave (km/s) = 6.06512 3.34323 4.89709
# Velocity P-wave (km/s) = 8.54849 7.20329 7.90456
#
# Compressibility (1/GPa) = 0.01908945
#
# Stress axis : x y z
#
# Youngs Moduli (GPa) = 75.57567 89.17614 84.13619
#
# Poissons Ratio (x) = 0.09731 -0.07352
# Poissons Ratio (y) = 0.08247 0.70703
# Poissons Ratio (z) = -0.06604 0.74939
#
# Static dielectric constant tensor:
#      x y z
#    x 1.865580 0.000000 0.000000 
#    y 0.000000 1.793620 0.000000 
#    z 0.000000 0.000000 1.741950 
# 
# From -- ./inp_files/6056.got.cif
#   From: 2010.05.17/outbox.cif.g08.bks.cpg/sg31_4_cif.got.tgz:6056.got - 2010.06.03 17:08:30.
