data_PCOD9343863
_publ_section_title
;
Structure prediction by ZEFSAII (Michael W. Deem and Ramdas Pophale) SiO2 
 PCOD9343863
Probable space group: P B A 2
;
_chemical_formula_sum "Si O2"
_cell_formula_units_Z 32
_cell_length_a 30.922997
_cell_length_b 5.334449
_cell_length_c 8.582221
_cell_angle_alpha 90.000000
_cell_angle_beta 90.000000
_cell_angle_gamma 90.000000
_cell_volume 1415.698720
_symmetry_space_group_name_H-M "P B A 2"
_symmetry_group_IT_number 32
_symmetry_cell_setting 'orthorhombic'
loop_
_space_group_symop_operation_xyz
x,y,z
-x,-y,z
1/2-x,1/2+y,z
1/2+x,1/2-y,z
loop_
_atom_site_type_symbol
_atom_site_label
_atom_site_fract_x
_atom_site_fract_y
_atom_site_fract_z
Si Si1 0.042729 0.664900 0.298720
Si Si2 0.223686 0.978969 0.684864
Si Si3 0.132966 0.736320 0.726980
Si Si4 0.548170 0.498171 0.589392
Si Si5 0.394405 0.088292 0.067736
Si Si6 0.141484 0.089001 0.214257
Si Si7 0.109977 0.369377 0.495774
Si Si8 0.769632 0.030710 0.309613
O O1 0.042007 0.911034 0.407885
O O2 0.055810 0.658407 0.116622
O O3 0.084970 0.532362 0.369714
O O4 0.000000 0.500000 0.324781
O O5 0.253775 0.740870 0.734077
O O6 0.174016 0.922505 0.736579
O O7 0.223033 0.986490 0.495784
O O8 0.086980 0.844345 0.665470
O O9 0.143575 0.522084 0.598381
O O10 0.120704 0.621229 0.891619
O O11 0.500000 0.500000 0.657540
O O12 0.569703 0.226574 0.597174
O O13 0.370607 0.315017 0.157627
O O14 0.381413 0.805492 0.114878
O O15 0.129642 0.143700 0.395505
O O16 0.192564 0.098936 0.212403
O O17 0.768127 0.327953 0.276961
#
# Coordination Sequence:
#
# PCOD9343863 Si02
#       8
#     4   4   4   4   4   4   4   4
#     4  10  20  40  62  96 131 173 232 283 332 415
#     4  10  24  42  69 102 134 180 236 296 359 423
#     4  11  27  43  66 103 143 184 234 299 356 429
#     4  11  21  40  70 101 134 180 237 291 343 410
#     4  11  26  44  65  97 138 187 220 276 356 426
#     4  11  23  43  66  95 129 176 226 275 342 415
#     4  10  22  38  69  91 130 173 234 285 335 390
#     4  10  21  37  64 101 128 160 221 293 344 399
#
# _framework density 22.603683
#
# number of rings (size 3 to 8) (size 9 to 14) (size 15 to 20)
#    0.000    1.500    2.500    1.500   12.250    0.000 
#    2.250    4.375    0.000    0.000    0.000    0.000 
#    0.000    0.000    0.000    0.000    0.000    0.000 
#
# Total GULP energy -178233.850901 kJ/mol
# GULP energy per Si atom -5569.807841 kJ/mol
# Density = 2.255224 g / cm^3
# Si number density = 22.603683 Si / 1000 Ang^3
#
#
#
# Elastic Constant Matrix: (Units=GPa)
#
#
# Indices 1 2 3 4 5 6 
#
# 1 94.1217 26.0118 26.5826 0.0000 0.0000 0.0000
# 2 26.0118 76.0074 5.0894 0.0000 0.0000 0.0000
# 3 26.5826 5.0894 33.2302 0.0000 0.0000 0.0000
# 4 0.0000 0.0000 0.0000 12.5141 0.0000 0.0000
# 5 0.0000 0.0000 0.0000 0.0000 10.8898 0.0000
# 6 0.0000 0.0000 0.0000 0.0000 0.0000 35.0237
#
#
#
# Elastic Compliance Matrix: (Units=1/GPa)
#
#
# Indices 1 2 3 4 5 6 
#
# 1 0.015047 -0.004389 -0.011365 0.000000 0.000000 0.000000
# 2 -0.004389 0.014573 0.001279 0.000000 0.000000 0.000000
# 3 -0.011365 0.001279 0.038989 0.000000 0.000000 0.000000
# 4 0.000000 0.000000 0.000000 0.079910 0.000000 0.000000
# 5 0.000000 0.000000 0.000000 0.000000 0.091829 0.000000
# 6 0.000000 0.000000 0.000000 0.000000 0.000000 0.028552
#
#
# Mechanical properties :
#
#
# Convention : Reuss Voigt Hill
#
# Bulk Modulus (GPa) = 25.21485 35.41409 30.31447
# Shear Modulus (GPa) = 16.07363 21.39722 18.73542
#
# Velocity S-wave (km/s) = 2.66955 3.08007 2.88213
# Velocity P-wave (km/s) = 4.54768 5.32452 4.95136
#
# Compressibility (1/GPa) = 0.03965917
#
# Stress axis : x y z
#
# Youngs Moduli (GPa) = 66.45793 68.62065 25.64855
#
# Poissons Ratio (x) = 0.30114 0.29149
# Poissons Ratio (y) = 0.29165 -0.03280
# Poissons Ratio (z) = 0.75528 -0.08774
#
# Static dielectric constant tensor:
#      x y z
#    x 1.894490 0.000000 0.000000 
#    y 0.000000 1.945370 0.000000 
#    z 0.000000 0.000000 1.925060 
# 
# From -- ./inp_files/3434.got.cif
#   From: 2010.05.17/outbox.cif.g08.bks.cpg/sg32_2_cif.got.tgz:3434.got - 2010.06.03 17:12:27.
