data_PCOD9343094
_publ_section_title
;
Structure prediction by ZEFSAII (Michael W. Deem and Ramdas Pophale) SiO2 
 PCOD9343094
Probable space group: P M N 21
;
_chemical_formula_sum "Si O2"
_cell_formula_units_Z 32
_cell_length_a 11.776017
_cell_length_b 27.035093
_cell_length_c 5.176586
_cell_angle_alpha 90.000000
_cell_angle_beta 90.000000
_cell_angle_gamma 90.000000
_cell_volume 1648.047502
_symmetry_space_group_name_H-M "P M N 21"
_symmetry_group_IT_number 31
_symmetry_cell_setting 'orthorhombic'
loop_
_space_group_symop_operation_xyz
x,y,z
1/2-x,-y,1/2+z
-x,y,z
1/2+x,-y,1/2+z
loop_
_atom_site_type_symbol
_atom_site_label
_atom_site_fract_x
_atom_site_fract_y
_atom_site_fract_z
Si Si1 0.629448 0.462590 0.489330
Si Si2 0.624860 0.034176 0.662839
Si Si3 0.376197 0.940246 0.955408
Si Si4 0.136201 0.326943 0.872409
Si Si5 0.128231 0.872975 0.477039
Si Si6 0.762960 0.157758 0.472460
Si Si7 0.636760 0.734942 0.872687
Si Si8 0.760706 0.433346 0.989911
O O1 0.500000 0.450314 0.438709
O O2 0.666926 0.446219 0.774106
O O3 0.649595 0.521671 0.467098
O O4 0.708673 0.437240 0.275236
O O5 0.500000 0.048456 0.542313
O O6 0.750516 0.045350 0.558066
O O7 0.626928 0.067734 0.924558
O O8 0.619371 0.975753 0.707645
O O9 0.500000 0.950265 0.086537
O O10 0.364019 0.881619 0.926477
O O11 0.167458 0.304239 0.595873
O O12 0.189067 0.380025 0.930237
O O13 0.000000 0.332335 0.879172
O O14 0.167509 0.288036 0.096276
O O15 0.170914 0.858253 0.758091
O O16 0.000000 0.855301 0.435946
O O17 0.210232 0.850547 0.256550
O O18 0.804091 0.213062 0.427303
O O19 0.500000 0.741736 0.881008
#
# Coordination Sequence:
#
# PCOD9343094 Si02
#       8
#     4   4   4   4   4   4   4   4
#     4  10  20  34  54  83 117 147 179 221 268 322
#     4   9  19  34  52  80 114 150 187 224 277 345
#     4  10  20  34  54  83 116 148 186 233 284 343
#     4  10  20  36  58  81 109 144 186 231 273 327
#     4  10  21  37  59  82 108 146 188 227 273 336
#     4  11  21  37  59  83 112 144 181 234 289 335
#     4  10  21  36  56  82 109 141 181 231 287 332
#     4  10  20  34  56  82 110 148 186 221 266 320
#
# _framework density 19.416914999999999
#
# number of rings (size 3 to 8) (size 9 to 14) (size 15 to 20)
#    0.000    2.000    0.000    3.750    0.000    1.000 
#    0.000   10.625    0.000   15.000    0.000    0.000 
#    0.000    0.000    0.000    0.000    0.000    0.000 
#
# Total GULP energy -178374.471628 kJ/mol
# GULP energy per Si atom -5574.202238 kJ/mol
# Density = 1.937272 g / cm^3
# Si number density = 19.416915 Si / 1000 Ang^3
#
#
#
# Elastic Constant Matrix: (Units=GPa)
#
#
# Indices 1 2 3 4 5 6 
#
# 1 96.8435 20.4980 0.0111 0.0000 0.0000 0.0000
# 2 20.4980 71.4170 -16.4914 0.0000 0.0000 0.0000
# 3 0.0111 -16.4914 37.2278 0.0000 0.0000 0.0000
# 4 0.0000 0.0000 0.0000 23.6711 0.0000 0.0000
# 5 0.0000 0.0000 0.0000 0.0000 16.2366 0.0000
# 6 0.0000 0.0000 0.0000 0.0000 0.0000 15.0127
#
#
#
# Elastic Compliance Matrix: (Units=1/GPa)
#
#
# Indices 1 2 3 4 5 6 
#
# 1 0.011076 -0.003542 -0.001572 0.000000 0.000000 0.000000
# 2 -0.003542 0.016731 0.007412 0.000000 0.000000 0.000000
# 3 -0.001572 0.007412 0.030146 0.000000 0.000000 0.000000
# 4 0.000000 0.000000 0.000000 0.042246 0.000000 0.000000
# 5 0.000000 0.000000 0.000000 0.000000 0.061589 0.000000
# 6 0.000000 0.000000 0.000000 0.000000 0.000000 0.066610
#
#
# Mechanical properties :
#
#
# Convention : Reuss Voigt Hill
#
# Bulk Modulus (GPa) = 15.98769 23.72484 19.85627
# Shear Modulus (GPa) = 20.43733 24.41546 22.42639
#
# Velocity S-wave (km/s) = 3.24783 3.54988 3.40221
# Velocity P-wave (km/s) = 4.72401 5.38956 5.06772
#
# Compressibility (1/GPa) = 0.06254812
#
# Stress axis : x y z
#
# Youngs Moduli (GPa) = 90.28663 59.77084 33.17225
#
# Poissons Ratio (x) = 0.21171 0.05216
# Poissons Ratio (y) = 0.31980 -0.24589
# Poissons Ratio (z) = 0.14196 -0.44305
#
# Static dielectric constant tensor:
#      x y z
#    x 1.687970 0.000000 0.000000 
#    y 0.000000 1.662490 0.000000 
#    z 0.000000 0.000000 1.700100 
# 
# From -- ./inp_files/468.got.cif
#   From: 2010.05.17/outbox.cif.g08.bks.cpg/sg31_1_cif.got.tgz:468.got - 2010.06.03 17:08:30.
