data_PCOD9343008
_publ_section_title
;
Structure prediction by ZEFSAII (Michael W. Deem and Ramdas Pophale) SiO2 
 PCOD9343008
Probable space group: P M N 21
;
_chemical_formula_sum "Si O2"
_cell_formula_units_Z 32
_cell_length_a 8.377985
_cell_length_b 16.177610
_cell_length_c 11.476986
_cell_angle_alpha 90.000000
_cell_angle_beta 90.000000
_cell_angle_gamma 90.000000
_cell_volume 1555.542180
_symmetry_space_group_name_H-M "P M N 21"
_symmetry_group_IT_number 31
_symmetry_cell_setting 'orthorhombic'
loop_
_space_group_symop_operation_xyz
x,y,z
1/2-x,-y,1/2+z
-x,y,z
1/2+x,-y,1/2+z
loop_
_atom_site_type_symbol
_atom_site_label
_atom_site_fract_x
_atom_site_fract_y
_atom_site_fract_z
Si Si1 0.689810 0.526016 0.774840
Si Si2 0.194552 0.340581 0.084740
Si Si3 0.812895 0.658719 0.925112
Si Si4 0.186564 0.968743 0.817629
Si Si5 0.811105 0.352251 0.822946
Si Si6 0.314276 0.793884 0.755800
Si Si7 0.310689 0.235145 0.645616
Si Si8 0.807564 0.947303 0.078529
O O1 0.500000 0.533606 0.783301
O O2 0.746804 0.585132 0.669440
O O3 0.767896 0.565888 0.890676
O O4 0.735045 0.431327 0.760552
O O5 0.239188 0.251268 0.137240
O O6 0.000000 0.341626 0.085304
O O7 0.251533 0.351888 0.954533
O O8 0.705843 0.719308 0.846897
O O9 0.000000 0.672377 0.898108
O O10 0.786003 0.690619 0.054482
O O11 0.211298 0.870993 0.796040
O O12 0.248678 0.983040 0.951754
O O13 0.000000 0.990506 0.816923
O O14 0.261658 0.010195 0.701573
O O15 0.772649 0.265718 0.761945
O O16 0.000000 0.364512 0.824225
O O17 0.500000 0.819017 0.747582
O O18 0.500000 0.227184 0.665971
O O19 0.254489 0.148460 0.591800
O O20 0.000000 0.948373 0.070721
#
# Coordination Sequence:
#
# PCOD9343008 Si02
#       8
#     4   4   4   4   4   4   4   4
#     4  10  21  38  58  84 115 155 200 245 304 361
#     4   8  19  38  56  78 115 154 189 242 303 359
#     4  10  19  36  61  86 115 152 195 245 297 354
#     4  11  23  41  65  96 129 166 210 263 320 381
#     4  11  23  38  57  85 118 156 203 249 303 367
#     4  10  19  36  63  89 115 153 198 244 302 365
#     4  10  22  41  61  83 120 162 196 246 312 365
#     4  10  23  44  65  91 129 168 211 262 323 386
#
# _framework density 20.571605000000002
#
# number of rings (size 3 to 8) (size 9 to 14) (size 15 to 20)
#    0.000    2.000    1.250    2.625    1.750    3.500 
#    0.000   10.625    0.000    0.000    0.000    0.000 
#    0.000    0.000    0.000    0.000    0.000    0.000 
#
# Total GULP energy -178460.947304 kJ/mol
# GULP energy per Si atom -5576.904603 kJ/mol
# Density = 2.052478 g / cm^3
# Si number density = 20.571605 Si / 1000 Ang^3
#
#
#
# Elastic Constant Matrix: (Units=GPa)
#
#
# Indices 1 2 3 4 5 6 
#
# 1 12.6033 0.5609 25.3095 0.0000 0.0000 0.0000
# 2 0.5609 54.3018 40.2907 0.0000 0.0000 0.0000
# 3 25.3095 40.2907 122.2321 0.0000 0.0000 0.0000
# 4 0.0000 0.0000 0.0000 26.5581 0.0000 0.0000
# 5 0.0000 0.0000 0.0000 0.0000 12.1605 0.0000
# 6 0.0000 0.0000 0.0000 0.0000 0.0000 37.8162
#
#
#
# Elastic Compliance Matrix: (Units=1/GPa)
#
#
# Indices 1 2 3 4 5 6 
#
# 1 0.169881 0.032227 -0.045798 0.000000 0.000000 0.000000
# 2 0.032227 0.030491 -0.016723 0.000000 0.000000 0.000000
# 3 -0.045798 -0.016723 0.023177 0.000000 0.000000 0.000000
# 4 0.000000 0.000000 0.000000 0.037653 0.000000 0.000000
# 5 0.000000 0.000000 0.000000 0.000000 0.082234 0.000000
# 6 0.000000 0.000000 0.000000 0.000000 0.000000 0.026444
#
#
# Mechanical properties :
#
#
# Convention : Reuss Voigt Hill
#
# Bulk Modulus (GPa) = 6.13653 35.71769 20.92711
# Shear Modulus (GPa) = 10.31374 23.50535 16.90955
#
# Velocity S-wave (km/s) = 2.24153 3.38392 2.87014
# Velocity P-wave (km/s) = 3.11268 5.71561 4.60201
#
# Compressibility (1/GPa) = 0.16295855
#
# Stress axis : x y z
#
# Youngs Moduli (GPa) = 5.88646 32.79638 43.14680
#
# Poissons Ratio (x) = -1.05692 1.97606
# Poissons Ratio (y) = -0.18970 0.72157
# Poissons Ratio (z) = 0.26959 0.54847
#
# Static dielectric constant tensor:
#      x y z
#    x 1.718740 0.000000 0.000000 
#    y 0.000000 1.713360 0.000000 
#    z 0.000000 0.000000 1.790120 
# 
# From -- ./inp_files/3631.got.cif
#   From: 2010.05.17/outbox.cif.g08.bks.cpg/sg31_2_cif.got.tgz:3631.got - 2010.06.03 17:08:30.
