data_PCOD9343778
_publ_section_title
;
Structure prediction by ZEFSAII (Michael W. Deem and Ramdas Pophale) SiO2 
 PCOD9343778
Probable space group: P B A 2
;
_chemical_formula_sum "Si O2"
_cell_formula_units_Z 30
_cell_length_a 10.265105
_cell_length_b 18.867782
_cell_length_c 6.079537
_cell_angle_alpha 90.000000
_cell_angle_beta 90.000000
_cell_angle_gamma 90.000000
_cell_volume 1177.483287
_symmetry_space_group_name_H-M "P B A 2"
_symmetry_group_IT_number 32
_symmetry_cell_setting 'orthorhombic'
loop_
_space_group_symop_operation_xyz
x,y,z
-x,-y,z
1/2-x,1/2+y,z
1/2+x,1/2-y,z
loop_
_atom_site_type_symbol
_atom_site_label
_atom_site_fract_x
_atom_site_fract_y
_atom_site_fract_z
Si Si1 0.256602 0.056947 0.644270
Si Si2 0.166574 0.827682 0.143376
Si Si3 0.146058 0.342656 0.759292
Si Si4 0.000000 0.500000 0.364066
Si Si5 0.627992 0.582663 0.533163
Si Si6 0.695378 0.798510 0.412590
Si Si7 0.996693 0.212715 0.745026
Si Si8 0.917104 0.395488 0.027690
O O1 0.144265 0.999559 0.591839
O O2 0.380268 0.023949 0.513024
O O3 0.239477 0.136032 0.543748
O O4 0.299863 0.063794 0.900339
O O5 0.104065 0.890602 0.285744
O O6 0.249630 0.770466 0.285062
O O7 0.264671 0.857546 0.967230
O O8 0.056317 0.788442 0.994922
O O9 0.130007 0.257653 0.732897
O O10 0.226161 0.384353 0.577741
O O11 0.003866 0.369010 0.823861
O O12 0.985457 0.562237 0.186616
O O13 0.528950 0.631421 0.674125
O O14 0.592252 0.757769 0.572002
O O15 0.639242 0.839639 0.198758
#
# Coordination Sequence:
#
# PCOD9343778 Si02
#       8
#     4   4   4   2   4   4   4   4
#     4  11  20  33  50  82 118 152 186 233 293 370
#     4  10  21  37  54  83 114 153 200 238 292 352
#     4  11  20  33  57  81 112 149 189 244 284 354
#     4  10  20  26  46  78 112 152 178 216 276 358
#     4  10  23  34  54  83 117 146 193 235 296 362
#     4  10  20  35  55  78 115 157 188 236 292 363
#     4  10  21  38  53  79 113 147 195 244 296 349
#     4  11  20  32  55  79 120 150 185 228 303 349
#
# _framework density 25.478069000000001
#
# number of rings (size 3 to 8) (size 9 to 14) (size 15 to 20)
#    0.000    1.600    2.667    2.800    3.733    3.200 
#    0.000    0.000    0.000    0.000    0.000   38.267 
#    0.000    0.000    0.000    0.000    0.000    0.000 
#
# Total GULP energy -167241.356907 kJ/mol
# GULP energy per Si atom -5574.711897 kJ/mol
# Density = 2.542008 g / cm^3
# Si number density = 25.478069 Si / 1000 Ang^3
#
#
#
# Elastic Constant Matrix: (Units=GPa)
#
#
# Indices 1 2 3 4 5 6 
#
# 1 34.9789 -6.7099 3.3206 0.0000 0.0000 0.0000
# 2 -6.7099 145.7934 40.7710 0.0000 0.0000 0.0000
# 3 3.3206 40.7710 108.6767 0.0000 0.0000 0.0000
# 4 0.0000 0.0000 0.0000 37.4359 0.0000 0.0000
# 5 0.0000 0.0000 0.0000 0.0000 13.3978 0.0000
# 6 0.0000 0.0000 0.0000 0.0000 0.0000 37.0714
#
#
#
# Elastic Compliance Matrix: (Units=1/GPa)
#
#
# Indices 1 2 3 4 5 6 
#
# 1 0.029076 0.001773 -0.001553 0.000000 0.000000 0.000000
# 2 0.001773 0.007771 -0.002970 0.000000 0.000000 0.000000
# 3 -0.001553 -0.002970 0.010363 0.000000 0.000000 0.000000
# 4 0.000000 0.000000 0.000000 0.026712 0.000000 0.000000
# 5 0.000000 0.000000 0.000000 0.000000 0.074639 0.000000
# 6 0.000000 0.000000 0.000000 0.000000 0.000000 0.026975
#
#
# Mechanical properties :
#
#
# Convention : Reuss Voigt Hill
#
# Bulk Modulus (GPa) = 23.97533 40.46805 32.22169
# Shear Modulus (GPa) = 25.64887 34.38550 30.01719
#
# Velocity S-wave (km/s) = 3.17630 3.67769 3.43615
# Velocity P-wave (km/s) = 4.78356 5.82682 5.33077
#
# Compressibility (1/GPa) = 0.04170955
#
# Stress axis : x y z
#
# Youngs Moduli (GPa) = 34.39248 128.68307 96.49606
#
# Poissons Ratio (x) = -0.22810 0.14990
# Poissons Ratio (y) = -0.06096 0.28655
# Poissons Ratio (z) = 0.05343 0.38213
#
# Static dielectric constant tensor:
#      x y z
#    x 2.124380 0.000000 0.000000 
#    y 0.000000 2.175020 0.000000 
#    z 0.000000 0.000000 1.997580 
# 
# From -- ./inp_files/1021.got.cif
#   From: 2010.05.17/outbox.cif.g08.bks.cpg/sg32_1_cif.got.tgz:1021.got - 2010.06.03 17:12:27.
