data_PCOD9343874
_publ_section_title
;
Structure prediction by ZEFSAII (Michael W. Deem and Ramdas Pophale) SiO2 
 PCOD9343874
Probable space group: P B A 2
;
_chemical_formula_sum "Si O2"
_cell_formula_units_Z 30
_cell_length_a 15.624446
_cell_length_b 8.632634
_cell_length_c 12.357012
_cell_angle_alpha 90.000000
_cell_angle_beta 90.000000
_cell_angle_gamma 90.000000
_cell_volume 1666.715308
_symmetry_space_group_name_H-M "P B A 2"
_symmetry_group_IT_number 32
_symmetry_cell_setting 'orthorhombic'
loop_
_space_group_symop_operation_xyz
x,y,z
-x,-y,z
1/2-x,1/2+y,z
1/2+x,1/2-y,z
loop_
_atom_site_type_symbol
_atom_site_label
_atom_site_fract_x
_atom_site_fract_y
_atom_site_fract_z
Si Si1 0.829669 0.806936 0.843600
Si Si2 0.211322 0.504197 0.469083
Si Si3 0.000000 0.000000 0.512545
Si Si4 0.136581 0.811123 0.369347
Si Si5 0.651677 0.290417 0.595759
Si Si6 0.069019 0.863251 0.131442
Si Si7 0.498759 0.180531 0.945004
Si Si8 0.336483 0.358300 0.916932
O O1 0.833872 0.750579 0.720689
O O2 0.914340 0.756039 0.905991
O O3 0.747671 0.742510 0.905953
O O4 0.826474 0.991727 0.844289
O O5 0.156805 0.636879 0.409181
O O6 0.278482 0.414596 0.391225
O O7 0.271195 0.598673 0.553857
O O8 0.157147 0.368137 0.526442
O O9 0.064167 0.112411 0.578680
O O10 0.938915 0.108476 0.438918
O O11 0.109881 0.818403 0.244483
O O12 0.140076 0.907443 0.040328
O O13 0.000000 0.000000 0.144362
O O14 0.020402 0.723459 0.069932
O O15 0.419338 0.259530 0.883132
O O16 0.500000 0.000000 0.927258
#
# Coordination Sequence:
#
# PCOD9343874 Si02
#       8
#     4   4   2   4   4   4   4   4
#     4  12  21  40  65  87 128 171 201 265 320 373
#     4   9  21  42  58  93 121 152 218 265 296 393
#     4  10  22  36  60  88 118 160 212 252 312 374
#     4  10  20  41  65  85 124 162 203 260 325 362
#     4  10  22  39  62  89 121 164 206 262 319 370
#     4  10  20  42  63  88 128 166 201 261 319 375
#     4  10  22  42  56  91 129 157 215 259 298 392
#     4  10  23  37  61  94 122 164 215 258 308 389
#
# _framework density 17.999476000000001
#
# number of rings (size 3 to 8) (size 9 to 14) (size 15 to 20)
#    0.800    1.067    2.000    2.000    1.867    1.600 
#    4.800    0.000    0.000    0.000    0.000    0.000 
#    0.000    0.000    0.000    0.000    0.000    0.000 
#
# Total GULP energy -167225.353192 kJ/mol
# GULP energy per Si atom -5574.178440 kJ/mol
# Density = 1.795851 g / cm^3
# Si number density = 17.999476 Si / 1000 Ang^3
#
#
#
# Elastic Constant Matrix: (Units=GPa)
#
#
# Indices 1 2 3 4 5 6 
#
# 1 124.2946 50.7668 38.0253 0.0000 0.0000 0.0000
# 2 50.7668 122.3827 16.9650 0.0000 0.0000 0.0000
# 3 38.0253 16.9650 95.2341 0.0000 0.0000 0.0000
# 4 0.0000 0.0000 0.0000 19.7249 0.0000 0.0000
# 5 0.0000 0.0000 0.0000 0.0000 -29.3244 0.0000
# 6 0.0000 0.0000 0.0000 0.0000 0.0000 37.1930
#
#
#
# Elastic Compliance Matrix: (Units=1/GPa)
#
#
# Indices 1 2 3 4 5 6 
#
# 1 0.010765 -0.003968 -0.003591 0.000000 0.000000 0.000000
# 2 -0.003968 0.009840 -0.000169 0.000000 0.000000 0.000000
# 3 -0.003591 -0.000169 0.011964 0.000000 0.000000 0.000000
# 4 0.000000 0.000000 0.000000 0.050697 0.000000 0.000000
# 5 0.000000 0.000000 0.000000 0.000000 -0.034101 0.000000
# 6 0.000000 0.000000 0.000000 0.000000 0.000000 0.026887
#
#
# Mechanical properties :
#
#
# Convention : Reuss Voigt Hill
#
# Bulk Modulus (GPa) = 58.43150 61.49172 59.96161
# Shear Modulus (GPa) = 51.43394 21.26233 36.34813
#
# Velocity S-wave (km/s) = 5.35138 3.44070 4.49865
# Velocity P-wave (km/s) = 8.40930 7.07261 7.76975
#
# Compressibility (1/GPa) = 0.01711406
#
# Stress axis : x y z
#
# Youngs Moduli (GPa) = 92.89716 101.62290 83.58089
#
# Poissons Ratio (x) = 0.40319 0.30017
# Poissons Ratio (y) = 0.36857 0.01411
# Poissons Ratio (z) = 0.33362 0.01715
#
# Static dielectric constant tensor:
#      x y z
#    x 1.624750 0.000000 0.000000 
#    y 0.000000 1.641410 0.000000 
#    z 0.000000 0.000000 1.593740 
# 
# From -- ./inp_files/3935.got.cif
#   From: 2010.05.17/outbox.cif.g08.bks.cpg/sg32_2_cif.got.tgz:3935.got - 2010.06.03 17:12:27.
