data_PCOD9343613
_publ_section_title
;
Structure prediction by ZEFSAII (Michael W. Deem and Ramdas Pophale) SiO2 
 PCOD9343613
Probable space group: P M N 21
;
_chemical_formula_sum "Si O2"
_cell_formula_units_Z 32
_cell_length_a 9.000000
_cell_length_b 9.000000
_cell_length_c 21.000000
_cell_angle_alpha 90.000000
_cell_angle_beta 90.000000
_cell_angle_gamma 90.000000
_cell_volume 1701.000000
_symmetry_space_group_name_H-M "P M N 21"
_symmetry_group_IT_number 31
_symmetry_cell_setting 'orthorhombic'
loop_
_space_group_symop_operation_xyz
x,y,z
1/2-x,-y,1/2+z
-x,y,z
1/2+x,-y,1/2+z
loop_
_atom_site_type_symbol
_atom_site_label
_atom_site_fract_x
_atom_site_fract_y
_atom_site_fract_z
Si Si1 0.178043 0.884714 0.263180
Si Si2 0.322564 0.048080 0.375918
Si Si3 0.821678 0.550668 0.219480
Si Si4 0.321535 0.128108 0.515824
Si Si5 0.678470 0.556715 0.984268
Si Si6 0.178851 0.364642 0.345162
Si Si7 0.679455 0.934470 0.638321
Si Si8 0.321861 0.379764 0.105442
O O1 0.211400 0.719423 0.238928
O O2 0.000000 0.895881 0.271397
O O3 0.254556 0.925599 0.329416
O O4 0.222225 0.997862 0.206714
O O5 0.500000 0.048841 0.370555
O O6 0.284049 0.037637 0.451073
O O7 0.257380 0.206181 0.352530
O O8 0.782283 0.446786 0.279792
O O9 0.737689 0.499032 0.156445
O O10 0.000000 0.538518 0.208996
O O11 0.500000 0.147824 0.516775
O O12 0.246667 0.288183 0.508289
O O13 0.278771 0.044742 0.580488
O O14 0.500000 0.567478 0.987273
O O15 0.717479 0.542886 0.909426
O O16 0.723820 0.429832 0.034100
O O17 0.000000 0.342614 0.344998
O O18 0.500000 0.920391 0.637950
O O19 0.751771 0.776410 0.625140
O O20 0.500000 0.372010 0.108116
#
# Coordination Sequence:
#
# PCOD9343613 Si02
#       8
#     4   4   4   4   4   4   4   4
#     4  10  21  36  55  78 103 138 182 220 256 306
#     4  10  20  34  54  81 111 139 169 212 265 313
#     4  10  21  37  57  78 102 138 181 220 258 306
#     4   9  19  36  57  80 105 137 177 216 256 307
#     4   9  19  35  54  78 107 137 170 212 261 311
#     4   9  18  35  57  78 103 137 176 214 254 307
#     4  10  21  37  55  75 103 139 179 218 255 305
#     4  11  23  36  53  80 110 137 170 216 269 317
#
# _framework density 18.812463000000001
#
# number of rings (size 3 to 8) (size 9 to 14) (size 15 to 20)
#    0.000    2.250    0.000    2.250    0.000    8.500 
#    0.000    1.250    0.000    0.000    0.000    0.000 
#    0.000    0.000    0.000    0.000    0.000    0.000 
#
# Total GULP energy -178657.540125 kJ/mol
# GULP energy per Si atom -5583.048129 kJ/mol
# Density = 1.876965 g / cm^3
# Si number density = 18.812463 Si / 1000 Ang^3
#
#
#
# Elastic Constant Matrix: (Units=GPa)
#
#
# Indices 1 2 3 4 5 6 
#
# 1 6.7318 -1.0737 6.6454 0.0000 0.0000 0.0000
# 2 -1.0737 11.7038 -19.5716 0.0000 0.0000 0.0000
# 3 6.6454 -19.5716 43.4955 0.0000 0.0000 0.0000
# 4 0.0000 0.0000 0.0000 35.8642 0.0000 0.0000
# 5 0.0000 0.0000 0.0000 0.0000 29.4727 0.0000
# 6 0.0000 0.0000 0.0000 0.0000 0.0000 22.4772
#
#
#
# Elastic Compliance Matrix: (Units=1/GPa)
#
#
# Indices 1 2 3 4 5 6 
#
# 1 0.224787 -0.148698 -0.101253 0.000000 0.000000 0.000000
# 2 -0.148698 0.443525 0.222291 0.000000 0.000000 0.000000
# 3 -0.101253 0.222291 0.138485 0.000000 0.000000 0.000000
# 4 0.000000 0.000000 0.000000 0.027883 0.000000 0.000000
# 5 0.000000 0.000000 0.000000 0.000000 0.033930 0.000000
# 6 0.000000 0.000000 0.000000 0.000000 0.000000 0.044489
#
#
# Mechanical properties :
#
#
# Convention : Reuss Voigt Hill
#
# Bulk Modulus (GPa) = 1.33071 3.77014 2.55043
# Shear Modulus (GPa) = 4.10202 22.62489 13.36346
#
# Velocity S-wave (km/s) = 1.47825 3.47169 2.66813
# Velocity P-wave (km/s) = 1.90329 4.25190 3.29402
#
# Compressibility (1/GPa) = 0.75147755
#
# Stress axis : x y z
#
# Youngs Moduli (GPa) = 4.44866 2.25466 7.22102
#
# Poissons Ratio (x) = 0.33526 0.73115
# Poissons Ratio (y) = 0.66150 -1.60517
# Poissons Ratio (z) = 0.45044 -0.50119
#
# Static dielectric constant tensor:
#      x y z
#    x 1.629790 0.000000 0.000000 
#    y 0.000000 1.632720 0.000000 
#    z 0.000000 0.000000 1.657870 
# 
# From -- ./inp_files/6260.got.cif
#   From: 2010.05.17/outbox.ucp.g08.bks.cvg/sg31_4_cif.got.tgz:6260.got - 2010.06.11 10:34:26.
