data_PCOD9343817
_publ_section_title
;
Structure prediction by ZEFSAII (Michael W. Deem and Ramdas Pophale) SiO2 
 PCOD9343817
Probable space group: P B A 2
;
_chemical_formula_sum "Si O2"
_cell_formula_units_Z 22
_cell_length_a 10.340763
_cell_length_b 15.874675
_cell_length_c 5.023629
_cell_angle_alpha 90.000000
_cell_angle_beta 90.000000
_cell_angle_gamma 90.000000
_cell_volume 824.660107
_symmetry_space_group_name_H-M "P B A 2"
_symmetry_group_IT_number 32
_symmetry_cell_setting 'orthorhombic'
loop_
_space_group_symop_operation_xyz
x,y,z
-x,-y,z
1/2-x,1/2+y,z
1/2+x,1/2-y,z
loop_
_atom_site_type_symbol
_atom_site_label
_atom_site_fract_x
_atom_site_fract_y
_atom_site_fract_z
Si Si1 0.500000 0.000000 0.123420
Si Si2 0.072065 0.652594 0.462627
Si Si3 0.294074 0.476437 0.993218
Si Si4 0.719882 0.710959 0.208577
Si Si5 0.354367 0.573311 0.505705
Si Si6 0.112147 0.244899 0.718471
O O1 0.505985 0.081087 0.313119
O O2 0.639263 0.001439 0.979078
O O3 0.095645 0.732639 0.272517
O O4 0.210613 0.613238 0.520596
O O5 0.004322 0.688775 0.722808
O O6 0.306990 0.381737 0.099073
O O7 0.361735 0.538649 0.207610
O O8 0.354020 0.495451 0.707285
O O9 0.797672 0.714250 0.486850
O O10 0.807880 0.757491 0.988285
O O11 0.433199 0.652945 0.617536
#
# Coordination Sequence:
#
# PCOD9343817 Si02
#       6
#     2   4   4   4   4   4
#     4  10  20  36  64  94 122 168 222 274 336 398
#     4  10  23  40  65  97 130 176 223 285 337 415
#     4  11  22  39  62  93 133 164 222 279 339 402
#     4  11  24  40  62  96 133 172 220 282 350 410
#     4  10  23  39  62  92 128 169 219 274 336 410
#     4  11  22  41  62  92 131 174 219 278 347 408
#
# _framework density 26.677657
#
# number of rings (size 3 to 8) (size 9 to 14) (size 15 to 20)
#    0.000    1.455    1.818    4.364    5.091    3.636 
#    0.000    0.909    0.000    2.182    0.000    0.000 
#    0.000    0.000    0.000    0.000    0.000    0.000 
#
# Total GULP energy -123349.102251 kJ/mol
# GULP energy per Si atom -5606.777375 kJ/mol
# Density = 2.661694 g / cm^3
# Si number density = 26.677657 Si / 1000 Ang^3
#
#
#
# Elastic Constant Matrix: (Units=GPa)
#
#
# Indices 1 2 3 4 5 6 
#
# 1 67.1047 5.0750 8.6092 0.0000 0.0000 0.0000
# 2 5.0750 129.6670 -4.7578 0.0000 0.0000 0.0000
# 3 8.6092 -4.7578 101.7507 0.0000 0.0000 0.0000
# 4 0.0000 0.0000 0.0000 37.1749 0.0000 0.0000
# 5 0.0000 0.0000 0.0000 0.0000 12.2899 0.0000
# 6 0.0000 0.0000 0.0000 0.0000 0.0000 47.2384
#
#
#
# Elastic Compliance Matrix: (Units=1/GPa)
#
#
# Indices 1 2 3 4 5 6 
#
# 1 0.015118 -0.000640 -0.001309 0.000000 0.000000 0.000000
# 2 -0.000640 0.007752 0.000417 0.000000 0.000000 0.000000
# 3 -0.001309 0.000417 0.009958 0.000000 0.000000 0.000000
# 4 0.000000 0.000000 0.000000 0.026900 0.000000 0.000000
# 5 0.000000 0.000000 0.000000 0.000000 0.081368 0.000000
# 6 0.000000 0.000000 0.000000 0.000000 0.000000 0.021169
#
#
# Mechanical properties :
#
#
# Convention : Reuss Voigt Hill
#
# Bulk Modulus (GPa) = 33.59701 35.15280 34.37490
# Shear Modulus (GPa) = 28.53041 38.64705 33.58873
#
# Velocity S-wave (km/s) = 3.27379 3.81027 3.55217
# Velocity P-wave (km/s) = 5.18761 5.70640 5.45318
#
# Compressibility (1/GPa) = 0.02976456
#
# Stress axis : x y z
#
# Youngs Moduli (GPa) = 66.14452 128.99247 100.41987
#
# Poissons Ratio (x) = 0.08252 0.13146
# Poissons Ratio (y) = 0.04232 -0.04184
# Poissons Ratio (z) = 0.08659 -0.05374
#
# Static dielectric constant tensor:
#      x y z
#    x 2.266290 0.000000 0.000000 
#    y 0.000000 2.094500 0.000000 
#    z 0.000000 0.000000 2.008180 
# 
# From -- ./inp_files/829.got.cif
#   From: 2010.05.17/outbox.cif.g08.bks.cpg/sg32_1_cif.got.tgz:829.got - 2010.06.03 17:12:27.
