data_PCOD9343043
_publ_section_title
;
Structure prediction by ZEFSAII (Michael W. Deem and Ramdas Pophale) SiO2 
 PCOD9343043
Probable space group: P M N 21
;
_chemical_formula_sum "Si O2"
_cell_formula_units_Z 32
_cell_length_a 7.211473
_cell_length_b 8.270608
_cell_length_c 19.486360
_cell_angle_alpha 90.000000
_cell_angle_beta 90.000000
_cell_angle_gamma 90.000000
_cell_volume 1162.230158
_symmetry_space_group_name_H-M "P M N 21"
_symmetry_group_IT_number 31
_symmetry_cell_setting 'orthorhombic'
loop_
_space_group_symop_operation_xyz
x,y,z
1/2-x,-y,1/2+z
-x,y,z
1/2+x,-y,1/2+z
loop_
_atom_site_type_symbol
_atom_site_label
_atom_site_fract_x
_atom_site_fract_y
_atom_site_fract_z
Si Si1 0.775943 0.683241 0.198220
Si Si2 0.276112 0.011525 0.362299
Si Si3 0.275943 0.183240 0.493800
Si Si4 0.223888 0.511525 0.329721
Si Si5 0.789769 0.283644 0.952788
Si Si6 0.273851 0.509462 0.571281
Si Si7 0.210231 0.216356 0.239232
Si Si8 0.773851 0.009462 0.120739
O O1 0.719643 0.652069 0.275824
O O2 0.719661 0.533411 0.148916
O O3 0.717190 0.848483 0.162771
O O4 0.000000 0.685678 0.197445
O O5 0.500000 0.005653 0.356778
O O6 0.209557 0.851637 0.402240
O O7 0.219643 0.152069 0.416196
O O8 0.204352 0.056924 0.287649
O O9 0.500000 0.185678 0.494575
O O10 0.217190 0.348483 0.529249
O O11 0.219661 0.033411 0.543104
O O12 0.295648 0.556924 0.404371
O O13 0.290443 0.351637 0.289780
O O14 0.000000 0.505653 0.335243
O O15 0.000000 0.228516 0.966893
O O16 0.710240 0.339736 0.025584
O O17 0.500000 0.517932 0.570780
O O18 0.000000 0.271485 0.225128
O O19 0.289760 0.160264 0.166437
O O20 0.000000 0.017933 0.121241
#
# Coordination Sequence:
#
# PCOD9343043 Si02
#       8
#     4   4   4   4   4   4   4   4
#     4   8  14  26  45  68  93 121 153 190 232 276
#     4  10  20  32  48  71  97 126 159 194 234 279
#     4   8  14  26  45  68  93 121 153 190 232 276
#     4  10  20  32  48  71  97 126 159 194 234 279
#     4  10  20  32  48  71  97 126 159 194 234 279
#     4   8  14  26  45  68  93 121 153 190 232 276
#     4  10  20  32  48  71  97 126 159 194 234 279
#     4   8  14  26  45  68  93 121 153 190 232 276
#
# _framework density 27.533273000000001
#
# number of rings (size 3 to 8) (size 9 to 14) (size 15 to 20)
#    0.000    3.000    0.000    3.000    0.000    4.000 
#    0.000    5.000    0.000    1.500    0.000   10.500 
#    0.000    0.000    0.000    0.000    0.000    0.000 
#
# Total GULP energy -178995.944131 kJ/mol
# GULP energy per Si atom -5593.623254 kJ/mol
# Density = 2.747061 g / cm^3
# Si number density = 27.533273 Si / 1000 Ang^3
#
#
#
# Elastic Constant Matrix: (Units=GPa)
#
#
# Indices 1 2 3 4 5 6 
#
# 1 141.7804 -6.0105 -7.9783 0.0000 0.0000 0.0000
# 2 -6.0105 80.1041 11.2768 0.0000 0.0000 0.0000
# 3 -7.9783 11.2768 168.8639 0.0000 0.0000 0.0000
# 4 0.0000 0.0000 0.0000 59.9264 0.0000 0.0000
# 5 0.0000 0.0000 0.0000 0.0000 0.1165 0.0000
# 6 0.0000 0.0000 0.0000 0.0000 0.0000 -4.8012
#
#
#
# Elastic Compliance Matrix: (Units=1/GPa)
#
#
# Indices 1 2 3 4 5 6 
#
# 1 0.007091 0.000489 0.000302 0.000000 0.000000 0.000000
# 2 0.000489 0.012636 -0.000821 0.000000 0.000000 0.000000
# 3 0.000302 -0.000821 0.005991 0.000000 0.000000 0.000000
# 4 0.000000 0.000000 0.000000 0.016687 0.000000 0.000000
# 5 0.000000 0.000000 0.000000 0.000000 8.585374 0.000000
# 6 0.000000 0.000000 0.000000 0.000000 0.000000 -0.208281
#
#
# Mechanical properties :
#
#
# Convention : Reuss Voigt Hill
#
# Bulk Modulus (GPa) = 38.97085 42.81383 40.89234
# Shear Modulus (GPa) = 0.59325 37.27902 18.93614
#
# Velocity S-wave (km/s) = 0.46469 3.68361 2.62535
# Velocity P-wave (km/s) = 3.80430 5.80307 4.90654
#
# Compressibility (1/GPa) = 0.02566021
#
# Stress axis : x y z
#
# Youngs Moduli (GPa) = 141.02536 79.13879 166.91646
#
# Poissons Ratio (x) = -0.03874 -0.05046
# Poissons Ratio (y) = -0.06903 0.13699
# Poissons Ratio (z) = -0.04264 0.06495
#
# Static dielectric constant tensor:
#      x y z
#    x 2.076830 0.000000 0.000000 
#    y 0.000000 2.234950 0.000000 
#    z 0.000000 0.000000 2.039560 
# 
# From -- ./inp_files/2286.got.cif
#   From: 2010.05.17/outbox.cif.g08.bks.cpg/sg31_2_cif.got.tgz:2286.got - 2010.06.03 17:08:30.
