data_PCOD9343079
_publ_section_title
;
Structure prediction by ZEFSAII (Michael W. Deem and Ramdas Pophale) SiO2 
 PCOD9343079
Probable space group: P M N 21
;
_chemical_formula_sum "Si O2"
_cell_formula_units_Z 32
_cell_length_a 9.158787
_cell_length_b 14.129603
_cell_length_c 14.151098
_cell_angle_alpha 90.000000
_cell_angle_beta 90.000000
_cell_angle_gamma 90.000000
_cell_volume 1831.293936
_symmetry_space_group_name_H-M "P M N 21"
_symmetry_group_IT_number 31
_symmetry_cell_setting 'orthorhombic'
loop_
_space_group_symop_operation_xyz
x,y,z
1/2-x,-y,1/2+z
-x,y,z
1/2+x,-y,1/2+z
loop_
_atom_site_type_symbol
_atom_site_label
_atom_site_fract_x
_atom_site_fract_y
_atom_site_fract_z
Si Si1 0.828570 0.466896 0.342020
Si Si2 0.174381 0.150743 0.137663
Si Si3 0.670582 0.714985 0.945794
Si Si4 0.674028 0.317768 0.830938
Si Si5 0.326229 0.862608 0.419651
Si Si6 0.826502 0.699745 0.757219
Si Si7 0.674731 0.035054 0.753517
Si Si8 0.672484 0.221630 0.634178
O O1 0.816488 0.399763 0.434694
O O2 0.783162 0.574815 0.353837
O O3 0.735796 0.407060 0.266162
O O4 0.000000 0.466533 0.314782
O O5 0.261047 0.243224 0.169910
O O6 0.000000 0.167848 0.145706
O O7 0.213278 0.064420 0.206903
O O8 0.205359 0.122369 0.029905
O O9 0.500000 0.739208 0.935958
O O10 0.759766 0.747410 0.852900
O O11 0.736435 0.753166 0.042005
O O12 0.500000 0.306156 0.848533
O O13 0.760360 0.238500 0.888475
O O14 0.697346 0.295106 0.720020
O O15 0.500000 0.862530 0.406396
O O16 0.254639 0.939624 0.350538
O O17 0.000000 0.700834 0.758407
O O18 0.500000 0.038218 0.768918
O O19 0.708575 0.119581 0.679477
O O20 0.500000 0.222425 0.611100
#
# Coordination Sequence:
#
# PCOD9343079 Si02
#       8
#     4   4   4   4   4   4   4   4
#     4   8  17  35  54  74 106 145 181 221 272 323
#     4  10  21  39  58  79 111 149 184 223 278 334
#     4   9  18  33  52  75 107 141 175 218 268 319
#     4   9  18  36  58  77 108 149 184 224 272 326
#     4  10  21  36  56  85 115 144 182 230 276 328
#     4  10  20  34  53  78 107 137 177 226 269 319
#     4   9  20  38  58  78 107 146 185 226 273 327
#     4   9  17  31  53  80 105 137 180 224 270 322
#
# _framework density 17.473984000000002
#
# number of rings (size 3 to 8) (size 9 to 14) (size 15 to 20)
#    0.750    2.000    0.000    2.250    0.000    5.000 
#    2.250    1.250    0.000    0.000    0.000    0.000 
#    0.000    0.000    0.000    0.000    0.000    0.000 
#
# Total GULP energy -178212.951220 kJ/mol
# GULP energy per Si atom -5569.154726 kJ/mol
# Density = 1.743421 g / cm^3
# Si number density = 17.473984 Si / 1000 Ang^3
#
#
#
# Elastic Constant Matrix: (Units=GPa)
#
#
# Indices 1 2 3 4 5 6 
#
# 1 54.3103 30.1936 40.1395 0.0000 0.0000 0.0000
# 2 30.1936 60.2639 28.8453 0.0000 0.0000 0.0000
# 3 40.1395 28.8453 71.8322 0.0000 0.0000 0.0000
# 4 0.0000 0.0000 0.0000 10.6505 0.0000 0.0000
# 5 0.0000 0.0000 0.0000 0.0000 31.9296 0.0000
# 6 0.0000 0.0000 0.0000 0.0000 0.0000 619.8668
#
#
#
# Elastic Compliance Matrix: (Units=1/GPa)
#
#
# Indices 1 2 3 4 5 6 
#
# 1 0.035957 -0.010396 -0.015918 0.000000 0.000000 0.000000
# 2 -0.010396 0.023548 -0.003647 0.000000 0.000000 0.000000
# 3 -0.015918 -0.003647 0.024281 0.000000 0.000000 0.000000
# 4 0.000000 0.000000 0.000000 0.093892 0.000000 0.000000
# 5 0.000000 0.000000 0.000000 0.000000 0.031319 0.000000
# 6 0.000000 0.000000 0.000000 0.000000 0.000000 0.001613
#
#
# Mechanical properties :
#
#
# Convention : Reuss Voigt Hill
#
# Bulk Modulus (GPa) = 41.90415 42.75146 42.32781
# Shear Modulus (GPa) = 17.95423 138.30457 78.12940
#
# Velocity S-wave (km/s) = 3.20892 8.90622 6.69395
# Velocity P-wave (km/s) = 6.14512 11.41402 9.16630
#
# Compressibility (1/GPa) = 0.02386398
#
# Stress axis : x y z
#
# Youngs Moduli (GPa) = 27.81098 42.46672 41.18525
#
# Poissons Ratio (x) = 0.44149 0.65558
# Poissons Ratio (y) = 0.28913 0.15019
# Poissons Ratio (z) = 0.44269 0.15486
#
# Static dielectric constant tensor:
#      x y z
#    x 1.581470 0.000000 0.000000 
#    y 0.000000 1.604610 0.000000 
#    z 0.000000 0.000000 1.580330 
# 
# From -- ./inp_files/5140.got.cif
#   From: 2010.05.17/outbox.cif.g08.bks.cpg/sg31_3_cif.got.tgz:5140.got - 2010.06.03 17:08:30.
