data_PCOD9343055
_publ_section_title
;
Structure prediction by ZEFSAII (Michael W. Deem and Ramdas Pophale) SiO2 
 PCOD9343055
Probable space group: P M N 21
;
_chemical_formula_sum "Si O2"
_cell_formula_units_Z 32
_cell_length_a 9.103050
_cell_length_b 21.614257
_cell_length_c 9.305662
_cell_angle_alpha 90.000000
_cell_angle_beta 90.000000
_cell_angle_gamma 90.000000
_cell_volume 1830.941689
_symmetry_space_group_name_H-M "P M N 21"
_symmetry_group_IT_number 31
_symmetry_cell_setting 'orthorhombic'
loop_
_space_group_symop_operation_xyz
x,y,z
1/2-x,-y,1/2+z
-x,y,z
1/2+x,-y,1/2+z
loop_
_atom_site_type_symbol
_atom_site_label
_atom_site_fract_x
_atom_site_fract_y
_atom_site_fract_z
Si Si1 0.173448 0.447609 0.100590
Si Si2 0.175576 0.176191 0.113645
Si Si3 0.823206 0.940257 0.113183
Si Si4 0.324791 0.687252 0.623667
Si Si5 0.326358 0.560374 0.943925
Si Si6 0.176857 0.821675 0.926223
Si Si7 0.822948 0.059870 0.923098
Si Si8 0.825212 0.684873 0.933825
O O1 0.207621 0.377683 0.046509
O O2 0.201375 0.446786 0.272413
O O3 0.000000 0.458908 0.078673
O O4 0.263621 0.500942 0.024365
O O5 0.202389 0.245825 0.054260
O O6 0.250607 0.171089 0.269524
O O7 0.000000 0.170081 0.134086
O O8 0.223625 0.121791 0.007936
O O9 0.749264 0.943535 0.267769
O O10 0.000000 0.939887 0.129406
O O11 0.779867 0.877886 0.028916
O O12 0.783856 0.999915 0.017682
O O13 0.500000 0.684500 0.660800
O O14 0.230438 0.687229 0.769031
O O15 0.500000 0.565256 0.963629
O O16 0.251530 0.624073 0.996484
O O17 0.214257 0.753616 0.989158
O O18 0.000000 0.823204 0.908079
O O19 0.000000 0.061006 0.908333
O O20 0.000000 0.677354 0.940523
#
# Coordination Sequence:
#
# PCOD9343055 Si02
#       8
#     4   4   4   4   4   4   4   4
#     4   9  18  32  49  70  97 129 163 201 245 291
#     4   9  17  31  52  76 100 127 162 204 247 291
#     4  10  21  36  52  73 103 135 166 203 246 290
#     4   8  15  29  48  70  98 128 160 201 245 290
#     4  10  20  33  50  73  99 128 164 204 246 293
#     4   9  18  32  51  75 100 128 164 203 244 293
#     4  10  21  35  52  76 103 132 168 206 244 290
#     4   9  16  28  48  71  96 127 163 202 243 290
#
# _framework density 17.477345
#
# number of rings (size 3 to 8) (size 9 to 14) (size 15 to 20)
#    0.000    2.750    0.000    2.250    0.000    4.500 
#    0.000    1.250    0.000    3.000    0.000    0.000 
#    0.000    0.000    0.000    0.000    0.000    0.000 
#
# Total GULP energy -178278.462000 kJ/mol
# GULP energy per Si atom -5571.201937 kJ/mol
# Density = 1.743757 g / cm^3
# Si number density = 17.477345 Si / 1000 Ang^3
#
#
#
# Elastic Constant Matrix: (Units=GPa)
#
#
# Indices 1 2 3 4 5 6 
#
# 1 29.8730 62.9737 34.4694 0.0000 0.0000 0.0000
# 2 62.9737 215.9578 81.9357 0.0000 0.0000 0.0000
# 3 34.4694 81.9357 75.3608 0.0000 0.0000 0.0000
# 4 0.0000 0.0000 0.0000 29.6695 0.0000 0.0000
# 5 0.0000 0.0000 0.0000 0.0000 27.5943 0.0000
# 6 0.0000 0.0000 0.0000 0.0000 0.0000 24.9640
#
#
#
# Elastic Compliance Matrix: (Units=1/GPa)
#
#
# Indices 1 2 3 4 5 6 
#
# 1 0.111321 -0.022372 -0.026594 0.000000 0.000000 0.000000
# 2 -0.022372 0.012378 -0.003225 0.000000 0.000000 0.000000
# 3 -0.026594 -0.003225 0.028940 0.000000 0.000000 0.000000
# 4 0.000000 0.000000 0.000000 0.033705 0.000000 0.000000
# 5 0.000000 0.000000 0.000000 0.000000 0.036239 0.000000
# 6 0.000000 0.000000 0.000000 0.000000 0.000000 0.040058
#
#
# Mechanical properties :
#
#
# Convention : Reuss Voigt Hill
#
# Bulk Modulus (GPa) = 20.72218 75.54991 48.13605
# Shear Modulus (GPa) = 13.05118 25.89973 19.47546
#
# Velocity S-wave (km/s) = 2.73563 3.85373 3.34177
# Velocity P-wave (km/s) = 4.67553 7.94498 6.51856
#
# Compressibility (1/GPa) = 0.04825748
#
# Stress axis : x y z
#
# Youngs Moduli (GPa) = 8.98303 80.79014 34.55454
#
# Poissons Ratio (x) = 1.80740 0.91894
# Poissons Ratio (y) = 0.20096 0.11144
# Poissons Ratio (z) = 0.23889 0.26056
#
# Static dielectric constant tensor:
#      x y z
#    x 1.580190 0.000000 0.000000 
#    y 0.000000 1.642580 0.000000 
#    z 0.000000 0.000000 1.555830 
# 
# From -- ./inp_files/1859.got.cif
#   From: 2010.05.17/outbox.cif.g08.bks.cpg/sg31_1_cif.got.tgz:1859.got - 2010.06.03 17:08:30.
