data_PCOD9343501
_publ_section_title
;
Structure prediction by ZEFSAII (Michael W. Deem and Ramdas Pophale) SiO2 
 PCOD9343501
Probable space group: P M N 21
;
_chemical_formula_sum "Si O2"
_cell_formula_units_Z 18
_cell_length_a 10.824682
_cell_length_b 11.108538
_cell_length_c 6.988810
_cell_angle_alpha 90.000000
_cell_angle_beta 90.000000
_cell_angle_gamma 90.000000
_cell_volume 840.379182
_symmetry_space_group_name_H-M "P M N 21"
_symmetry_group_IT_number 31
_symmetry_cell_setting 'orthorhombic'
loop_
_space_group_symop_operation_xyz
x,y,z
1/2-x,-y,1/2+z
-x,y,z
1/2+x,-y,1/2+z
loop_
_atom_site_type_symbol
_atom_site_label
_atom_site_fract_x
_atom_site_fract_y
_atom_site_fract_z
Si Si1 0.749452 0.341503 0.493150
Si Si2 0.640921 0.586527 0.363386
Si Si3 0.000000 0.869155 0.673759
Si Si4 0.000000 0.754974 0.071813
Si Si5 0.000000 0.024459 0.030195
Si Si6 0.270301 0.806581 0.620279
O O1 0.717554 0.463685 0.381043
O O2 0.854174 0.366678 0.646483
O O3 0.627155 0.309304 0.617703
O O4 0.773446 0.235295 0.342582
O O5 0.500000 0.563062 0.422286
O O6 0.697227 0.689264 0.497383
O O7 0.000000 0.763523 0.837365
O O8 0.132248 0.854429 0.574393
O O9 0.000000 0.989070 0.804710
O O10 0.000000 0.894075 0.131552
O O11 0.122915 0.097116 0.080364
#
# Coordination Sequence:
#
# PCOD9343501 Si02
#       6
#     4   4   2   2   2   4
#     4  11  23  42  70 100 136 184 218 287 352 412
#     4  12  25  41  71 104 137 175 236 285 346 422
#     4   8  22  45  68  92 137 182 225 277 346 402
#     4   8  20  44  63  89 139 173 227 274 333 416
#     4  10  22  43  71  99 136 179 236 289 325 412
#     4  11  23  46  70 102 140 181 230 290 342 411
#
# _framework density 21.418904999999999
#
# number of rings (size 3 to 8) (size 9 to 14) (size 15 to 20)
#    0.667    0.889    4.444    0.000    1.556    2.667 
#    2.000    1.111    0.000    0.000    0.000    0.000 
#    0.000    0.000    0.000    0.000    0.000    0.000 
#
# Total GULP energy -100479.423039 kJ/mol
# GULP energy per Si atom -5582.190169 kJ/mol
# Density = 2.137015 g / cm^3
# Si number density = 21.418905 Si / 1000 Ang^3
#
#
#
# Elastic Constant Matrix: (Units=GPa)
#
#
# Indices 1 2 3 4 5 6 
#
# 1 139.2094 39.9137 23.7529 0.0000 0.0000 0.0000
# 2 39.9137 91.4724 14.7071 0.0000 0.0000 0.0000
# 3 23.7529 14.7071 49.1514 0.0000 0.0000 0.0000
# 4 0.0000 0.0000 0.0000 20.7765 0.0000 0.0000
# 5 0.0000 0.0000 0.0000 0.0000 24.0301 0.0000
# 6 0.0000 0.0000 0.0000 0.0000 0.0000 7.0483
#
#
#
# Elastic Compliance Matrix: (Units=1/GPa)
#
#
# Indices 1 2 3 4 5 6 
#
# 1 0.008668 -0.003266 -0.003212 0.000000 0.000000 0.000000
# 2 -0.003266 0.012715 -0.002226 0.000000 0.000000 0.000000
# 3 -0.003212 -0.002226 0.022564 0.000000 0.000000 0.000000
# 4 0.000000 0.000000 0.000000 0.048131 0.000000 0.000000
# 5 0.000000 0.000000 0.000000 0.000000 0.041615 0.000000
# 6 0.000000 0.000000 0.000000 0.000000 0.000000 0.141878
#
#
# Mechanical properties :
#
#
# Convention : Reuss Voigt Hill
#
# Bulk Modulus (GPa) = 37.68051 48.50893 43.09472
# Shear Modulus (GPa) = 16.56595 23.80163 20.18379
#
# Velocity S-wave (km/s) = 2.78407 3.33715 3.07308
# Velocity P-wave (km/s) = 5.28820 6.12745 5.72323
#
# Compressibility (1/GPa) = 0.02653892
#
# Stress axis : x y z
#
# Youngs Moduli (GPa) = 115.37003 78.64577 44.31932
#
# Poissons Ratio (x) = 0.25684 0.14234
# Poissons Ratio (y) = 0.37677 0.09867
# Poissons Ratio (z) = 0.37052 0.17510
#
# Static dielectric constant tensor:
#      x y z
#    x 1.785270 0.000000 0.000000 
#    y 0.000000 1.740820 0.000000 
#    z 0.000000 0.000000 1.807230 
# 
# From -- ./inp_files/1613.got.cif
#   From: 2010.05.17/outbox.cif.g08.bks.cpg/sg31_1_cif.got.tgz:1613.got - 2010.06.03 17:08:30.
