data_PCOD9343216
_publ_section_title
;
Structure prediction by ZEFSAII (Michael W. Deem and Ramdas Pophale) SiO2 
 PCOD9343216
Probable space group: P M N 21
;
_chemical_formula_sum "Si O2"
_cell_formula_units_Z 32
_cell_length_a 8.970457
_cell_length_b 14.582403
_cell_length_c 12.668794
_cell_angle_alpha 90.000000
_cell_angle_beta 90.000000
_cell_angle_gamma 90.000000
_cell_volume 1657.215320
_symmetry_space_group_name_H-M "P M N 21"
_symmetry_group_IT_number 31
_symmetry_cell_setting 'orthorhombic'
loop_
_space_group_symop_operation_xyz
x,y,z
1/2-x,-y,1/2+z
-x,y,z
1/2+x,-y,1/2+z
loop_
_atom_site_type_symbol
_atom_site_label
_atom_site_fract_x
_atom_site_fract_y
_atom_site_fract_z
Si Si1 0.830650 0.822294 0.616460
Si Si2 0.321444 0.162087 0.677700
Si Si3 0.822104 0.332061 0.991644
Si Si4 0.678445 0.648129 0.249322
Si Si5 0.321964 0.968367 0.755374
Si Si6 0.171777 0.687435 0.820934
Si Si7 0.678854 0.841082 0.953004
Si Si8 0.678753 0.536270 0.685286
O O1 0.752081 0.763696 0.525644
O O2 0.750184 0.912833 0.658434
O O3 0.829853 0.754179 0.718215
O O4 0.000000 0.842939 0.587035
O O5 0.500000 0.174097 0.678376
O O6 0.241001 0.254623 0.712411
O O7 0.263609 0.139185 0.560755
O O8 0.281939 0.074971 0.750624
O O9 0.781333 0.409118 0.077951
O O10 0.000000 0.320100 0.997927
O O11 0.783745 0.360898 0.873505
O O12 0.500000 0.644517 0.237177
O O13 0.754498 0.564838 0.187747
O O14 0.500000 0.960958 0.744273
O O15 0.282396 0.916532 0.863692
O O16 0.263804 0.743379 0.907969
O O17 0.249901 0.595105 0.780882
O O18 0.000000 0.671802 0.853096
O O19 0.500000 0.839660 0.966925
O O20 0.500000 0.534809 0.694652
#
# Coordination Sequence:
#
# PCOD9343216 Si02
#       8
#     4   4   4   4   4   4   4   4
#     4   9  17  30  55  87 114 141 182 232 278 328
#     4  11  24  41  58  82 116 152 189 235 288 342
#     4   9  20  38  59  82 113 151 188 229 284 339
#     4  11  24  41  58  81 114 152 193 238 285 341
#     4   9  20  38  59  82 113 151 192 235 283 340
#     4   9  17  32  55  85 116 146 184 233 282 334
#     4  10  20  37  60  86 115 151 192 236 285 340
#     4  10  20  37  60  85 113 150 194 240 287 340
#
# _framework density 19.309498999999999
#
# number of rings (size 3 to 8) (size 9 to 14) (size 15 to 20)
#    0.000    2.250    0.000    2.250    0.000    8.000 
#    0.000    6.250    0.000    0.000    0.000    0.000 
#    0.000    0.000    0.000    0.000    0.000    0.000 
#
# Total GULP energy -178682.694772 kJ/mol
# GULP energy per Si atom -5583.834212 kJ/mol
# Density = 1.926555 g / cm^3
# Si number density = 19.309499 Si / 1000 Ang^3
#
#
#
# Elastic Constant Matrix: (Units=GPa)
#
#
# Indices 1 2 3 4 5 6 
#
# 1 44.1918 38.4504 22.2151 0.0000 0.0000 0.0000
# 2 38.4504 135.7873 29.6729 0.0000 0.0000 0.0000
# 3 22.2151 29.6729 57.0299 0.0000 0.0000 0.0000
# 4 0.0000 0.0000 0.0000 20.5612 0.0000 0.0000
# 5 0.0000 0.0000 0.0000 0.0000 25.8939 0.0000
# 6 0.0000 0.0000 0.0000 0.0000 0.0000 25.5812
#
#
#
# Elastic Compliance Matrix: (Units=1/GPa)
#
#
# Indices 1 2 3 4 5 6 
#
# 1 0.033865 -0.007567 -0.009254 0.000000 0.000000 0.000000
# 2 -0.007567 0.010000 -0.002255 0.000000 0.000000 0.000000
# 3 -0.009254 -0.002255 0.022313 0.000000 0.000000 0.000000
# 4 0.000000 0.000000 0.000000 0.048635 0.000000 0.000000
# 5 0.000000 0.000000 0.000000 0.000000 0.038619 0.000000
# 6 0.000000 0.000000 0.000000 0.000000 0.000000 0.039091
#
#
# Mechanical properties :
#
#
# Convention : Reuss Voigt Hill
#
# Bulk Modulus (GPa) = 35.68343 46.40952 41.04647
# Shear Modulus (GPa) = 20.83174 24.18531 22.50852
#
# Velocity S-wave (km/s) = 3.28812 3.54292 3.41790
# Velocity P-wave (km/s) = 5.73895 6.38930 6.07283
#
# Compressibility (1/GPa) = 0.02802421
#
# Stress axis : x y z
#
# Youngs Moduli (GPa) = 29.52926 99.99935 44.81680
#
# Poissons Ratio (x) = 0.75670 0.41475
# Poissons Ratio (y) = 0.22345 0.10108
# Poissons Ratio (z) = 0.27327 0.22554
#
# Static dielectric constant tensor:
#      x y z
#    x 1.645240 0.000000 0.000000 
#    y 0.000000 1.665860 0.000000 
#    z 0.000000 0.000000 1.688380 
# 
# From -- ./inp_files/3737.got.cif
#   From: 2010.05.17/outbox.cif.g08.bks.cpg/sg31_2_cif.got.tgz:3737.got - 2010.06.03 17:08:30.
