data_PCOD9343264
_publ_section_title
;
Structure prediction by ZEFSAII (Michael W. Deem and Ramdas Pophale) SiO2 
 PCOD9343264
Probable space group: P M N 21
;
_chemical_formula_sum "Si O2"
_cell_formula_units_Z 24
_cell_length_a 12.251228
_cell_length_b 7.988308
_cell_length_c 9.924745
_cell_angle_alpha 90.000000
_cell_angle_beta 90.000000
_cell_angle_gamma 90.000000
_cell_volume 971.300877
_symmetry_space_group_name_H-M "P M N 21"
_symmetry_group_IT_number 31
_symmetry_cell_setting 'orthorhombic'
loop_
_space_group_symop_operation_xyz
x,y,z
1/2-x,-y,1/2+z
-x,y,z
1/2+x,-y,1/2+z
loop_
_atom_site_type_symbol
_atom_site_label
_atom_site_fract_x
_atom_site_fract_y
_atom_site_fract_z
Si Si1 0.115763 0.366840 0.275270
Si Si2 0.614184 0.235113 0.459162
Si Si3 0.158128 0.260159 0.566321
Si Si4 0.844288 0.626449 0.668063
Si Si5 0.123373 0.131870 0.835486
Si Si6 0.621850 0.252371 0.885682
O O1 0.124968 0.251520 0.409879
O O2 0.214380 0.344910 0.174701
O O3 0.121977 0.555090 0.333494
O O4 0.000000 0.336041 0.209731
O O5 0.500000 0.271236 0.526871
O O6 0.711821 0.269776 0.557653
O O7 0.621821 0.338296 0.320708
O O8 0.621245 0.044610 0.410384
O O9 0.124459 0.437760 0.629294
O O10 0.122177 0.122484 0.672171
O O11 0.884848 0.740437 0.547817
O O12 0.250456 0.195518 0.858787
O O13 0.000000 0.208630 0.868187
O O14 0.500000 0.180912 0.841535
#
# Coordination Sequence:
#
# PCOD9343264 Si02
#       6
#     4   4   4   4   4   4
#     4   9  18  35  58  91 125 158 211 270 321 373
#     4  10  24  42  64  94 132 170 211 267 334 387
#     4  10  21  40  62  91 125 167 219 264 315 380
#     4  10  20  39  62  92 120 164 218 267 319 382
#     4  11  24  42  64  95 131 172 218 265 320 387
#     4  10  21  38  62  91 125 169 213 261 323 383
#
# _framework density 24.709130999999999
#
# number of rings (size 3 to 8) (size 9 to 14) (size 15 to 20)
#    0.000    2.000    1.667    1.000    2.333    4.000 
#    0.000    3.333    0.000    0.000    0.000    0.000 
#    0.000    0.000    0.000    0.000    0.000    0.000 
#
# Total GULP energy -133786.869489 kJ/mol
# GULP energy per Si atom -5574.452895 kJ/mol
# Density = 2.465289 g / cm^3
# Si number density = 24.709131 Si / 1000 Ang^3
#
#
#
# Elastic Constant Matrix: (Units=GPa)
#
#
# Indices 1 2 3 4 5 6 
#
# 1 267.1282 22.2425 26.7875 0.0000 0.0000 0.0000
# 2 22.2425 13.8525 14.0458 0.0000 0.0000 0.0000
# 3 26.7875 14.0458 89.4239 0.0000 0.0000 0.0000
# 4 0.0000 0.0000 0.0000 13.7355 0.0000 0.0000
# 5 0.0000 0.0000 0.0000 0.0000 -1.1548 0.0000
# 6 0.0000 0.0000 0.0000 0.0000 0.0000 12.8691
#
#
#
# Elastic Compliance Matrix: (Units=1/GPa)
#
#
# Indices 1 2 3 4 5 6 
#
# 1 0.004326 -0.006699 -0.000244 0.000000 0.000000 0.000000
# 2 -0.006699 0.096237 -0.013109 0.000000 0.000000 0.000000
# 3 -0.000244 -0.013109 0.013315 0.000000 0.000000 0.000000
# 4 0.000000 0.000000 0.000000 0.072804 0.000000 0.000000
# 5 0.000000 0.000000 0.000000 0.000000 -0.865920 0.000000
# 6 0.000000 0.000000 0.000000 0.000000 0.000000 0.077706
#
#
# Mechanical properties :
#
#
# Convention : Reuss Voigt Hill
#
# Bulk Modulus (GPa) = 13.55487 55.17291 34.36389
# Shear Modulus (GPa) = -9.31379 25.57854 8.13238
#
# Velocity S-wave (km/s) = -1.94359 3.22092 1.81615
# Velocity P-wave (km/s) = 0.67893 6.01746 4.28199
#
# Compressibility (1/GPa) = 0.07377423
#
# Stress axis : x y z
#
# Youngs Moduli (GPa) = 231.17578 10.39103 75.10460
#
# Poissons Ratio (x) = 0.06961 0.01830
# Poissons Ratio (y) = 1.54855 0.98457
# Poissons Ratio (z) = 0.05633 0.13622
#
# Static dielectric constant tensor:
#      x y z
#    x 2.027720 0.000000 0.000000 
#    y 0.000000 1.936370 0.000000 
#    z 0.000000 0.000000 1.886000 
# 
# From -- ./inp_files/3909.got.cif
#   From: 2010.05.17/outbox.cif.g08.bks.cpg/sg31_2_cif.got.tgz:3909.got - 2010.06.03 17:08:30.
