data_PCOD9343441
_publ_section_title
;
Structure prediction by ZEFSAII (Michael W. Deem and Ramdas Pophale) SiO2 
 PCOD9343441
Probable space group: P M N 21
;
_chemical_formula_sum "Si O2"
_cell_formula_units_Z 28
_cell_length_a 20.331019
_cell_length_b 13.191161
_cell_length_c 5.276405
_cell_angle_alpha 90.000000
_cell_angle_beta 90.000000
_cell_angle_gamma 90.000000
_cell_volume 1415.077711
_symmetry_space_group_name_H-M "P M N 21"
_symmetry_group_IT_number 31
_symmetry_cell_setting 'orthorhombic'
loop_
_space_group_symop_operation_xyz
x,y,z
1/2-x,-y,1/2+z
-x,y,z
1/2+x,-y,1/2+z
loop_
_atom_site_type_symbol
_atom_site_label
_atom_site_fract_x
_atom_site_fract_y
_atom_site_fract_z
Si Si1 0.713129 0.470764 0.351980
Si Si2 0.075401 0.056539 0.200385
Si Si3 0.345093 0.126615 0.862717
Si Si4 0.927367 0.276865 0.354065
Si Si5 0.208762 0.139231 0.018036
Si Si6 0.192416 0.768457 0.854375
Si Si7 0.141067 0.333198 0.847894
O O1 0.619584 0.674894 0.059251
O O2 0.700217 0.351822 0.367141
O O3 0.734492 0.500137 0.068159
O O4 0.656331 0.551201 0.412797
O O5 0.074860 0.155256 0.379672
O O6 0.139414 0.080904 0.021546
O O7 0.000000 0.048585 0.098013
O O8 0.098611 0.956589 0.345363
O O9 0.349282 0.198349 0.107214
O O10 0.340962 0.188798 0.604290
O O11 0.270490 0.081156 0.894956
O O12 0.910184 0.296987 0.061660
O O13 0.000000 0.313712 0.409611
O O14 0.237557 0.175332 0.292147
O O15 0.198934 0.249675 0.885263
#
# Coordination Sequence:
#
# PCOD9343441 Si02
#       7
#     4   4   4   4   4   4   4
#     4  12  21  35  59  94 123 154 193 254 312 366
#     4  10  23  41  64  92 125 164 211 259 315 370
#     4  10  23  39  61  85 125 161 208 245 306 364
#     4  10  23  40  58  87 123 160 203 256 313 382
#     4   9  22  36  61  88 125 156 199 250 309 369
#     4  10  22  38  60  89 124 159 202 254 298 366
#     4  11  21  35  62  89 124 156 200 252 320 363
#
# _framework density 19.786898000000001
#
# number of rings (size 3 to 8) (size 9 to 14) (size 15 to 20)
#    0.857    0.857    1.429    3.000    8.000    2.857 
#    0.000    3.571    0.000    5.143    0.000    0.000 
#    0.000    0.000    0.000    0.000    0.000    0.000 
#
# Total GULP energy -155954.591679 kJ/mol
# GULP energy per Si atom -5569.806846 kJ/mol
# Density = 1.974186 g / cm^3
# Si number density = 19.786898 Si / 1000 Ang^3
#
#
#
# Elastic Constant Matrix: (Units=GPa)
#
#
# Indices 1 2 3 4 5 6 
#
# 1 63.8497 33.8682 5.9832 0.0000 0.0000 0.0000
# 2 33.8682 106.4696 13.7158 0.0000 0.0000 0.0000
# 3 5.9832 13.7158 69.6975 0.0000 0.0000 0.0000
# 4 0.0000 0.0000 0.0000 20.0251 0.0000 0.0000
# 5 0.0000 0.0000 0.0000 0.0000 16.7748 0.0000
# 6 0.0000 0.0000 0.0000 0.0000 0.0000 11.8071
#
#
#
# Elastic Compliance Matrix: (Units=1/GPa)
#
#
# Indices 1 2 3 4 5 6 
#
# 1 0.018855 -0.005940 -0.000450 0.000000 0.000000 0.000000
# 2 -0.005940 0.011508 -0.001755 0.000000 0.000000 0.000000
# 3 -0.000450 -0.001755 0.014732 0.000000 0.000000 0.000000
# 4 0.000000 0.000000 0.000000 0.049937 0.000000 0.000000
# 5 0.000000 0.000000 0.000000 0.000000 0.059613 0.000000
# 6 0.000000 0.000000 0.000000 0.000000 0.000000 0.084695
#
#
# Mechanical properties :
#
#
# Convention : Reuss Voigt Hill
#
# Bulk Modulus (GPa) = 34.71535 38.57237 36.64386
# Shear Modulus (GPa) = 18.85159 22.15137 20.50148
#
# Velocity S-wave (km/s) = 3.08998 3.34952 3.22236
# Velocity P-wave (km/s) = 5.50576 5.87327 5.69248
#
# Compressibility (1/GPa) = 0.02880570
#
# Stress axis : x y z
#
# Youngs Moduli (GPa) = 53.03753 86.89715 67.88111
#
# Poissons Ratio (x) = 0.51615 0.03053
# Poissons Ratio (y) = 0.31503 0.11911
# Poissons Ratio (z) = 0.02385 0.15248
#
# Static dielectric constant tensor:
#      x y z
#    x 1.762520 0.000000 0.000000 
#    y 0.000000 1.714530 0.000000 
#    z 0.000000 0.000000 1.712830 
# 
# From -- ./inp_files/965.got.cif
#   From: 2010.05.17/outbox.cif.g08.bks.cpg/sg31_1_cif.got.tgz:965.got - 2010.06.03 17:08:30.
