data_PCOD9343722
_publ_section_title
;
Structure prediction by ZEFSAII (Michael W. Deem and Ramdas Pophale) SiO2 
 PCOD9343722
Probable space group: P B A 2
;
_chemical_formula_sum "Si O2"
_cell_formula_units_Z 30
_cell_length_a 12.337663
_cell_length_b 22.334068
_cell_length_c 5.201317
_cell_angle_alpha 90.000000
_cell_angle_beta 90.000000
_cell_angle_gamma 90.000000
_cell_volume 1433.223963
_symmetry_space_group_name_H-M "P B A 2"
_symmetry_group_IT_number 32
_symmetry_cell_setting 'orthorhombic'
loop_
_space_group_symop_operation_xyz
x,y,z
-x,-y,z
1/2-x,1/2+y,z
1/2+x,1/2-y,z
loop_
_atom_site_type_symbol
_atom_site_label
_atom_site_fract_x
_atom_site_fract_y
_atom_site_fract_z
Si Si1 0.574731 0.842564 0.612060
Si Si2 0.786840 0.351924 0.099985
Si Si3 0.124528 0.899003 0.322190
Si Si4 0.000000 0.000000 0.616711
Si Si5 0.930941 0.895813 0.946905
Si Si6 0.942735 0.200854 0.709373
Si Si7 0.220185 0.279028 0.905860
Si Si8 0.349746 0.841749 0.391476
O O1 0.658406 0.848187 0.376958
O O2 0.553378 0.771230 0.656653
O O3 0.460557 0.867632 0.506837
O O4 0.627084 0.868549 0.873577
O O5 0.678104 0.391533 0.109270
O O6 0.746704 0.286693 0.006197
O O7 0.082006 0.838117 0.458516
O O8 0.253511 0.889276 0.338099
O O9 0.046976 0.906896 0.078470
O O10 0.914292 0.042717 0.475794
O O11 0.075012 0.048123 0.761152
O O12 0.950384 0.830828 0.816586
O O13 0.840754 0.191754 0.901648
O O14 0.140644 0.308943 0.114993
O O15 0.185915 0.293263 0.611971
#
# Coordination Sequence:
#
# PCOD9343722 Si02
#       8
#     4   4   4   2   4   4   4   4
#     4  11  24  38  56  94 132 176 200 240 295 394
#     4  11  24  37  58  89 131 168 209 242 310 374
#     4  10  21  38  62  92 116 157 208 270 320 371
#     4  10  24  42  62  96 114 150 214 282 342 354
#     4  11  22  39  65  90 122 163 207 275 323 378
#     4   9  20  34  57  90 130 158 208 243 311 368
#     4  10  19  35  55  91 123 167 203 244 292 369
#     4  11  21  37  62  86 127 165 209 244 303 366
#
# _framework density 20.931830000000001
#
# number of rings (size 3 to 8) (size 9 to 14) (size 15 to 20)
#    0.000    1.600    1.333    4.400    7.467    0.000 
#    0.000    0.000    0.000    0.800    0.000    0.000 
#    0.000    0.000    0.000    0.000    0.000    0.000 
#
# Total GULP energy -167119.868131 kJ/mol
# GULP energy per Si atom -5570.662271 kJ/mol
# Density = 2.088419 g / cm^3
# Si number density = 20.931830 Si / 1000 Ang^3
#
#
#
# Elastic Constant Matrix: (Units=GPa)
#
#
# Indices 1 2 3 4 5 6 
#
# 1 74.9594 19.2210 2.9202 0.0000 0.0000 0.0000
# 2 19.2210 29.9579 7.3398 0.0000 0.0000 0.0000
# 3 2.9202 7.3398 78.8893 0.0000 0.0000 0.0000
# 4 0.0000 0.0000 0.0000 132.7081 0.0000 0.0000
# 5 0.0000 0.0000 0.0000 0.0000 16.3598 0.0000
# 6 0.0000 0.0000 0.0000 0.0000 0.0000 -10.8828
#
#
#
# Elastic Compliance Matrix: (Units=1/GPa)
#
#
# Indices 1 2 3 4 5 6 
#
# 1 0.015978 -0.010342 0.000371 0.000000 0.000000 0.000000
# 2 -0.010342 0.040853 -0.003418 0.000000 0.000000 0.000000
# 3 0.000371 -0.003418 0.012980 0.000000 0.000000 0.000000
# 4 0.000000 0.000000 0.000000 0.007535 0.000000 0.000000
# 5 0.000000 0.000000 0.000000 0.000000 0.061126 0.000000
# 6 0.000000 0.000000 0.000000 0.000000 0.000000 -0.091888
#
#
# Mechanical properties :
#
#
# Convention : Reuss Voigt Hill
#
# Bulk Modulus (GPa) = 23.23838 26.97428 25.10633
# Shear Modulus (GPa) = 57.00702 37.92538 47.46620
#
# Velocity S-wave (km/s) = 5.22434 4.26120 4.76716
# Velocity P-wave (km/s) = 6.89331 6.09304 6.50549
#
# Compressibility (1/GPa) = 0.04303225
#
# Stress axis : x y z
#
# Youngs Moduli (GPa) = 62.58561 24.47781 77.03994
#
# Poissons Ratio (x) = 0.25316 -0.02857
# Poissons Ratio (y) = 0.64729 0.26333
# Poissons Ratio (z) = -0.02321 0.08367
#
# Static dielectric constant tensor:
#      x y z
#    x 1.849600 0.000000 0.000000 
#    y 0.000000 1.692470 0.000000 
#    z 0.000000 0.000000 1.846060 
# 
# From -- ./inp_files/1049.got.cif
#   From: 2010.05.17/outbox.cif.g08.bks.cpg/sg32_1_cif.got.tgz:1049.got - 2010.06.03 17:12:27.
