data_PCOD9343443
_publ_section_title
;
Structure prediction by ZEFSAII (Michael W. Deem and Ramdas Pophale) SiO2 
 PCOD9343443
Probable space group: P M N 21
;
_chemical_formula_sum "Si O2"
_cell_formula_units_Z 32
_cell_length_a 14.867841
_cell_length_b 8.724202
_cell_length_c 11.949437
_cell_angle_alpha 90.000000
_cell_angle_beta 90.000000
_cell_angle_gamma 90.000000
_cell_volume 1549.962049
_symmetry_space_group_name_H-M "P M N 21"
_symmetry_group_IT_number 31
_symmetry_cell_setting 'orthorhombic'
loop_
_space_group_symop_operation_xyz
x,y,z
1/2-x,-y,1/2+z
-x,y,z
1/2+x,-y,1/2+z
loop_
_atom_site_type_symbol
_atom_site_label
_atom_site_fract_x
_atom_site_fract_y
_atom_site_fract_z
Si Si1 0.900459 0.838996 0.095580
Si Si2 0.894818 0.116626 0.625057
Si Si3 0.606194 0.211408 0.852344
Si Si4 0.685457 0.399701 0.042583
Si Si5 0.677122 0.886361 0.881300
Si Si6 0.686004 0.370291 0.436506
Si Si7 0.896862 0.438210 0.742998
Si Si8 0.273881 0.899271 0.639039
O O1 0.880875 0.772074 0.219566
O O2 0.000000 0.905310 0.097363
O O3 0.829165 0.972838 0.070436
O O4 0.893880 0.702702 0.007225
O O5 0.880299 0.157216 0.492427
O O6 0.875527 0.267757 0.698838
O O7 0.000000 0.072465 0.639672
O O8 0.822051 0.986916 0.659695
O O9 0.500000 0.173822 0.870985
O O10 0.669713 0.070492 0.889940
O O11 0.634139 0.352346 0.929479
O O12 0.617117 0.445651 0.139864
O O13 0.747926 0.259605 0.082587
O O14 0.747128 0.545604 0.020690
O O15 0.763568 0.777678 0.887546
O O16 0.661536 0.870826 0.747169
O O17 0.661444 0.493778 0.343219
O O18 0.000000 0.437414 0.778866
#
# Coordination Sequence:
#
# PCOD9343443 Si02
#       8
#     4   4   4   4   4   4   4   4
#     4  10  22  43  66  90 128 175 218 264 327 396
#     4  11  23  43  68  96 133 175 223 280 336 397
#     4  10  22  38  63  94 125 163 218 273 323 387
#     4  12  23  37  66  92 130 162 216 266 333 392
#     4  11  21  38  64  91 128 172 214 269 333 390
#     4  12  24  41  64  92 132 176 212 269 332 400
#     4  11  25  42  62  93 130 173 219 269 330 398
#     4  11  23  40  66 100 126 170 220 276 334 392
#
# _framework density 20.645665999999999
#
# number of rings (size 3 to 8) (size 9 to 14) (size 15 to 20)
#    0.000    1.000    5.000    1.125    5.250    1.000 
#    0.000    1.250    0.000    0.000    0.000    0.000 
#    0.000    0.000    0.000    0.000    0.000    0.000 
#
# Total GULP energy -178311.395270 kJ/mol
# GULP energy per Si atom -5572.231102 kJ/mol
# Density = 2.059868 g / cm^3
# Si number density = 20.645666 Si / 1000 Ang^3
#
#
#
# Elastic Constant Matrix: (Units=GPa)
#
#
# Indices 1 2 3 4 5 6 
#
# 1 69.9899 19.4413 6.8088 0.0000 0.0000 0.0000
# 2 19.4413 51.3872 15.7479 0.0000 0.0000 0.0000
# 3 6.8088 15.7479 40.5658 0.0000 0.0000 0.0000
# 4 0.0000 0.0000 0.0000 35.8775 0.0000 0.0000
# 5 0.0000 0.0000 0.0000 0.0000 28.8996 0.0000
# 6 0.0000 0.0000 0.0000 0.0000 0.0000 16.0029
#
#
#
# Elastic Compliance Matrix: (Units=1/GPa)
#
#
# Indices 1 2 3 4 5 6 
#
# 1 0.015971 -0.005926 -0.000380 0.000000 0.000000 0.000000
# 2 -0.005926 0.024286 -0.008434 0.000000 0.000000 0.000000
# 3 -0.000380 -0.008434 0.027989 0.000000 0.000000 0.000000
# 4 0.000000 0.000000 0.000000 0.027873 0.000000 0.000000
# 5 0.000000 0.000000 0.000000 0.000000 0.034603 0.000000
# 6 0.000000 0.000000 0.000000 0.000000 0.000000 0.062489
#
#
# Mechanical properties :
#
#
# Convention : Reuss Voigt Hill
#
# Bulk Modulus (GPa) = 25.79489 27.32654 26.56071
# Shear Modulus (GPa) = 21.22137 24.15233 22.68685
#
# Velocity S-wave (km/s) = 3.20954 3.42402 3.31851
# Velocity P-wave (km/s) = 5.12407 5.37555 5.25132
#
# Compressibility (1/GPa) = 0.03876737
#
# Stress axis : x y z
#
# Youngs Moduli (GPa) = 62.61442 41.17523 35.72817
#
# Poissons Ratio (x) = 0.24399 0.01359
# Poissons Ratio (y) = 0.37103 0.30132
# Poissons Ratio (z) = 0.02381 0.34725
#
# Static dielectric constant tensor:
#      x y z
#    x 1.740660 0.000000 0.000000 
#    y 0.000000 1.705250 0.000000 
#    z 0.000000 0.000000 1.786140 
# 
# From -- ./inp_files/4266.got.cif
#   From: 2010.05.17/outbox.cif.g08.bks.cpg/sg31_3_cif.got.tgz:4266.got - 2010.06.03 17:08:30.
