data_PCOD9343756
_publ_section_title
;
Structure prediction by ZEFSAII (Michael W. Deem and Ramdas Pophale) SiO2 
 PCOD9343756
Probable space group: P B A 2
;
_chemical_formula_sum "Si O2"
_cell_formula_units_Z 32
_cell_length_a 19.983422
_cell_length_b 9.868239
_cell_length_c 8.778141
_cell_angle_alpha 90.000000
_cell_angle_beta 90.000000
_cell_angle_gamma 90.000000
_cell_volume 1731.059801
_symmetry_space_group_name_H-M "P B A 2"
_symmetry_group_IT_number 32
_symmetry_cell_setting 'orthorhombic'
loop_
_space_group_symop_operation_xyz
x,y,z
-x,-y,z
1/2-x,1/2+y,z
1/2+x,1/2-y,z
loop_
_atom_site_type_symbol
_atom_site_label
_atom_site_fract_x
_atom_site_fract_y
_atom_site_fract_z
Si Si1 0.732791 0.094759 0.956870
Si Si2 0.316640 0.175868 0.112764
Si Si3 0.095604 0.273515 0.874384
Si Si4 0.708745 0.600355 0.615965
Si Si5 0.925540 0.022618 0.753816
Si Si6 0.445896 0.200382 0.930376
Si Si7 0.074804 0.500389 0.642845
Si Si8 0.300410 0.112569 0.465430
O O1 0.661729 0.173272 0.955996
O O2 0.758454 0.083537 0.783171
O O3 0.784932 0.184233 0.052332
O O4 0.719955 0.946573 0.023985
O O5 0.306008 0.154261 0.290728
O O6 0.394715 0.171133 0.065463
O O7 0.096307 0.114282 0.839627
O O8 0.091896 0.354022 0.713452
O O9 0.025484 0.310417 0.957373
O O10 0.630950 0.562628 0.633814
O O11 0.715916 0.754591 0.564188
O O12 0.745067 0.500625 0.499455
O O13 0.932573 0.148045 0.869468
O O14 0.000000 0.000000 0.688391
O O15 0.427639 0.100079 0.790294
O O16 0.130072 0.551787 0.527569
O O17 0.000000 0.500000 0.577948
#
# Coordination Sequence:
#
# PCOD9343756 Si02
#       8
#     4   4   4   4   4   4   4   4
#     4  12  22  40  65  91 117 161 215 254 296 366
#     4  12  25  40  60  91 129 162 198 257 323 368
#     4  10  20  34  65  94 116 147 218 260 292 350
#     4  12  22  41  67  89 120 165 213 255 302 370
#     4  10  20  35  63  94 116 151 211 263 296 346
#     4  10  19  39  62  88 119 160 204 259 301 364
#     4  10  19  38  62  89 119 158 210 257 296 365
#     4  12  25  41  59  93 129 165 196 258 325 370
#
# _framework density 18.485786999999998
#
# number of rings (size 3 to 8) (size 9 to 14) (size 15 to 20)
#    0.000    1.000    5.000    3.000    0.000    0.000 
#    2.250    0.000    2.750    0.000    0.000    0.000 
#    0.000    0.000    0.000    0.000    0.000    0.000 
#
# Total GULP energy -178805.445127 kJ/mol
# GULP energy per Si atom -5587.670160 kJ/mol
# Density = 1.844371 g / cm^3
# Si number density = 18.485787 Si / 1000 Ang^3
#
#
#
# Elastic Constant Matrix: (Units=GPa)
#
#
# Indices 1 2 3 4 5 6 
#
# 1 92.2719 2.4311 13.0476 0.0000 0.0000 0.0000
# 2 2.4311 85.8141 0.7910 0.0000 0.0000 0.0000
# 3 13.0476 0.7910 59.7009 0.0000 0.0000 0.0000
# 4 0.0000 0.0000 0.0000 19.9711 0.0000 0.0000
# 5 0.0000 0.0000 0.0000 0.0000 12.7984 0.0000
# 6 0.0000 0.0000 0.0000 0.0000 0.0000 31.8653
#
#
#
# Elastic Compliance Matrix: (Units=1/GPa)
#
#
# Indices 1 2 3 4 5 6 
#
# 1 0.011191 -0.000295 -0.002442 0.000000 0.000000 0.000000
# 2 -0.000295 0.011662 -0.000090 0.000000 0.000000 0.000000
# 3 -0.002442 -0.000090 0.017285 0.000000 0.000000 0.000000
# 4 0.000000 0.000000 0.000000 0.050072 0.000000 0.000000
# 5 0.000000 0.000000 0.000000 0.000000 0.078135 0.000000
# 6 0.000000 0.000000 0.000000 0.000000 0.000000 0.031382
#
#
# Mechanical properties :
#
#
# Convention : Reuss Voigt Hill
#
# Bulk Modulus (GPa) = 28.99817 30.03626 29.51722
# Shear Modulus (GPa) = 23.05478 27.69479 25.37478
#
# Velocity S-wave (km/s) = 3.53535 3.87481 3.70897
# Velocity P-wave (km/s) = 5.69085 6.02515 5.86038
#
# Compressibility (1/GPa) = 0.03448493
#
# Stress axis : x y z
#
# Youngs Moduli (GPa) = 89.36094 85.74657 57.85362
#
# Poissons Ratio (x) = 0.02525 0.14127
# Poissons Ratio (y) = 0.02632 0.00522
# Poissons Ratio (z) = 0.21820 0.00773
#
# Static dielectric constant tensor:
#      x y z
#    x 1.670080 0.000000 0.000000 
#    y 0.000000 1.643920 0.000000 
#    z 0.000000 0.000000 1.586920 
# 
# From -- ./inp_files/3315.got.cif
#   From: 2010.05.17/outbox.cif.g08.bks.cpg/sg32_2_cif.got.tgz:3315.got - 2010.06.03 17:12:27.
