data_PCOD9343212
_publ_section_title
;
Structure prediction by ZEFSAII (Michael W. Deem and Ramdas Pophale) SiO2 
 PCOD9343212
Probable space group: P M N 21
;
_chemical_formula_sum "Si O2"
_cell_formula_units_Z 32
_cell_length_a 7.713108
_cell_length_b 15.972012
_cell_length_c 12.275386
_cell_angle_alpha 90.000000
_cell_angle_beta 90.000000
_cell_angle_gamma 90.000000
_cell_volume 1512.252105
_symmetry_space_group_name_H-M "P M N 21"
_symmetry_group_IT_number 31
_symmetry_cell_setting 'orthorhombic'
loop_
_space_group_symop_operation_xyz
x,y,z
1/2-x,-y,1/2+z
-x,y,z
1/2+x,-y,1/2+z
loop_
_atom_site_type_symbol
_atom_site_label
_atom_site_fract_x
_atom_site_fract_y
_atom_site_fract_z
Si Si1 0.203376 0.082288 0.525450
Si Si2 0.790120 0.843502 0.804134
Si Si3 0.791051 0.603342 0.565081
Si Si4 0.286445 0.749997 0.148068
Si Si5 0.208946 0.896666 0.565087
Si Si6 0.290120 0.343505 0.304137
Si Si7 0.703374 0.582282 0.025450
Si Si8 0.295131 0.750007 0.398053
O O1 0.222717 0.095580 0.396599
O O2 0.273128 0.164916 0.587063
O O3 0.000000 0.079503 0.553766
O O4 0.277525 0.991015 0.552231
O O5 0.731537 0.862047 0.681804
O O6 0.734632 0.749999 0.834826
O O7 0.000000 0.846562 0.805426
O O8 0.731546 0.637953 0.681805
O O9 0.722477 0.508991 0.552225
O O10 0.751237 0.667863 0.468334
O O11 0.000000 0.599553 0.569311
O O12 0.500000 0.749996 0.144345
O O13 0.226872 0.664909 0.087065
O O14 0.227472 0.749999 0.274074
O O15 0.248729 0.832148 0.468333
O O16 0.000000 0.900462 0.569333
O O17 0.500000 0.346569 0.305433
O O18 0.222708 0.404422 0.396600
O O19 0.500000 0.579494 0.053773
O O20 0.500000 0.750020 0.386996
#
# Coordination Sequence:
#
# PCOD9343212 Si02
#       8
#     4   4   4   4   4   4   4   4
#     4  10  21  38  61  84 112 151 191 235 283 337
#     4  10  20  37  60  82 111 151 191 235 285 337
#     4  10  22  40  60  83 116 156 189 229 291 345
#     4   9  20  38  57  82 114 149 188 229 284 339
#     4  10  22  40  60  83 116 156 189 229 291 345
#     4  10  20  37  60  82 111 151 191 235 285 337
#     4  10  21  38  61  84 112 151 191 235 283 337
#     4  11  23  38  61  86 114 151 192 241 282 331
#
# _framework density 21.160494
#
# number of rings (size 3 to 8) (size 9 to 14) (size 15 to 20)
#    0.000    2.000    2.500    0.375    3.500    2.000 
#    0.000    2.500    0.000    0.000    0.000    0.000 
#    0.000    0.000    0.000    0.000    0.000    0.000 
#
# Total GULP energy -178657.099945 kJ/mol
# GULP energy per Si atom -5583.034373 kJ/mol
# Density = 2.111233 g / cm^3
# Si number density = 21.160494 Si / 1000 Ang^3
#
#
#
# Elastic Constant Matrix: (Units=GPa)
#
#
# Indices 1 2 3 4 5 6 
#
# 1 31.5885 6.1391 -5.8882 0.0000 0.0000 0.0000
# 2 6.1391 146.2345 48.1903 0.0000 0.0000 0.0000
# 3 -5.8882 48.1903 121.0626 0.0000 0.0000 0.0000
# 4 0.0000 0.0000 0.0000 32.8767 0.0000 0.0000
# 5 0.0000 0.0000 0.0000 0.0000 12.6195 0.0000
# 6 0.0000 0.0000 0.0000 0.0000 0.0000 2.5162
#
#
#
# Elastic Compliance Matrix: (Units=1/GPa)
#
#
# Indices 1 2 3 4 5 6 
#
# 1 0.032535 -0.002172 0.002447 0.000000 0.000000 0.000000
# 2 -0.002172 0.008016 -0.003296 0.000000 0.000000 0.000000
# 3 0.002447 -0.003296 0.009691 0.000000 0.000000 0.000000
# 4 0.000000 0.000000 0.000000 0.030417 0.000000 0.000000
# 5 0.000000 0.000000 0.000000 0.000000 0.079243 0.000000
# 6 0.000000 0.000000 0.000000 0.000000 0.000000 0.397422
#
#
# Mechanical properties :
#
#
# Convention : Reuss Voigt Hill
#
# Bulk Modulus (GPa) = 22.62469 43.97422 33.29945
# Shear Modulus (GPa) = 8.64901 26.29877 17.47389
#
# Velocity S-wave (km/s) = 2.02391 3.52920 2.87675
# Velocity P-wave (km/s) = 4.02204 6.11828 5.17736
#
# Compressibility (1/GPa) = 0.04419951
#
# Stress axis : x y z
#
# Youngs Moduli (GPa) = 30.73568 124.75284 103.18422
#
# Poissons Ratio (x) = 0.27100 -0.25251
# Poissons Ratio (y) = 0.06677 0.34014
# Poissons Ratio (z) = -0.07522 0.41124
#
# Static dielectric constant tensor:
#      x y z
#    x 1.793950 0.000000 0.000000 
#    y 0.000000 1.763680 0.000000 
#    z 0.000000 0.000000 1.725620 
# 
# From -- ./inp_files/3554.got.cif
#   From: 2010.05.17/outbox.cif.g08.bks.cpg/sg31_2_cif.got.tgz:3554.got - 2010.06.03 17:08:30.
