data_PCOD9343013
_publ_section_title
;
Structure prediction by ZEFSAII (Michael W. Deem and Ramdas Pophale) SiO2 
 PCOD9343013
Probable space group: P M N 21
;
_chemical_formula_sum "Si O2"
_cell_formula_units_Z 32
_cell_length_a 8.751191
_cell_length_b 16.021029
_cell_length_c 11.430084
_cell_angle_alpha 90.000000
_cell_angle_beta 90.000000
_cell_angle_gamma 90.000000
_cell_volume 1602.533036
_symmetry_space_group_name_H-M "P M N 21"
_symmetry_group_IT_number 31
_symmetry_cell_setting 'orthorhombic'
loop_
_space_group_symop_operation_xyz
x,y,z
1/2-x,-y,1/2+z
-x,y,z
1/2+x,-y,1/2+z
loop_
_atom_site_type_symbol
_atom_site_label
_atom_site_fract_x
_atom_site_fract_y
_atom_site_fract_z
Si Si1 0.173760 0.709376 0.620250
Si Si2 0.173675 0.858703 0.431310
Si Si3 0.683712 0.157105 0.541752
Si Si4 0.683068 0.548498 0.288683
Si Si5 0.817736 0.164147 0.287635
Si Si6 0.184493 0.729362 0.244534
Si Si7 0.317461 0.977067 0.608954
Si Si8 0.817996 0.462821 0.053695
O O1 0.169356 0.784908 0.527627
O O2 0.243616 0.752417 0.734302
O O3 0.273689 0.634006 0.571800
O O4 0.000000 0.680019 0.639467
O O5 0.235905 0.808856 0.320885
O O6 0.264515 0.934296 0.488028
O O7 0.000000 0.886598 0.405758
O O8 0.500000 0.152981 0.524905
O O9 0.768042 0.155072 0.419766
O O10 0.714864 0.241621 0.612736
O O11 0.730077 0.073092 0.611229
O O12 0.500000 0.542785 0.285394
O O13 0.736356 0.644686 0.282164
O O14 0.747890 0.507283 0.169143
O O15 0.732011 0.514760 0.419034
O O16 0.762136 0.083686 0.212596
O O17 0.000000 0.169534 0.275435
O O18 0.000000 0.721116 0.261294
O O19 0.500000 0.975589 0.613977
O O20 0.000000 0.474848 0.058192
#
# Coordination Sequence:
#
# PCOD9343013 Si02
#       8
#     4   4   4   4   4   4   4   4
#     4  10  19  36  63  89 115 150 195 242 297 359
#     4   9  18  33  59  87 111 146 192 239 288 349
#     4  10  22  38  56  82 119 159 201 251 309 366
#     4  11  25  43  66  96 129 164 211 261 316 382
#     4  10  21  37  57  83 118 155 199 251 304 363
#     4  10  21  39  62  86 118 159 200 248 305 364
#     4   9  20  36  55  81 114 154 196 246 299 352
#     4  11  24  42  66  96 128 163 206 258 314 377
#
# _framework density 19.968388000000001
#
# number of rings (size 3 to 8) (size 9 to 14) (size 15 to 20)
#    0.000    2.000    1.250    1.500    1.750    5.000 
#    0.000    1.250    0.000    0.000    0.000    0.000 
#    0.000    0.000    0.000    0.000    0.000    0.000 
#
# Total GULP energy -178484.211808 kJ/mol
# GULP energy per Si atom -5577.631619 kJ/mol
# Density = 1.992294 g / cm^3
# Si number density = 19.968388 Si / 1000 Ang^3
#
#
#
# Elastic Constant Matrix: (Units=GPa)
#
#
# Indices 1 2 3 4 5 6 
#
# 1 20.8493 10.6539 36.2637 0.0000 0.0000 0.0000
# 2 10.6539 53.1624 39.9568 0.0000 0.0000 0.0000
# 3 36.2637 39.9568 123.3883 0.0000 0.0000 0.0000
# 4 0.0000 0.0000 0.0000 23.2767 0.0000 0.0000
# 5 0.0000 0.0000 0.0000 0.0000 18.6249 0.0000
# 6 0.0000 0.0000 0.0000 0.0000 0.0000 25.8033
#
#
#
# Elastic Compliance Matrix: (Units=1/GPa)
#
#
# Indices 1 2 3 4 5 6 
#
# 1 0.098407 0.002665 -0.029785 0.000000 0.000000 0.000000
# 2 0.002665 0.024933 -0.008857 0.000000 0.000000 0.000000
# 3 -0.029785 -0.008857 0.019727 0.000000 0.000000 0.000000
# 4 0.000000 0.000000 0.000000 0.042961 0.000000 0.000000
# 5 0.000000 0.000000 0.000000 0.000000 0.053692 0.000000
# 6 0.000000 0.000000 0.000000 0.000000 0.000000 0.038755
#
#
# Mechanical properties :
#
#
# Convention : Reuss Voigt Hill
#
# Bulk Modulus (GPa) = 14.06218 41.23875 27.65047
# Shear Modulus (GPa) = 13.36422 20.90936 17.13679
#
# Velocity S-wave (km/s) = 2.58983 3.23944 2.93268
# Velocity P-wave (km/s) = 4.00006 5.88972 5.03435
#
# Compressibility (1/GPa) = 0.07111273
#
# Stress axis : x y z
#
# Youngs Moduli (GPa) = 10.16187 40.10679 50.69312
#
# Poissons Ratio (x) = -0.10689 1.50989
# Poissons Ratio (y) = -0.02708 0.44901
# Poissons Ratio (z) = 0.30267 0.35524
#
# Static dielectric constant tensor:
#      x y z
#    x 1.691450 0.000000 0.000000 
#    y 0.000000 1.684400 0.000000 
#    z 0.000000 0.000000 1.756030 
# 
# From -- ./inp_files/3590.got.cif
#   From: 2010.05.17/outbox.cif.g08.bks.cpg/sg31_2_cif.got.tgz:3590.got - 2010.06.03 17:08:30.
