data_PCOD9343655
_publ_section_title
;
Structure prediction by ZEFSAII (Michael W. Deem and Ramdas Pophale) SiO2 
 PCOD9343655
Probable space group: P B A 2
;
_chemical_formula_sum "Si O2"
_cell_formula_units_Z 32
_cell_length_a 14.625210
_cell_length_b 14.334089
_cell_length_c 7.800225
_cell_angle_alpha 90.000000
_cell_angle_beta 90.000000
_cell_angle_gamma 90.000000
_cell_volume 1635.231851
_symmetry_space_group_name_H-M "P B A 2"
_symmetry_group_IT_number 32
_symmetry_cell_setting 'orthorhombic'
loop_
_space_group_symop_operation_xyz
x,y,z
-x,-y,z
1/2-x,1/2+y,z
1/2+x,1/2-y,z
loop_
_atom_site_type_symbol
_atom_site_label
_atom_site_fract_x
_atom_site_fract_y
_atom_site_fract_z
Si Si1 0.591615 0.252655 0.984660
Si Si2 0.219867 0.720243 0.162367
Si Si3 0.752756 0.406048 0.488343
Si Si4 0.747244 0.093952 0.355781
Si Si5 0.049097 0.588395 0.606848
Si Si6 0.408385 0.252655 0.859464
Si Si7 0.049097 0.411605 0.237275
Si Si8 0.280134 0.779756 0.681757
O O1 0.500000 0.306234 0.922062
O O2 0.642846 0.205303 0.823372
O O3 0.679257 0.297247 0.080847
O O4 0.552427 0.177982 0.118626
O O5 0.215014 0.654292 0.325367
O O6 0.210025 0.827887 0.229479
O O7 0.142846 0.705302 0.020751
O O8 0.702850 0.500000 0.422062
O O9 0.845604 0.439011 0.578208
O O10 0.710024 0.327888 0.614644
O O11 0.654396 0.060989 0.265915
O O12 0.715014 0.154292 0.518756
O O13 0.052427 0.677982 0.725497
O O14 0.000000 0.500000 0.687877
O O15 0.000000 0.605464 0.422061
O O16 0.320742 0.297246 0.763277
O O17 0.000000 0.500000 0.156246
#
# Coordination Sequence:
#
# PCOD9343655 Si02
#       8
#     4   4   4   4   4   4   4   4
#     4  10  20  35  54  78 122 155 182 247 288 357
#     4   9  21  37  53  86 114 156 200 224 306 352
#     4  10  18  35  59  76 116 155 190 245 279 363
#     4  10  18  35  59  76 116 155 190 245 279 363
#     4  10  18  30  50  88 119 142 184 227 317 382
#     4  10  20  35  54  78 122 155 182 247 288 357
#     4  10  18  30  50  88 119 142 184 227 317 382
#     4   9  21  37  53  86 114 156 200 224 306 352
#
# _framework density 19.569091
#
# number of rings (size 3 to 8) (size 9 to 14) (size 15 to 20)
#    0.000    2.250    2.500    1.500    0.000    0.500 
#    4.500    3.750    0.000    4.500    0.000    0.000 
#    0.000    0.000    0.000    0.000    0.000    0.000 
#
# Total GULP energy -178136.279712 kJ/mol
# GULP energy per Si atom -5566.758741 kJ/mol
# Density = 1.952455 g / cm^3
# Si number density = 19.569091 Si / 1000 Ang^3
#
#
#
# Elastic Constant Matrix: (Units=GPa)
#
#
# Indices 1 2 3 4 5 6 
#
# 1 88.5089 4.1733 3.9947 0.0000 0.0000 0.0000
# 2 4.1733 48.0825 -0.5963 0.0000 0.0000 0.0000
# 3 3.9947 -0.5963 51.3293 0.0000 0.0000 0.0000
# 4 0.0000 0.0000 0.0000 -4.9460 0.0000 0.0000
# 5 0.0000 0.0000 0.0000 0.0000 15.7366 0.0000
# 6 0.0000 0.0000 0.0000 0.0000 0.0000 10.9794
#
#
#
# Elastic Compliance Matrix: (Units=1/GPa)
#
#
# Indices 1 2 3 4 5 6 
#
# 1 0.011386 -0.000999 -0.000898 0.000000 0.000000 0.000000
# 2 -0.000999 0.020888 0.000320 0.000000 0.000000 0.000000
# 3 -0.000898 0.000320 0.019556 0.000000 0.000000 0.000000
# 4 0.000000 0.000000 0.000000 -0.202184 0.000000 0.000000
# 5 0.000000 0.000000 0.000000 0.000000 0.063546 0.000000
# 6 0.000000 0.000000 0.000000 0.000000 0.000000 0.091080
#
#
# Mechanical properties :
#
#
# Convention : Reuss Voigt Hill
#
# Bulk Modulus (GPa) = 20.54375 22.56267 21.55321
# Shear Modulus (GPa) = 211.41177 16.37728 113.89452
#
# Velocity S-wave (km/s) = 10.40519 2.89605 7.63725
# Velocity P-wave (km/s) = 12.44501 4.76840 9.42380
#
# Compressibility (1/GPa) = 0.04867660
#
# Stress axis : x y z
#
# Youngs Moduli (GPa) = 87.82765 47.87369 51.13616
#
# Poissons Ratio (x) = 0.04784 0.04591
# Poissons Ratio (y) = 0.08777 -0.01639
# Poissons Ratio (z) = 0.07884 -0.01534
#
# Static dielectric constant tensor:
#      x y z
#    x 1.762610 0.000000 0.000000 
#    y 0.000000 1.711340 0.000000 
#    z 0.000000 0.000000 1.805850 
# 
# From -- ./inp_files/3126.got.cif
#   From: 2010.05.17/outbox.cif.g08.bks.cpg/sg32_2_cif.got.tgz:3126.got - 2010.06.03 17:12:27.
