data_PCOD9343642
_publ_section_title
;
Structure prediction by ZEFSAII (Michael W. Deem and Ramdas Pophale) SiO2 
 PCOD9343642
Probable space group: P B A 2
;
_chemical_formula_sum "Si O2"
_cell_formula_units_Z 30
_cell_length_a 13.568855
_cell_length_b 12.784741
_cell_length_c 9.266480
_cell_angle_alpha 90.000000
_cell_angle_beta 90.000000
_cell_angle_gamma 90.000000
_cell_volume 1607.496102
_symmetry_space_group_name_H-M "P B A 2"
_symmetry_group_IT_number 32
_symmetry_cell_setting 'orthorhombic'
loop_
_space_group_symop_operation_xyz
x,y,z
-x,-y,z
1/2-x,1/2+y,z
1/2+x,1/2-y,z
loop_
_atom_site_type_symbol
_atom_site_label
_atom_site_fract_x
_atom_site_fract_y
_atom_site_fract_z
Si Si1 0.596101 0.708694 0.800860
Si Si2 0.363933 0.601035 0.057357
Si Si3 0.812958 0.687255 0.885748
Si Si4 0.245804 0.421147 0.166926
Si Si5 0.500000 0.500000 0.830592
Si Si6 0.453180 0.885495 0.329803
Si Si7 0.555493 0.709164 0.140976
Si Si8 0.018910 0.376953 0.662680
O O1 0.710825 0.685005 0.800992
O O2 0.530608 0.607834 0.754305
O O3 0.575352 0.808781 0.704851
O O4 0.567779 0.731701 0.969087
O O5 0.285740 0.539634 0.154581
O O6 0.460723 0.632904 0.147220
O O7 0.325466 0.703333 0.973107
O O8 0.406744 0.523726 0.934366
O O9 0.899796 0.663201 0.775829
O O10 0.803461 0.602356 0.011825
O O11 0.159713 0.393678 0.277305
O O12 0.342624 0.347298 0.185136
O O13 0.520049 0.808032 0.233111
O O14 0.454368 0.854796 0.497436
O O15 0.500000 0.000000 0.316781
O O16 0.000000 0.500000 0.679825
#
# Coordination Sequence:
#
# PCOD9343642 Si02
#       8
#     4   4   4   4   2   4   4   4
#     4  10  21  37  66  91 119 154 201 261 309 363
#     4  11  18  36  62  97 123 143 198 265 316 360
#     4  11  22  36  64  98 112 160 204 260 313 366
#     4  11  22  37  67  92 121 156 206 261 313 371
#     4  10  16  36  60  90 122 142 186 264 308 348
#     4  11  26  41  58  86 128 172 207 251 304 379
#     4  10  20  39  63  92 116 154 204 259 310 363
#     4  11  25  43  57  85 133 170 203 252 309 374
#
# _framework density 18.662564
#
# number of rings (size 3 to 8) (size 9 to 14) (size 15 to 20)
#    0.000    1.333    8.000    0.000    5.600    2.133 
#    0.000    1.333    2.933    0.000    0.000    0.000 
#    0.000    0.000    0.000    0.000    0.000    0.000 
#
# Total GULP energy -167335.690777 kJ/mol
# GULP energy per Si atom -5577.856359 kJ/mol
# Density = 1.862009 g / cm^3
# Si number density = 18.662564 Si / 1000 Ang^3
#
#
#
# Elastic Constant Matrix: (Units=GPa)
#
#
# Indices 1 2 3 4 5 6 
#
# 1 77.2781 16.1719 37.3068 0.0000 0.0000 0.0000
# 2 16.1719 67.9288 32.4617 0.0000 0.0000 0.0000
# 3 37.3068 32.4617 61.6118 0.0000 0.0000 0.0000
# 4 0.0000 0.0000 0.0000 11.7471 0.0000 0.0000
# 5 0.0000 0.0000 0.0000 0.0000 16.0603 0.0000
# 6 0.0000 0.0000 0.0000 0.0000 0.0000 29.7259
#
#
#
# Elastic Compliance Matrix: (Units=1/GPa)
#
#
# Indices 1 2 3 4 5 6 
#
# 1 0.018366 0.001259 -0.011784 0.000000 0.000000 0.000000
# 2 0.001259 0.019761 -0.011174 0.000000 0.000000 0.000000
# 3 -0.011784 -0.011174 0.029253 0.000000 0.000000 0.000000
# 4 0.000000 0.000000 0.000000 0.085127 0.000000 0.000000
# 5 0.000000 0.000000 0.000000 0.000000 0.062265 0.000000
# 6 0.000000 0.000000 0.000000 0.000000 0.000000 0.033641
#
#
# Mechanical properties :
#
#
# Convention : Reuss Voigt Hill
#
# Bulk Modulus (GPa) = 41.69759 42.07774 41.88766
# Shear Modulus (GPa) = 16.67744 19.56522 18.12133
#
# Velocity S-wave (km/s) = 2.99261 3.24136 3.11947
# Velocity P-wave (km/s) = 5.85938 6.05013 5.95552
#
# Compressibility (1/GPa) = 0.02398220
#
# Stress axis : x y z
#
# Youngs Moduli (GPa) = 54.44945 50.60360 34.18405
#
# Poissons Ratio (x) = -0.06371 0.40282
# Poissons Ratio (y) = -0.06855 0.38198
# Poissons Ratio (z) = 0.64163 0.56545
#
# Static dielectric constant tensor:
#      x y z
#    x 1.677810 0.000000 0.000000 
#    y 0.000000 1.714120 0.000000 
#    z 0.000000 0.000000 1.619390 
# 
# From -- ./inp_files/3078.got.cif
#   From: 2010.05.17/outbox.cif.g08.bks.cpg/sg32_2_cif.got.tgz:3078.got - 2010.06.03 17:12:27.
