data_PCOD9343801
_publ_section_title
;
Structure prediction by ZEFSAII (Michael W. Deem and Ramdas Pophale) SiO2 
 PCOD9343801
Probable space group: P B A 2
;
_chemical_formula_sum "Si O2"
_cell_formula_units_Z 32
_cell_length_a 8.734598
_cell_length_b 12.273527
_cell_length_c 14.558979
_cell_angle_alpha 90.000000
_cell_angle_beta 90.000000
_cell_angle_gamma 90.000000
_cell_volume 1560.785507
_symmetry_space_group_name_H-M "P B A 2"
_symmetry_group_IT_number 32
_symmetry_cell_setting 'orthorhombic'
loop_
_space_group_symop_operation_xyz
x,y,z
-x,-y,z
1/2-x,1/2+y,z
1/2+x,1/2-y,z
loop_
_atom_site_type_symbol
_atom_site_label
_atom_site_fract_x
_atom_site_fract_y
_atom_site_fract_z
Si Si1 0.659196 0.216232 0.698650
Si Si2 0.840806 0.716232 0.266408
Si Si3 0.952247 0.174569 0.982528
Si Si4 0.060120 0.878500 0.591601
Si Si5 0.603722 0.845303 0.823448
Si Si6 0.939880 0.121500 0.373456
Si Si7 0.103723 0.654696 0.141610
Si Si8 0.255519 0.025865 0.982530
O O1 0.782674 0.144714 0.644791
O O2 0.561146 0.291140 0.629897
O O3 0.539374 0.143087 0.755523
O O4 0.753994 0.297597 0.765284
O O5 0.717326 0.644715 0.320265
O O6 0.746009 0.797597 0.199771
O O7 0.938853 0.791140 0.335162
O O8 0.960629 0.643087 0.209535
O O9 0.945041 0.249874 0.893794
O O10 0.105135 0.102987 0.982530
O O11 0.804727 0.096322 0.982529
O O12 0.945040 0.249877 0.071260
O O13 0.080267 0.866038 0.482528
O O14 0.000000 0.000000 0.610350
O O15 0.654378 0.942644 0.890282
O O16 0.000000 0.000000 0.354706
O O17 0.154378 0.557353 0.074777
#
# Coordination Sequence:
#
# PCOD9343801 Si02
#       8
#     4   4   4   4   4   4   4   4
#     4  10  21  38  63  90 127 159 204 261 310 373
#     4  10  21  38  63  90 127 159 204 261 310 373
#     4  10  20  35  58  83 120 169 207 244 306 355
#     4  10  22  42  67  93 123 163 204 255 323 389
#     4  10  20  37  56  88 123 160 202 257 298 360
#     4  10  22  42  67  93 123 163 204 255 323 389
#     4  10  20  37  56  88 123 160 202 257 298 360
#     4  10  20  35  60  83 120 170 205 251 299 363
#
# _framework density 20.502496000000001
#
# number of rings (size 3 to 8) (size 9 to 14) (size 15 to 20)
#    0.000    2.000    2.500    0.750    0.000    4.000 
#    0.000   12.500    0.000   13.500    0.000    0.000 
#    0.000    0.000    0.000    0.000    0.000    0.000 
#
# Total GULP energy -179031.615583 kJ/mol
# GULP energy per Si atom -5594.737987 kJ/mol
# Density = 2.045583 g / cm^3
# Si number density = 20.502496 Si / 1000 Ang^3
#
#
#
# Elastic Constant Matrix: (Units=GPa)
#
#
# Indices 1 2 3 4 5 6 
#
# 1 145.4863 44.0600 72.2014 0.0000 0.0000 0.0000
# 2 44.0600 67.9189 51.9923 0.0000 0.0000 0.0000
# 3 72.2014 51.9923 118.3720 0.0000 0.0000 0.0000
# 4 0.0000 0.0000 0.0000 0.5514 0.0000 0.0000
# 5 0.0000 0.0000 0.0000 0.0000 28.7406 0.0000
# 6 0.0000 0.0000 0.0000 0.0000 0.0000 22.4316
#
#
#
# Elastic Compliance Matrix: (Units=1/GPa)
#
#
# Indices 1 2 3 4 5 6 
#
# 1 0.010197 -0.002793 -0.004993 0.000000 0.000000 0.000000
# 2 -0.002793 0.022946 -0.008375 0.000000 0.000000 0.000000
# 3 -0.004993 -0.008375 0.015172 0.000000 0.000000 0.000000
# 4 0.000000 0.000000 0.000000 1.813632 0.000000 0.000000
# 5 0.000000 0.000000 0.000000 0.000000 0.034794 0.000000
# 6 0.000000 0.000000 0.000000 0.000000 0.000000 0.044580
#
#
# Mechanical properties :
#
#
# Convention : Reuss Voigt Hill
#
# Bulk Modulus (GPa) = 62.52554 74.25382 68.38968
# Shear Modulus (GPa) = 2.52656 21.24629 11.88642
#
# Velocity S-wave (km/s) = 1.11130 3.22262 2.41042
# Velocity P-wave (km/s) = 5.67533 7.08115 6.41685
#
# Compressibility (1/GPa) = 0.01599347
#
# Stress axis : x y z
#
# Youngs Moduli (GPa) = 98.06521 43.57966 65.91006
#
# Poissons Ratio (x) = 0.12171 0.32910
# Poissons Ratio (y) = 0.27388 0.55201
# Poissons Ratio (z) = 0.48966 0.36499
#
# Static dielectric constant tensor:
#      x y z
#    x 1.736900 0.000000 0.000000 
#    y 0.000000 1.724420 0.000000 
#    z 0.000000 0.000000 1.706130 
# 
# From -- ./inp_files/4143.got.cif
#   From: 2010.05.17/outbox.cif.g08.bks.cpg/sg32_3_cif.got.tgz:4143.got - 2010.06.03 17:12:27.
