data_PCOD9343285
_publ_section_title
;
Structure prediction by ZEFSAII (Michael W. Deem and Ramdas Pophale) SiO2 
 PCOD9343285
Probable space group: P M N 21
;
_chemical_formula_sum "Si O2"
_cell_formula_units_Z 32
_cell_length_a 23.333122
_cell_length_b 5.120962
_cell_length_c 11.599812
_cell_angle_alpha 90.000000
_cell_angle_beta 90.000000
_cell_angle_gamma 90.000000
_cell_volume 1386.038697
_symmetry_space_group_name_H-M "P M N 21"
_symmetry_group_IT_number 31
_symmetry_cell_setting 'orthorhombic'
loop_
_space_group_symop_operation_xyz
x,y,z
1/2-x,-y,1/2+z
-x,y,z
1/2+x,-y,1/2+z
loop_
_atom_site_type_symbol
_atom_site_label
_atom_site_fract_x
_atom_site_fract_y
_atom_site_fract_z
Si Si1 0.853652 0.954361 0.986600
Si Si2 0.564873 0.051865 0.286898
Si Si3 0.786759 0.454408 0.910367
Si Si4 0.676009 0.753907 0.178978
Si Si5 0.811242 0.903916 0.476696
Si Si6 0.090345 0.630365 0.571288
Si Si7 0.631305 0.055893 0.758651
Si Si8 0.563209 0.559054 0.830261
O O1 0.912198 0.886879 0.915722
O O2 0.807474 0.746027 0.936354
O O3 0.833592 0.249892 0.960559
O O4 0.856790 0.937070 0.123497
O O5 0.500000 0.937338 0.290109
O O6 0.561534 0.280987 0.190068
O O7 0.620802 0.894821 0.239462
O O8 0.786341 0.386340 0.775136
O O9 0.727529 0.351461 0.961687
O O10 0.644742 0.532971 0.108285
O O11 0.708974 0.936951 0.088827
O O12 0.878922 0.873903 0.508821
O O13 0.816572 0.016871 0.346724
O O14 0.060528 0.471439 0.469693
O O15 0.609035 0.345488 0.789282
O O16 0.583217 0.840296 0.787430
O O17 0.500000 0.496640 0.785109
#
# Coordination Sequence:
#
# PCOD9343285 Si02
#       8
#     4   4   4   4   4   4   4   4
#     4  11  25  46  62  97 134 167 222 271 321 410
#     4  10  22  40  65  94 129 177 219 275 339 387
#     4  11  25  42  68  95 130 174 217 270 331 390
#     4  10  21  43  62  96 133 164 225 276 318 403
#     4  10  24  39  66  96 128 176 215 271 336 386
#     4  10  20  41  63  93 132 161 222 280 318 392
#     4  11  24  43  63  93 134 166 217 268 320 401
#     4  11  23  40  65  94 126 169 215 267 329 385
#
# _framework density 23.087378000000001
#
# number of rings (size 3 to 8) (size 9 to 14) (size 15 to 20)
#    0.000    1.500    2.500    1.500    3.500    2.000 
#    0.000    0.000    0.000    0.000    0.000    0.000 
#    0.000    0.000    0.000    0.000    0.000    0.000 
#
# Total GULP energy -178383.050851 kJ/mol
# GULP energy per Si atom -5574.470339 kJ/mol
# Density = 2.303483 g / cm^3
# Si number density = 23.087378 Si / 1000 Ang^3
#
#
#
# Elastic Constant Matrix: (Units=GPa)
#
#
# Indices 1 2 3 4 5 6 
#
# 1 79.3789 2.9131 27.1355 0.0000 0.0000 0.0000
# 2 2.9131 49.8591 11.8662 0.0000 0.0000 0.0000
# 3 27.1355 11.8662 146.3348 0.0000 0.0000 0.0000
# 4 0.0000 0.0000 0.0000 34.6704 0.0000 0.0000
# 5 0.0000 0.0000 0.0000 0.0000 22.2294 0.0000
# 6 0.0000 0.0000 0.0000 0.0000 0.0000 18.2966
#
#
#
# Elastic Compliance Matrix: (Units=1/GPa)
#
#
# Indices 1 2 3 4 5 6 
#
# 1 0.013452 -0.000196 -0.002479 0.000000 0.000000 0.000000
# 2 -0.000196 0.020454 -0.001622 0.000000 0.000000 0.000000
# 3 -0.002479 -0.001622 0.007425 0.000000 0.000000 0.000000
# 4 0.000000 0.000000 0.000000 0.028843 0.000000 0.000000
# 5 0.000000 0.000000 0.000000 0.000000 0.044985 0.000000
# 6 0.000000 0.000000 0.000000 0.000000 0.000000 0.054655
#
#
# Mechanical properties :
#
#
# Convention : Reuss Voigt Hill
#
# Bulk Modulus (GPa) = 30.54619 39.93359 35.23989
# Shear Modulus (GPa) = 26.41016 30.61646 28.51331
#
# Velocity S-wave (km/s) = 3.38586 3.64553 3.51809
# Velocity P-wave (km/s) = 5.34273 5.92065 5.63910
#
# Compressibility (1/GPa) = 0.03273731
#
# Stress axis : x y z
#
# Youngs Moduli (GPa) = 74.33667 48.89000 134.68349
#
# Poissons Ratio (x) = 0.00959 0.33383
# Poissons Ratio (y) = 0.01458 0.21849
# Poissons Ratio (z) = 0.18425 0.07931
#
# Static dielectric constant tensor:
#      x y z
#    x 1.934800 0.000000 0.000000 
#    y 0.000000 1.966800 0.000000 
#    z 0.000000 0.000000 1.964160 
# 
# From -- ./inp_files/4567.got.cif
#   From: 2010.05.17/outbox.cif.g08.bks.cpg/sg31_3_cif.got.tgz:4567.got - 2010.06.03 17:08:30.
