data_PCOD9343350
_publ_section_title
;
Structure prediction by ZEFSAII (Michael W. Deem and Ramdas Pophale) SiO2 
 PCOD9343350
Probable space group: P M N 21
;
_chemical_formula_sum "Si O2"
_cell_formula_units_Z 24
_cell_length_a 23.556910
_cell_length_b 8.428285
_cell_length_c 5.264376
_cell_angle_alpha 90.000000
_cell_angle_beta 90.000000
_cell_angle_gamma 90.000000
_cell_volume 1045.212117
_symmetry_space_group_name_H-M "P M N 21"
_symmetry_group_IT_number 31
_symmetry_cell_setting 'orthorhombic'
loop_
_space_group_symop_operation_xyz
x,y,z
1/2-x,-y,1/2+z
-x,y,z
1/2+x,-y,1/2+z
loop_
_atom_site_type_symbol
_atom_site_label
_atom_site_fract_x
_atom_site_fract_y
_atom_site_fract_z
Si Si1 0.269838 0.866756 0.943850
Si Si2 0.348732 0.678945 0.287317
Si Si3 0.933357 0.724915 0.002855
Si Si4 0.848973 0.015587 0.091289
Si Si5 0.065815 0.516450 0.496233
Si Si6 0.267209 0.442696 0.213211
O O1 0.249404 0.739877 0.734256
O O2 0.327824 0.959860 0.879784
O O3 0.291622 0.755138 0.168656
O O4 0.213572 0.966263 0.987526
O O5 0.395826 0.631826 0.082067
O O6 0.323142 0.506427 0.364364
O O7 0.368103 0.812678 0.484339
O O8 0.892991 0.876988 0.037833
O O9 0.920580 0.597793 0.227099
O O10 0.000000 0.769289 0.037458
O O11 0.928880 0.646087 0.723901
O O12 0.000000 0.467268 0.487367
O O13 0.223065 0.520268 0.416813
#
# Coordination Sequence:
#
# PCOD9343350 Si02
#       6
#     4   4   4   4   4   4
#     4  11  24  39  59  95 137 177 219 266 346 409
#     4  11  24  39  65  95 132 176 226 278 337 405
#     4  10  25  48  73  97 132 181 232 285 354 415
#     4  12  24  41  65  99 140 182 222 291 339 425
#     4  10  24  47  71  98 129 175 235 292 343 411
#     4  10  21  38  58  84 123 167 212 254 311 391
#
# _framework density 22.961846000000001
#
# number of rings (size 3 to 8) (size 9 to 14) (size 15 to 20)
#    0.000    1.333    3.333    1.000    4.667    7.333 
#    0.000    0.833    0.000    0.000    0.000    0.000 
#    0.000    0.000    0.000    0.000    0.000    0.000 
#
# Total GULP energy -133624.467446 kJ/mol
# GULP energy per Si atom -5567.686144 kJ/mol
# Density = 2.290958 g / cm^3
# Si number density = 22.961846 Si / 1000 Ang^3
#
#
#
# Elastic Constant Matrix: (Units=GPa)
#
#
# Indices 1 2 3 4 5 6 
#
# 1 99.0734 46.9020 16.9676 0.0000 0.0000 0.0000
# 2 46.9020 66.6751 17.4821 0.0000 0.0000 0.0000
# 3 16.9676 17.4821 99.1474 0.0000 0.0000 0.0000
# 4 0.0000 0.0000 0.0000 36.6758 0.0000 0.0000
# 5 0.0000 0.0000 0.0000 0.0000 31.8662 0.0000
# 6 0.0000 0.0000 0.0000 0.0000 0.0000 45.9680
#
#
#
# Elastic Compliance Matrix: (Units=1/GPa)
#
#
# Indices 1 2 3 4 5 6 
#
# 1 0.015186 -0.010486 -0.000750 0.000000 0.000000 0.000000
# 2 -0.010486 0.022966 -0.002255 0.000000 0.000000 0.000000
# 3 -0.000750 -0.002255 0.010612 0.000000 0.000000 0.000000
# 4 0.000000 0.000000 0.000000 0.027266 0.000000 0.000000
# 5 0.000000 0.000000 0.000000 0.000000 0.031381 0.000000
# 6 0.000000 0.000000 0.000000 0.000000 0.000000 0.021754
#
#
# Mechanical properties :
#
#
# Convention : Reuss Voigt Hill
#
# Bulk Modulus (GPa) = 45.90923 47.51102 46.71012
# Shear Modulus (GPa) = 30.59844 35.13826 32.86835
#
# Velocity S-wave (km/s) = 3.65441 3.91613 3.78753
# Velocity P-wave (km/s) = 6.15170 6.41750 6.28601
#
# Compressibility (1/GPa) = 0.02178211
#
# Stress axis : x y z
#
# Youngs Moduli (GPa) = 65.85000 43.54355 94.23356
#
# Poissons Ratio (x) = 0.45659 0.07067
# Poissons Ratio (y) = 0.69049 0.21249
# Poissons Ratio (z) = 0.04938 0.09819
#
# Static dielectric constant tensor:
#      x y z
#    x 1.925820 0.000000 0.000000 
#    y 0.000000 1.984830 0.000000 
#    z 0.000000 0.000000 2.087980 
# 
# From -- ./inp_files/1081.got.cif
#   From: 2010.05.17/outbox.cif.g08.bks.cpg/sg31_1_cif.got.tgz:1081.got - 2010.06.03 17:08:30.
