data_PCOD9343349
_publ_section_title
;
Structure prediction by ZEFSAII (Michael W. Deem and Ramdas Pophale) SiO2 
 PCOD9343349
Probable space group: P M N 21
;
_chemical_formula_sum "Si O2"
_cell_formula_units_Z 32
_cell_length_a 8.675785
_cell_length_b 7.410103
_cell_length_c 25.259862
_cell_angle_alpha 90.000000
_cell_angle_beta 90.000000
_cell_angle_gamma 90.000000
_cell_volume 1623.917639
_symmetry_space_group_name_H-M "P M N 21"
_symmetry_group_IT_number 31
_symmetry_cell_setting 'orthorhombic'
loop_
_space_group_symop_operation_xyz
x,y,z
1/2-x,-y,1/2+z
-x,y,z
1/2+x,-y,1/2+z
loop_
_atom_site_type_symbol
_atom_site_label
_atom_site_fract_x
_atom_site_fract_y
_atom_site_fract_z
Si Si1 0.317461 0.645396 0.004650
Si Si2 0.686776 0.773101 0.224790
Si Si3 0.186875 0.246810 0.020916
Si Si4 0.311922 0.051772 0.315657
Si Si5 0.184193 0.635752 0.744363
Si Si6 0.186414 0.949858 0.935414
Si Si7 0.822694 0.287779 0.136275
Si Si8 0.676739 0.278330 0.614028
O O1 0.500000 0.635968 0.001499
O O2 0.268200 0.742299 0.059608
O O3 0.248228 0.444561 0.006532
O O4 0.248278 0.760765 0.956934
O O5 0.500000 0.775659 0.220890
O O6 0.735149 0.907801 0.271214
O O7 0.738328 0.570332 0.240787
O O8 0.754322 0.811130 0.166616
O O9 0.000000 0.254510 0.022310
O O10 0.235623 0.102947 0.977130
O O11 0.235787 0.202545 0.081397
O O12 0.500000 0.049605 0.316229
O O13 0.260828 0.246794 0.293843
O O14 0.261726 0.014157 0.375379
O O15 0.228668 0.735756 0.689849
O O16 0.000000 0.628189 0.747069
O O17 0.000000 0.945471 0.936032
O O18 0.820541 0.504684 0.125080
O O19 0.000000 0.234769 0.145234
O O20 0.500000 0.223006 0.605875
#
# Coordination Sequence:
#
# PCOD9343349 Si02
#       8
#     4   4   4   4   4   4   4   4
#     4  11  22  36  56  82 113 145 177 223 279 329
#     4   9  17  31  51  76 105 135 169 214 268 318
#     4   9  19  36  58  82 108 141 181 225 272 324
#     4   9  19  34  52  76 103 135 180 224 260 312
#     4   9  17  30  50  75 102 132 165 205 256 312
#     4  10  21  38  58  79 107 146 192 233 268 319
#     4   8  15  29  49  75 104 131 165 210 261 317
#     4   9  17  32  54  79 106 137 175 216 264 327
#
# _framework density 19.705432999999999
#
# number of rings (size 3 to 8) (size 9 to 14) (size 15 to 20)
#    0.000    2.750    0.000    2.250    0.000    5.500 
#    0.000    8.125    0.000    3.000    0.000    0.000 
#    0.000    0.000    0.000    0.000    0.000    0.000 
#
# Total GULP energy -178560.771045 kJ/mol
# GULP energy per Si atom -5580.024095 kJ/mol
# Density = 1.966058 g / cm^3
# Si number density = 19.705433 Si / 1000 Ang^3
#
#
#
# Elastic Constant Matrix: (Units=GPa)
#
#
# Indices 1 2 3 4 5 6 
#
# 1 5.7284 0.7007 2.0701 0.0000 0.0000 0.0000
# 2 0.7007 50.2209 18.5676 0.0000 0.0000 0.0000
# 3 2.0701 18.5676 94.9270 0.0000 0.0000 0.0000
# 4 0.0000 0.0000 0.0000 32.3219 0.0000 0.0000
# 5 0.0000 0.0000 0.0000 0.0000 18.8140 0.0000
# 6 0.0000 0.0000 0.0000 0.0000 0.0000 13.9663
#
#
#
# Elastic Compliance Matrix: (Units=1/GPa)
#
#
# Indices 1 2 3 4 5 6 
#
# 1 0.176013 -0.001117 -0.003620 0.000000 0.000000 0.000000
# 2 -0.001117 0.021471 -0.004175 0.000000 0.000000 0.000000
# 3 -0.003620 -0.004175 0.011430 0.000000 0.000000 0.000000
# 4 0.000000 0.000000 0.000000 0.030939 0.000000 0.000000
# 5 0.000000 0.000000 0.000000 0.000000 0.053152 0.000000
# 6 0.000000 0.000000 0.000000 0.000000 0.000000 0.071601
#
#
# Mechanical properties :
#
#
# Convention : Reuss Voigt Hill
#
# Bulk Modulus (GPa) = 5.23316 21.50590 13.36953
# Shear Modulus (GPa) = 11.20757 21.65630 16.43193
#
# Velocity S-wave (km/s) = 2.38745 3.31872 2.89083
# Velocity P-wave (km/s) = 3.20333 5.06187 4.23579
#
# Compressibility (1/GPa) = 0.19108899
#
# Stress axis : x y z
#
# Youngs Moduli (GPa) = 5.68141 46.57365 87.48869
#
# Poissons Ratio (x) = 0.05204 0.31669
# Poissons Ratio (y) = 0.00635 0.36530
# Poissons Ratio (z) = 0.02057 0.19446
#
# Static dielectric constant tensor:
#      x y z
#    x 1.665730 0.000000 0.000000 
#    y 0.000000 1.728690 0.000000 
#    z 0.000000 0.000000 1.686130 
# 
# From -- ./inp_files/6468.got.cif
#   From: 2010.05.17/outbox.cif.g08.bks.cpg/sg31_4_cif.got.tgz:6468.got - 2010.06.03 17:08:30.
