data_PCOD9343571
_publ_section_title
;
Structure prediction by ZEFSAII (Michael W. Deem and Ramdas Pophale) SiO2 
 PCOD9343571
Probable space group: P M N 21
;
_chemical_formula_sum "Si O2"
_cell_formula_units_Z 24
_cell_length_a 14.832636
_cell_length_b 8.163891
_cell_length_c 9.836508
_cell_angle_alpha 90.000000
_cell_angle_beta 90.000000
_cell_angle_gamma 90.000000
_cell_volume 1191.122658
_symmetry_space_group_name_H-M "P M N 21"
_symmetry_group_IT_number 31
_symmetry_cell_setting 'orthorhombic'
loop_
_space_group_symop_operation_xyz
x,y,z
1/2-x,-y,1/2+z
-x,y,z
1/2+x,-y,1/2+z
loop_
_atom_site_type_symbol
_atom_site_label
_atom_site_fract_x
_atom_site_fract_y
_atom_site_fract_z
Si Si1 0.500000 0.684154 0.045151
Si Si2 0.500000 0.937839 0.817425
Si Si3 0.824375 0.903030 0.436522
Si Si4 0.303979 0.045450 0.230467
Si Si5 0.314641 0.624125 0.691413
Si Si6 0.000000 0.050706 0.782859
Si Si7 0.000000 0.239796 0.064704
Si Si8 0.169081 0.525359 0.490980
O O1 0.500000 0.834135 0.149418
O O2 0.500000 0.762568 0.893802
O O3 0.412133 0.572734 0.059426
O O4 0.500000 0.922349 0.657156
O O5 0.588675 0.026252 0.865569
O O6 0.803385 0.005946 0.572432
O O7 0.846574 0.719813 0.481564
O O8 0.742252 0.917900 0.332436
O O9 0.242626 0.210095 0.227869
O O10 0.408434 0.056227 0.275584
O O11 0.408557 0.669455 0.615440
O O12 0.257278 0.515523 0.585419
O O13 0.324496 0.536762 0.836287
O O14 0.000000 0.175979 0.910667
#
# Coordination Sequence:
#
# PCOD9343571 Si02
#       8
#     2   2   4   4   4   2   2   4
#     4  12  23  44  71  89 135 186 218 274 354 400
#     4  12  21  44  71  91 125 181 224 282 329 403
#     4  11  23  40  69  98 131 170 233 277 337 408
#     4  11  23  42  66 100 128 177 228 285 329 414
#     4  11  25  44  70  97 141 177 228 279 348 411
#     4  12  26  40  71  99 134 177 233 288 343 394
#     4  12  24  48  65 101 134 182 221 288 340 407
#     4  11  25  42  66 101 135 179 223 282 345 414
#
# _framework density 20.149059999999999
#
# number of rings (size 3 to 8) (size 9 to 14) (size 15 to 20)
#    0.000    0.667    5.000    2.500    4.667    2.000 
#    0.000    0.833    0.000    0.000    0.000    0.000 
#    0.000    0.000    0.000    0.000    0.000    0.000 
#
# Total GULP energy -133986.827856 kJ/mol
# GULP energy per Si atom -5582.784494 kJ/mol
# Density = 2.010320 g / cm^3
# Si number density = 20.149060 Si / 1000 Ang^3
#
#
#
# Elastic Constant Matrix: (Units=GPa)
#
#
# Indices 1 2 3 4 5 6 
#
# 1 152.4626 27.0770 23.0887 0.0000 0.0000 0.0000
# 2 27.0770 38.5606 -8.3927 0.0000 0.0000 0.0000
# 3 23.0887 -8.3927 86.2408 0.0000 0.0000 0.0000
# 4 0.0000 0.0000 0.0000 30.3231 0.0000 0.0000
# 5 0.0000 0.0000 0.0000 0.0000 50.4371 0.0000
# 6 0.0000 0.0000 0.0000 0.0000 0.0000 40.2007
#
#
#
# Elastic Compliance Matrix: (Units=1/GPa)
#
#
# Indices 1 2 3 4 5 6 
#
# 1 0.008097 -0.006291 -0.002780 0.000000 0.000000 0.000000
# 2 -0.006291 0.031382 0.004738 0.000000 0.000000 0.000000
# 3 -0.002780 0.004738 0.012801 0.000000 0.000000 0.000000
# 4 0.000000 0.000000 0.000000 0.032978 0.000000 0.000000
# 5 0.000000 0.000000 0.000000 0.000000 0.019827 0.000000
# 6 0.000000 0.000000 0.000000 0.000000 0.000000 0.024875
#
#
# Mechanical properties :
#
#
# Convention : Reuss Voigt Hill
#
# Bulk Modulus (GPa) = 22.92816 40.09000 31.50908
# Shear Modulus (GPa) = 32.64486 39.89159 36.26822
#
# Velocity S-wave (km/s) = 4.02950 4.45435 4.24724
# Velocity P-wave (km/s) = 5.74918 6.81138 6.30270
#
# Compressibility (1/GPa) = 0.04361449
#
# Stress axis : x y z
#
# Youngs Moduli (GPa) = 123.49903 31.86556 78.11999
#
# Poissons Ratio (x) = 0.20046 0.21718
# Poissons Ratio (y) = 0.77692 -0.37015
# Poissons Ratio (z) = 0.34333 -0.15099
#
# Static dielectric constant tensor:
#      x y z
#    x 1.737020 0.000000 0.000000 
#    y 0.000000 1.709580 0.000000 
#    z 0.000000 0.000000 1.713350 
# 
# From -- ./inp_files/2475.got.cif
#   From: 2010.05.17/outbox.cif.g08.bks.cpg/sg31_2_cif.got.tgz:2475.got - 2010.06.03 17:08:30.
