data_PCOD9343892
_publ_section_title
;
Structure prediction by ZEFSAII (Michael W. Deem and Ramdas Pophale) SiO2 
 PCOD9343892
Probable space group: P B A 2
;
_chemical_formula_sum "Si O2"
_cell_formula_units_Z 28
_cell_length_a 23.282218
_cell_length_b 9.465031
_cell_length_c 4.835157
_cell_angle_alpha 90.000000
_cell_angle_beta 90.000000
_cell_angle_gamma 90.000000
_cell_volume 1065.508632
_symmetry_space_group_name_H-M "P B A 2"
_symmetry_group_IT_number 32
_symmetry_cell_setting 'orthorhombic'
loop_
_space_group_symop_operation_xyz
x,y,z
-x,-y,z
1/2-x,1/2+y,z
1/2+x,1/2-y,z
loop_
_atom_site_type_symbol
_atom_site_label
_atom_site_fract_x
_atom_site_fract_y
_atom_site_fract_z
Si Si1 0.074755 0.252768 0.084140
Si Si2 0.682826 0.409050 0.816304
Si Si3 0.106804 0.688533 0.110624
Si Si4 0.228192 0.366305 0.932515
Si Si5 0.342800 0.934200 0.420429
Si Si6 0.000000 0.000000 0.960740
Si Si7 0.000000 0.500000 0.984344
Si Si8 0.104773 0.881117 0.603289
O O1 0.100823 0.340723 0.343235
O O2 0.043256 0.371817 0.889413
O O3 0.130006 0.174602 0.954790
O O4 0.029820 0.126595 0.131240
O O5 0.715362 0.540749 0.949504
O O6 0.731124 0.288785 0.798207
O O7 0.650710 0.492189 0.573600
O O8 0.150638 0.584958 0.268828
O O9 0.096697 0.822548 0.301565
O O10 0.047801 0.599745 0.118906
O O11 0.120659 0.748295 0.806669
O O12 0.179417 0.438224 0.733225
O O13 0.206412 0.356179 0.244318
O O14 0.951313 0.061076 0.756451
#
# Coordination Sequence:
#
# PCOD9343892 Si02
#       8
#     4   4   4   4   4   2   2   4
#     4   9  20  44  69 109 143 188 238 301 356 451
#     4  10  26  46  73 106 143 189 248 299 367 431
#     4  11  24  43  72 107 142 188 238 295 352 443
#     4  11  25  47  72 102 139 189 236 307 359 424
#     4  10  24  44  73 102 144 180 244 294 363 420
#     4  10  20  44  70 104 146 192 232 292 372 418
#     4  10  20  44  72 110 144 194 234 300 370 430
#     4  11  25  44  68 105 142 190 235 299 354 441
#
# _framework density 26.278531999999998
#
# number of rings (size 3 to 8) (size 9 to 14) (size 15 to 20)
#    0.000    1.714    1.429    0.857    4.000    8.000 
#   15.429    0.000    0.000    0.000    0.000    0.000 
#    0.000    0.000    0.000    0.000    0.000    0.000 
#
# Total GULP energy -156200.104634 kJ/mol
# GULP energy per Si atom -5578.575166 kJ/mol
# Density = 2.621872 g / cm^3
# Si number density = 26.278532 Si / 1000 Ang^3
#
#
#
# Elastic Constant Matrix: (Units=GPa)
#
#
# Indices 1 2 3 4 5 6 
#
# 1 94.4430 59.7313 18.6656 0.0000 0.0000 0.0000
# 2 59.7313 155.9356 19.6737 0.0000 0.0000 0.0000
# 3 18.6656 19.6737 110.1043 0.0000 0.0000 0.0000
# 4 0.0000 0.0000 0.0000 -41.0662 0.0000 0.0000
# 5 0.0000 0.0000 0.0000 0.0000 7.9350 0.0000
# 6 0.0000 0.0000 0.0000 0.0000 0.0000 78.1574
#
#
#
# Elastic Compliance Matrix: (Units=1/GPa)
#
#
# Indices 1 2 3 4 5 6 
#
# 1 0.014202 -0.005255 -0.001469 0.000000 0.000000 0.000000
# 2 -0.005255 0.008505 -0.000629 0.000000 0.000000 0.000000
# 3 -0.001469 -0.000629 0.009444 0.000000 0.000000 0.000000
# 4 0.000000 0.000000 0.000000 -0.024351 0.000000 0.000000
# 5 0.000000 0.000000 0.000000 0.000000 0.126024 0.000000
# 6 0.000000 0.000000 0.000000 0.000000 0.000000 0.012795
#
#
# Mechanical properties :
#
#
# Convention : Reuss Voigt Hill
#
# Bulk Modulus (GPa) = 57.31948 61.84712 59.58330
# Shear Modulus (GPa) = 29.91532 26.49938 28.20735
#
# Velocity S-wave (km/s) = 3.37767 3.17898 3.27983
# Velocity P-wave (km/s) = 6.08861 6.08777 6.08819
#
# Compressibility (1/GPa) = 0.01744607
#
# Stress axis : x y z
#
# Youngs Moduli (GPa) = 70.41192 117.57622 105.89125
#
# Poissons Ratio (x) = 0.61784 0.15552
# Poissons Ratio (y) = 0.37000 0.06659
# Poissons Ratio (z) = 0.10341 0.07394
#
# Static dielectric constant tensor:
#      x y z
#    x 2.128990 0.000000 0.000000 
#    y 0.000000 2.137530 0.000000 
#    z 0.000000 0.000000 2.005720 
# 
# From -- ./inp_files/1743.got.cif
#   From: 2010.05.17/outbox.cif.g08.bks.cpg/sg32_1_cif.got.tgz:1743.got - 2010.06.03 17:12:27.
