data_PCOD9343795
_publ_section_title
;
Structure prediction by ZEFSAII (Michael W. Deem and Ramdas Pophale) SiO2 
 PCOD9343795
Probable space group: P B A 2
;
_chemical_formula_sum "Si O2"
_cell_formula_units_Z 30
_cell_length_a 20.729531
_cell_length_b 12.295430
_cell_length_c 5.250739
_cell_angle_alpha 90.000000
_cell_angle_beta 90.000000
_cell_angle_gamma 90.000000
_cell_volume 1338.300466
_symmetry_space_group_name_H-M "P B A 2"
_symmetry_group_IT_number 32
_symmetry_cell_setting 'orthorhombic'
loop_
_space_group_symop_operation_xyz
x,y,z
-x,-y,z
1/2-x,1/2+y,z
1/2+x,1/2-y,z
loop_
_atom_site_type_symbol
_atom_site_label
_atom_site_fract_x
_atom_site_fract_y
_atom_site_fract_z
Si Si1 0.542330 0.712824 0.771620
Si Si2 0.158358 0.077624 0.199156
Si Si3 0.892019 0.816826 0.680700
Si Si4 0.875224 0.578555 0.581335
Si Si5 0.696355 0.872966 0.313571
Si Si6 0.381496 0.340427 0.298180
Si Si7 0.500000 0.000000 0.311079
Si Si8 0.904491 0.413902 0.934835
O O1 0.465642 0.704438 0.767193
O O2 0.572643 0.642545 0.543305
O O3 0.566006 0.837285 0.720185
O O4 0.575103 0.687836 0.046890
O O5 0.108795 0.117619 0.416169
O O6 0.227808 0.119872 0.291070
O O7 0.156981 0.947363 0.215283
O O8 0.141664 0.122082 0.918026
O O9 0.856579 0.703064 0.606885
O O10 0.830771 0.481668 0.460698
O O11 0.944490 0.566936 0.449212
O O12 0.892203 0.537459 0.862539
O O13 0.667402 0.755648 0.389752
O O14 0.664398 0.877257 0.033014
O O15 0.459299 0.084645 0.145214
#
# Coordination Sequence:
#
# PCOD9343795 Si02
#       8
#     4   4   4   4   4   4   2   4
#     4  11  23  45  74 107 139 187 240 298 366 426
#     4  12  30  49  68 107 141 198 246 293 357 434
#     4  12  29  44  73 108 147 184 239 306 362 425
#     4  11  23  41  71 107 144 185 231 304 370 427
#     4  10  26  46  72 101 140 189 243 294 366 432
#     4  11  25  48  77  99 142 191 245 295 356 439
#     4  10  20  34  66 106 144 180 222 296 368 448
#     4  10  21  39  69 105 142 182 229 294 373 426
#
# _framework density 22.416492000000002
#
# number of rings (size 3 to 8) (size 9 to 14) (size 15 to 20)
#    0.000    1.067    1.333    3.600   13.067    3.200 
#    0.000    0.000    0.000    0.000    0.000    0.000 
#    0.000    0.000    0.000    0.000    0.000    0.000 
#
# Total GULP energy -167315.837322 kJ/mol
# GULP energy per Si atom -5577.194577 kJ/mol
# Density = 2.236547 g / cm^3
# Si number density = 22.416492 Si / 1000 Ang^3
#
#
#
# Elastic Constant Matrix: (Units=GPa)
#
#
# Indices 1 2 3 4 5 6 
#
# 1 90.2312 20.5465 3.9448 0.0000 0.0000 0.0000
# 2 20.5465 115.9733 13.7011 0.0000 0.0000 0.0000
# 3 3.9448 13.7011 71.5385 0.0000 0.0000 0.0000
# 4 0.0000 0.0000 0.0000 12.6076 0.0000 0.0000
# 5 0.0000 0.0000 0.0000 0.0000 16.3727 0.0000
# 6 0.0000 0.0000 0.0000 0.0000 0.0000 21.2266
#
#
#
# Elastic Compliance Matrix: (Units=1/GPa)
#
#
# Indices 1 2 3 4 5 6 
#
# 1 0.011553 -0.002017 -0.000251 0.000000 0.000000 0.000000
# 2 -0.002017 0.009174 -0.001646 0.000000 0.000000 0.000000
# 3 -0.000251 -0.001646 0.014308 0.000000 0.000000 0.000000
# 4 0.000000 0.000000 0.000000 0.079317 0.000000 0.000000
# 5 0.000000 0.000000 0.000000 0.000000 0.061077 0.000000
# 6 0.000000 0.000000 0.000000 0.000000 0.000000 0.047111
#
#
# Mechanical properties :
#
#
# Convention : Reuss Voigt Hill
#
# Bulk Modulus (GPa) = 36.75469 39.34755 38.05112
# Shear Modulus (GPa) = 20.88233 26.01141 23.44687
#
# Velocity S-wave (km/s) = 3.05546 3.41012 3.23765
# Velocity P-wave (km/s) = 5.37398 5.75293 5.56668
#
# Compressibility (1/GPa) = 0.02720741
#
# Stress axis : x y z
#
# Youngs Moduli (GPa) = 86.55817 108.99790 69.89324
#
# Poissons Ratio (x) = 0.21987 0.01752
# Poissons Ratio (y) = 0.17460 0.11504
# Poissons Ratio (z) = 0.02170 0.17940
#
# Static dielectric constant tensor:
#      x y z
#    x 1.795720 0.000000 0.000000 
#    y 0.000000 1.944750 0.000000 
#    z 0.000000 0.000000 1.902080 
# 
# From -- ./inp_files/1586.got.cif
#   From: 2010.05.17/outbox.cif.g08.bks.cpg/sg32_1_cif.got.tgz:1586.got - 2010.06.03 17:12:27.
