data_PCOD9343576
_publ_section_title
;
Structure prediction by ZEFSAII (Michael W. Deem and Ramdas Pophale) SiO2 
 PCOD9343576
Probable space group: P M N 21
;
_chemical_formula_sum "Si O2"
_cell_formula_units_Z 20
_cell_length_a 23.008122
_cell_length_b 6.890933
_cell_length_c 5.971620
_cell_angle_alpha 90.000000
_cell_angle_beta 90.000000
_cell_angle_gamma 90.000000
_cell_volume 946.784987
_symmetry_space_group_name_H-M "P M N 21"
_symmetry_group_IT_number 31
_symmetry_cell_setting 'orthorhombic'
loop_
_space_group_symop_operation_xyz
x,y,z
1/2-x,-y,1/2+z
-x,y,z
1/2+x,-y,1/2+z
loop_
_atom_site_type_symbol
_atom_site_label
_atom_site_fract_x
_atom_site_fract_y
_atom_site_fract_z
Si Si1 0.813501 0.183935 0.288780
Si Si2 0.000000 0.628149 0.376607
Si Si3 0.885098 0.468483 0.557461
Si Si4 0.500000 0.158163 0.381476
Si Si5 0.107896 0.131429 0.891102
Si Si6 0.313448 0.150774 0.122699
O O1 0.829606 0.352729 0.460855
O O2 0.750999 0.219241 0.181514
O O3 0.812139 0.967398 0.390861
O O4 0.869182 0.190652 0.130564
O O5 0.060141 0.509724 0.397083
O O6 0.000000 0.728005 0.125835
O O7 0.000000 0.740842 0.628188
O O8 0.906595 0.324109 0.751680
O O9 0.858957 0.674574 0.628804
O O10 0.444445 0.018124 0.389026
O O11 0.162794 0.013549 0.790033
#
# Coordination Sequence:
#
# PCOD9343576 Si02
#       6
#     4   2   4   2   4   4
#     4  11  25  41  69 102 144 192 238 305 360 448
#     4  12  27  51  76 107 146 196 242 308 371 440
#     4  11  27  43  72 106 140 186 249 303 369 435
#     4  12  27  49  80 101 148 196 244 304 373 438
#     4  11  25  46  72 101 139 189 243 300 364 437
#     4  11  23  45  65 102 146 187 241 296 374 431
#
# _framework density 21.124119
#
# number of rings (size 3 to 8) (size 9 to 14) (size 15 to 20)
#    0.000    0.800    4.000    1.800    8.400    2.400 
#    0.000    0.000    0.000    0.000    0.000    0.000 
#    0.000    0.000    0.000    0.000    0.000    0.000 
#
# Total GULP energy -111491.168674 kJ/mol
# GULP energy per Si atom -5574.558434 kJ/mol
# Density = 2.107604 g / cm^3
# Si number density = 21.124119 Si / 1000 Ang^3
#
#
#
# Elastic Constant Matrix: (Units=GPa)
#
#
# Indices 1 2 3 4 5 6 
#
# 1 113.2003 36.9567 25.3161 0.0000 0.0000 0.0000
# 2 36.9567 114.6453 39.8971 0.0000 0.0000 0.0000
# 3 25.3161 39.8971 79.0913 0.0000 0.0000 0.0000
# 4 0.0000 0.0000 0.0000 29.9747 0.0000 0.0000
# 5 0.0000 0.0000 0.0000 0.0000 25.5054 0.0000
# 6 0.0000 0.0000 0.0000 0.0000 0.0000 39.7653
#
#
#
# Elastic Compliance Matrix: (Units=1/GPa)
#
#
# Indices 1 2 3 4 5 6 
#
# 1 0.010110 -0.002587 -0.001931 0.000000 0.000000 0.000000
# 2 -0.002587 0.011242 -0.004843 0.000000 0.000000 0.000000
# 3 -0.001931 -0.004843 0.015705 0.000000 0.000000 0.000000
# 4 0.000000 0.000000 0.000000 0.033362 0.000000 0.000000
# 5 0.000000 0.000000 0.000000 0.000000 0.039207 0.000000
# 6 0.000000 0.000000 0.000000 0.000000 0.000000 0.025148
#
#
# Mechanical properties :
#
#
# Convention : Reuss Voigt Hill
#
# Bulk Modulus (GPa) = 54.54104 56.80852 55.67478
# Shear Modulus (GPa) = 31.32693 32.70019 32.01356
#
# Velocity S-wave (km/s) = 3.85514 3.93873 3.89716
# Velocity P-wave (km/s) = 6.75955 6.90188 6.83109
#
# Compressibility (1/GPa) = 0.01833482
#
# Stress axis : x y z
#
# Youngs Moduli (GPa) = 98.90808 88.95343 63.67535
#
# Poissons Ratio (x) = 0.23013 0.12297
# Poissons Ratio (y) = 0.25588 0.30837
# Poissons Ratio (z) = 0.19101 0.43078
#
# Static dielectric constant tensor:
#      x y z
#    x 1.717840 0.000000 0.000000 
#    y 0.000000 1.727880 0.000000 
#    z 0.000000 0.000000 1.884890 
# 
# From -- ./inp_files/1201.got.cif
#   From: 2010.05.17/outbox.cif.g08.bks.cpg/sg31_1_cif.got.tgz:1201.got - 2010.06.03 17:08:30.
