data_PCOD9343166
_publ_section_title
;
Structure prediction by ZEFSAII (Michael W. Deem and Ramdas Pophale) SiO2 
 PCOD9343166
Probable space group: P M N 21
;
_chemical_formula_sum "Si O2"
_cell_formula_units_Z 32
_cell_length_a 27.672376
_cell_length_b 6.962566
_cell_length_c 9.107775
_cell_angle_alpha 90.000000
_cell_angle_beta 90.000000
_cell_angle_gamma 90.000000
_cell_volume 1754.801788
_symmetry_space_group_name_H-M "P M N 21"
_symmetry_group_IT_number 31
_symmetry_cell_setting 'orthorhombic'
loop_
_space_group_symop_operation_xyz
x,y,z
1/2-x,-y,1/2+z
-x,y,z
1/2+x,-y,1/2+z
loop_
_atom_site_type_symbol
_atom_site_label
_atom_site_fract_x
_atom_site_fract_y
_atom_site_fract_z
Si Si1 0.872577 0.996029 0.414480
Si Si2 0.055829 0.966749 0.825695
Si Si3 0.183656 0.600367 0.916416
Si Si4 0.231297 0.118707 0.346478
Si Si5 0.618010 0.337905 0.142294
Si Si6 0.621650 0.097326 0.575098
Si Si7 0.790814 0.175830 0.007775
Si Si8 0.941824 0.277331 0.590448
O O1 0.822796 0.117731 0.410369
O O2 0.915502 0.129050 0.478606
O O3 0.865735 0.803678 0.511525
O O4 0.881594 0.931139 0.247764
O O5 0.085166 0.804183 0.739797
O O6 0.000000 0.927036 0.807195
O O7 0.065328 0.171909 0.748450
O O8 0.072250 0.949274 0.992726
O O9 0.232312 0.726857 0.914532
O O10 0.160820 0.599476 0.752569
O O11 0.144574 0.700331 0.024456
O O12 0.196831 0.391790 0.971399
O O13 0.229535 0.148679 0.172015
O O14 0.254537 0.914696 0.389672
O O15 0.586472 0.520493 0.090863
O O16 0.659977 0.946559 0.507537
O O17 0.000000 0.296260 0.565441
#
# Coordination Sequence:
#
# PCOD9343166 Si02
#       8
#     4   4   4   4   4   4   4   4
#     4  10  22  37  55  80 115 147 179 229 284 334
#     4   9  18  35  58  80 105 140 182 230 277 326
#     4  10  21  36  58  81 109 149 190 232 280 336
#     4  10  22  37  54  80 110 145 188 228 277 342
#     4  10  20  36  58  83 110 145 189 233 282 337
#     4   9  20  37  54  80 111 142 183 226 276 337
#     4  10  21  37  55  78 111 144 182 231 275 328
#     4  10  21  37  59  84 110 146 190 233 281 340
#
# _framework density 18.235679000000001
#
# number of rings (size 3 to 8) (size 9 to 14) (size 15 to 20)
#    0.000    2.250    0.000    1.875    0.000   11.000 
#    0.000    0.000    0.000    0.000    0.000    0.000 
#    0.000    0.000    0.000    0.000    0.000    0.000 
#
# Total GULP energy -178482.738838 kJ/mol
# GULP energy per Si atom -5577.585589 kJ/mol
# Density = 1.819417 g / cm^3
# Si number density = 18.235679 Si / 1000 Ang^3
#
#
#
# Elastic Constant Matrix: (Units=GPa)
#
#
# Indices 1 2 3 4 5 6 
#
# 1 66.1754 34.9019 46.3947 0.0000 0.0000 0.0000
# 2 34.9019 108.0719 33.5883 0.0000 0.0000 0.0000
# 3 46.3947 33.5883 87.6997 0.0000 0.0000 0.0000
# 4 0.0000 0.0000 0.0000 12.9838 0.0000 0.0000
# 5 0.0000 0.0000 0.0000 0.0000 23.6224 0.0000
# 6 0.0000 0.0000 0.0000 0.0000 0.0000 20.0613
#
#
#
# Elastic Compliance Matrix: (Units=1/GPa)
#
#
# Indices 1 2 3 4 5 6 
#
# 1 0.025941 -0.004668 -0.011935 0.000000 0.000000 0.000000
# 2 -0.004668 0.011343 -0.001875 0.000000 0.000000 0.000000
# 3 -0.011935 -0.001875 0.018435 0.000000 0.000000 0.000000
# 4 0.000000 0.000000 0.000000 0.077019 0.000000 0.000000
# 5 0.000000 0.000000 0.000000 0.000000 0.042333 0.000000
# 6 0.000000 0.000000 0.000000 0.000000 0.000000 0.049847
#
#
# Mechanical properties :
#
#
# Convention : Reuss Voigt Hill
#
# Bulk Modulus (GPa) = 53.29868 54.63519 53.96694
# Shear Modulus (GPa) = 18.64769 21.13763 19.89266
#
# Velocity S-wave (km/s) = 3.20127 3.40830 3.30641
# Velocity P-wave (km/s) = 6.55403 6.74643 6.65093
#
# Compressibility (1/GPa) = 0.01876219
#
# Stress axis : x y z
#
# Youngs Moduli (GPa) = 38.54865 88.15698 54.24563
#
# Poissons Ratio (x) = 0.41154 0.64745
# Poissons Ratio (y) = 0.17995 0.10170
# Poissons Ratio (z) = 0.46010 0.16528
#
# Static dielectric constant tensor:
#      x y z
#    x 1.644520 0.000000 0.000000 
#    y 0.000000 1.613710 0.000000 
#    z 0.000000 0.000000 1.625080 
# 
# From -- ./inp_files/3191.got.cif
#   From: 2010.05.17/outbox.cif.g08.bks.cpg/sg31_2_cif.got.tgz:3191.got - 2010.06.03 17:08:30.
