data_PCOD9343879
_publ_section_title
;
Structure prediction by ZEFSAII (Michael W. Deem and Ramdas Pophale) SiO2 
 PCOD9343879
Probable space group: P B A 2
;
_chemical_formula_sum "Si O2"
_cell_formula_units_Z 30
_cell_length_a 15.589639
_cell_length_b 8.440029
_cell_length_c 11.532386
_cell_angle_alpha 90.000000
_cell_angle_beta 90.000000
_cell_angle_gamma 90.000000
_cell_volume 1517.396813
_symmetry_space_group_name_H-M "P B A 2"
_symmetry_group_IT_number 32
_symmetry_cell_setting 'orthorhombic'
loop_
_space_group_symop_operation_xyz
x,y,z
-x,-y,z
1/2-x,1/2+y,z
1/2+x,1/2-y,z
loop_
_atom_site_type_symbol
_atom_site_label
_atom_site_fract_x
_atom_site_fract_y
_atom_site_fract_z
Si Si1 0.650529 0.280659 0.895200
Si Si2 0.035227 0.671274 0.923013
Si Si3 0.724105 0.551868 0.754545
Si Si4 0.971517 0.673475 0.290632
Si Si5 0.133929 0.661666 0.684587
Si Si6 0.870741 0.261892 0.152849
Si Si7 0.500000 0.000000 0.514788
Si Si8 0.687796 0.130669 0.146290
O O1 0.548716 0.263799 0.880285
O O2 0.681074 0.455440 0.860092
O O3 0.705420 0.169026 0.809796
O O4 0.671559 0.215538 0.022807
O O5 0.097302 0.639185 0.815058
O O6 0.000000 0.500000 0.964620
O O7 0.084035 0.756301 0.027523
O O8 0.777112 0.432070 0.675543
O O9 0.655855 0.653044 0.682329
O O10 0.964120 0.634344 0.426586
O O11 0.880768 0.711197 0.233627
O O12 0.000000 0.500000 0.241874
O O13 0.054388 0.769886 0.247662
O O14 0.068740 0.586592 0.594854
O O15 0.787450 0.155821 0.173444
O O16 0.834347 0.443436 0.148519
#
# Coordination Sequence:
#
# PCOD9343879 Si02
#       8
#     4   4   4   4   4   4   2   4
#     4  11  19  34  56  88 128 161 198 251 318 390
#     4  12  19  33  60  83 122 167 201 244 320 384
#     4  10  22  35  55  92 124 152 209 257 315 385
#     4   8  19  38  58  85 116 163 215 249 295 381
#     4  11  21  39  59  86 118 165 203 264 310 383
#     4  11  20  36  58  91 121 162 205 256 316 388
#     4  10  20  42  64  84 112 174 224 250 312 372
#     4  11  19  34  59  86 123 163 197 256 315 372
#
# _framework density 19.770702
#
# number of rings (size 3 to 8) (size 9 to 14) (size 15 to 20)
#    0.400    1.067    4.667    2.800    0.000    0.533 
#    2.400    0.667    0.000    0.000   10.400    0.000 
#    0.000    0.000    0.000    0.000    0.000    0.000 
#
# Total GULP energy -167254.883237 kJ/mol
# GULP energy per Si atom -5575.162775 kJ/mol
# Density = 1.972570 g / cm^3
# Si number density = 19.770702 Si / 1000 Ang^3
#
#
#
# Elastic Constant Matrix: (Units=GPa)
#
#
# Indices 1 2 3 4 5 6 
#
# 1 112.4941 30.2835 13.4500 0.0000 0.0000 0.0000
# 2 30.2835 52.0699 12.0397 0.0000 0.0000 0.0000
# 3 13.4500 12.0397 55.7624 0.0000 0.0000 0.0000
# 4 0.0000 0.0000 0.0000 5.7856 0.0000 0.0000
# 5 0.0000 0.0000 0.0000 0.0000 10.4515 0.0000
# 6 0.0000 0.0000 0.0000 0.0000 0.0000 29.8052
#
#
#
# Elastic Compliance Matrix: (Units=1/GPa)
#
#
# Indices 1 2 3 4 5 6 
#
# 1 0.010627 -0.005882 -0.001293 0.000000 0.000000 0.000000
# 2 -0.005882 0.023469 -0.003649 0.000000 0.000000 0.000000
# 3 -0.001293 -0.003649 0.019033 0.000000 0.000000 0.000000
# 4 0.000000 0.000000 0.000000 0.172841 0.000000 0.000000
# 5 0.000000 0.000000 0.000000 0.000000 0.095680 0.000000
# 6 0.000000 0.000000 0.000000 0.000000 0.000000 0.033551
#
#
# Mechanical properties :
#
#
# Convention : Reuss Voigt Hill
#
# Bulk Modulus (GPa) = 31.76396 36.87476 34.31936
# Shear Modulus (GPa) = 12.90842 20.17868 16.54355
#
# Velocity S-wave (km/s) = 2.55798 3.19820 2.89584
# Velocity P-wave (km/s) = 4.98251 5.68592 5.34580
#
# Compressibility (1/GPa) = 0.03148222
#
# Stress axis : x y z
#
# Youngs Moduli (GPa) = 94.09663 42.60877 52.54037
#
# Poissons Ratio (x) = 0.25061 0.06796
# Poissons Ratio (y) = 0.55345 0.19170
# Poissons Ratio (z) = 0.12171 0.15546
#
# Static dielectric constant tensor:
#      x y z
#    x 1.741430 0.000000 0.000000 
#    y 0.000000 1.773510 0.000000 
#    z 0.000000 0.000000 1.689810 
# 
# From -- ./inp_files/3932.got.cif
#   From: 2010.05.17/outbox.cif.g08.bks.cpg/sg32_2_cif.got.tgz:3932.got - 2010.06.03 17:12:27.
