data_PCOD9343636
_publ_section_title
;
Structure prediction by ZEFSAII (Michael W. Deem and Ramdas Pophale) SiO2 
 PCOD9343636
Probable space group: P B A 2
;
_chemical_formula_sum "Si O2"
_cell_formula_units_Z 24
_cell_length_a 14.096827
_cell_length_b 5.322875
_cell_length_c 14.256902
_cell_angle_alpha 90.000000
_cell_angle_beta 90.000000
_cell_angle_gamma 90.000000
_cell_volume 1069.775880
_symmetry_space_group_name_H-M "P B A 2"
_symmetry_group_IT_number 32
_symmetry_cell_setting 'orthorhombic'
loop_
_space_group_symop_operation_xyz
x,y,z
-x,-y,z
1/2-x,1/2+y,z
1/2+x,1/2-y,z
loop_
_atom_site_type_symbol
_atom_site_label
_atom_site_fract_x
_atom_site_fract_y
_atom_site_fract_z
Si Si1 0.887002 0.003932 0.660230
Si Si2 0.884568 0.504245 0.767507
Si Si3 0.365238 0.610460 0.054207
Si Si4 0.850536 0.388699 0.978028
Si Si5 0.186453 0.996724 0.256103
Si Si6 0.809010 0.900978 0.455646
O O1 0.857418 0.276439 0.698227
O O2 0.855361 0.771754 0.725050
O O3 0.859634 0.954371 0.553163
O O4 0.000000 0.000000 0.665620
O O5 0.841610 0.456913 0.869504
O O6 0.000000 0.500000 0.777710
O O7 0.373845 0.539322 0.162719
O O8 0.252783 0.636486 0.026909
O O9 0.399207 0.379439 0.991575
O O10 0.402454 0.882455 0.028775
O O11 0.266053 0.220276 0.252384
O O12 0.138513 0.039535 0.357384
O O13 0.774943 0.611527 0.453736
#
# Coordination Sequence:
#
# PCOD9343636 Si02
#       6
#     4   4   4   4   4   4
#     4  10  21  40  57  74 107 150 180 213 272 329
#     4  10  21  37  55  72 101 147 184 214 256 314
#     4  10  17  30  48  77 101 134 158 210 263 310
#     4  10  18  30  48  74 100 129 177 203 251 305
#     4  10  16  30  51  74 103 134 168 201 268 325
#     4  10  21  35  55  85 107 136 175 231 270 307
#
# _framework density 22.434605000000001
#
# number of rings (size 3 to 8) (size 9 to 14) (size 15 to 20)
#    0.000    2.000    3.333    2.000    0.000    0.000 
#   18.000    0.000    0.000    2.000    0.000    0.000 
#    0.000    0.000    0.000    0.000    0.000    0.000 
#
# Total GULP energy -134048.516059 kJ/mol
# GULP energy per Si atom -5585.354836 kJ/mol
# Density = 2.238354 g / cm^3
# Si number density = 22.434605 Si / 1000 Ang^3
#
#
#
# Elastic Constant Matrix: (Units=GPa)
#
#
# Indices 1 2 3 4 5 6 
#
# 1 60.9829 6.1044 3.3793 0.0000 0.0000 0.0000
# 2 6.1044 135.6974 11.9160 0.0000 0.0000 0.0000
# 3 3.3793 11.9160 160.7133 0.0000 0.0000 0.0000
# 4 0.0000 0.0000 0.0000 40.6659 0.0000 0.0000
# 5 0.0000 0.0000 0.0000 0.0000 -75.5461 0.0000
# 6 0.0000 0.0000 0.0000 0.0000 0.0000 5.3840
#
#
#
# Elastic Compliance Matrix: (Units=1/GPa)
#
#
# Indices 1 2 3 4 5 6 
#
# 1 0.016486 -0.000716 -0.000294 0.000000 0.000000 0.000000
# 2 -0.000716 0.007449 -0.000537 0.000000 0.000000 0.000000
# 3 -0.000294 -0.000537 0.006268 0.000000 0.000000 0.000000
# 4 0.000000 0.000000 0.000000 0.024591 0.000000 0.000000
# 5 0.000000 0.000000 0.000000 0.000000 -0.013237 0.000000
# 6 0.000000 0.000000 0.000000 0.000000 0.000000 0.185734
#
#
# Mechanical properties :
#
#
# Convention : Reuss Voigt Hill
#
# Bulk Modulus (GPa) = 36.88724 44.46589 40.67657
# Shear Modulus (GPa) = 20.88377 16.50036 18.69206
#
# Velocity S-wave (km/s) = 3.05433 2.71493 2.88962
# Velocity P-wave (km/s) = 5.37740 5.44895 5.41329
#
# Compressibility (1/GPa) = 0.02710965
#
# Stress axis : x y z
#
# Youngs Moduli (GPa) = 60.65763 134.25135 159.53374
#
# Poissons Ratio (x) = 0.09610 0.04684
# Poissons Ratio (y) = 0.04342 0.08571
# Poissons Ratio (z) = 0.01781 0.07212
#
# Static dielectric constant tensor:
#      x y z
#    x 1.851640 0.000000 0.000000 
#    y 0.000000 1.874460 0.000000 
#    z 0.000000 0.000000 1.809620 
# 
# From -- ./inp_files/3527.got.cif
#   From: 2010.05.17/outbox.cif.g08.bks.cpg/sg32_2_cif.got.tgz:3527.got - 2010.06.03 17:12:27.
