data_PCOD9343870
_publ_section_title
;
Structure prediction by ZEFSAII (Michael W. Deem and Ramdas Pophale) SiO2 
 PCOD9343870
Probable space group: P B A 2
;
_chemical_formula_sum "Si O2"
_cell_formula_units_Z 24
_cell_length_a 10.287934
_cell_length_b 16.718198
_cell_length_c 5.407584
_cell_angle_alpha 90.000000
_cell_angle_beta 90.000000
_cell_angle_gamma 90.000000
_cell_volume 930.081291
_symmetry_space_group_name_H-M "P B A 2"
_symmetry_group_IT_number 32
_symmetry_cell_setting 'orthorhombic'
loop_
_space_group_symop_operation_xyz
x,y,z
-x,-y,z
1/2-x,1/2+y,z
1/2+x,1/2-y,z
loop_
_atom_site_type_symbol
_atom_site_label
_atom_site_fract_x
_atom_site_fract_y
_atom_site_fract_z
Si Si1 0.111165 0.433908 0.807260
Si Si2 0.687043 0.328032 0.323919
Si Si3 0.269813 0.169052 0.815179
Si Si4 0.994666 0.208570 0.697760
Si Si5 0.381370 0.441469 0.996813
Si Si6 0.185740 0.358516 0.300350
O O1 0.255663 0.470339 0.843366
O O2 0.000000 0.500000 0.798694
O O3 0.313636 0.411085 0.247514
O O4 0.900992 0.618611 0.060105
O O5 0.748381 0.374757 0.555734
O O6 0.537352 0.314048 0.414698
O O7 0.728827 0.234279 0.307627
O O8 0.745208 0.368437 0.080776
O O9 0.138351 0.223891 0.808174
O O10 0.937309 0.132250 0.837944
O O11 0.896242 0.278573 0.765714
O O12 0.617070 0.116127 0.553455
O O13 0.500000 0.500000 0.039040
#
# Coordination Sequence:
#
# PCOD9343870 Si02
#       6
#     4   4   4   4   4   4
#     4  10  22  41  71  95 134 179 235 277 349 414
#     4  10  21  38  66  94 130 182 215 290 342 414
#     4  10  22  37  65  93 137 168 233 275 352 409
#     4  10  23  40  67 100 132 184 228 287 356 420
#     4  10  23  44  70  99 144 183 230 293 353 428
#     4  10  20  40  69  93 134 180 230 280 351 397
#
# _framework density 25.804195
#
# number of rings (size 3 to 8) (size 9 to 14) (size 15 to 20)
#    2.000    0.000    1.667    2.500    2.333    2.000 
#    3.000    0.000    0.000    0.000    0.000    0.000 
#    0.000    0.000    0.000    0.000    0.000    0.000 
#
# Total GULP energy -133811.695262 kJ/mol
# GULP energy per Si atom -5575.487303 kJ/mol
# Density = 2.574546 g / cm^3
# Si number density = 25.804195 Si / 1000 Ang^3
#
#
#
# Elastic Constant Matrix: (Units=GPa)
#
#
# Indices 1 2 3 4 5 6 
#
# 1 174.9331 27.5581 32.1107 0.0000 0.0000 0.0000
# 2 27.5581 66.9424 48.8743 0.0000 0.0000 0.0000
# 3 32.1107 48.8743 219.4778 0.0000 0.0000 0.0000
# 4 0.0000 0.0000 0.0000 34.0295 0.0000 0.0000
# 5 0.0000 0.0000 0.0000 0.0000 -55.9213 0.0000
# 6 0.0000 0.0000 0.0000 0.0000 0.0000 24.0289
#
#
#
# Elastic Compliance Matrix: (Units=1/GPa)
#
#
# Indices 1 2 3 4 5 6 
#
# 1 0.006142 -0.002236 -0.000401 0.000000 0.000000 0.000000
# 2 -0.002236 0.018652 -0.003826 0.000000 0.000000 0.000000
# 3 -0.000401 -0.003826 0.005467 0.000000 0.000000 0.000000
# 4 0.000000 0.000000 0.000000 0.029386 0.000000 0.000000
# 5 0.000000 0.000000 0.000000 0.000000 -0.017882 0.000000
# 6 0.000000 0.000000 0.000000 0.000000 0.000000 0.041617
#
#
# Mechanical properties :
#
#
# Convention : Reuss Voigt Hill
#
# Bulk Modulus (GPa) = 57.68591 75.38219 66.53405
# Shear Modulus (GPa) = 48.97784 23.94810 36.46297
#
# Velocity S-wave (km/s) = 4.36140 3.04973 3.76315
# Velocity P-wave (km/s) = 6.91131 6.45583 6.68745
#
# Compressibility (1/GPa) = 0.01733526
#
# Stress axis : x y z
#
# Youngs Moduli (GPa) = 162.80605 53.61248 182.91612
#
# Poissons Ratio (x) = 0.11988 0.07330
# Poissons Ratio (y) = 0.36404 0.69992
# Poissons Ratio (z) = 0.06524 0.20515
#
# Static dielectric constant tensor:
#      x y z
#    x 2.103400 0.000000 0.000000 
#    y 0.000000 2.016250 0.000000 
#    z 0.000000 0.000000 2.173350 
# 
# From -- ./inp_files/890.got.cif
#   From: 2010.05.17/outbox.cif.g08.bks.cpg/sg32_1_cif.got.tgz:890.got - 2010.06.03 17:12:27.
