data_PCOD9343533
_publ_section_title
;
Structure prediction by ZEFSAII (Michael W. Deem and Ramdas Pophale) SiO2 
 PCOD9343533
Probable space group: P M N 21
;
_chemical_formula_sum "Si O2"
_cell_formula_units_Z 16
_cell_length_a 14.898136
_cell_length_b 5.342255
_cell_length_c 9.827691
_cell_angle_alpha 90.000000
_cell_angle_beta 90.000000
_cell_angle_gamma 90.000000
_cell_volume 782.182404
_symmetry_space_group_name_H-M "P M N 21"
_symmetry_group_IT_number 31
_symmetry_cell_setting 'orthorhombic'
loop_
_space_group_symop_operation_xyz
x,y,z
1/2-x,-y,1/2+z
-x,y,z
1/2+x,-y,1/2+z
loop_
_atom_site_type_symbol
_atom_site_label
_atom_site_fract_x
_atom_site_fract_y
_atom_site_fract_z
Si Si1 0.137870 0.080578 0.277090
Si Si2 0.332317 0.425277 0.904794
Si Si3 0.189643 0.660699 0.721622
Si Si4 0.500000 0.807619 0.542222
Si Si5 0.000000 0.697250 0.864391
O O1 0.118283 0.311292 0.378669
O O2 0.244623 0.102528 0.247058
O O3 0.085207 0.146236 0.140239
O O4 0.117389 0.814373 0.342993
O O5 0.242206 0.458796 0.814269
O O6 0.310410 0.394960 0.062170
O O7 0.089566 0.683021 0.774987
O O8 0.500000 0.535223 0.471715
O O9 0.500000 0.033663 0.436157
#
# Coordination Sequence:
#
# PCOD9343533 Si02
#       5
#     4   4   4   2   2
#     4  10  25  40  72  93 139 181 226 278 331 420
#     4  10  24  41  71  94 139 177 228 273 349 397
#     4  10  26  43  69 102 140 179 228 283 348 401
#     4  12  26  48  68 106 136 188 234 274 354 412
#     4  12  28  40  76 100 144 174 238 290 338 412
#
# _framework density 20.455586
#
# number of rings (size 3 to 8) (size 9 to 14) (size 15 to 20)
#    1.500    0.000    0.000    3.000   14.000    2.000 
#    0.000    0.000    0.000    0.000    0.000    0.000 
#    0.000    0.000    0.000    0.000    0.000    0.000 
#
# Total GULP energy -89207.455566 kJ/mol
# GULP energy per Si atom -5575.465973 kJ/mol
# Density = 2.040903 g / cm^3
# Si number density = 20.455586 Si / 1000 Ang^3
#
#
#
# Elastic Constant Matrix: (Units=GPa)
#
#
# Indices 1 2 3 4 5 6 
#
# 1 96.5745 18.2288 12.3736 0.0000 0.0000 0.0000
# 2 18.2288 29.4493 -20.5297 0.0000 0.0000 0.0000
# 3 12.3736 -20.5297 84.3078 0.0000 0.0000 0.0000
# 4 0.0000 0.0000 0.0000 18.6175 0.0000 0.0000
# 5 0.0000 0.0000 0.0000 0.0000 -5.5657 0.0000
# 6 0.0000 0.0000 0.0000 0.0000 0.0000 0.0713
#
#
#
# Elastic Compliance Matrix: (Units=1/GPa)
#
#
# Indices 1 2 3 4 5 6 
#
# 1 0.013105 -0.011386 -0.004696 0.000000 0.000000 0.000000
# 2 -0.011386 0.050791 0.014039 0.000000 0.000000 0.000000
# 3 -0.004696 0.014039 0.015969 0.000000 0.000000 0.000000
# 4 0.000000 0.000000 0.000000 0.053713 0.000000 0.000000
# 5 0.000000 0.000000 0.000000 0.000000 -0.179672 0.000000
# 6 0.000000 0.000000 0.000000 0.000000 0.000000 14.019515
#
#
# Mechanical properties :
#
#
# Convention : Reuss Voigt Hill
#
# Bulk Modulus (GPa) = 13.19597 25.60855 19.40226
# Shear Modulus (GPa) = 0.35707 15.97524 8.16615
#
# Velocity S-wave (km/s) = 0.41826 2.79762 2.00020
# Velocity P-wave (km/s) = 2.58811 4.79394 3.85228
#
# Compressibility (1/GPa) = 0.07578071
#
# Stress axis : x y z
#
# Youngs Moduli (GPa) = 76.30399 19.68842 62.62067
#
# Poissons Ratio (x) = 0.22417 0.29407
# Poissons Ratio (y) = 0.86878 -0.87914
# Poissons Ratio (z) = 0.35832 -0.27641
#
# Static dielectric constant tensor:
#      x y z
#    x 1.809700 0.000000 0.000000 
#    y 0.000000 1.739800 0.000000 
#    z 0.000000 0.000000 1.688980 
# 
# From -- ./inp_files/2652.got.cif
#   From: 2010.05.17/outbox.cif.g08.bks.cpg/sg31_2_cif.got.tgz:2652.got - 2010.06.03 17:08:30.
