data_PCOD9343202
_publ_section_title
;
Structure prediction by ZEFSAII (Michael W. Deem and Ramdas Pophale) SiO2 
 PCOD9343202
Probable space group: P M N 21
;
_chemical_formula_sum "Si O2"
_cell_formula_units_Z 24
_cell_length_a 7.591369
_cell_length_b 14.232776
_cell_length_c 10.280336
_cell_angle_alpha 90.000000
_cell_angle_beta 90.000000
_cell_angle_gamma 90.000000
_cell_volume 1110.751800
_symmetry_space_group_name_H-M "P M N 21"
_symmetry_group_IT_number 31
_symmetry_cell_setting 'orthorhombic'
loop_
_space_group_symop_operation_xyz
x,y,z
1/2-x,-y,1/2+z
-x,y,z
1/2+x,-y,1/2+z
loop_
_atom_site_type_symbol
_atom_site_label
_atom_site_fract_x
_atom_site_fract_y
_atom_site_fract_z
Si Si1 0.287966 0.580980 0.251660
Si Si2 0.289155 0.426940 0.454939
Si Si3 0.286652 0.859091 0.610951
Si Si4 0.708400 0.072484 0.601661
Si Si5 0.286943 0.787495 0.331788
Si Si6 0.291274 0.219413 0.392057
O O1 0.500000 0.584577 0.262409
O O2 0.220916 0.506340 0.357135
O O3 0.223037 0.686732 0.279737
O O4 0.244470 0.551377 0.105353
O O5 0.500000 0.423888 0.435971
O O6 0.218368 0.322598 0.424097
O O7 0.500000 0.859767 0.610879
O O8 0.228560 0.808332 0.478641
O O9 0.231608 0.807823 0.742561
O O10 0.221007 0.966868 0.609841
O O11 0.500000 0.061637 0.577008
O O12 0.732232 0.129683 0.734705
O O13 0.782357 0.137935 0.486126
O O14 0.500000 0.786108 0.331567
O O15 0.500000 0.223866 0.420206
#
# Coordination Sequence:
#
# PCOD9343202 Si02
#       6
#     4   4   4   4   4   4
#     4  10  22  39  60  87 114 146 188 231 280 337
#     4  10  22  40  61  86 115 148 186 231 282 335
#     4  10  22  36  55  85 116 148 189 233 276 330
#     4  10  20  37  58  82 113 149 190 232 279 332
#     4  10  21  38  58  82 115 149 186 232 280 333
#     4  10  21  38  58  82 115 150 187 231 279 333
#
# _framework density 21.606988000000001
#
# number of rings (size 3 to 8) (size 9 to 14) (size 15 to 20)
#    0.000    2.000    1.667    1.000    2.333    4.667 
#    0.000    0.000    0.000    0.000    0.000    0.000 
#    0.000    0.000    0.000    0.000    0.000    0.000 
#
# Total GULP energy -134143.278884 kJ/mol
# GULP energy per Si atom -5589.303287 kJ/mol
# Density = 2.155781 g / cm^3
# Si number density = 21.606988 Si / 1000 Ang^3
#
#
#
# Elastic Constant Matrix: (Units=GPa)
#
#
# Indices 1 2 3 4 5 6 
#
# 1 41.1881 -1.3957 -30.0673 0.0000 0.0000 0.0000
# 2 -1.3957 108.0112 51.5124 0.0000 0.0000 0.0000
# 3 -30.0673 51.5124 132.7686 0.0000 0.0000 0.0000
# 4 0.0000 0.0000 0.0000 41.5172 0.0000 0.0000
# 5 0.0000 0.0000 0.0000 0.0000 32.2630 0.0000
# 6 0.0000 0.0000 0.0000 0.0000 0.0000 1.6296
#
#
#
# Elastic Compliance Matrix: (Units=1/GPa)
#
#
# Indices 1 2 3 4 5 6 
#
# 1 0.030138 -0.003516 0.008189 0.000000 0.000000 0.000000
# 2 -0.003516 0.011771 -0.005363 0.000000 0.000000 0.000000
# 3 0.008189 -0.005363 0.011467 0.000000 0.000000 0.000000
# 4 0.000000 0.000000 0.000000 0.024086 0.000000 0.000000
# 5 0.000000 0.000000 0.000000 0.000000 0.030995 0.000000
# 6 0.000000 0.000000 0.000000 0.000000 0.000000 0.613638
#
#
# Mechanical properties :
#
#
# Convention : Reuss Voigt Hill
#
# Bulk Modulus (GPa) = 19.23222 35.78519 27.50871
# Shear Modulus (GPa) = 6.74939 32.54321 19.64630
#
# Velocity S-wave (km/s) = 1.76932 3.88512 3.01866
# Velocity P-wave (km/s) = 3.61860 6.05998 4.99087
#
# Compressibility (1/GPa) = 0.05199607
#
# Stress axis : x y z
#
# Youngs Moduli (GPa) = 33.18069 84.95715 87.20412
#
# Poissons Ratio (x) = 0.29873 -0.71415
# Poissons Ratio (y) = 0.11667 0.46769
# Poissons Ratio (z) = -0.27173 0.45564
#
# Static dielectric constant tensor:
#      x y z
#    x 1.821850 0.000000 0.000000 
#    y 0.000000 1.778350 0.000000 
#    z 0.000000 0.000000 1.725030 
# 
# From -- ./inp_files/1688.got.cif
#   From: 2010.05.17/outbox.cif.g08.bks.cpg/sg31_1_cif.got.tgz:1688.got - 2010.06.03 17:08:30.
