data_PCOD9343884
_publ_section_title
;
Structure prediction by ZEFSAII (Michael W. Deem and Ramdas Pophale) SiO2 
 PCOD9343884
Probable space group: P B A 2
;
_chemical_formula_sum "Si O2"
_cell_formula_units_Z 20
_cell_length_a 9.956465
_cell_length_b 14.636622
_cell_length_c 5.356018
_cell_angle_alpha 90.000000
_cell_angle_beta 90.000000
_cell_angle_gamma 90.000000
_cell_volume 780.527226
_symmetry_space_group_name_H-M "P B A 2"
_symmetry_group_IT_number 32
_symmetry_cell_setting 'orthorhombic'
loop_
_space_group_symop_operation_xyz
x,y,z
-x,-y,z
1/2-x,1/2+y,z
1/2+x,1/2-y,z
loop_
_atom_site_type_symbol
_atom_site_label
_atom_site_fract_x
_atom_site_fract_y
_atom_site_fract_z
Si Si1 0.547354 0.796119 0.636970
Si Si2 0.500000 0.000000 0.524986
Si Si3 0.000000 0.000000 0.945219
Si Si4 0.220121 0.114624 0.826086
Si Si5 0.405816 0.753767 0.139480
Si Si6 0.718673 0.044649 0.128179
O O1 0.706999 0.814115 0.648362
O O2 0.490115 0.748959 0.392451
O O3 0.488405 0.898813 0.636561
O O4 0.503608 0.753809 0.898710
O O5 0.633375 0.997309 0.346240
O O6 0.076877 0.071078 0.767358
O O7 0.118995 0.959392 0.116944
O O8 0.193066 0.169933 0.082792
O O9 0.307873 0.024476 0.893742
O O10 0.329461 0.851106 0.125218
#
# Coordination Sequence:
#
# PCOD9343884 Si02
#       6
#     4   2   2   4   4   4
#     4  11  24  42  73 101 138 195 248 308 362 442
#     4  10  20  42  68 108 132 198 254 304 360 460
#     4   8  22  42  72 102 152 192 234 314 388 428
#     4  10  22  43  72 103 154 191 245 317 373 446
#     4  11  25  43  73 106 142 195 259 299 371 452
#     4   9  20  42  71 104 143 191 246 303 374 441
#
# _framework density 25.623705000000001
#
# number of rings (size 3 to 8) (size 9 to 14) (size 15 to 20)
#    1.200    0.800    0.000    3.600    2.800    4.000 
#    3.600    1.000    0.000    0.000    0.000    0.000 
#    0.000    0.000    0.000    0.000    0.000    0.000 
#
# Total GULP energy -111562.627573 kJ/mol
# GULP energy per Si atom -5578.131379 kJ/mol
# Density = 2.556538 g / cm^3
# Si number density = 25.623705 Si / 1000 Ang^3
#
#
#
# Elastic Constant Matrix: (Units=GPa)
#
#
# Indices 1 2 3 4 5 6 
#
# 1 114.4218 5.3309 50.2473 0.0000 0.0000 0.0000
# 2 5.3309 89.1473 11.7601 0.0000 0.0000 0.0000
# 3 50.2473 11.7601 108.8554 0.0000 0.0000 0.0000
# 4 0.0000 0.0000 0.0000 28.5351 0.0000 0.0000
# 5 0.0000 0.0000 0.0000 0.0000 29.2913 0.0000
# 6 0.0000 0.0000 0.0000 0.0000 0.0000 34.5807
#
#
#
# Elastic Compliance Matrix: (Units=1/GPa)
#
#
# Indices 1 2 3 4 5 6 
#
# 1 0.010962 0.000012 -0.005061 0.000000 0.000000 0.000000
# 2 0.000012 0.011380 -0.001235 0.000000 0.000000 0.000000
# 3 -0.005061 -0.001235 0.011656 0.000000 0.000000 0.000000
# 4 0.000000 0.000000 0.000000 0.035045 0.000000 0.000000
# 5 0.000000 0.000000 0.000000 0.000000 0.034140 0.000000
# 6 0.000000 0.000000 0.000000 0.000000 0.000000 0.028918
#
#
# Mechanical properties :
#
#
# Convention : Reuss Voigt Hill
#
# Bulk Modulus (GPa) = 46.66502 49.67791 48.17146
# Shear Modulus (GPa) = 32.93577 34.82049 33.87813
#
# Velocity S-wave (km/s) = 3.58909 3.69035 3.64007
# Velocity P-wave (km/s) = 5.95202 6.13089 6.04212
#
# Compressibility (1/GPa) = 0.02142933
#
# Stress axis : x y z
#
# Youngs Moduli (GPa) = 91.22767 87.87674 85.79176
#
# Poissons Ratio (x) = -0.00107 0.43420
# Poissons Ratio (y) = -0.00111 0.10595
# Poissons Ratio (z) = 0.46172 0.10853
#
# Static dielectric constant tensor:
#      x y z
#    x 2.134220 0.000000 0.000000 
#    y 0.000000 2.046430 0.000000 
#    z 0.000000 0.000000 2.044390 
# 
# From -- ./inp_files/455.got.cif
#   From: 2010.05.17/outbox.cif.g08.bks.cpg/sg32_1_cif.got.tgz:455.got - 2010.06.03 17:12:27.
