data_PCOD9343534
_publ_section_title
;
Structure prediction by ZEFSAII (Michael W. Deem and Ramdas Pophale) SiO2 
 PCOD9343534
Probable space group: P M N 21
;
_chemical_formula_sum "Si O2"
_cell_formula_units_Z 24
_cell_length_a 9.037636
_cell_length_b 12.356291
_cell_length_c 10.436341
_cell_angle_alpha 90.000000
_cell_angle_beta 90.000000
_cell_angle_gamma 90.000000
_cell_volume 1165.443528
_symmetry_space_group_name_H-M "P M N 21"
_symmetry_group_IT_number 31
_symmetry_cell_setting 'orthorhombic'
loop_
_space_group_symop_operation_xyz
x,y,z
1/2-x,-y,1/2+z
-x,y,z
1/2+x,-y,1/2+z
loop_
_atom_site_type_symbol
_atom_site_label
_atom_site_fract_x
_atom_site_fract_y
_atom_site_fract_z
Si Si1 0.675860 0.901513 0.577950
Si Si2 0.820613 0.739387 0.207175
Si Si3 0.830355 0.689099 0.648307
Si Si4 0.822185 0.963339 0.330883
Si Si5 0.323903 0.499550 0.775406
Si Si6 0.329677 0.335810 0.435473
O O1 0.500000 0.893738 0.564076
O O2 0.749341 0.782800 0.571543
O O3 0.742290 0.976475 0.466305
O O4 0.707459 0.952559 0.717247
O O5 0.769197 0.846803 0.276708
O O6 0.775669 0.624631 0.267797
O O7 0.000000 0.744205 0.211824
O O8 0.778602 0.731109 0.057472
O O9 0.748269 0.574047 0.663590
O O10 0.830023 0.725187 0.799151
O O11 0.000000 0.676074 0.605860
O O12 0.000000 0.960950 0.351060
O O13 0.500000 0.504649 0.765404
O O14 0.268807 0.559934 0.903095
O O15 0.500000 0.369987 0.459288
#
# Coordination Sequence:
#
# PCOD9343534 Si02
#       6
#     4   4   4   4   4   4
#     4  11  24  41  64  93 124 159 205 255 302 358
#     4   9  18  36  59  85 117 156 199 246 301 363
#     4   9  19  36  60  83 115 160 199 238 295 359
#     4  10  24  43  64  89 121 160 202 251 309 368
#     4   9  17  31  54  85 118 152 194 245 295 351
#     4   8  17  33  55  81 111 155 197 237 294 357
#
# _framework density 20.593018000000001
#
# number of rings (size 3 to 8) (size 9 to 14) (size 15 to 20)
#    1.000    1.667    0.000    1.000    2.333    2.667 
#    0.000    7.500    0.000    0.000    0.000    0.000 
#    0.000    0.000    0.000    0.000    0.000    0.000 
#
# Total GULP energy -133730.526655 kJ/mol
# GULP energy per Si atom -5572.105277 kJ/mol
# Density = 2.054615 g / cm^3
# Si number density = 20.593018 Si / 1000 Ang^3
#
#
#
# Elastic Constant Matrix: (Units=GPa)
#
#
# Indices 1 2 3 4 5 6 
#
# 1 61.7659 36.9804 16.4233 0.0000 0.0000 0.0000
# 2 36.9804 74.8628 -5.6543 0.0000 0.0000 0.0000
# 3 16.4233 -5.6543 43.6849 0.0000 0.0000 0.0000
# 4 0.0000 0.0000 0.0000 28.3103 0.0000 0.0000
# 5 0.0000 0.0000 0.0000 0.0000 23.6784 0.0000
# 6 0.0000 0.0000 0.0000 0.0000 0.0000 10.9006
#
#
#
# Elastic Compliance Matrix: (Units=1/GPa)
#
#
# Indices 1 2 3 4 5 6 
#
# 1 0.028602 -0.015089 -0.012706 0.000000 0.000000 0.000000
# 2 -0.015089 0.021449 0.008449 0.000000 0.000000 0.000000
# 3 -0.012706 0.008449 0.028762 0.000000 0.000000 0.000000
# 4 0.000000 0.000000 0.000000 0.035323 0.000000 0.000000
# 5 0.000000 0.000000 0.000000 0.000000 0.042233 0.000000
# 6 0.000000 0.000000 0.000000 0.000000 0.000000 0.091738
#
#
# Mechanical properties :
#
#
# Convention : Reuss Voigt Hill
#
# Bulk Modulus (GPa) = 24.92420 30.64583 27.78501
# Shear Modulus (GPa) = 16.65710 21.41546 19.03628
#
# Velocity S-wave (km/s) = 2.84715 3.22831 3.04370
# Velocity P-wave (km/s) = 4.78935 5.36749 5.08664
#
# Compressibility (1/GPa) = 0.04012165
#
# Stress axis : x y z
#
# Youngs Moduli (GPa) = 34.96201 46.62159 34.76864
#
# Poissons Ratio (x) = 0.70345 0.44177
# Poissons Ratio (y) = 0.52753 -0.29375
# Poissons Ratio (z) = 0.44423 -0.39390
#
# Static dielectric constant tensor:
#      x y z
#    x 1.698440 0.000000 0.000000 
#    y 0.000000 1.745470 0.000000 
#    z 0.000000 0.000000 1.790600 
# 
# From -- ./inp_files/3461.got.cif
#   From: 2010.05.17/outbox.cif.g08.bks.cpg/sg31_2_cif.got.tgz:3461.got - 2010.06.03 17:08:30.
