data_PCOD9343499
_publ_section_title
;
Structure prediction by ZEFSAII (Michael W. Deem and Ramdas Pophale) SiO2 
 PCOD9343499
Probable space group: P M N 21
;
_chemical_formula_sum "Si O2"
_cell_formula_units_Z 24
_cell_length_a 8.786083
_cell_length_b 12.072283
_cell_length_c 12.144086
_cell_angle_alpha 90.000000
_cell_angle_beta 90.000000
_cell_angle_gamma 90.000000
_cell_volume 1288.099891
_symmetry_space_group_name_H-M "P M N 21"
_symmetry_group_IT_number 31
_symmetry_cell_setting 'orthorhombic'
loop_
_space_group_symop_operation_xyz
x,y,z
1/2-x,-y,1/2+z
-x,y,z
1/2+x,-y,1/2+z
loop_
_atom_site_type_symbol
_atom_site_label
_atom_site_fract_x
_atom_site_fract_y
_atom_site_fract_z
Si Si1 0.181528 0.577080 0.075670
Si Si2 0.182470 0.227400 0.714007
Si Si3 0.181362 0.660615 0.635929
Si Si4 0.818866 0.166417 0.965259
Si Si5 0.182086 0.288835 0.373885
Si Si6 0.818743 0.070792 0.512723
O O1 0.232975 0.664160 0.169490
O O2 0.248953 0.457285 0.101637
O O3 0.000000 0.572061 0.069148
O O4 0.249268 0.625520 0.962188
O O5 0.218678 0.197207 0.839036
O O6 0.219064 0.127147 0.630189
O O7 0.000000 0.246521 0.704340
O O8 0.233355 0.752040 0.548007
O O9 0.245593 0.693648 0.755272
O O10 0.000000 0.653070 0.639913
O O11 0.000000 0.179577 0.979666
O O12 0.771045 0.040698 0.989615
O O13 0.212784 0.166320 0.422701
O O14 0.000000 0.303012 0.369142
O O15 0.000000 0.047925 0.511327
#
# Coordination Sequence:
#
# PCOD9343499 Si02
#       6
#     4   4   4   4   4   4
#     4  11  23  41  66  94 124 162 207 254 312 372
#     4   9  21  42  64  88 124 166 207 256 309 364
#     4  12  26  42  63  91 127 166 208 257 310 366
#     4  11  24  40  62  93 127 163 209 258 306 365
#     4  10  22  43  67  93 125 162 207 256 310 370
#     4   9  20  40  64  91 123 161 202 253 313 369
#
# _framework density 18.632096000000001
#
# number of rings (size 3 to 8) (size 9 to 14) (size 15 to 20)
#    0.000    1.667    0.000    5.000    4.667    4.667 
#    0.000    0.000    0.000    0.000    0.000    0.000 
#    0.000    0.000    0.000    0.000    0.000    0.000 
#
# Total GULP energy -134189.994840 kJ/mol
# GULP energy per Si atom -5591.249785 kJ/mol
# Density = 1.858969 g / cm^3
# Si number density = 18.632096 Si / 1000 Ang^3
#
#
#
# Elastic Constant Matrix: (Units=GPa)
#
#
# Indices 1 2 3 4 5 6 
#
# 1 121.9183 87.8792 85.3579 0.0000 0.0000 0.0000
# 2 87.8792 136.6563 95.1954 0.0000 0.0000 0.0000
# 3 85.3579 95.1954 151.0260 0.0000 0.0000 0.0000
# 4 0.0000 0.0000 0.0000 10.2729 0.0000 0.0000
# 5 0.0000 0.0000 0.0000 0.0000 34.9246 0.0000
# 6 0.0000 0.0000 0.0000 0.0000 0.0000 35.8594
#
#
#
# Elastic Compliance Matrix: (Units=1/GPa)
#
#
# Indices 1 2 3 4 5 6 
#
# 1 0.017086 -0.007596 -0.004869 0.000000 0.000000 0.000000
# 2 -0.007596 0.016423 -0.006059 0.000000 0.000000 0.000000
# 3 -0.004869 -0.006059 0.013192 0.000000 0.000000 0.000000
# 4 0.000000 0.000000 0.000000 0.097344 0.000000 0.000000
# 5 0.000000 0.000000 0.000000 0.000000 0.028633 0.000000
# 6 0.000000 0.000000 0.000000 0.000000 0.000000 0.027887
#
#
# Mechanical properties :
#
#
# Convention : Reuss Voigt Hill
#
# Bulk Modulus (GPa) = 103.58201 105.16285 104.37243
# Shear Modulus (GPa) = 20.76155 25.62257 23.19206
#
# Velocity S-wave (km/s) = 3.34172 3.71237 3.53191
# Velocity P-wave (km/s) = 8.40259 8.65678 8.53063
#
# Compressibility (1/GPa) = 0.00965419
#
# Stress axis : x y z
#
# Youngs Moduli (GPa) = 58.52662 60.89158 75.80219
#
# Poissons Ratio (x) = 0.46252 0.36909
# Poissons Ratio (y) = 0.44455 0.45925
# Poissons Ratio (z) = 0.28497 0.36892
#
# Static dielectric constant tensor:
#      x y z
#    x 1.614170 0.000000 0.000000 
#    y 0.000000 1.606550 0.000000 
#    z 0.000000 0.000000 1.621970 
# 
# From -- ./inp_files/3445.got.cif
#   From: 2010.05.17/outbox.cif.g08.bks.cpg/sg31_2_cif.got.tgz:3445.got - 2010.06.03 17:08:30.
