data_PCOD9343314
_publ_section_title
;
Structure prediction by ZEFSAII (Michael W. Deem and Ramdas Pophale) SiO2 
 PCOD9343314
Probable space group: P M N 21
;
_chemical_formula_sum "Si O2"
_cell_formula_units_Z 32
_cell_length_a 31.603006
_cell_length_b 9.258977
_cell_length_c 5.533315
_cell_angle_alpha 90.000000
_cell_angle_beta 90.000000
_cell_angle_gamma 90.000000
_cell_volume 1619.111634
_symmetry_space_group_name_H-M "P M N 21"
_symmetry_group_IT_number 31
_symmetry_cell_setting 'orthorhombic'
loop_
_space_group_symop_operation_xyz
x,y,z
1/2-x,-y,1/2+z
-x,y,z
1/2+x,-y,1/2+z
loop_
_atom_site_type_symbol
_atom_site_label
_atom_site_fract_x
_atom_site_fract_y
_atom_site_fract_z
Si Si1 0.882194 0.749651 0.890410
Si Si2 0.075214 1.000000 0.601871
Si Si3 0.955058 0.750645 0.271336
Si Si4 0.200759 0.408926 0.349830
Si Si5 0.070859 0.500000 0.601872
Si Si6 0.455058 0.750646 0.432407
Si Si7 0.799241 0.591074 0.853916
Si Si8 0.382194 0.749652 0.813334
O O1 0.900617 0.611020 0.750150
O O2 0.832406 0.721281 0.885421
O O3 0.895531 0.896440 0.761217
O O4 0.910554 0.749743 0.131310
O O5 0.047789 0.108925 0.763056
O O6 0.104469 0.103558 0.442526
O O7 0.047789 0.891075 0.440687
O O8 0.954846 0.603671 0.424656
O O9 0.000000 0.757146 0.129801
O O10 0.193701 0.500000 0.601873
O O11 0.250000 0.364715 0.351873
O O12 0.167595 0.278718 0.318324
O O13 0.194206 0.500000 0.101873
O O14 0.045154 0.396329 0.779088
O O15 0.099382 0.388979 0.453594
O O16 0.500000 0.757147 0.573943
O O17 0.410554 0.749743 0.572434
#
# Coordination Sequence:
#
# PCOD9343314 Si02
#       8
#     4   4   4   4   4   4   4   4
#     4  11  22  39  62  88 124 165 205 264 315 382
#     4  10  25  40  58  80 124 170 214 260 317 376
#     4  11  23  39  59  87 121 168 217 263 318 378
#     4  10  21  39  69 102 128 160 208 266 330 391
#     4  10  21  36  60  88 122 156 200 266 317 372
#     4  11  23  39  59  87 121 168 217 263 318 378
#     4  10  21  39  69 102 128 160 208 266 330 391
#     4  11  22  39  62  88 124 165 205 264 315 382
#
# _framework density 19.763925
#
# number of rings (size 3 to 8) (size 9 to 14) (size 15 to 20)
#    0.000    1.500    1.250    3.750    3.500    8.000 
#    0.000    0.000    5.500    0.000    0.000    0.000 
#    0.000    0.000    0.000    0.000    0.000    0.000 
#
# Total GULP energy -178432.675023 kJ/mol
# GULP energy per Si atom -5576.021094 kJ/mol
# Density = 1.971894 g / cm^3
# Si number density = 19.763925 Si / 1000 Ang^3
#
#
#
# Elastic Constant Matrix: (Units=GPa)
#
#
# Indices 1 2 3 4 5 6 
#
# 1 142.0621 38.7729 35.1330 0.0000 0.0000 0.0000
# 2 38.7729 114.7928 29.6385 0.0000 0.0000 0.0000
# 3 35.1330 29.6385 85.7705 0.0000 0.0000 0.0000
# 4 0.0000 0.0000 0.0000 -22.8417 0.0000 0.0000
# 5 0.0000 0.0000 0.0000 0.0000 18.6338 0.0000
# 6 0.0000 0.0000 0.0000 0.0000 0.0000 23.8298
#
#
#
# Elastic Compliance Matrix: (Units=1/GPa)
#
#
# Indices 1 2 3 4 5 6 
#
# 1 0.008272 -0.002107 -0.002660 0.000000 0.000000 0.000000
# 2 -0.002107 0.010101 -0.002627 0.000000 0.000000 0.000000
# 3 -0.002660 -0.002627 0.013657 0.000000 0.000000 0.000000
# 4 0.000000 0.000000 0.000000 -0.043780 0.000000 0.000000
# 5 0.000000 0.000000 0.000000 0.000000 0.053666 0.000000
# 6 0.000000 0.000000 0.000000 0.000000 0.000000 0.041964
#
#
# Mechanical properties :
#
#
# Convention : Reuss Voigt Hill
#
# Bulk Modulus (GPa) = 58.00321 61.07936 59.54129
# Shear Modulus (GPa) = 47.88464 19.86312 33.87388
#
# Velocity S-wave (km/s) = 4.92757 3.17364 4.14445
# Velocity P-wave (km/s) = 7.86042 6.66340 7.28653
#
# Compressibility (1/GPa) = 0.01724042
#
# Stress axis : x y z
#
# Youngs Moduli (GPa) = 120.88691 98.99547 73.22437
#
# Poissons Ratio (x) = 0.20860 0.19480
# Poissons Ratio (y) = 0.25473 0.19240
# Poissons Ratio (z) = 0.32159 0.26011
#
# Static dielectric constant tensor:
#      x y z
#    x 1.720710 0.000000 0.000000 
#    y 0.000000 1.662030 0.000000 
#    z 0.000000 0.000000 1.806640 
# 
# From -- ./inp_files/1359.got.cif
#   From: 2010.05.17/outbox.cif.g08.bks.cpg/sg31_1_cif.got.tgz:1359.got - 2010.06.03 17:08:30.
