data_PCOD9343389
_publ_section_title
;
Structure prediction by ZEFSAII (Michael W. Deem and Ramdas Pophale) SiO2 
 PCOD9343389
Probable space group: P M N 21
;
_chemical_formula_sum "Si O2"
_cell_formula_units_Z 32
_cell_length_a 12.684866
_cell_length_b 9.943738
_cell_length_c 12.602399
_cell_angle_alpha 90.000000
_cell_angle_beta 90.000000
_cell_angle_gamma 90.000000
_cell_volume 1589.603397
_symmetry_space_group_name_H-M "P M N 21"
_symmetry_group_IT_number 31
_symmetry_cell_setting 'orthorhombic'
loop_
_space_group_symop_operation_xyz
x,y,z
1/2-x,-y,1/2+z
-x,y,z
1/2+x,-y,1/2+z
loop_
_atom_site_type_symbol
_atom_site_label
_atom_site_fract_x
_atom_site_fract_y
_atom_site_fract_z
Si Si1 0.225791 0.614825 0.867190
Si Si2 0.693519 0.051133 0.074000
Si Si3 0.218906 0.186644 0.720105
Si Si4 0.121367 0.657113 0.641109
Si Si5 0.881772 0.595891 0.270183
Si Si6 0.832618 0.457395 0.053890
Si Si7 0.882464 0.175675 0.948199
Si Si8 0.618995 0.781680 0.001131
O O1 0.160045 0.650388 0.763217
O O2 0.299716 0.485779 0.842351
O O3 0.303886 0.729192 0.910192
O O4 0.153918 0.569890 0.964792
O O5 0.636311 0.189455 0.101713
O O6 0.726086 0.966836 0.179253
O O7 0.796132 0.083846 0.005069
O O8 0.624019 0.943565 0.009708
O O9 0.328230 0.261157 0.744272
O O10 0.149469 0.195652 0.825636
O O11 0.164106 0.258389 0.618047
O O12 0.208448 0.569916 0.578471
O O13 0.000000 0.615089 0.629613
O O14 0.882341 0.508198 0.162581
O O15 0.000000 0.607509 0.313122
O O16 0.876783 0.318018 0.009159
O O17 0.000000 0.120217 0.954941
O O18 0.500000 0.734546 0.986045
#
# Coordination Sequence:
#
# PCOD9343389 Si02
#       8
#     4   4   4   4   4   4   4   4
#     4  11  22  40  59  93 125 157 210 252 295 380
#     4   9  23  41  60  91 127 152 212 256 292 375
#     4  10  22  40  62  94 121 154 208 250 295 374
#     4  10  23  40  65  90 123 166 202 257 311 355
#     4  11  22  40  61  87 128 162 193 251 311 363
#     4  10  21  42  58  91 129 152 209 248 293 375
#     4  11  22  40  67  89 121 166 201 252 310 354
#     4  10  21  39  62  87 122 163 197 250 307 354
#
# _framework density 20.130807999999998
#
# number of rings (size 3 to 8) (size 9 to 14) (size 15 to 20)
#    0.750    1.000    2.500    1.500    1.750    2.500 
#    0.000    1.250    0.000    0.000    0.000    0.000 
#    0.000    0.000    0.000    0.000    0.000    0.000 
#
# Total GULP energy -178541.913812 kJ/mol
# GULP energy per Si atom -5579.434807 kJ/mol
# Density = 2.008499 g / cm^3
# Si number density = 20.130808 Si / 1000 Ang^3
#
#
#
# Elastic Constant Matrix: (Units=GPa)
#
#
# Indices 1 2 3 4 5 6 
#
# 1 109.6087 -0.2842 8.6693 0.0000 0.0000 0.0000
# 2 -0.2842 37.2591 -8.8788 0.0000 0.0000 0.0000
# 3 8.6693 -8.8788 80.3795 0.0000 0.0000 0.0000
# 4 0.0000 0.0000 0.0000 27.5822 0.0000 0.0000
# 5 0.0000 0.0000 0.0000 0.0000 5.1182 0.0000
# 6 0.0000 0.0000 0.0000 0.0000 0.0000 13.7310
#
#
#
# Elastic Compliance Matrix: (Units=1/GPa)
#
#
# Indices 1 2 3 4 5 6 
#
# 1 0.009203 -0.000171 -0.001011 0.000000 0.000000 0.000000
# 2 -0.000171 0.027568 0.003064 0.000000 0.000000 0.000000
# 3 -0.001011 0.003064 0.012888 0.000000 0.000000 0.000000
# 4 0.000000 0.000000 0.000000 0.036255 0.000000 0.000000
# 5 0.000000 0.000000 0.000000 0.000000 0.195379 0.000000
# 6 0.000000 0.000000 0.000000 0.000000 0.000000 0.072828
#
#
# Mechanical properties :
#
#
# Convention : Reuss Voigt Hill
#
# Bulk Modulus (GPa) = 18.71892 25.13999 21.92946
# Shear Modulus (GPa) = 13.58082 24.46902 19.02492
#
# Velocity S-wave (km/s) = 2.60018 3.49019 3.07753
# Velocity P-wave (km/s) = 4.28175 5.36258 4.85236
#
# Compressibility (1/GPa) = 0.05342188
#
# Stress axis : x y z
#
# Youngs Moduli (GPa) = 108.66121 36.27413 77.58865
#
# Poissons Ratio (x) = 0.00620 0.07848
# Poissons Ratio (y) = 0.01856 -0.23770
# Poissons Ratio (z) = 0.10991 -0.11113
#
# Static dielectric constant tensor:
#      x y z
#    x 1.733050 0.000000 0.000000 
#    y 0.000000 1.711570 0.000000 
#    z 0.000000 0.000000 1.695940 
# 
# From -- ./inp_files/4083.got.cif
#   From: 2010.05.17/outbox.cif.g08.bks.cpg/sg31_3_cif.got.tgz:4083.got - 2010.06.03 17:08:30.
