data_PCOD9343991
_publ_section_title
;
Structure prediction by ZEFSAII (Michael W. Deem and Ramdas Pophale) SiO2 
 PCOD9343991
Probable space group: P B A 2
;
_chemical_formula_sum "Si O2"
_cell_formula_units_Z 28
_cell_length_a 17.027919
_cell_length_b 12.249161
_cell_length_c 6.393724
_cell_angle_alpha 90.000000
_cell_angle_beta 90.000000
_cell_angle_gamma 90.000000
_cell_volume 1333.588383
_symmetry_space_group_name_H-M "P B A 2"
_symmetry_group_IT_number 32
_symmetry_cell_setting 'orthorhombic'
loop_
_space_group_symop_operation_xyz
x,y,z
-x,-y,z
1/2-x,1/2+y,z
1/2+x,1/2-y,z
loop_
_atom_site_type_symbol
_atom_site_label
_atom_site_fract_x
_atom_site_fract_y
_atom_site_fract_z
Si Si1 0.748690 0.105018 0.367830
Si Si2 0.396945 0.361772 0.665030
Si Si3 0.500000 0.000000 0.937396
Si Si4 0.783395 0.747600 0.030345
Si Si5 0.377526 0.161830 0.946939
Si Si6 0.000000 0.000000 0.366146
Si Si7 0.857532 0.975970 0.050304
Si Si8 0.655957 0.053844 0.744707
O O1 0.819706 0.143550 0.517672
O O2 0.697935 0.198458 0.256287
O O3 0.686843 0.043781 0.512250
O O4 0.788331 0.031565 0.188003
O O5 0.411237 0.245715 0.775737
O O6 0.466526 0.405784 0.518123
O O7 0.380407 0.449342 0.851479
O O8 0.448231 0.093021 0.052989
O O9 0.563380 0.061343 0.791855
O O10 0.830763 0.856187 0.982873
O O11 0.689795 0.769441 0.058800
O O12 0.802602 0.655584 0.858700
O O13 0.327297 0.063621 0.846063
O O14 0.070228 0.033595 0.211750
#
# Coordination Sequence:
#
# PCOD9343991 Si02
#       8
#     4   4   2   4   4   2   4   4
#     4  11  22  39  67 104 132 182 240 278 354 413
#     4  11  22  44  69  97 141 183 224 299 353 415
#     4   8  24  40  68  90 144 184 226 270 372 406
#     4  12  23  40  72 101 136 180 240 290 345 426
#     4  10  21  44  66  98 138 188 225 287 351 429
#     4  10  26  44  66 108 134 176 238 288 360 422
#     4  11  25  43  68 105 137 182 232 302 347 419
#     4  10  23  45  64 102 133 193 229 288 354 425
#
# _framework density 20.995982999999999
#
# number of rings (size 3 to 8) (size 9 to 14) (size 15 to 20)
#    0.857    0.571    2.857    2.143    2.000    5.714 
#    0.000    0.714    0.000    0.000    0.000    0.000 
#    0.000    0.000    0.000    0.000    0.000    0.000 
#
# Total GULP energy -155968.267458 kJ/mol
# GULP energy per Si atom -5570.295266 kJ/mol
# Density = 2.094820 g / cm^3
# Si number density = 20.995983 Si / 1000 Ang^3
#
#
#
# Elastic Constant Matrix: (Units=GPa)
#
#
# Indices 1 2 3 4 5 6 
#
# 1 78.9650 24.4956 22.6629 0.0000 0.0000 0.0000
# 2 24.4956 120.3080 36.4754 0.0000 0.0000 0.0000
# 3 22.6629 36.4754 80.9762 0.0000 0.0000 0.0000
# 4 0.0000 0.0000 0.0000 6.1176 0.0000 0.0000
# 5 0.0000 0.0000 0.0000 0.0000 20.5855 0.0000
# 6 0.0000 0.0000 0.0000 0.0000 0.0000 32.9125
#
#
#
# Elastic Compliance Matrix: (Units=1/GPa)
#
#
# Indices 1 2 3 4 5 6 
#
# 1 0.014153 -0.001947 -0.003084 0.000000 0.000000 0.000000
# 2 -0.001947 0.009894 -0.003912 0.000000 0.000000 0.000000
# 3 -0.003084 -0.003912 0.014975 0.000000 0.000000 0.000000
# 4 0.000000 0.000000 0.000000 0.163462 0.000000 0.000000
# 5 0.000000 0.000000 0.000000 0.000000 0.048578 0.000000
# 6 0.000000 0.000000 0.000000 0.000000 0.000000 0.030384
#
#
# Mechanical properties :
#
#
# Convention : Reuss Voigt Hill
#
# Bulk Modulus (GPa) = 47.31202 49.72410 48.51806
# Shear Modulus (GPa) = 16.31979 25.03082 20.67530
#
# Velocity S-wave (km/s) = 2.79100 3.45653 3.14144
# Velocity P-wave (km/s) = 5.74187 6.29795 6.02633
#
# Compressibility (1/GPa) = 0.02113628
#
# Stress axis : x y z
#
# Youngs Moduli (GPa) = 70.65724 101.06709 66.77950
#
# Poissons Ratio (x) = 0.19673 0.20596
# Poissons Ratio (y) = 0.13754 0.26125
# Poissons Ratio (z) = 0.21792 0.39539
#
# Static dielectric constant tensor:
#      x y z
#    x 1.810930 0.000000 0.000000 
#    y 0.000000 1.841410 0.000000 
#    z 0.000000 0.000000 1.734530 
# 
# From -- ./inp_files/1025.got.cif
#   From: 2010.05.17/outbox.cif.g08.bks.cpg/sg32_1_cif.got.tgz:1025.got - 2010.06.03 17:12:27.
