data_PCOD9343510
_publ_section_title
;
Structure prediction by ZEFSAII (Michael W. Deem and Ramdas Pophale) SiO2 
 PCOD9343510
Probable space group: P M N 21
;
_chemical_formula_sum "Si O2"
_cell_formula_units_Z 32
_cell_length_a 17.429790
_cell_length_b 15.043479
_cell_length_c 5.209848
_cell_angle_alpha 90.000000
_cell_angle_beta 90.000000
_cell_angle_gamma 90.000000
_cell_volume 1366.046527
_symmetry_space_group_name_H-M "P M N 21"
_symmetry_group_IT_number 31
_symmetry_cell_setting 'orthorhombic'
loop_
_space_group_symop_operation_xyz
x,y,z
1/2-x,-y,1/2+z
-x,y,z
1/2+x,-y,1/2+z
loop_
_atom_site_type_symbol
_atom_site_label
_atom_site_fract_x
_atom_site_fract_y
_atom_site_fract_z
Si Si1 0.293400 0.089284 0.620460
Si Si2 0.873965 0.031448 0.790299
Si Si3 0.337091 0.431544 0.597702
Si Si4 0.824393 0.742316 0.800561
Si Si5 0.082663 0.857317 0.492122
Si Si6 0.343138 0.695915 0.737780
Si Si7 0.585878 0.771747 0.221438
Si Si8 0.344778 0.524495 0.082191
O O1 0.210281 0.051136 0.672492
O O2 0.293922 0.161293 0.395107
O O3 0.337173 0.141904 0.840353
O O4 0.351552 0.008677 0.564777
O O5 0.914481 0.125226 0.802444
O O6 0.915310 0.951016 0.645325
O O7 0.343612 0.329835 0.516246
O O8 0.365441 0.446229 0.885404
O O9 0.246580 0.457656 0.610836
O O10 0.370072 0.495189 0.368481
O O11 0.902816 0.770720 0.664563
O O12 0.748016 0.697758 0.677095
O O13 0.000000 0.852339 0.356290
O O14 0.382395 0.716377 0.465276
O O15 0.367743 0.608927 0.903053
O O16 0.364663 0.766580 0.960518
O O17 0.500000 0.741713 0.161656
#
# Coordination Sequence:
#
# PCOD9343510 Si02
#       8
#     4   4   4   4   4   4   4   4
#     4  11  22  39  64  91 122 165 214 275 318 387
#     4  11  23  40  62  90 120 165 221 265 320 380
#     4   9  18  33  60  96 128 157 208 263 324 373
#     4  10  23  38  66  94 127 167 218 270 325 388
#     4  11  25  42  62  90 130 171 212 272 332 390
#     4  11  23  41  66  97 131 170 217 270 330 383
#     4  12  26  41  63  94 132 173 216 268 324 391
#     4   9  18  34  59  94 128 160 202 269 319 378
#
# _framework density 23.425263000000001
#
# number of rings (size 3 to 8) (size 9 to 14) (size 15 to 20)
#    0.000    1.500    2.500    2.250    5.250    4.500 
#    0.000    0.000    0.000    4.500    0.000    0.000 
#    0.000    0.000    0.000    0.000    0.000    0.000 
#
# Total GULP energy -178346.961593 kJ/mol
# GULP energy per Si atom -5573.342550 kJ/mol
# Density = 2.337195 g / cm^3
# Si number density = 23.425263 Si / 1000 Ang^3
#
#
#
# Elastic Constant Matrix: (Units=GPa)
#
#
# Indices 1 2 3 4 5 6 
#
# 1 68.2824 6.3106 15.8643 0.0000 0.0000 0.0000
# 2 6.3106 70.3925 -8.4993 0.0000 0.0000 0.0000
# 3 15.8643 -8.4993 77.4887 0.0000 0.0000 0.0000
# 4 0.0000 0.0000 0.0000 28.4920 0.0000 0.0000
# 5 0.0000 0.0000 0.0000 0.0000 8.2018 0.0000
# 6 0.0000 0.0000 0.0000 0.0000 0.0000 5.2904
#
#
#
# Elastic Compliance Matrix: (Units=1/GPa)
#
#
# Indices 1 2 3 4 5 6 
#
# 1 0.015600 -0.001808 -0.003392 0.000000 0.000000 0.000000
# 2 -0.001808 0.014606 0.001972 0.000000 0.000000 0.000000
# 3 -0.003392 0.001972 0.013816 0.000000 0.000000 0.000000
# 4 0.000000 0.000000 0.000000 0.035098 0.000000 0.000000
# 5 0.000000 0.000000 0.000000 0.000000 0.121925 0.000000
# 6 0.000000 0.000000 0.000000 0.000000 0.000000 0.189020
#
#
# Mechanical properties :
#
#
# Convention : Reuss Voigt Hill
#
# Bulk Modulus (GPa) = 26.61954 27.05722 26.83838
# Shear Modulus (GPa) = 12.22365 21.89603 17.05984
#
# Velocity S-wave (km/s) = 2.28680 3.06063 2.70157
# Velocity P-wave (km/s) = 4.28496 4.90566 4.60578
#
# Compressibility (1/GPa) = 0.03756638
#
# Stress axis : x y z
#
# Youngs Moduli (GPa) = 64.10143 68.46365 72.38026
#
# Poissons Ratio (x) = 0.12379 0.24553
# Poissons Ratio (y) = 0.11590 -0.14275
# Poissons Ratio (z) = 0.21744 -0.13503
#
# Static dielectric constant tensor:
#      x y z
#    x 1.896290 0.000000 0.000000 
#    y 0.000000 1.955810 0.000000 
#    z 0.000000 0.000000 1.965070 
# 
# From -- ./inp_files/858.got.cif
#   From: 2010.05.17/outbox.cif.g08.bks.cpg/sg31_1_cif.got.tgz:858.got - 2010.06.03 17:08:30.
