data_PCOD9343024
_publ_section_title
;
Structure prediction by ZEFSAII (Michael W. Deem and Ramdas Pophale) SiO2 
 PCOD9343024
Probable space group: P M N 21
;
_chemical_formula_sum "Si O2"
_cell_formula_units_Z 32
_cell_length_a 8.924860
_cell_length_b 14.880479
_cell_length_c 12.409667
_cell_angle_alpha 90.000000
_cell_angle_beta 90.000000
_cell_angle_gamma 90.000000
_cell_volume 1648.080616
_symmetry_space_group_name_H-M "P M N 21"
_symmetry_group_IT_number 31
_symmetry_cell_setting 'orthorhombic'
loop_
_space_group_symop_operation_xyz
x,y,z
1/2-x,-y,1/2+z
-x,y,z
1/2+x,-y,1/2+z
loop_
_atom_site_type_symbol
_atom_site_label
_atom_site_fract_x
_atom_site_fract_y
_atom_site_fract_z
Si Si1 0.179404 0.268058 0.718540
Si Si2 0.325044 0.830381 0.996492
Si Si3 0.832771 0.668508 0.902777
Si Si4 0.818006 0.829086 0.622805
Si Si5 0.820386 0.863826 0.379434
Si Si6 0.674359 0.374337 0.158416
Si Si7 0.171764 0.559561 0.120247
Si Si8 0.179304 0.952070 0.825552
O O1 0.219602 0.203912 0.615630
O O2 0.256412 0.225004 0.822412
O O3 0.236064 0.368091 0.690694
O O4 0.000000 0.267742 0.728163
O O5 0.500000 0.854217 0.998284
O O6 0.291704 0.743287 0.922806
O O7 0.232727 0.908042 0.938066
O O8 0.819836 0.623160 0.787970
O O9 0.000000 0.712635 0.906363
O O10 0.824834 0.598940 0.999646
O O11 0.777466 0.867013 0.505766
O O12 0.768204 0.725169 0.628956
O O13 0.770539 0.889088 0.725064
O O14 0.000000 0.826471 0.628932
O O15 0.000000 0.864742 0.372271
O O16 0.751230 0.949841 0.320016
O O17 0.500000 0.380702 0.124629
O O18 0.763004 0.460077 0.118104
O O19 0.000000 0.559067 0.157840
O O20 0.000000 0.958644 0.822389
#
# Coordination Sequence:
#
# PCOD9343024 Si02
#       8
#     4   4   4   4   4   4   4   4
#     4  10  22  41  61  85 120 163 203 246 302 363
#     4  10  20  35  59  87 114 147 195 252 300 348
#     4   9  18  35  57  80 111 151 198 245 297 355
#     4   9  21  41  63  86 121 160 198 246 305 364
#     4  11  24  41  61  91 125 161 203 253 304 360
#     4  10  19  37  61  84 114 159 199 241 302 368
#     4  10  21  36  57  89 120 153 199 256 302 352
#     4  11  22  40  63  88 119 160 201 243 304 368
#
# _framework density 19.416526999999999
#
# number of rings (size 3 to 8) (size 9 to 14) (size 15 to 20)
#    0.000    2.000    1.250    1.875    1.750    3.500 
#    0.000    5.625    0.000    0.000    0.000    0.000 
#    0.000    0.000    0.000    0.000    0.000    0.000 
#
# Total GULP energy -178605.548495 kJ/mol
# GULP energy per Si atom -5581.423390 kJ/mol
# Density = 1.937233 g / cm^3
# Si number density = 19.416527 Si / 1000 Ang^3
#
#
#
# Elastic Constant Matrix: (Units=GPa)
#
#
# Indices 1 2 3 4 5 6 
#
# 1 55.3010 30.2377 24.5031 0.0000 0.0000 0.0000
# 2 30.2377 111.4159 28.2110 0.0000 0.0000 0.0000
# 3 24.5031 28.2110 58.1684 0.0000 0.0000 0.0000
# 4 0.0000 0.0000 0.0000 11.1612 0.0000 0.0000
# 5 0.0000 0.0000 0.0000 0.0000 17.0200 0.0000
# 6 0.0000 0.0000 0.0000 0.0000 0.0000 35.0902
#
#
#
# Elastic Compliance Matrix: (Units=1/GPa)
#
#
# Indices 1 2 3 4 5 6 
#
# 1 0.024078 -0.004522 -0.007950 0.000000 0.000000 0.000000
# 2 -0.004522 0.011081 -0.003469 0.000000 0.000000 0.000000
# 3 -0.007950 -0.003469 0.022223 0.000000 0.000000 0.000000
# 4 0.000000 0.000000 0.000000 0.089596 0.000000 0.000000
# 5 0.000000 0.000000 0.000000 0.000000 0.058754 0.000000
# 6 0.000000 0.000000 0.000000 0.000000 0.000000 0.028498
#
#
# Mechanical properties :
#
#
# Convention : Reuss Voigt Hill
#
# Bulk Modulus (GPa) = 39.21565 43.42101 41.31833
# Shear Modulus (GPa) = 18.20754 22.11650 20.16202
#
# Velocity S-wave (km/s) = 3.06557 3.37865 3.22591
# Velocity P-wave (km/s) = 5.72461 6.13448 5.93309
#
# Compressibility (1/GPa) = 0.02550002
#
# Stress axis : x y z
#
# Youngs Moduli (GPa) = 41.53243 90.24447 44.99877
#
# Poissons Ratio (x) = 0.40805 0.35772
# Poissons Ratio (y) = 0.18780 0.15612
# Poissons Ratio (z) = 0.33017 0.31310
#
# Static dielectric constant tensor:
#      x y z
#    x 1.669480 0.000000 0.000000 
#    y 0.000000 1.676420 0.000000 
#    z 0.000000 0.000000 1.679530 
# 
# From -- ./inp_files/3651.got.cif
#   From: 2010.05.17/outbox.cif.g08.bks.cpg/sg31_2_cif.got.tgz:3651.got - 2010.06.03 17:08:30.
