data_PCOD9343494
_publ_section_title
;
Structure prediction by ZEFSAII (Michael W. Deem and Ramdas Pophale) SiO2 
 PCOD9343494
Probable space group: P M N 21
;
_chemical_formula_sum "Si O2"
_cell_formula_units_Z 24
_cell_length_a 17.824181
_cell_length_b 9.104499
_cell_length_c 7.418105
_cell_angle_alpha 90.000000
_cell_angle_beta 90.000000
_cell_angle_gamma 90.000000
_cell_volume 1203.811846
_symmetry_space_group_name_H-M "P M N 21"
_symmetry_group_IT_number 31
_symmetry_cell_setting 'orthorhombic'
loop_
_space_group_symop_operation_xyz
x,y,z
1/2-x,-y,1/2+z
-x,y,z
1/2+x,-y,1/2+z
loop_
_atom_site_type_symbol
_atom_site_label
_atom_site_fract_x
_atom_site_fract_y
_atom_site_fract_z
Si Si1 0.585909 0.896454 0.818560
Si Si2 0.136921 0.339007 0.605403
Si Si3 0.914154 0.652862 0.731510
Si Si4 0.666865 0.187926 0.923324
Si Si5 0.667310 0.734901 0.511596
Si Si6 0.311787 0.392904 0.576633
O O1 0.500000 0.947079 0.818258
O O2 0.609293 0.822604 0.631484
O O3 0.597809 0.771459 0.969489
O O4 0.642457 0.030033 0.852944
O O5 0.097878 0.495707 0.633657
O O6 0.223234 0.366484 0.546068
O O7 0.141045 0.272768 0.805659
O O8 0.889754 0.768792 0.581813
O O9 0.000000 0.669080 0.787906
O O10 0.859926 0.658666 0.904844
O O11 0.750179 0.193969 0.006693
O O12 0.666585 0.305758 0.758566
O O13 0.675648 0.568310 0.586438
#
# Coordination Sequence:
#
# PCOD9343494 Si02
#       6
#     4   4   4   4   4   4
#     4  12  27  42  62  97 142 177 210 264 335 395
#     4  10  22  42  67  94 126 173 222 268 318 391
#     4  11  22  38  66  97 128 165 217 277 326 373
#     4  11  24  41  67  95 131 173 215 264 325 398
#     4  10  23  42  71  94 123 171 225 273 317 386
#     4  10  22  43  69  95 122 167 227 278 319 379
#
# _framework density 19.936672000000002
#
# number of rings (size 3 to 8) (size 9 to 14) (size 15 to 20)
#    0.000    1.333    1.667    3.000    7.000    6.000 
#    0.000    0.000    0.000    0.000    0.000    0.000 
#    0.000    0.000    0.000    0.000    0.000    0.000 
#
# Total GULP energy -134224.201554 kJ/mol
# GULP energy per Si atom -5592.675065 kJ/mol
# Density = 1.989129 g / cm^3
# Si number density = 19.936672 Si / 1000 Ang^3
#
#
#
# Elastic Constant Matrix: (Units=GPa)
#
#
# Indices 1 2 3 4 5 6 
#
# 1 22.7306 -13.8371 10.2979 0.0000 0.0000 0.0000
# 2 -13.8371 3.6699 -0.3517 0.0000 0.0000 0.0000
# 3 10.2979 -0.3517 57.7772 0.0000 0.0000 0.0000
# 4 0.0000 0.0000 0.0000 13.5903 0.0000 0.0000
# 5 0.0000 0.0000 0.0000 0.0000 -25.3123 0.0000
# 6 0.0000 0.0000 0.0000 0.0000 0.0000 -16.6453
#
#
#
# Elastic Compliance Matrix: (Units=1/GPa)
#
#
# Indices 1 2 3 4 5 6 
#
# 1 -0.032431 -0.121794 0.005039 0.000000 0.000000 0.000000
# 2 -0.121794 -0.184756 0.020583 0.000000 0.000000 0.000000
# 3 0.005039 0.020583 0.016535 0.000000 0.000000 0.000000
# 4 0.000000 0.000000 0.000000 0.073582 0.000000 0.000000
# 5 0.000000 0.000000 0.000000 0.000000 -0.039506 0.000000
# 6 0.000000 0.000000 0.000000 0.000000 0.000000 -0.060077
#
#
# Mechanical properties :
#
#
# Convention : Reuss Voigt Hill
#
# Bulk Modulus (GPa) = -2.54456 8.48844 2.97194
# Shear Modulus (GPa) = -30.24662 0.19778 -15.02442
#
# Velocity S-wave (km/s) = -3.89927 0.31531 -2.74817
# Velocity P-wave (km/s) = 4.64236 2.09750 2.92848
#
# Compressibility (1/GPa) = -0.39299566
#
# Stress axis : x y z
#
# Youngs Moduli (GPa) = -30.83508 -5.41254 60.47750
#
# Poissons Ratio (x) = -0.65922 -0.30474
# Poissons Ratio (y) = -3.75553 -1.24482
# Poissons Ratio (z) = 0.15537 0.11141
#
# Static dielectric constant tensor:
#      x y z
#    x 1.678770 0.000000 0.000000 
#    y 0.000000 1.685700 0.000000 
#    z 0.000000 0.000000 1.681730 
# 
# From -- ./inp_files/2431.got.cif
#   From: 2010.05.17/outbox.cif.g08.bks.cpg/sg31_2_cif.got.tgz:2431.got - 2010.06.03 17:08:30.
