data_PCOD9343250
_publ_section_title
;
Structure prediction by ZEFSAII (Michael W. Deem and Ramdas Pophale) SiO2 
 PCOD9343250
Probable space group: P M N 21
;
_chemical_formula_sum "Si O2"
_cell_formula_units_Z 32
_cell_length_a 8.863043
_cell_length_b 5.437029
_cell_length_c 31.674238
_cell_angle_alpha 90.000000
_cell_angle_beta 90.000000
_cell_angle_gamma 90.000000
_cell_volume 1526.337876
_symmetry_space_group_name_H-M "P M N 21"
_symmetry_group_IT_number 31
_symmetry_cell_setting 'orthorhombic'
loop_
_space_group_symop_operation_xyz
x,y,z
1/2-x,-y,1/2+z
-x,y,z
1/2+x,-y,1/2+z
loop_
_atom_site_type_symbol
_atom_site_label
_atom_site_fract_x
_atom_site_fract_y
_atom_site_fract_z
Si Si1 0.316464 0.302880 0.022490
Si Si2 0.682344 0.797817 0.975017
Si Si3 0.337646 0.715653 0.808969
Si Si4 0.163763 0.310474 0.826880
Si Si5 0.332808 0.054629 0.890990
Si Si6 0.172242 0.894264 0.244596
Si Si7 0.680252 0.844386 0.155569
Si Si8 0.818274 0.344979 0.115575
O O1 0.500000 0.310997 0.027237
O O2 0.237223 0.341735 0.067206
O O3 0.269480 0.531092 0.992132
O O4 0.277506 0.032695 0.004256
O O5 0.500000 0.784388 0.974418
O O6 0.727246 0.881967 0.927975
O O7 0.500000 0.576651 0.813148
O O8 0.178109 0.597888 0.819271
O O9 0.349066 0.908379 0.847255
O O10 0.333491 0.827088 0.762217
O O11 0.227570 0.268973 0.873830
O O12 0.264488 0.234480 0.786530
O O13 0.000000 0.201927 0.822936
O O14 0.500000 0.146698 0.903969
O O15 0.277659 0.851694 0.205014
O O16 0.000000 0.821153 0.234705
O O17 0.500000 0.845162 0.148802
O O18 0.751145 0.594156 0.136384
O O19 0.752648 0.093644 0.136169
O O20 0.000000 0.345643 0.118861
#
# Coordination Sequence:
#
# PCOD9343250 Si02
#       8
#     4   4   4   4   4   4   4   4
#     4  10  20  38  63  94 126 162 210 264 324 384
#     4   9  19  34  62  94 122 159 209 267 317 376
#     4   9  19  35  58  82 115 159 206 255 307 367
#     4  11  22  35  55  83 121 163 205 256 314 372
#     4   9  19  36  57  84 115 157 210 258 307 368
#     4  10  22  41  62  88 120 161 210 260 319 383
#     4  12  26  45  71 102 135 172 220 276 329 388
#     4  12  26  46  70  99 136 177 218 266 333 404
#
# _framework density 20.965214
#
# number of rings (size 3 to 8) (size 9 to 14) (size 15 to 20)
#    0.000    1.750    0.000    5.250    3.500    3.500 
#    0.000    1.250    0.000    0.000    0.000    0.000 
#    0.000    0.000    0.000    0.000    0.000    0.000 
#
# Total GULP energy -178204.829520 kJ/mol
# GULP energy per Si atom -5568.900922 kJ/mol
# Density = 2.091750 g / cm^3
# Si number density = 20.965214 Si / 1000 Ang^3
#
#
#
# Elastic Constant Matrix: (Units=GPa)
#
#
# Indices 1 2 3 4 5 6 
#
# 1 94.9253 26.4645 9.6620 0.0000 0.0000 0.0000
# 2 26.4645 73.9931 5.4883 0.0000 0.0000 0.0000
# 3 9.6620 5.4883 74.3554 0.0000 0.0000 0.0000
# 4 0.0000 0.0000 0.0000 24.5232 0.0000 0.0000
# 5 0.0000 0.0000 0.0000 0.0000 16.2912 0.0000
# 6 0.0000 0.0000 0.0000 0.0000 0.0000 16.4030
#
#
#
# Elastic Compliance Matrix: (Units=1/GPa)
#
#
# Indices 1 2 3 4 5 6 
#
# 1 0.011812 -0.004134 -0.001230 0.000000 0.000000 0.000000
# 2 -0.004134 0.015036 -0.000573 0.000000 0.000000 0.000000
# 3 -0.001230 -0.000573 0.013651 0.000000 0.000000 0.000000
# 4 0.000000 0.000000 0.000000 0.040778 0.000000 0.000000
# 5 0.000000 0.000000 0.000000 0.000000 0.061383 0.000000
# 6 0.000000 0.000000 0.000000 0.000000 0.000000 0.060964
#
#
# Mechanical properties :
#
#
# Convention : Reuss Voigt Hill
#
# Bulk Modulus (GPa) = 34.93233 36.27815 35.60524
# Shear Modulus (GPa) = 22.21847 24.88742 23.55295
#
# Velocity S-wave (km/s) = 3.25895 3.44914 3.35540
# Velocity P-wave (km/s) = 5.55511 5.76226 5.65963
#
# Compressibility (1/GPa) = 0.02862677
#
# Stress axis : x y z
#
# Youngs Moduli (GPa) = 84.65839 66.50856 73.25467
#
# Poissons Ratio (x) = 0.27492 0.09009
# Poissons Ratio (y) = 0.34994 0.04195
# Poissons Ratio (z) = 0.10411 0.03809
#
# Static dielectric constant tensor:
#      x y z
#    x 1.878100 0.000000 0.000000 
#    y 0.000000 1.986620 0.000000 
#    z 0.000000 0.000000 1.717570 
# 
# From -- ./inp_files/6618.got.cif
#   From: 2010.05.17/outbox.cif.g08.bks.cpg/sg31_4_cif.got.tgz:6618.got - 2010.06.03 17:08:30.
