data_PCOD9343595
_publ_section_title
;
Structure prediction by ZEFSAII (Michael W. Deem and Ramdas Pophale) SiO2 
 PCOD9343595
Probable space group: P M N 21
;
_chemical_formula_sum "Si O2"
_cell_formula_units_Z 16
_cell_length_a 22.019203
_cell_length_b 4.945166
_cell_length_c 5.543214
_cell_angle_alpha 90.000000
_cell_angle_beta 90.000000
_cell_angle_gamma 90.000000
_cell_volume 603.592890
_symmetry_space_group_name_H-M "P M N 21"
_symmetry_group_IT_number 31
_symmetry_cell_setting 'orthorhombic'
loop_
_space_group_symop_operation_xyz
x,y,z
1/2-x,-y,1/2+z
-x,y,z
1/2+x,-y,1/2+z
loop_
_atom_site_type_symbol
_atom_site_label
_atom_site_fract_x
_atom_site_fract_y
_atom_site_fract_z
Si Si1 0.000000 0.845153 0.414820
Si Si2 0.500000 0.094455 0.410075
Si Si3 0.100129 0.570813 0.682936
Si Si4 0.307460 0.228037 0.831920
Si Si5 0.826458 0.245615 0.002648
O O1 0.000000 0.045453 0.648497
O O2 0.943125 0.642304 0.455287
O O3 0.000000 0.017622 0.174690
O O4 0.440561 0.283913 0.385560
O O5 0.162934 0.697574 0.588447
O O6 0.121201 0.292197 0.804516
O O7 0.236453 0.171865 0.871897
O O8 0.315256 0.476597 0.647828
O O9 0.339045 0.973770 0.706771
#
# Coordination Sequence:
#
# PCOD9343595 Si02
#       5
#     2   2   4   4   4
#     4   8  18  40  70 103 138 191 245 303 370 437
#     4   8  18  40  70 103 138 191 245 303 370 437
#     4   9  22  40  72 100 144 189 242 304 368 441
#     4  12  25  43  67 103 148 192 244 302 375 446
#     4  12  25  43  67 103 148 192 244 302 375 446
#
# _framework density 26.507930999999999
#
# number of rings (size 3 to 8) (size 9 to 14) (size 15 to 20)
#    1.500    0.000    2.500    3.000    0.000    0.000 
#    0.000    5.000    0.000   15.000    0.000    0.000 
#    0.000    0.000    0.000    0.000    0.000    0.000 
#
# Total GULP energy -89390.081713 kJ/mol
# GULP energy per Si atom -5586.880107 kJ/mol
# Density = 2.644760 g / cm^3
# Si number density = 26.507931 Si / 1000 Ang^3
#
#
#
# Elastic Constant Matrix: (Units=GPa)
#
#
# Indices 1 2 3 4 5 6 
#
# 1 110.5350 -3.4018 18.8699 0.0000 0.0000 0.0000
# 2 -3.4018 61.9675 38.4340 0.0000 0.0000 0.0000
# 3 18.8699 38.4340 180.5708 0.0000 0.0000 0.0000
# 4 0.0000 0.0000 0.0000 48.1396 0.0000 0.0000
# 5 0.0000 0.0000 0.0000 0.0000 20.2056 0.0000
# 6 0.0000 0.0000 0.0000 0.0000 0.0000 20.8441
#
#
#
# Elastic Compliance Matrix: (Units=1/GPa)
#
#
# Indices 1 2 3 4 5 6 
#
# 1 0.009299 0.001282 -0.001245 0.000000 0.000000 0.000000
# 2 0.001282 0.018769 -0.004129 0.000000 0.000000 0.000000
# 3 -0.001245 -0.004129 0.006547 0.000000 0.000000 0.000000
# 4 0.000000 0.000000 0.000000 0.020773 0.000000 0.000000
# 5 0.000000 0.000000 0.000000 0.000000 0.049491 0.000000
# 6 0.000000 0.000000 0.000000 0.000000 0.000000 0.047975
#
#
# Mechanical properties :
#
#
# Convention : Reuss Voigt Hill
#
# Bulk Modulus (GPa) = 37.83255 51.20861 44.52058
# Shear Modulus (GPa) = 29.43828 37.78261 33.61045
#
# Velocity S-wave (km/s) = 3.33610 3.77945 3.56468
# Velocity P-wave (km/s) = 5.39839 6.19725 5.81156
#
# Compressibility (1/GPa) = 0.02643227
#
# Stress axis : x y z
#
# Youngs Moduli (GPa) = 107.53993 53.28002 152.74414
#
# Poissons Ratio (x) = -0.06833 0.19012
# Poissons Ratio (y) = -0.13792 0.63067
# Poissons Ratio (z) = 0.13386 0.21999
#
# Static dielectric constant tensor:
#      x y z
#    x 2.056840 0.000000 0.000000 
#    y 0.000000 2.011600 0.000000 
#    z 0.000000 0.000000 2.098800 
# 
# From -- ./inp_files/1042.got.cif
#   From: 2010.05.17/outbox.cif.g08.bks.cpg/sg31_1_cif.got.tgz:1042.got - 2010.06.03 17:08:30.
