data_PCOD9343604
_publ_section_title
;
Structure prediction by ZEFSAII (Michael W. Deem and Ramdas Pophale) SiO2 
 PCOD9343604
Probable space group: P M N 21
;
_chemical_formula_sum "Si O2"
_cell_formula_units_Z 32
_cell_length_a 9.000000
_cell_length_b 15.000000
_cell_length_c 12.000000
_cell_angle_alpha 90.000000
_cell_angle_beta 90.000000
_cell_angle_gamma 90.000000
_cell_volume 1620.000000
_symmetry_space_group_name_H-M "P M N 21"
_symmetry_group_IT_number 31
_symmetry_cell_setting 'orthorhombic'
loop_
_space_group_symop_operation_xyz
x,y,z
1/2-x,-y,1/2+z
-x,y,z
1/2+x,-y,1/2+z
loop_
_atom_site_type_symbol
_atom_site_label
_atom_site_fract_x
_atom_site_fract_y
_atom_site_fract_z
Si Si1 0.671424 0.334063 0.410190
Si Si2 0.322265 0.547402 0.086595
Si Si3 0.163416 0.856572 0.011478
Si Si4 0.821438 0.228361 0.209973
Si Si5 0.177760 0.369701 0.038347
Si Si6 0.321324 0.671078 0.292274
Si Si7 0.328511 0.138763 0.772336
Si Si8 0.175922 0.052045 0.322011
O O1 0.500000 0.358207 0.388105
O O2 0.756215 0.412681 0.472340
O O3 0.674069 0.249363 0.494078
O O4 0.749107 0.293870 0.301176
O O5 0.500000 0.547285 0.082376
O O6 0.272833 0.611268 0.187972
O O7 0.260366 0.448454 0.102042
O O8 0.289039 0.903220 0.939855
O O9 0.000000 0.883141 0.966716
O O10 0.170054 0.878436 0.140026
O O11 0.769473 0.127176 0.233895
O O12 0.000000 0.228840 0.225925
O O13 0.789017 0.273232 0.091729
O O14 0.222303 0.371835 0.909701
O O15 0.000000 0.383450 0.046696
O O16 0.500000 0.675497 0.288901
O O17 0.258922 0.770635 0.290503
O O18 0.500000 0.151489 0.809198
O O19 0.261864 0.047681 0.821193
O O20 0.000000 0.042018 0.303279
#
# Coordination Sequence:
#
# PCOD9343604 Si02
#       8
#     4   4   4   4   4   4   4   4
#     4  10  19  34  58  83 109 145 190 242 290 340
#     4  11  23  38  58  86 115 149 192 241 294 346
#     4   9  18  33  53  79 109 145 189 236 286 340
#     4   9  19  37  58  83 117 155 195 237 289 345
#     4  10  23  41  60  85 118 158 195 236 293 351
#     4  10  23  41  60  86 119 153 194 241 291 350
#     4  10  20  36  58  85 116 153 195 239 292 345
#     4   9  19  34  55  83 115 152 194 240 285 341
#
# _framework density 19.753086
#
# number of rings (size 3 to 8) (size 9 to 14) (size 15 to 20)
#    0.000    2.250    1.250    0.750    1.750    4.000 
#    0.000    2.500    0.000    3.000    0.000    0.000 
#    0.000    0.000    0.000    0.000    0.000    0.000 
#
# Total GULP energy -178415.913721 kJ/mol
# GULP energy per Si atom -5575.497304 kJ/mol
# Density = 1.970813 g / cm^3
# Si number density = 19.753086 Si / 1000 Ang^3
#
#
#
# Elastic Constant Matrix: (Units=GPa)
#
#
# Indices 1 2 3 4 5 6 
#
# 1 12.4566 23.6718 13.7162 0.0000 0.0000 0.0000
# 2 23.6718 116.4778 25.4721 0.0000 0.0000 0.0000
# 3 13.7162 25.4721 42.3476 0.0000 0.0000 0.0000
# 4 0.0000 0.0000 0.0000 17.4541 0.0000 0.0000
# 5 0.0000 0.0000 0.0000 0.0000 16.9980 0.0000
# 6 0.0000 0.0000 0.0000 0.0000 0.0000 22.6976
#
#
#
# Elastic Compliance Matrix: (Units=1/GPa)
#
#
# Indices 1 2 3 4 5 6 
#
# 1 0.176586 -0.026921 -0.041002 0.000000 0.000000 0.000000
# 2 -0.026921 0.013990 0.000305 0.000000 0.000000 0.000000
# 3 -0.041002 0.000305 0.036711 0.000000 0.000000 0.000000
# 4 0.000000 0.000000 0.000000 0.057293 0.000000 0.000000
# 5 0.000000 0.000000 0.000000 0.000000 0.058830 0.000000
# 6 0.000000 0.000000 0.000000 0.000000 0.000000 0.044057
#
#
# Mechanical properties :
#
#
# Convention : Reuss Voigt Hill
#
# Bulk Modulus (GPa) = 10.86369 33.00023 21.93196
# Shear Modulus (GPa) = 9.03525 18.65809 13.84667
#
# Velocity S-wave (km/s) = 2.14103 3.07671 2.65049
# Velocity P-wave (km/s) = 3.40936 5.41887 4.52702
#
# Compressibility (1/GPa) = 0.09204973
#
# Stress axis : x y z
#
# Youngs Moduli (GPa) = 5.66297 71.48046 27.23955
#
# Poissons Ratio (x) = 1.92432 1.11688
# Poissons Ratio (y) = 0.15245 -0.00830
# Poissons Ratio (z) = 0.23220 -0.02178
#
# Static dielectric constant tensor:
#      x y z
#    x 1.681110 0.000000 0.000000 
#    y 0.000000 1.697350 0.000000 
#    z 0.000000 0.000000 1.698240 
# 
# From -- ./inp_files/3599.got.cif
#   From: 2010.05.17/outbox.ucp.g08.bks.cvg/sg31_2_cif.got.tgz:3599.got - 2010.06.11 10:34:26.
