data_PCOD9343672
_publ_section_title
;
Structure prediction by ZEFSAII (Michael W. Deem and Ramdas Pophale) SiO2 
 PCOD9343672
Probable space group: P B A 2
;
_chemical_formula_sum "Si O2"
_cell_formula_units_Z 30
_cell_length_a 11.286566
_cell_length_b 14.898178
_cell_length_c 9.529359
_cell_angle_alpha 90.000000
_cell_angle_beta 90.000000
_cell_angle_gamma 90.000000
_cell_volume 1602.354753
_symmetry_space_group_name_H-M "P B A 2"
_symmetry_group_IT_number 32
_symmetry_cell_setting 'orthorhombic'
loop_
_space_group_symop_operation_xyz
x,y,z
-x,-y,z
1/2-x,1/2+y,z
1/2+x,1/2-y,z
loop_
_atom_site_type_symbol
_atom_site_label
_atom_site_fract_x
_atom_site_fract_y
_atom_site_fract_z
Si Si1 0.545765 0.396344 0.314340
Si Si2 0.218517 0.617397 0.823483
Si Si3 0.456374 0.600272 0.993167
Si Si4 0.281924 0.086749 0.491915
Si Si5 0.124747 0.808049 0.767274
Si Si6 0.500000 0.000000 0.788155
Si Si7 0.485625 0.233406 0.492782
Si Si8 0.669282 0.105279 0.583038
O O1 0.500000 0.500000 0.326496
O O2 0.672053 0.393914 0.392391
O O3 0.470930 0.319840 0.394456
O O4 0.552318 0.366179 0.152549
O O5 0.329937 0.598288 0.918691
O O6 0.245851 0.599197 0.658451
O O7 0.190420 0.722303 0.831310
O O8 0.104892 0.555465 0.862224
O O9 0.500000 0.500000 0.008144
O O10 0.549840 0.646851 0.889618
O O11 0.390661 0.154405 0.462375
O O12 0.310019 0.980698 0.484536
O O13 0.037079 0.769349 0.649377
O O14 0.218583 0.868426 0.679632
O O15 0.566321 0.071906 0.689152
O O16 0.615936 0.188583 0.496771
#
# Coordination Sequence:
#
# PCOD9343672 Si02
#       8
#     4   4   4   4   4   2   4   4
#     4  11  25  40  57  81 124 165 209 248 301 363
#     4  10  21  37  64  92 121 153 202 253 313 363
#     4  11  24  42  56  84 122 165 204 252 300 371
#     4  10  20  37  63  90 118 155 196 253 307 367
#     4  11  21  34  65  93 121 150 201 250 311 363
#     4  10  18  36  60  92 122 154 188 258 308 366
#     4  11  20  38  61  93 120 154 197 253 309 365
#     4  11  18  35  63  98 123 147 192 259 309 364
#
# _framework density 18.722445
#
# number of rings (size 3 to 8) (size 9 to 14) (size 15 to 20)
#    0.000    1.333    4.000    5.600    0.000    2.133 
#    0.000    1.333    2.933    0.000    0.000    0.000 
#    0.000    0.000    0.000    0.000    0.000    0.000 
#
# Total GULP energy -167367.290110 kJ/mol
# GULP energy per Si atom -5578.909670 kJ/mol
# Density = 1.867983 g / cm^3
# Si number density = 18.722445 Si / 1000 Ang^3
#
#
#
# Elastic Constant Matrix: (Units=GPa)
#
#
# Indices 1 2 3 4 5 6 
#
# 1 82.5905 39.2140 53.4408 0.0000 0.0000 0.0000
# 2 39.2140 101.7372 36.7010 0.0000 0.0000 0.0000
# 3 53.4408 36.7010 76.0205 0.0000 0.0000 0.0000
# 4 0.0000 0.0000 0.0000 21.5551 0.0000 0.0000
# 5 0.0000 0.0000 0.0000 0.0000 45.6191 0.0000
# 6 0.0000 0.0000 0.0000 0.0000 0.0000 32.1770
#
#
#
# Elastic Compliance Matrix: (Units=1/GPa)
#
#
# Indices 1 2 3 4 5 6 
#
# 1 0.023320 -0.003723 -0.014596 0.000000 0.000000 0.000000
# 2 -0.003723 0.012497 -0.003416 0.000000 0.000000 0.000000
# 3 -0.014596 -0.003416 0.025064 0.000000 0.000000 0.000000
# 4 0.000000 0.000000 0.000000 0.046393 0.000000 0.000000
# 5 0.000000 0.000000 0.000000 0.000000 0.021921 0.000000
# 6 0.000000 0.000000 0.000000 0.000000 0.000000 0.031078
#
#
# Mechanical properties :
#
#
# Convention : Reuss Voigt Hill
#
# Bulk Modulus (GPa) = 57.43563 57.67332 57.55447
# Shear Modulus (GPa) = 23.86110 28.60309 26.23210
#
# Velocity S-wave (km/s) = 3.57384 3.91288 3.74719
# Velocity P-wave (km/s) = 6.91186 7.16138 7.03773
#
# Compressibility (1/GPa) = 0.01741080
#
# Stress axis : x y z
#
# Youngs Moduli (GPa) = 42.88117 80.02228 39.89759
#
# Poissons Ratio (x) = 0.29794 0.58235
# Poissons Ratio (y) = 0.15965 0.13628
# Poissons Ratio (z) = 0.62590 0.27333
#
# Static dielectric constant tensor:
#      x y z
#    x 1.679960 0.000000 0.000000 
#    y 0.000000 1.696490 0.000000 
#    z 0.000000 0.000000 1.615170 
# 
# From -- ./inp_files/2833.got.cif
#   From: 2010.05.17/outbox.cif.g08.bks.cpg/sg32_2_cif.got.tgz:2833.got - 2010.06.03 17:12:27.
