data_PCOD9343605
_publ_section_title
;
Structure prediction by ZEFSAII (Michael W. Deem and Ramdas Pophale) SiO2 
 PCOD9343605
Probable space group: P M N 21
;
_chemical_formula_sum "Si O2"
_cell_formula_units_Z 32
_cell_length_a 9.000000
_cell_length_b 15.000000
_cell_length_c 12.000000
_cell_angle_alpha 90.000000
_cell_angle_beta 90.000000
_cell_angle_gamma 90.000000
_cell_volume 1620.000000
_symmetry_space_group_name_H-M "P M N 21"
_symmetry_group_IT_number 31
_symmetry_cell_setting 'orthorhombic'
loop_
_space_group_symop_operation_xyz
x,y,z
1/2-x,-y,1/2+z
-x,y,z
1/2+x,-y,1/2+z
loop_
_atom_site_type_symbol
_atom_site_label
_atom_site_fract_x
_atom_site_fract_y
_atom_site_fract_z
Si Si1 0.822539 0.461878 0.878140
Si Si2 0.325794 0.626942 0.796571
Si Si3 0.674648 0.357452 0.073878
Si Si4 0.823312 0.163128 0.336696
Si Si5 0.822078 0.186397 0.989294
Si Si6 0.180446 0.144567 0.588001
Si Si7 0.178836 0.286969 0.758021
Si Si8 0.321906 0.052370 0.137834
O O1 0.726930 0.551716 0.881637
O O2 0.772887 0.388323 0.784346
O O3 0.000000 0.476805 0.870091
O O4 0.780486 0.409464 0.989656
O O5 0.500000 0.615378 0.767870
O O6 0.214001 0.608449 0.695313
O O7 0.306304 0.729768 0.829622
O O8 0.500000 0.363852 0.047783
O O9 0.732970 0.256275 0.066133
O O10 0.772055 0.137441 0.460357
O O11 0.737435 0.108911 0.242223
O O12 0.000000 0.144619 0.323874
O O13 0.792486 0.222729 0.864864
O O14 0.000000 0.190650 0.008424
O O15 0.757543 0.091987 0.027346
O O16 0.236081 0.232805 0.651509
O O17 0.000000 0.151549 0.585837
O O18 0.215518 0.052161 0.649602
O O19 0.000000 0.293269 0.749861
O O20 0.500000 0.060920 0.127462
#
# Coordination Sequence:
#
# PCOD9343605 Si02
#       8
#     4   4   4   4   4   4   4   4
#     4  10  21  37  60  89 121 158 203 254 305 367
#     4  11  22  37  59  87 120 160 202 250 307 367
#     4  11  21  36  58  84 116 154 199 251 304 357
#     4  10  22  40  61  84 120 160 199 246 305 369
#     4  10  19  34  58  83 112 150 195 245 298 356
#     4   9  20  38  58  85 118 156 198 245 301 365
#     4   8  17  35  58  83 115 155 196 240 297 359
#     4  11  22  35  58  87 116 149 196 251 299 354
#
# _framework density 19.753086
#
# number of rings (size 3 to 8) (size 9 to 14) (size 15 to 20)
#    0.000    2.000    1.250    3.375    1.750    1.500 
#    0.000    3.125    0.000    6.750    0.000    0.000 
#    0.000    0.000    0.000    0.000    0.000    0.000 
#
# Total GULP energy -178412.371701 kJ/mol
# GULP energy per Si atom -5575.386616 kJ/mol
# Density = 1.970813 g / cm^3
# Si number density = 19.753086 Si / 1000 Ang^3
#
#
#
# Elastic Constant Matrix: (Units=GPa)
#
#
# Indices 1 2 3 4 5 6 
#
# 1 62.3740 23.4543 9.3406 0.0000 0.0000 0.0000
# 2 23.4543 68.9770 16.9597 0.0000 0.0000 0.0000
# 3 9.3406 16.9597 48.8849 0.0000 0.0000 0.0000
# 4 0.0000 0.0000 0.0000 18.9098 0.0000 0.0000
# 5 0.0000 0.0000 0.0000 0.0000 20.4083 0.0000
# 6 0.0000 0.0000 0.0000 0.0000 0.0000 22.1314
#
#
#
# Elastic Compliance Matrix: (Units=1/GPa)
#
#
# Indices 1 2 3 4 5 6 
#
# 1 0.018480 -0.005921 -0.001477 0.000000 0.000000 0.000000
# 2 -0.005921 0.017746 -0.005026 0.000000 0.000000 0.000000
# 3 -0.001477 -0.005026 0.022482 0.000000 0.000000 0.000000
# 4 0.000000 0.000000 0.000000 0.052883 0.000000 0.000000
# 5 0.000000 0.000000 0.000000 0.000000 0.049000 0.000000
# 6 0.000000 0.000000 0.000000 0.000000 0.000000 0.045185
#
#
# Mechanical properties :
#
#
# Convention : Reuss Voigt Hill
#
# Bulk Modulus (GPa) = 29.53160 31.08280 30.30720
# Shear Modulus (GPa) = 20.66899 20.98867 20.82883
#
# Velocity S-wave (km/s) = 3.23827 3.26322 3.25077
# Velocity P-wave (km/s) = 5.38188 5.47430 5.42829
#
# Compressibility (1/GPa) = 0.03386203
#
# Stress axis : x y z
#
# Youngs Moduli (GPa) = 54.11323 56.34939 44.48015
#
# Poissons Ratio (x) = 0.33362 0.06569
# Poissons Ratio (y) = 0.32038 0.22354
# Poissons Ratio (z) = 0.07992 0.28319
#
# Static dielectric constant tensor:
#      x y z
#    x 1.644750 0.000000 0.000000 
#    y 0.000000 1.737430 0.000000 
#    z 0.000000 0.000000 1.740950 
# 
# From -- ./inp_files/3682.got.cif
#   From: 2010.05.17/outbox.ucp.g08.bks.cvg/sg31_2_cif.got.tgz:3682.got - 2010.06.11 10:34:26.
