data_PCOD9343329
_publ_section_title
;
Structure prediction by ZEFSAII (Michael W. Deem and Ramdas Pophale) SiO2 
 PCOD9343329
Probable space group: P M N 21
;
_chemical_formula_sum "Si O2"
_cell_formula_units_Z 24
_cell_length_a 8.664241
_cell_length_b 14.434179
_cell_length_c 8.273725
_cell_angle_alpha 90.000000
_cell_angle_beta 90.000000
_cell_angle_gamma 90.000000
_cell_volume 1034.722022
_symmetry_space_group_name_H-M "P M N 21"
_symmetry_group_IT_number 31
_symmetry_cell_setting 'orthorhombic'
loop_
_space_group_symop_operation_xyz
x,y,z
1/2-x,-y,1/2+z
-x,y,z
1/2+x,-y,1/2+z
loop_
_atom_site_type_symbol
_atom_site_label
_atom_site_fract_x
_atom_site_fract_y
_atom_site_fract_z
Si Si1 0.683864 0.206311 0.139010
Si Si2 0.320041 0.694775 0.952901
Si Si3 0.181764 0.538666 0.144388
Si Si4 0.180504 0.979039 0.794211
Si Si5 0.817136 0.361330 0.953156
Si Si6 0.821942 0.860593 0.123775
O O1 0.500000 0.211240 0.162346
O O2 0.768537 0.258217 0.286561
O O3 0.726978 0.098858 0.161124
O O4 0.731576 0.264475 0.982499
O O5 0.500000 0.671201 0.949991
O O6 0.284020 0.772098 0.089903
O O7 0.219943 0.605008 0.993289
O O8 0.272297 0.585637 0.290463
O O9 0.000000 0.539753 0.180121
O O10 0.226067 0.434840 0.094348
O O11 0.195536 0.925520 0.963745
O O12 0.000000 0.001988 0.770896
O O13 0.277144 0.071646 0.768952
O O14 0.000000 0.346136 0.958930
O O15 0.000000 0.830525 0.133536
#
# Coordination Sequence:
#
# PCOD9343329 Si02
#       6
#     4   4   4   4   4   4
#     4  10  21  39  61  85 118 155 192 237 289 344
#     4  11  22  38  61  86 115 151 194 242 289 342
#     4  11  24  41  61  86 118 154 191 235 288 343
#     4   9  20  37  56  82 114 150 191 234 283 339
#     4  11  24  40  61  89 118 151 193 238 285 340
#     4  10  21  37  58  84 115 151 191 236 288 344
#
# _framework density 23.194634000000001
#
# number of rings (size 3 to 8) (size 9 to 14) (size 15 to 20)
#    0.000    1.667    0.000    5.500    0.000   10.667 
#    0.000    3.333    0.000    0.000    0.000    0.000 
#    0.000    0.000    0.000    0.000    0.000    0.000 
#
# Total GULP energy -134333.592669 kJ/mol
# GULP energy per Si atom -5597.233028 kJ/mol
# Density = 2.314184 g / cm^3
# Si number density = 23.194634 Si / 1000 Ang^3
#
#
#
# Elastic Constant Matrix: (Units=GPa)
#
#
# Indices 1 2 3 4 5 6 
#
# 1 35.8858 19.3369 -2.7801 0.0000 0.0000 0.0000
# 2 19.3369 89.6607 -2.2428 0.0000 0.0000 0.0000
# 3 -2.7801 -2.2428 50.0366 0.0000 0.0000 0.0000
# 4 0.0000 0.0000 0.0000 37.9046 0.0000 0.0000
# 5 0.0000 0.0000 0.0000 0.0000 30.4972 0.0000
# 6 0.0000 0.0000 0.0000 0.0000 0.0000 11.0527
#
#
#
# Elastic Compliance Matrix: (Units=1/GPa)
#
#
# Indices 1 2 3 4 5 6 
#
# 1 0.031636 -0.006786 0.001453 0.000000 0.000000 0.000000
# 2 -0.006786 0.012621 0.000189 0.000000 0.000000 0.000000
# 3 0.001453 0.000189 0.020075 0.000000 0.000000 0.000000
# 4 0.000000 0.000000 0.000000 0.026382 0.000000 0.000000
# 5 0.000000 0.000000 0.000000 0.000000 0.032790 0.000000
# 6 0.000000 0.000000 0.000000 0.000000 0.000000 0.090476
#
#
# Mechanical properties :
#
#
# Convention : Reuss Voigt Hill
#
# Bulk Modulus (GPa) = 18.50370 22.69011 20.59691
# Shear Modulus (GPa) = 20.63708 26.64217 23.63962
#
# Velocity S-wave (km/s) = 2.98608 3.39283 3.19593
# Velocity P-wave (km/s) = 4.45912 5.01519 4.74531
#
# Compressibility (1/GPa) = 0.05404325
#
# Stress axis : x y z
#
# Youngs Moduli (GPa) = 31.60997 79.23002 49.81420
#
# Poissons Ratio (x) = 0.53769 -0.07240
# Poissons Ratio (y) = 0.21452 -0.00940
# Poissons Ratio (z) = -0.04595 -0.01495
#
# Static dielectric constant tensor:
#      x y z
#    x 1.776620 0.000000 0.000000 
#    y 0.000000 1.853690 0.000000 
#    z 0.000000 0.000000 1.976090 
# 
# From -- ./inp_files/1671.got.cif
#   From: 2010.05.17/outbox.cif.g08.bks.cpg/sg31_1_cif.got.tgz:1671.got - 2010.06.03 17:08:30.
