data_PCOD9343718
_publ_section_title
;
Structure prediction by ZEFSAII (Michael W. Deem and Ramdas Pophale) SiO2 
 PCOD9343718
Probable space group: P B A 2
;
_chemical_formula_sum "Si O2"
_cell_formula_units_Z 32
_cell_length_a 9.952128
_cell_length_b 12.253541
_cell_length_c 11.831174
_cell_angle_alpha 90.000000
_cell_angle_beta 90.000000
_cell_angle_gamma 90.000000
_cell_volume 1442.797572
_symmetry_space_group_name_H-M "P B A 2"
_symmetry_group_IT_number 32
_symmetry_cell_setting 'orthorhombic'
loop_
_space_group_symop_operation_xyz
x,y,z
-x,-y,z
1/2-x,1/2+y,z
1/2+x,1/2-y,z
loop_
_atom_site_type_symbol
_atom_site_label
_atom_site_fract_x
_atom_site_fract_y
_atom_site_fract_z
Si Si1 0.181895 0.486736 0.416830
Si Si2 0.453975 0.189150 0.391695
Si Si3 0.093965 0.895547 0.264576
Si Si4 0.718348 0.486667 0.650317
Si Si5 0.483307 0.317793 0.624559
Si Si6 0.866014 0.071914 0.018600
Si Si7 0.292021 0.105651 0.895364
Si Si8 0.022925 0.244159 0.873908
O O1 0.174698 0.611016 0.371915
O O2 0.312201 0.427821 0.369431
O O3 0.175545 0.498535 0.551551
O O4 0.068069 0.401555 0.383642
O O5 0.473095 0.282932 0.300520
O O6 0.454213 0.244847 0.515480
O O7 0.163134 0.879889 0.142332
O O8 0.000000 0.000000 0.256027
O O9 0.610014 0.397829 0.605181
O O10 0.639134 0.601314 0.657070
O O11 0.771927 0.442520 0.768809
O O12 0.517514 0.251976 0.738038
O O13 0.917865 0.154491 0.922746
O O14 0.000000 0.000000 0.031388
O O15 0.749610 0.992307 0.977394
O O16 0.443569 0.147875 0.913681
O O17 0.172365 0.199640 0.906499
#
# Coordination Sequence:
#
# PCOD9343718 Si02
#       8
#     4   4   4   4   4   4   4   4
#     4  11  25  41  61  94 133 166 210 277 332 384
#     4  11  25  41  60  95 132 165 214 274 328 393
#     4  11  24  41  69  91 120 177 226 264 327 397
#     4  10  19  34  63  90 122 166 208 255 315 400
#     4  10  19  35  62  91 122 166 210 247 324 399
#     4   9  20  41  62  89 119 163 219 260 308 389
#     4  10  20  38  64  92 128 159 221 265 321 394
#     4  10  20  37  62  92 120 168 202 266 326 377
#
# _framework density 22.179133
#
# number of rings (size 3 to 8) (size 9 to 14) (size 15 to 20)
#    0.000    1.750    2.500    1.500    3.500    3.000 
#    4.500    0.625    0.000    0.000    0.000    0.000 
#    0.000    0.000    0.000    0.000    0.000    0.000 
#
# Total GULP energy -178482.214553 kJ/mol
# GULP energy per Si atom -5577.569205 kJ/mol
# Density = 2.212865 g / cm^3
# Si number density = 22.179133 Si / 1000 Ang^3
#
#
#
# Elastic Constant Matrix: (Units=GPa)
#
#
# Indices 1 2 3 4 5 6 
#
# 1 30.6063 16.1166 14.3116 0.0000 0.0000 0.0000
# 2 16.1166 87.2365 40.3317 0.0000 0.0000 0.0000
# 3 14.3116 40.3317 96.7360 0.0000 0.0000 0.0000
# 4 0.0000 0.0000 0.0000 -6.9686 0.0000 0.0000
# 5 0.0000 0.0000 0.0000 0.0000 18.1542 0.0000
# 6 0.0000 0.0000 0.0000 0.0000 0.0000 25.3491
#
#
#
# Elastic Compliance Matrix: (Units=1/GPa)
#
#
# Indices 1 2 3 4 5 6 
#
# 1 0.037001 -0.005333 -0.003251 0.000000 0.000000 0.000000
# 2 -0.005333 0.014969 -0.005452 0.000000 0.000000 0.000000
# 3 -0.003251 -0.005452 0.013091 0.000000 0.000000 0.000000
# 4 0.000000 0.000000 0.000000 -0.143500 0.000000 0.000000
# 5 0.000000 0.000000 0.000000 0.000000 0.055084 0.000000
# 6 0.000000 0.000000 0.000000 0.000000 0.000000 0.039449
#
#
# Mechanical properties :
#
#
# Convention : Reuss Voigt Hill
#
# Bulk Modulus (GPa) = 27.03405 39.56650 33.30027
# Shear Modulus (GPa) = 88.50269 16.89487 52.69878
#
# Velocity S-wave (km/s) = 6.32378 2.76297 4.87976
# Velocity P-wave (km/s) = 8.09541 5.29688 6.84078
#
# Compressibility (1/GPa) = 0.03699039
#
# Stress axis : x y z
#
# Youngs Moduli (GPa) = 27.02609 66.80514 76.38607
#
# Poissons Ratio (x) = 0.35627 0.24831
# Poissons Ratio (y) = 0.14413 0.41645
# Poissons Ratio (z) = 0.08785 0.36422
#
# Static dielectric constant tensor:
#      x y z
#    x 1.616210 0.000000 0.000000 
#    y 0.000000 1.837150 0.000000 
#    z 0.000000 0.000000 1.825690 
# 
# From -- ./inp_files/3873.got.cif
#   From: 2010.05.17/outbox.cif.g08.bks.cpg/sg32_2_cif.got.tgz:3873.got - 2010.06.03 17:12:27.
