data_PCOD9343128
_publ_section_title
;
Structure prediction by ZEFSAII (Michael W. Deem and Ramdas Pophale) SiO2 
 PCOD9343128
Probable space group: P M N 21
;
_chemical_formula_sum "Si O2"
_cell_formula_units_Z 32
_cell_length_a 7.758999
_cell_length_b 14.910257
_cell_length_c 12.868470
_cell_angle_alpha 90.000000
_cell_angle_beta 90.000000
_cell_angle_gamma 90.000000
_cell_volume 1488.736168
_symmetry_space_group_name_H-M "P M N 21"
_symmetry_group_IT_number 31
_symmetry_cell_setting 'orthorhombic'
loop_
_space_group_symop_operation_xyz
x,y,z
1/2-x,-y,1/2+z
-x,y,z
1/2+x,-y,1/2+z
loop_
_atom_site_type_symbol
_atom_site_label
_atom_site_fract_x
_atom_site_fract_y
_atom_site_fract_z
Si Si1 0.706617 0.685802 0.491060
Si Si2 0.197946 0.804590 0.294709
Si Si3 0.796997 0.147146 0.368801
Si Si4 0.299645 0.641242 0.168676
Si Si5 0.711931 0.043021 0.936618
Si Si6 0.206798 0.338582 0.440986
Si Si7 0.707464 0.524918 0.360525
Si Si8 0.205013 0.838514 0.632898
O O1 0.500000 0.691820 0.479051
O O2 0.791501 0.745537 0.400247
O O3 0.759229 0.584339 0.462038
O O4 0.753403 0.736535 0.596706
O O5 0.290360 0.743706 0.209748
O O6 0.267222 0.899649 0.334982
O O7 0.000000 0.814479 0.262449
O O8 0.723588 0.243120 0.403014
O O9 0.778871 0.139240 0.244948
O O10 0.000000 0.148070 0.393318
O O11 0.727086 0.058619 0.425265
O O12 0.500000 0.616176 0.160263
O O13 0.225343 0.577502 0.258747
O O14 0.221392 0.636772 0.054741
O O15 0.500000 0.045560 0.935915
O O16 0.767782 0.094862 0.041012
O O17 0.238812 0.422673 0.367146
O O18 0.000000 0.329492 0.450099
O O19 0.500000 0.527506 0.357750
O O20 0.000000 0.847169 0.638512
#
# Coordination Sequence:
#
# PCOD9343128 Si02
#       8
#     4   4   4   4   4   4   4   4
#     4   9  17  32  54  80 107 138 174 215 264 319
#     4   9  16  29  52  81 107 135 173 221 266 308
#     4  10  21  38  55  75 108 147 180 218 268 326
#     4   9  19  36  54  76 105 139 176 219 269 322
#     4   8  17  34  54  76 106 140 177 217 261 313
#     4  10  22  37  54  76 105 141 181 219 265 322
#     4   9  19  35  55  77 104 136 176 223 269 316
#     4  10  20  35  56  83 110 140 179 226 272 316
#
# _framework density 21.494741999999999
#
# number of rings (size 3 to 8) (size 9 to 14) (size 15 to 20)
#    0.000    2.750    0.000    2.625    0.000    5.500 
#    0.000    7.500    0.000    0.000    0.000    0.000 
#    0.000    0.000    0.000    0.000    0.000    0.000 
#
# Total GULP energy -178421.764116 kJ/mol
# GULP energy per Si atom -5575.680129 kJ/mol
# Density = 2.144582 g / cm^3
# Si number density = 21.494742 Si / 1000 Ang^3
#
#
#
# Elastic Constant Matrix: (Units=GPa)
#
#
# Indices 1 2 3 4 5 6 
#
# 1 27.2987 -3.6494 -10.9690 0.0000 0.0000 0.0000
# 2 -3.6494 157.7419 44.9406 0.0000 0.0000 0.0000
# 3 -10.9690 44.9406 68.1854 0.0000 0.0000 0.0000
# 4 0.0000 0.0000 0.0000 21.8388 0.0000 0.0000
# 5 0.0000 0.0000 0.0000 0.0000 14.8944 0.0000
# 6 0.0000 0.0000 0.0000 0.0000 0.0000 54.9856
#
#
#
# Elastic Compliance Matrix: (Units=1/GPa)
#
#
# Indices 1 2 3 4 5 6 
#
# 1 0.039317 -0.001099 0.007049 0.000000 0.000000 0.000000
# 2 -0.001099 0.007836 -0.005341 0.000000 0.000000 0.000000
# 3 0.007049 -0.005341 0.019320 0.000000 0.000000 0.000000
# 4 0.000000 0.000000 0.000000 0.045790 0.000000 0.000000
# 5 0.000000 0.000000 0.000000 0.000000 0.067139 0.000000
# 6 0.000000 0.000000 0.000000 0.000000 0.000000 0.018187
#
#
# Mechanical properties :
#
#
# Convention : Reuss Voigt Hill
#
# Bulk Modulus (GPa) = 14.77286 34.87449 24.82368
# Shear Modulus (GPa) = 22.83783 33.20401 28.02092
#
# Velocity S-wave (km/s) = 3.26311 3.93459 3.61448
# Velocity P-wave (km/s) = 4.59183 6.07464 5.38452
#
# Compressibility (1/GPa) = 0.06769168
#
# Stress axis : x y z
#
# Youngs Moduli (GPa) = 25.43410 127.61989 51.75914
#
# Poissons Ratio (x) = 0.14021 -0.36486
# Poissons Ratio (y) = 0.02794 0.27646
# Poissons Ratio (z) = -0.17929 0.68165
#
# Static dielectric constant tensor:
#      x y z
#    x 1.793060 0.000000 0.000000 
#    y 0.000000 1.814720 0.000000 
#    z 0.000000 0.000000 1.797120 
# 
# From -- ./inp_files/3598.got.cif
#   From: 2010.05.17/outbox.cif.g08.bks.cpg/sg31_2_cif.got.tgz:3598.got - 2010.06.03 17:08:30.
