data_PCOD9343977
_publ_section_title
;
Structure prediction by ZEFSAII (Michael W. Deem and Ramdas Pophale) SiO2 
 PCOD9343977
Probable space group: P B A 2
;
_chemical_formula_sum "Si O2"
_cell_formula_units_Z 30
_cell_length_a 9.067020
_cell_length_b 12.135491
_cell_length_c 13.239343
_cell_angle_alpha 90.000000
_cell_angle_beta 90.000000
_cell_angle_gamma 90.000000
_cell_volume 1456.761181
_symmetry_space_group_name_H-M "P B A 2"
_symmetry_group_IT_number 32
_symmetry_cell_setting 'orthorhombic'
loop_
_space_group_symop_operation_xyz
x,y,z
-x,-y,z
1/2-x,1/2+y,z
1/2+x,1/2-y,z
loop_
_atom_site_type_symbol
_atom_site_label
_atom_site_fract_x
_atom_site_fract_y
_atom_site_fract_z
Si Si1 0.500000 0.000000 0.334991
Si Si2 0.460449 0.733519 0.569695
Si Si3 0.772293 0.097478 0.657610
Si Si4 0.929295 0.389041 0.145587
Si Si5 0.204076 0.591995 0.496693
Si Si6 0.510791 0.751643 0.954139
Si Si7 0.648246 0.444650 0.050715
Si Si8 0.732738 0.106370 0.882610
O O1 0.498120 0.104254 0.257187
O O2 0.643820 0.980492 0.403099
O O3 0.347443 0.804481 0.638724
O O4 0.568447 0.649090 0.628575
O O5 0.354063 0.664343 0.493985
O O6 0.570569 0.822384 0.518920
O O7 0.764316 0.058883 0.772999
O O8 0.730302 0.995742 0.585994
O O9 0.000000 0.500000 0.099401
O O10 0.754268 0.406432 0.140098
O O11 0.958101 0.291986 0.068295
O O12 0.400462 0.651448 0.975011
O O13 0.431044 0.847293 0.893172
O O14 0.652959 0.707074 0.897903
O O15 0.500000 0.500000 0.090445
O O16 0.730873 0.529341 0.977129
#
# Coordination Sequence:
#
# PCOD9343977 Si02
#       8
#     2   4   4   4   4   4   4   4
#     4  10  22  44  70  92 122 168 218 278 350 400
#     4  10  23  40  65  94 128 172 224 266 341 392
#     4  11  22  40  65  93 139 177 218 275 330 399
#     4  10  21  42  65  89 125 167 216 263 339 398
#     4  11  22  46  64  92 133 168 218 290 330 395
#     4  11  21  39  61  91 135 168 213 273 320 391
#     4  10  22  39  60  92 131 164 211 268 320 390
#     4  11  22  36  62  95 129 177 219 257 323 395
#
# _framework density 20.593627999999999
#
# number of rings (size 3 to 8) (size 9 to 14) (size 15 to 20)
#    0.400    1.067    4.000    1.200    0.000    5.333 
#    7.200    1.333    0.000    0.000    0.000    0.000 
#    0.000    0.000    0.000    0.000    0.000    0.000 
#
# Total GULP energy -167202.621400 kJ/mol
# GULP energy per Si atom -5573.420713 kJ/mol
# Density = 2.054676 g / cm^3
# Si number density = 20.593628 Si / 1000 Ang^3
#
#
#
# Elastic Constant Matrix: (Units=GPa)
#
#
# Indices 1 2 3 4 5 6 
#
# 1 103.7573 24.8905 34.7498 0.0000 0.0000 0.0000
# 2 24.8905 53.6332 15.0826 0.0000 0.0000 0.0000
# 3 34.7498 15.0826 82.1661 0.0000 0.0000 0.0000
# 4 0.0000 0.0000 0.0000 25.6873 0.0000 0.0000
# 5 0.0000 0.0000 0.0000 0.0000 15.7537 0.0000
# 6 0.0000 0.0000 0.0000 0.0000 0.0000 32.4214
#
#
#
# Elastic Compliance Matrix: (Units=1/GPa)
#
#
# Indices 1 2 3 4 5 6 
#
# 1 0.012147 -0.004421 -0.004326 0.000000 0.000000 0.000000
# 2 -0.004421 0.021269 -0.002034 0.000000 0.000000 0.000000
# 3 -0.004326 -0.002034 0.014373 0.000000 0.000000 0.000000
# 4 0.000000 0.000000 0.000000 0.038930 0.000000 0.000000
# 5 0.000000 0.000000 0.000000 0.000000 0.063477 0.000000
# 6 0.000000 0.000000 0.000000 0.000000 0.000000 0.030844
#
#
# Mechanical properties :
#
#
# Convention : Reuss Voigt Hill
#
# Bulk Modulus (GPa) = 38.12832 43.22250 40.67541
# Shear Modulus (GPa) = 23.65799 25.76140 24.70970
#
# Velocity S-wave (km/s) = 3.39307 3.54070 3.46767
# Velocity P-wave (km/s) = 5.82284 6.14404 5.98559
#
# Compressibility (1/GPa) = 0.02622723
#
# Stress axis : x y z
#
# Youngs Moduli (GPa) = 82.32369 47.01681 69.57302
#
# Poissons Ratio (x) = 0.20786 0.30096
# Poissons Ratio (y) = 0.36394 0.14155
# Poissons Ratio (z) = 0.35612 0.09566
#
# Static dielectric constant tensor:
#      x y z
#    x 1.717590 0.000000 0.000000 
#    y 0.000000 1.754690 0.000000 
#    z 0.000000 0.000000 1.709440 
# 
# From -- ./inp_files/4130.got.cif
#   From: 2010.05.17/outbox.cif.g08.bks.cpg/sg32_3_cif.got.tgz:4130.got - 2010.06.03 17:12:27.
