data_PCOD9343339
_publ_section_title
;
Structure prediction by ZEFSAII (Michael W. Deem and Ramdas Pophale) SiO2 
 PCOD9343339
Probable space group: P M N 21
;
_chemical_formula_sum "Si O2"
_cell_formula_units_Z 32
_cell_length_a 9.020665
_cell_length_b 12.458555
_cell_length_c 14.490683
_cell_angle_alpha 90.000000
_cell_angle_beta 90.000000
_cell_angle_gamma 90.000000
_cell_volume 1628.527454
_symmetry_space_group_name_H-M "P M N 21"
_symmetry_group_IT_number 31
_symmetry_cell_setting 'orthorhombic'
loop_
_space_group_symop_operation_xyz
x,y,z
1/2-x,-y,1/2+z
-x,y,z
1/2+x,-y,1/2+z
loop_
_atom_site_type_symbol
_atom_site_label
_atom_site_fract_x
_atom_site_fract_y
_atom_site_fract_z
Si Si1 0.673532 0.113133 0.206990
Si Si2 0.825357 0.714108 0.546346
Si Si3 0.829569 0.275151 0.338678
Si Si4 0.172311 0.275082 0.560851
Si Si5 0.323232 0.116500 0.696920
Si Si6 0.678542 0.732046 0.347647
Si Si7 0.830278 0.504182 0.062171
Si Si8 0.668484 0.491613 0.337377
O O1 0.500000 0.086749 0.216991
O O2 0.691555 0.189041 0.117729
O O3 0.729712 0.184851 0.292020
O O4 0.766707 0.005104 0.197704
O O5 0.743195 0.739583 0.450631
O O6 0.754167 0.605039 0.586253
O O7 0.000000 0.696039 0.529133
O O8 0.820812 0.268199 0.449791
O O9 0.772632 0.393437 0.311017
O O10 0.000000 0.260604 0.310647
O O11 0.262073 0.179446 0.607766
O O12 0.243130 0.388840 0.589284
O O13 0.000000 0.270413 0.589147
O O14 0.500000 0.121520 0.701089
O O15 0.251235 0.179665 0.782861
O O16 0.500000 0.740304 0.349617
O O17 0.715142 0.611760 0.311132
O O18 0.000000 0.504690 0.094947
O O19 0.834609 0.505833 0.949651
O O20 0.500000 0.471316 0.305269
#
# Coordination Sequence:
#
# PCOD9343339 Si02
#       8
#     4   4   4   4   4   4   4   4
#     4  11  25  43  61  82 114 155 198 244 290 343
#     4  10  21  38  61  89 120 155 195 240 292 348
#     4  10  21  37  61  90 119 152 191 239 289 341
#     4  10  21  39  62  88 120 155 192 239 295 350
#     4  12  26  42  61  85 114 151 199 248 290 345
#     4  10  21  39  63  89 120 156 192 237 292 348
#     4   9  17  32  57  89 121 153 192 237 289 349
#     4   8  16  32  56  86 118 151 187 228 281 346
#
# _framework density 19.649653000000001
#
# number of rings (size 3 to 8) (size 9 to 14) (size 15 to 20)
#    0.000    2.000    0.000    4.125    0.000    9.000 
#    0.000    2.500    0.000    0.000    0.000    0.000 
#    0.000    0.000    0.000    0.000    0.000    0.000 
#
# Total GULP energy -178888.099560 kJ/mol
# GULP energy per Si atom -5590.253111 kJ/mol
# Density = 1.960493 g / cm^3
# Si number density = 19.649653 Si / 1000 Ang^3
#
#
#
# Elastic Constant Matrix: (Units=GPa)
#
#
# Indices 1 2 3 4 5 6 
#
# 1 146.7313 85.8819 46.6850 0.0000 0.0000 0.0000
# 2 85.8819 135.0984 29.0671 0.0000 0.0000 0.0000
# 3 46.6850 29.0671 59.9655 0.0000 0.0000 0.0000
# 4 0.0000 0.0000 0.0000 25.0792 0.0000 0.0000
# 5 0.0000 0.0000 0.0000 0.0000 31.2292 0.0000
# 6 0.0000 0.0000 0.0000 0.0000 0.0000 39.9603
#
#
#
# Elastic Compliance Matrix: (Units=1/GPa)
#
#
# Indices 1 2 3 4 5 6 
#
# 1 0.012933 -0.006760 -0.006792 0.000000 0.000000 0.000000
# 2 -0.006760 0.011797 -0.000456 0.000000 0.000000 0.000000
# 3 -0.006792 -0.000456 0.022185 0.000000 0.000000 0.000000
# 4 0.000000 0.000000 0.000000 0.039874 0.000000 0.000000
# 5 0.000000 0.000000 0.000000 0.000000 0.032021 0.000000
# 6 0.000000 0.000000 0.000000 0.000000 0.000000 0.025025
#
#
# Mechanical properties :
#
#
# Convention : Reuss Voigt Hill
#
# Bulk Modulus (GPa) = 52.91017 73.89592 63.40304
# Shear Modulus (GPa) = 28.06631 31.26449 29.66540
#
# Velocity S-wave (km/s) = 3.78343 3.99318 3.88972
# Velocity P-wave (km/s) = 6.78757 7.67783 7.24638
#
# Compressibility (1/GPa) = 0.01889996
#
# Stress axis : x y z
#
# Youngs Moduli (GPa) = 77.32309 84.76434 45.07617
#
# Poissons Ratio (x) = 0.57301 0.30615
# Poissons Ratio (y) = 0.52271 0.02054
# Poissons Ratio (z) = 0.52516 0.03862
#
# Static dielectric constant tensor:
#      x y z
#    x 1.659840 0.000000 0.000000 
#    y 0.000000 1.651520 0.000000 
#    z 0.000000 0.000000 1.713910 
# 
# From -- ./inp_files/5005.got.cif
#   From: 2010.05.17/outbox.cif.g08.bks.cpg/sg31_3_cif.got.tgz:5005.got - 2010.06.03 17:08:30.
