data_PCOD9343804
_publ_section_title
;
Structure prediction by ZEFSAII (Michael W. Deem and Ramdas Pophale) SiO2 
 PCOD9343804
Probable space group: P B A 2
;
_chemical_formula_sum "Si O2"
_cell_formula_units_Z 32
_cell_length_a 30.931587
_cell_length_b 5.465662
_cell_length_c 8.405780
_cell_angle_alpha 90.000000
_cell_angle_beta 90.000000
_cell_angle_gamma 90.000000
_cell_volume 1421.094613
_symmetry_space_group_name_H-M "P B A 2"
_symmetry_group_IT_number 32
_symmetry_cell_setting 'orthorhombic'
loop_
_space_group_symop_operation_xyz
x,y,z
-x,-y,z
1/2-x,1/2+y,z
1/2+x,1/2-y,z
loop_
_atom_site_type_symbol
_atom_site_label
_atom_site_fract_x
_atom_site_fract_y
_atom_site_fract_z
Si Si1 0.043477 0.662785 0.239930
Si Si2 0.272454 0.378658 0.570848
Si Si3 0.134951 0.723352 0.662178
Si Si4 0.546530 0.521255 0.551997
Si Si5 0.383294 0.124663 0.025660
Si Si6 0.144869 0.120063 0.177957
Si Si7 0.104428 0.344630 0.450037
Si Si8 0.760368 0.678295 0.207383
O O1 0.037602 0.873988 0.372392
O O2 0.083015 0.518346 0.321242
O O3 0.000000 0.500000 0.228464
O O4 0.066816 0.706145 0.069843
O O5 0.248866 0.624427 0.629866
O O6 0.322850 0.381798 0.619713
O O7 0.263326 0.360769 0.378635
O O8 0.087177 0.829781 0.621307
O O9 0.131055 0.654270 0.844676
O O10 0.139523 0.483703 0.551169
O O11 0.500000 0.500000 0.633442
O O12 0.564850 0.247293 0.553344
O O13 0.356428 0.344913 0.113133
O O14 0.375592 0.835601 0.067340
O O15 0.120926 0.118467 0.347379
O O16 0.190652 0.236451 0.220985
O O17 0.760327 0.414779 0.124532
#
# Coordination Sequence:
#
# PCOD9343804 Si02
#       8
#     4   4   4   4   4   4   4   4
#     4  10  20  40  62  96 133 177 236 295 339 413
#     4  10  23  41  68 100 134 175 231 287 353 421
#     4  11  27  43  68 103 147 186 232 297 366 440
#     4  11  22  40  71 101 135 179 244 298 349 409
#     4  11  26  45  66 100 141 193 223 283 368 432
#     4  11  23  43  68  96 133 180 234 286 343 427
#     4  10  21  38  69  93 132 174 236 289 344 393
#     4  10  20  35  63  97 127 160 229 284 339 400
#
# _framework density 22.517852000000001
#
# number of rings (size 3 to 8) (size 9 to 14) (size 15 to 20)
#    0.000    1.500    2.500    2.250    7.000    0.000 
#    2.250    4.375    0.000    0.000    0.000    0.000 
#    0.000    0.000    0.000    0.000    0.000    0.000 
#
# Total GULP energy -178148.247334 kJ/mol
# GULP energy per Si atom -5567.132729 kJ/mol
# Density = 2.246660 g / cm^3
# Si number density = 22.517852 Si / 1000 Ang^3
#
#
#
# Elastic Constant Matrix: (Units=GPa)
#
#
# Indices 1 2 3 4 5 6 
#
# 1 109.8528 23.9109 21.3712 0.0000 0.0000 0.0000
# 2 23.9109 110.0977 3.6694 0.0000 0.0000 0.0000
# 3 21.3712 3.6694 52.9480 0.0000 0.0000 0.0000
# 4 0.0000 0.0000 0.0000 1.7107 0.0000 0.0000
# 5 0.0000 0.0000 0.0000 0.0000 9.4067 0.0000
# 6 0.0000 0.0000 0.0000 0.0000 0.0000 46.6444
#
#
#
# Elastic Compliance Matrix: (Units=1/GPa)
#
#
# Indices 1 2 3 4 5 6 
#
# 1 0.010347 -0.002113 -0.004030 0.000000 0.000000 0.000000
# 2 -0.002113 0.009535 0.000192 0.000000 0.000000 0.000000
# 3 -0.004030 0.000192 0.020500 0.000000 0.000000 0.000000
# 4 0.000000 0.000000 0.000000 0.584555 0.000000 0.000000
# 5 0.000000 0.000000 0.000000 0.000000 0.106307 0.000000
# 6 0.000000 0.000000 0.000000 0.000000 0.000000 0.021439
#
#
# Mechanical properties :
#
#
# Convention : Reuss Voigt Hill
#
# Bulk Modulus (GPa) = 35.11173 41.20017 38.15595
# Shear Modulus (GPa) = 6.45930 26.48217 16.47073
#
# Velocity S-wave (km/s) = 1.69551 3.43308 2.70747
# Velocity P-wave (km/s) = 4.41131 5.83533 5.17256
#
# Compressibility (1/GPa) = 0.02848051
#
# Stress axis : x y z
#
# Youngs Moduli (GPa) = 96.64672 104.87341 48.78118
#
# Poissons Ratio (x) = 0.22158 0.19658
# Poissons Ratio (y) = 0.20420 -0.00936
# Poissons Ratio (z) = 0.38947 -0.02013
#
# Static dielectric constant tensor:
#      x y z
#    x 2.046630 0.000000 0.000000 
#    y 0.000000 2.057640 0.000000 
#    z 0.000000 0.000000 1.892320 
# 
# From -- ./inp_files/3435.got.cif
#   From: 2010.05.17/outbox.cif.g08.bks.cpg/sg32_2_cif.got.tgz:3435.got - 2010.06.03 17:12:27.
