data_PCOD9343360
_publ_section_title
;
Structure prediction by ZEFSAII (Michael W. Deem and Ramdas Pophale) SiO2 
 PCOD9343360
Probable space group: P M N 21
;
_chemical_formula_sum "Si O2"
_cell_formula_units_Z 24
_cell_length_a 7.857001
_cell_length_b 15.172773
_cell_length_c 8.591508
_cell_angle_alpha 90.000000
_cell_angle_beta 90.000000
_cell_angle_gamma 90.000000
_cell_volume 1024.215084
_symmetry_space_group_name_H-M "P M N 21"
_symmetry_group_IT_number 31
_symmetry_cell_setting 'orthorhombic'
loop_
_space_group_symop_operation_xyz
x,y,z
1/2-x,-y,1/2+z
-x,y,z
1/2+x,-y,1/2+z
loop_
_atom_site_type_symbol
_atom_site_label
_atom_site_fract_x
_atom_site_fract_y
_atom_site_fract_z
Si Si1 0.803056 0.206773 0.788160
Si Si2 0.792270 0.292777 0.467510
Si Si3 0.298935 0.878381 0.802971
Si Si4 0.697093 0.046199 0.976063
Si Si5 0.793664 0.457061 0.277899
Si Si6 0.798663 0.626419 0.448599
O O1 0.735912 0.255534 0.634038
O O2 0.711760 0.117761 0.838494
O O3 0.789110 0.279951 0.923398
O O4 0.000000 0.183843 0.761849
O O5 0.735514 0.219088 0.342278
O O6 0.735419 0.388620 0.411800
O O7 0.000000 0.297115 0.472047
O O8 0.500000 0.874972 0.834198
O O9 0.277680 0.911074 0.628054
O O10 0.227274 0.953878 0.917319
O O11 0.500000 0.032571 0.014484
O O12 0.735682 0.555160 0.321142
O O13 0.000000 0.458407 0.276858
O O14 0.733313 0.418298 0.114742
O O15 0.000000 0.640297 0.429291
#
# Coordination Sequence:
#
# PCOD9343360 Si02
#       6
#     4   4   4   4   4   4
#     4  11  22  39  62  84 114 157 198 239 294 348
#     4   9  19  37  60  84 110 149 198 237 278 344
#     4  10  21  38  60  85 116 155 196 238 288 346
#     4  11  23  38  58  88 121 152 195 244 287 341
#     4  10  21  38  60  85 116 155 196 238 288 346
#     4  11  23  38  58  88 121 152 195 244 287 341
#
# _framework density 23.432577999999999
#
# number of rings (size 3 to 8) (size 9 to 14) (size 15 to 20)
#    0.000    1.667    0.000    4.500    0.000    6.667 
#    0.000    3.333    0.000    0.000    0.000    0.000 
#    0.000    0.000    0.000    0.000    0.000    0.000 
#
# Total GULP energy -134257.714715 kJ/mol
# GULP energy per Si atom -5594.071446 kJ/mol
# Density = 2.337924 g / cm^3
# Si number density = 23.432578 Si / 1000 Ang^3
#
#
#
# Elastic Constant Matrix: (Units=GPa)
#
#
# Indices 1 2 3 4 5 6 
#
# 1 33.2331 1.1196 -12.5816 0.0000 0.0000 0.0000
# 2 1.1196 85.6748 -17.6535 0.0000 0.0000 0.0000
# 3 -12.5816 -17.6535 54.6339 0.0000 0.0000 0.0000
# 4 0.0000 0.0000 0.0000 42.5008 0.0000 0.0000
# 5 0.0000 0.0000 0.0000 0.0000 25.5194 0.0000
# 6 0.0000 0.0000 0.0000 0.0000 0.0000 20.1070
#
#
#
# Elastic Compliance Matrix: (Units=1/GPa)
#
#
# Indices 1 2 3 4 5 6 
#
# 1 0.033083 0.001219 0.008012 0.000000 0.000000 0.000000
# 2 0.001219 0.012549 0.004336 0.000000 0.000000 0.000000
# 3 0.008012 0.004336 0.021550 0.000000 0.000000 0.000000
# 4 0.000000 0.000000 0.000000 0.023529 0.000000 0.000000
# 5 0.000000 0.000000 0.000000 0.000000 0.039186 0.000000
# 6 0.000000 0.000000 0.000000 0.000000 0.000000 0.049734
#
#
# Mechanical properties :
#
#
# Convention : Reuss Voigt Hill
#
# Bulk Modulus (GPa) = 10.60271 12.81231 11.70751
# Shear Modulus (GPa) = 27.18338 31.13593 29.15965
#
# Velocity S-wave (km/s) = 3.40967 3.64915 3.53144
# Velocity P-wave (km/s) = 4.47613 4.82024 4.65137
#
# Compressibility (1/GPa) = 0.09431548
#
# Stress axis : x y z
#
# Youngs Moduli (GPa) = 30.22717 79.68447 46.40420
#
# Poissons Ratio (x) = -0.09711 -0.37181
# Poissons Ratio (y) = -0.03684 -0.20119
# Poissons Ratio (z) = -0.24219 -0.34549
#
# Static dielectric constant tensor:
#      x y z
#    x 1.848400 0.000000 0.000000 
#    y 0.000000 1.871380 0.000000 
#    z 0.000000 0.000000 1.896580 
# 
# From -- ./inp_files/1670.got.cif
#   From: 2010.05.17/outbox.cif.g08.bks.cpg/sg31_1_cif.got.tgz:1670.got - 2010.06.03 17:08:30.
