data_PCOD9343925
_publ_section_title
;
Structure prediction by ZEFSAII (Michael W. Deem and Ramdas Pophale) SiO2 
 PCOD9343925
Probable space group: P B A 2
;
_chemical_formula_sum "Si O2"
_cell_formula_units_Z 32
_cell_length_a 11.108195
_cell_length_b 9.623345
_cell_length_c 12.868033
_cell_angle_alpha 90.000000
_cell_angle_beta 90.000000
_cell_angle_gamma 90.000000
_cell_volume 1375.566899
_symmetry_space_group_name_H-M "P B A 2"
_symmetry_group_IT_number 32
_symmetry_cell_setting 'orthorhombic'
loop_
_space_group_symop_operation_xyz
x,y,z
-x,-y,z
1/2-x,1/2+y,z
1/2+x,1/2-y,z
loop_
_atom_site_type_symbol
_atom_site_label
_atom_site_fract_x
_atom_site_fract_y
_atom_site_fract_z
Si Si1 0.210939 0.993136 0.535140
Si Si2 0.587976 0.724023 0.778269
Si Si3 0.381680 0.908847 0.153422
Si Si4 0.484126 0.718348 0.559264
Si Si5 0.232040 0.499027 0.753885
Si Si6 0.195233 0.971029 0.312345
Si Si7 0.012808 0.226301 0.335299
Si Si8 0.578420 0.139977 0.928831
O O1 0.266756 0.977281 0.421357
O O2 0.097843 0.887030 0.539263
O O3 0.144811 0.140096 0.557838
O O4 0.297673 0.970868 0.632701
O O5 0.511976 0.766921 0.675449
O O6 0.633920 0.566130 0.763024
O O7 0.693556 0.842943 0.778821
O O8 0.508939 0.742966 0.881861
O O9 0.270207 0.988590 0.207018
O O10 0.424392 0.809685 0.245017
O O11 0.500000 0.000000 0.139100
O O12 0.360677 0.838220 0.041135
O O13 0.488500 0.796418 0.448842
O O14 0.168471 0.402975 0.838311
O O15 0.120811 0.826786 0.306193
O O16 0.097533 0.089758 0.336570
O O17 0.500000 0.000000 0.936116
#
# Coordination Sequence:
#
# PCOD9343925 Si02
#       8
#     4   4   4   4   4   4   4   4
#     4   8  16  34  59  88 122 158 198 244 312 382
#     4  10  21  38  62  89 125 164 207 258 319 380
#     4  11  24  39  62  91 120 165 218 267 318 374
#     4   8  16  34  59  88 125 159 192 250 310 381
#     4  10  21  38  60  90 120 162 209 255 318 382
#     4   9  20  40  62  91 127 163 201 263 322 388
#     4   9  20  40  63  90 127 165 206 253 325 393
#     4   9  22  43  56  80 125 161 202 265 312 359
#
# _framework density 23.263134000000001
#
# number of rings (size 3 to 8) (size 9 to 14) (size 15 to 20)
#    0.000    2.750    0.000    1.500    3.500    3.000 
#   13.500    1.250    0.000    1.500    0.000    0.000 
#    0.000    0.000    0.000    0.000    0.000    0.000 
#
# Total GULP energy -178260.773656 kJ/mol
# GULP energy per Si atom -5570.649177 kJ/mol
# Density = 2.321019 g / cm^3
# Si number density = 23.263134 Si / 1000 Ang^3
#
#
#
# Elastic Constant Matrix: (Units=GPa)
#
#
# Indices 1 2 3 4 5 6 
#
# 1 67.1585 12.0626 42.7514 0.0000 0.0000 0.0000
# 2 12.0626 36.5330 16.7002 0.0000 0.0000 0.0000
# 3 42.7514 16.7002 189.0960 0.0000 0.0000 0.0000
# 4 0.0000 0.0000 0.0000 24.1437 0.0000 0.0000
# 5 0.0000 0.0000 0.0000 0.0000 22.0969 0.0000
# 6 0.0000 0.0000 0.0000 0.0000 0.0000 31.9442
#
#
#
# Elastic Compliance Matrix: (Units=1/GPa)
#
#
# Indices 1 2 3 4 5 6 
#
# 1 0.018007 -0.004256 -0.003695 0.000000 0.000000 0.000000
# 2 -0.004256 0.029530 -0.001646 0.000000 0.000000 0.000000
# 3 -0.003695 -0.001646 0.006269 0.000000 0.000000 0.000000
# 4 0.000000 0.000000 0.000000 0.041419 0.000000 0.000000
# 5 0.000000 0.000000 0.000000 0.000000 0.045255 0.000000
# 6 0.000000 0.000000 0.000000 0.000000 0.000000 0.031305
#
#
# Mechanical properties :
#
#
# Convention : Reuss Voigt Hill
#
# Bulk Modulus (GPa) = 28.89201 48.42400 38.65800
# Shear Modulus (GPa) = 24.68937 30.38851 27.53894
#
# Velocity S-wave (km/s) = 3.26131 3.61819 3.44437
# Velocity P-wave (km/s) = 5.16024 6.18999 5.69843
#
# Compressibility (1/GPa) = 0.03461165
#
# Stress axis : x y z
#
# Youngs Moduli (GPa) = 55.53434 33.86366 159.51338
#
# Poissons Ratio (x) = 0.14414 0.58942
# Poissons Ratio (y) = 0.23638 0.26251
# Poissons Ratio (z) = 0.20521 0.05573
#
# Static dielectric constant tensor:
#      x y z
#    x 1.991260 0.000000 0.000000 
#    y 0.000000 5.013890 0.000000 
#    z 0.000000 0.000000 1.999730 
# 
# From -- ./inp_files/3877.got.cif
#   From: 2010.05.17/outbox.cif.g08.bks.cpg/sg32_2_cif.got.tgz:3877.got - 2010.06.03 17:12:27.
