data_PCOD9343358
_publ_section_title
;
Structure prediction by ZEFSAII (Michael W. Deem and Ramdas Pophale) SiO2 
 PCOD9343358
Probable space group: P M N 21
;
_chemical_formula_sum "Si O2"
_cell_formula_units_Z 32
_cell_length_a 9.127118
_cell_length_b 11.407730
_cell_length_c 15.882322
_cell_angle_alpha 90.000000
_cell_angle_beta 90.000000
_cell_angle_gamma 90.000000
_cell_volume 1653.662567
_symmetry_space_group_name_H-M "P M N 21"
_symmetry_group_IT_number 31
_symmetry_cell_setting 'orthorhombic'
loop_
_space_group_symop_operation_xyz
x,y,z
1/2-x,-y,1/2+z
-x,y,z
1/2+x,-y,1/2+z
loop_
_atom_site_type_symbol
_atom_site_label
_atom_site_fract_x
_atom_site_fract_y
_atom_site_fract_z
Si Si1 0.674930 0.586116 0.410100
Si Si2 0.332411 0.059663 0.359461
Si Si3 0.332411 0.059665 0.097576
Si Si4 0.173328 0.220957 0.228519
Si Si5 0.831603 0.836938 0.048118
Si Si6 0.831603 0.836937 0.408918
Si Si7 0.674930 0.586117 0.046928
Si Si8 0.671057 0.466921 0.228514
O O1 0.500000 0.592617 0.426361
O O2 0.748979 0.713599 0.414082
O O3 0.750001 0.499998 0.478512
O O4 0.695189 0.537778 0.314956
O O5 0.500000 0.053692 0.330036
O O6 0.240015 0.153001 0.307704
O O7 0.335523 0.106032 0.455121
O O8 0.256327 0.932835 0.354846
O O9 0.500000 0.053701 0.127002
O O10 0.240005 0.152998 0.149333
O O11 0.256333 0.932834 0.102190
O O12 0.335522 0.106036 0.001917
O O13 0.227958 0.353486 0.228517
O O14 0.000000 0.214720 0.228524
O O15 0.748981 0.713600 0.042951
O O16 0.000000 0.822095 0.076480
O O17 0.000000 0.822091 0.380557
O O18 0.500000 0.592621 0.030669
O O19 0.695192 0.537772 0.142070
O O20 0.500000 0.429232 0.228514
#
# Coordination Sequence:
#
# PCOD9343358 Si02
#       8
#     4   4   4   4   4   4   4   4
#     4  11  23  40  62  87 119 160 202 246 299 357
#     4  10  21  38  60  84 115 154 191 234 292 354
#     4  10  21  38  60  84 115 154 191 234 292 354
#     4  12  24  37  58  87 116 147 191 245 293 342
#     4  10  21  38  60  87 117 150 193 242 292 349
#     4  10  21  38  60  87 117 150 193 242 292 349
#     4  11  23  40  62  87 119 160 202 246 299 357
#     4  10  24  43  60  83 118 159 199 239 293 362
#
# _framework density 19.350985000000001
#
# number of rings (size 3 to 8) (size 9 to 14) (size 15 to 20)
#    0.000    1.500    0.000    4.875    0.000   12.000 
#    0.000    3.750    0.000    0.000    0.000    0.000 
#    0.000    0.000    0.000    0.000    0.000    0.000 
#
# Total GULP energy -178832.768500 kJ/mol
# GULP energy per Si atom -5588.524016 kJ/mol
# Density = 1.930694 g / cm^3
# Si number density = 19.350985 Si / 1000 Ang^3
#
#
#
# Elastic Constant Matrix: (Units=GPa)
#
#
# Indices 1 2 3 4 5 6 
#
# 1 194.7124 109.5993 53.0057 0.0000 0.0000 0.0000
# 2 109.5993 153.2781 18.4788 0.0000 0.0000 0.0000
# 3 53.0057 18.4788 56.7621 0.0000 0.0000 0.0000
# 4 0.0000 0.0000 0.0000 15.2086 0.0000 0.0000
# 5 0.0000 0.0000 0.0000 0.0000 27.3943 0.0000
# 6 0.0000 0.0000 0.0000 0.0000 0.0000 40.8891
#
#
#
# Elastic Compliance Matrix: (Units=1/GPa)
#
#
# Indices 1 2 3 4 5 6 
#
# 1 0.011454 -0.007182 -0.008357 0.000000 0.000000 0.000000
# 2 -0.007182 0.011294 0.003030 0.000000 0.000000 0.000000
# 3 -0.008357 0.003030 0.024435 0.000000 0.000000 0.000000
# 4 0.000000 0.000000 0.000000 0.065752 0.000000 0.000000
# 5 0.000000 0.000000 0.000000 0.000000 0.036504 0.000000
# 6 0.000000 0.000000 0.000000 0.000000 0.000000 0.024456
#
#
# Mechanical properties :
#
#
# Convention : Reuss Voigt Hill
#
# Bulk Modulus (GPa) = 45.11816 85.21336 65.16576
# Shear Modulus (GPa) = 24.23618 31.60964 27.92291
#
# Velocity S-wave (km/s) = 3.54284 4.04603 3.80277
# Velocity P-wave (km/s) = 6.33261 8.12148 7.28218
#
# Compressibility (1/GPa) = 0.02216402
#
# Stress axis : x y z
#
# Youngs Moduli (GPa) = 87.30898 88.54033 40.92428
#
# Poissons Ratio (x) = 0.63591 0.34202
# Poissons Ratio (y) = 0.62707 -0.12400
# Poissons Ratio (z) = 0.72968 -0.26828
#
# Static dielectric constant tensor:
#      x y z
#    x 1.657250 0.000000 0.000000 
#    y 0.000000 1.627430 0.000000 
#    z 0.000000 0.000000 1.710970 
# 
# From -- ./inp_files/4931.got.cif
#   From: 2010.05.17/outbox.cif.g08.bks.cpg/sg31_3_cif.got.tgz:4931.got - 2010.06.03 17:08:30.
