data_PCOD9343237
_publ_section_title
;
Structure prediction by ZEFSAII (Michael W. Deem and Ramdas Pophale) SiO2 
 PCOD9343237
Probable space group: P M N 21
;
_chemical_formula_sum "Si O2"
_cell_formula_units_Z 24
_cell_length_a 10.298873
_cell_length_b 5.512143
_cell_length_c 18.542604
_cell_angle_alpha 90.000000
_cell_angle_beta 90.000000
_cell_angle_gamma 90.000000
_cell_volume 1052.642504
_symmetry_space_group_name_H-M "P M N 21"
_symmetry_group_IT_number 31
_symmetry_cell_setting 'orthorhombic'
loop_
_space_group_symop_operation_xyz
x,y,z
1/2-x,-y,1/2+z
-x,y,z
1/2+x,-y,1/2+z
loop_
_atom_site_type_symbol
_atom_site_label
_atom_site_fract_x
_atom_site_fract_y
_atom_site_fract_z
Si Si1 0.143119 0.567699 0.949400
Si Si2 0.000000 0.717569 0.354779
Si Si3 0.242022 0.740644 0.244659
Si Si4 0.759984 0.812767 0.085542
Si Si5 0.500000 0.783293 0.844336
Si Si6 0.350351 0.321944 0.036761
Si Si7 0.214229 0.760507 0.793733
O O1 0.171802 0.707125 0.875483
O O2 0.000000 0.456677 0.945829
O O3 0.149889 0.753033 0.016897
O O4 0.254906 0.371357 0.968085
O O5 0.872928 0.720362 0.303632
O O6 0.000000 0.457412 0.391582
O O7 0.000000 0.977168 0.391928
O O8 0.183929 0.784246 0.165485
O O9 0.316076 0.483547 0.249831
O O10 0.327026 0.977971 0.264289
O O11 0.663432 0.580225 0.078201
O O12 0.702977 0.081771 0.076416
O O13 0.371748 0.780816 0.796039
O O14 0.500000 0.280202 0.022593
#
# Coordination Sequence:
#
# PCOD9343237 Si02
#       7
#     4   2   4   4   2   4   4
#     4  10  26  45  67 101 140 180 220 272 345 410
#     4   8  16  30  54  82 124 152 212 260 316 372
#     4  10  20  38  59  94 126 176 217 273 324 390
#     4  10  23  41  69  96 134 174 230 275 334 390
#     4   8  16  32  52  88 112 160 208 268 312 366
#     4  10  23  44  68  94 126 170 226 280 326 390
#     4  10  21  37  62  90 133 168 222 268 330 393
#
# _framework density 22.799764
#
# number of rings (size 3 to 8) (size 9 to 14) (size 15 to 20)
#    1.000    1.333    0.000    1.500    4.667    0.667 
#    0.000    5.000    0.000    0.000    0.000    0.000 
#    0.000    0.000    0.000    0.000    0.000    0.000 
#
# Total GULP energy -133684.018766 kJ/mol
# GULP energy per Si atom -5570.167449 kJ/mol
# Density = 2.274787 g / cm^3
# Si number density = 22.799764 Si / 1000 Ang^3
#
#
#
# Elastic Constant Matrix: (Units=GPa)
#
#
# Indices 1 2 3 4 5 6 
#
# 1 87.1526 1.5012 -3.4651 0.0000 0.0000 0.0000
# 2 1.5012 185.0083 -7.3958 0.0000 0.0000 0.0000
# 3 -3.4651 -7.3958 81.8472 0.0000 0.0000 0.0000
# 4 0.0000 0.0000 0.0000 28.9809 0.0000 0.0000
# 5 0.0000 0.0000 0.0000 0.0000 1.2757 0.0000
# 6 0.0000 0.0000 0.0000 0.0000 0.0000 6.1804
#
#
#
# Elastic Compliance Matrix: (Units=1/GPa)
#
#
# Indices 1 2 3 4 5 6 
#
# 1 0.011494 -0.000074 0.000480 0.000000 0.000000 0.000000
# 2 -0.000074 0.005425 0.000487 0.000000 0.000000 0.000000
# 3 0.000480 0.000487 0.012282 0.000000 0.000000 0.000000
# 4 0.000000 0.000000 0.000000 0.034505 0.000000 0.000000
# 5 0.000000 0.000000 0.000000 0.000000 0.783908 0.000000
# 6 0.000000 0.000000 0.000000 0.000000 0.000000 0.161801
#
#
# Mechanical properties :
#
#
# Convention : Reuss Voigt Hill
#
# Bulk Modulus (GPa) = 32.27070 37.25428 34.76249
# Shear Modulus (GPa) = 4.91179 31.51193 18.21186
#
# Velocity S-wave (km/s) = 1.46935 3.72172 2.82933
# Velocity P-wave (km/s) = 4.13078 5.90284 5.09445
#
# Compressibility (1/GPa) = 0.03098786
#
# Stress axis : x y z
#
# Youngs Moduli (GPa) = 86.99823 184.32379 81.41851
#
# Poissons Ratio (x) = 0.01365 -0.03908
# Poissons Ratio (y) = 0.00644 -0.03966
# Poissons Ratio (z) = -0.04175 -0.08978
#
# Static dielectric constant tensor:
#      x y z
#    x 1.850480 0.000000 0.000000 
#    y 0.000000 1.952800 0.000000 
#    z 0.000000 0.000000 1.853330 
# 
# From -- ./inp_files/6300.got.cif
#   From: 2010.05.17/outbox.cif.g08.bks.cpg/sg31_4_cif.got.tgz:6300.got - 2010.06.03 17:08:30.
