data_PCOD9343869
_publ_section_title
;
Structure prediction by ZEFSAII (Michael W. Deem and Ramdas Pophale) SiO2 
 PCOD9343869
Probable space group: P B A 2
;
_chemical_formula_sum "Si O2"
_cell_formula_units_Z 32
_cell_length_a 10.680391
_cell_length_b 14.943930
_cell_length_c 7.815789
_cell_angle_alpha 90.000000
_cell_angle_beta 90.000000
_cell_angle_gamma 90.000000
_cell_volume 1247.454756
_symmetry_space_group_name_H-M "P B A 2"
_symmetry_group_IT_number 32
_symmetry_cell_setting 'orthorhombic'
loop_
_space_group_symop_operation_xyz
x,y,z
-x,-y,z
1/2-x,1/2+y,z
1/2+x,1/2-y,z
loop_
_atom_site_type_symbol
_atom_site_label
_atom_site_fract_x
_atom_site_fract_y
_atom_site_fract_z
Si Si1 0.860146 0.524417 0.835270
Si Si2 0.491486 0.388861 0.062268
Si Si3 0.233281 0.058542 0.145256
Si Si4 0.744335 0.129643 0.262581
Si Si5 0.476300 0.106277 0.274194
Si Si6 0.473834 0.604107 0.668394
Si Si7 0.196564 0.634226 0.589007
Si Si8 0.765564 0.179401 0.633165
O O1 0.844249 0.454916 0.681991
O O2 0.821671 0.620088 0.755481
O O3 0.000000 0.500000 0.899609
O O4 0.751209 0.498293 0.969974
O O5 0.500000 0.500000 0.073753
O O6 0.620693 0.372906 0.160830
O O7 0.367792 0.349083 0.151162
O O8 0.517570 0.362693 0.866251
O O9 0.360992 0.112619 0.146786
O O10 0.235121 0.979002 0.286527
O O11 0.604723 0.136543 0.184012
O O12 0.714107 0.179724 0.440005
O O13 0.407975 0.147838 0.441773
O O14 0.500000 0.000000 0.313396
O O15 0.500000 0.500000 0.680747
O O16 0.346896 0.622323 0.565986
O O17 0.599359 0.639705 0.587038
O O18 0.202787 0.723182 0.703680
#
# Coordination Sequence:
#
# PCOD9343869 Si02
#       8
#     4   4   4   4   4   4   4   4
#     4  12  23  45  74 103 141 193 240 302 377 446
#     4   9  18  38  66  98 134 172 232 289 352 423
#     4  10  20  40  69 103 134 184 236 292 358 436
#     4  10  21  38  64  94 133 183 225 286 348 424
#     4  10  22  41  65  99 137 183 241 290 354 433
#     4  11  23  43  71 103 136 184 237 299 364 433
#     4  12  26  44  69 103 149 182 245 307 364 443
#     4  12  27  42  70 105 141 190 240 301 371 431
#
# _framework density 25.652232999999999
#
# number of rings (size 3 to 8) (size 9 to 14) (size 15 to 20)
#    0.000    1.250    2.500    5.250    5.250    0.500 
#    0.000    2.500    8.250    0.000    0.000    0.000 
#    0.000    0.000    0.000    0.000    0.000    0.000 
#
# Total GULP energy -178307.687197 kJ/mol
# GULP energy per Si atom -5572.115225 kJ/mol
# Density = 2.559385 g / cm^3
# Si number density = 25.652233 Si / 1000 Ang^3
#
#
#
# Elastic Constant Matrix: (Units=GPa)
#
#
# Indices 1 2 3 4 5 6 
#
# 1 210.5615 17.4793 21.1982 0.0000 0.0000 0.0000
# 2 17.4793 53.4861 8.2277 0.0000 0.0000 0.0000
# 3 21.1982 8.2277 76.9069 0.0000 0.0000 0.0000
# 4 0.0000 0.0000 0.0000 35.6109 0.0000 0.0000
# 5 0.0000 0.0000 0.0000 0.0000 45.6229 0.0000
# 6 0.0000 0.0000 0.0000 0.0000 0.0000 8.1825
#
#
#
# Elastic Compliance Matrix: (Units=1/GPa)
#
#
# Indices 1 2 3 4 5 6 
#
# 1 0.004992 -0.001443 -0.001222 0.000000 0.000000 0.000000
# 2 -0.001443 0.019427 -0.001680 0.000000 0.000000 0.000000
# 3 -0.001222 -0.001680 0.013519 0.000000 0.000000 0.000000
# 4 0.000000 0.000000 0.000000 0.028081 0.000000 0.000000
# 5 0.000000 0.000000 0.000000 0.000000 0.021919 0.000000
# 6 0.000000 0.000000 0.000000 0.000000 0.000000 0.122211
#
#
# Mechanical properties :
#
#
# Convention : Reuss Voigt Hill
#
# Bulk Modulus (GPa) = 34.19159 48.30722 41.24940
# Shear Modulus (GPa) = 21.87329 37.48656 29.67992
#
# Velocity S-wave (km/s) = 2.92325 3.82689 3.40518
# Velocity P-wave (km/s) = 4.97510 6.19671 5.61920
#
# Compressibility (1/GPa) = 0.02924696
#
# Stress axis : x y z
#
# Youngs Moduli (GPa) = 200.32004 51.47563 73.96878
#
# Poissons Ratio (x) = 0.07430 0.09036
# Poissons Ratio (y) = 0.28916 0.12430
# Poissons Ratio (z) = 0.24470 0.08650
#
# Static dielectric constant tensor:
#      x y z
#    x 2.179600 0.000000 0.000000 
#    y 0.000000 2.132890 0.000000 
#    z 0.000000 0.000000 2.181040 
# 
# From -- ./inp_files/2855.got.cif
#   From: 2010.05.17/outbox.cif.g08.bks.cpg/sg32_2_cif.got.tgz:2855.got - 2010.06.03 17:12:27.
