data_PCOD9343007
_publ_section_title
;
Structure prediction by ZEFSAII (Michael W. Deem and Ramdas Pophale) SiO2 
 PCOD9343007
Probable space group: P M N 21
;
_chemical_formula_sum "Si O2"
_cell_formula_units_Z 24
_cell_length_a 8.255960
_cell_length_b 25.537018
_cell_length_c 4.895664
_cell_angle_alpha 90.000000
_cell_angle_beta 90.000000
_cell_angle_gamma 90.000000
_cell_volume 1032.165566
_symmetry_space_group_name_H-M "P M N 21"
_symmetry_group_IT_number 31
_symmetry_cell_setting 'orthorhombic'
loop_
_space_group_symop_operation_xyz
x,y,z
1/2-x,-y,1/2+z
-x,y,z
1/2+x,-y,1/2+z
loop_
_atom_site_type_symbol
_atom_site_label
_atom_site_fract_x
_atom_site_fract_y
_atom_site_fract_z
Si Si1 0.304487 0.133939 0.472250
Si Si2 0.315296 0.971810 0.246346
Si Si3 0.188504 0.529734 0.959168
Si Si4 0.696633 0.198355 0.973129
Si Si5 0.309251 0.305361 0.249042
Si Si6 0.188767 0.365479 0.751312
O O1 0.500000 0.128180 0.477682
O O2 0.230340 0.081842 0.596414
O O3 0.258984 0.182664 0.668118
O O4 0.254498 0.150471 0.169807
O O5 0.500000 0.971711 0.338670
O O6 0.209408 0.984351 0.512022
O O7 0.284249 0.515516 0.685082
O O8 0.000000 0.534150 0.890714
O O9 0.249942 0.581973 0.106362
O O10 0.500000 0.201260 0.978289
O O11 0.752854 0.252765 0.101254
O O12 0.500000 0.299486 0.313491
O O13 0.219579 0.320511 0.525668
O O14 0.284803 0.350782 0.024663
O O15 0.000000 0.369869 0.817375
#
# Coordination Sequence:
#
# PCOD9343007 Si02
#       6
#     4   4   4   4   4   4
#     4  10  19  36  60  88 119 157 200 249 302 361
#     4  12  25  42  63  91 123 161 204 253 306 365
#     4  12  25  44  67  94 125 163 206 255 308 367
#     4   9  19  35  60  88 118 156 202 247 298 360
#     4  11  22  41  66  93 122 163 212 255 298 361
#     4  12  25  42  62  92 129 166 204 253 310 364
#
# _framework density 23.252082000000001
#
# number of rings (size 3 to 8) (size 9 to 14) (size 15 to 20)
#    0.000    1.000    0.000    8.000    0.000    4.000 
#    0.000    5.000    0.000    0.000    0.000    0.000 
#    0.000    0.000    0.000    0.000    0.000    0.000 
#
# Total GULP energy -134444.300207 kJ/mol
# GULP energy per Si atom -5601.845842 kJ/mol
# Density = 2.319916 g / cm^3
# Si number density = 23.252082 Si / 1000 Ang^3
#
#
#
# Elastic Constant Matrix: (Units=GPa)
#
#
# Indices 1 2 3 4 5 6 
#
# 1 58.3679 -0.3908 -13.5503 0.0000 0.0000 0.0000
# 2 -0.3908 66.2425 -14.1123 0.0000 0.0000 0.0000
# 3 -13.5503 -14.1123 78.8911 0.0000 0.0000 0.0000
# 4 0.0000 0.0000 0.0000 37.1271 0.0000 0.0000
# 5 0.0000 0.0000 0.0000 0.0000 45.6960 0.0000
# 6 0.0000 0.0000 0.0000 0.0000 0.0000 11.7987
#
#
#
# Elastic Compliance Matrix: (Units=1/GPa)
#
#
# Indices 1 2 3 4 5 6 
#
# 1 0.017884 0.000790 0.003213 0.000000 0.000000 0.000000
# 2 0.000790 0.015729 0.002949 0.000000 0.000000 0.000000
# 3 0.003213 0.002949 0.013755 0.000000 0.000000 0.000000
# 4 0.000000 0.000000 0.000000 0.026935 0.000000 0.000000
# 5 0.000000 0.000000 0.000000 0.000000 0.021884 0.000000
# 6 0.000000 0.000000 0.000000 0.000000 0.000000 0.084755
#
#
# Mechanical properties :
#
#
# Convention : Reuss Voigt Hill
#
# Bulk Modulus (GPa) = 16.32038 16.37716 16.34877
# Shear Modulus (GPa) = 26.67223 34.36135 30.51679
#
# Velocity S-wave (km/s) = 3.39055 3.84835 3.62668
# Velocity P-wave (km/s) = 4.72883 5.17736 4.95817
#
# Compressibility (1/GPa) = 0.06127307
#
# Stress axis : x y z
#
# Youngs Moduli (GPa) = 55.91617 63.57661 72.69991
#
# Poissons Ratio (x) = -0.05023 -0.23359
# Poissons Ratio (y) = -0.04418 -0.21442
# Poissons Ratio (z) = -0.17966 -0.18751
#
# Static dielectric constant tensor:
#      x y z
#    x 1.767060 0.000000 0.000000 
#    y 0.000000 1.924910 0.000000 
#    z 0.000000 0.000000 1.819260 
# 
# From -- ./inp_files/140.got.cif
#   From: 2010.05.17/outbox.cif.g08.bks.cpg/sg31_1_cif.got.tgz:140.got - 2010.06.03 17:08:30.
