data_PCOD9343295
_publ_section_title
;
Structure prediction by ZEFSAII (Michael W. Deem and Ramdas Pophale) SiO2 
 PCOD9343295
Probable space group: P M N 21
;
_chemical_formula_sum "Si O2"
_cell_formula_units_Z 32
_cell_length_a 10.053940
_cell_length_b 24.580987
_cell_length_c 5.734890
_cell_angle_alpha 90.000000
_cell_angle_beta 90.000000
_cell_angle_gamma 90.000000
_cell_volume 1417.296447
_symmetry_space_group_name_H-M "P M N 21"
_symmetry_group_IT_number 31
_symmetry_cell_setting 'orthorhombic'
loop_
_space_group_symop_operation_xyz
x,y,z
1/2-x,-y,1/2+z
-x,y,z
1/2+x,-y,1/2+z
loop_
_atom_site_type_symbol
_atom_site_label
_atom_site_fract_x
_atom_site_fract_y
_atom_site_fract_z
Si Si1 0.359509 0.536614 0.347420
Si Si2 0.651794 0.629976 0.010602
Si Si3 0.337056 0.285462 0.734662
Si Si4 0.842686 0.767789 0.738119
Si Si5 0.640081 0.038019 0.307160
Si Si6 0.149164 0.083057 0.644333
Si Si7 0.850304 0.582865 0.677746
Si Si8 0.146955 0.870667 0.462936
O O1 0.500000 0.553111 0.470651
O O2 0.364129 0.568358 0.103583
O O3 0.225613 0.557889 0.459814
O O4 0.361283 0.471856 0.333300
O O5 0.500000 0.650720 0.975135
O O6 0.739785 0.663060 0.198090
O O7 0.750888 0.626237 0.791186
O O8 0.500000 0.295415 0.728413
O O9 0.299921 0.251025 0.497542
O O10 0.303547 0.260185 0.989129
O O11 0.819826 0.831245 0.679017
O O12 0.000000 0.759030 0.747409
O O13 0.500000 0.053736 0.430379
O O14 0.768803 0.061994 0.425522
O O15 0.634518 0.068226 0.059804
O O16 0.641428 0.973338 0.291251
O O17 0.000000 0.101095 0.593988
O O18 0.237322 0.127545 0.775711
O O19 0.000000 0.603716 0.638681
O O20 0.000000 0.853064 0.374415
#
# Coordination Sequence:
#
# PCOD9343295 Si02
#       8
#     4   4   4   4   4   4   4   4
#     4  10  22  38  57  86 125 164 205 251 307 373
#     4  11  24  42  62  89 123 165 206 255 317 383
#     4  10  22  43  66  96 124 160 215 276 328 379
#     4   9  21  41  69  95 123 158 216 279 323 374
#     4  10  21  35  55  83 119 161 206 247 301 373
#     4  11  22  35  54  86 124 161 200 251 306 368
#     4  11  22  37  60  89 123 165 208 254 305 368
#     4  10  21  39  63  88 115 162 206 251 311 374
#
# _framework density 22.578198
#
# number of rings (size 3 to 8) (size 9 to 14) (size 15 to 20)
#    0.000    1.750    2.500    1.125    3.500    2.500 
#    0.000    1.250    0.000    0.000    0.000    0.000 
#    0.000    0.000    0.000    0.000    0.000    0.000 
#
# Total GULP energy -178219.039980 kJ/mol
# GULP energy per Si atom -5569.344999 kJ/mol
# Density = 2.252681 g / cm^3
# Si number density = 22.578198 Si / 1000 Ang^3
#
#
#
# Elastic Constant Matrix: (Units=GPa)
#
#
# Indices 1 2 3 4 5 6 
#
# 1 177.8221 12.8333 37.3214 0.0000 0.0000 0.0000
# 2 12.8333 62.1418 14.0737 0.0000 0.0000 0.0000
# 3 37.3214 14.0737 61.3827 0.0000 0.0000 0.0000
# 4 0.0000 0.0000 0.0000 43.4779 0.0000 0.0000
# 5 0.0000 0.0000 0.0000 0.0000 21.8941 0.0000
# 6 0.0000 0.0000 0.0000 0.0000 0.0000 48.8786
#
#
#
# Elastic Compliance Matrix: (Units=1/GPa)
#
#
# Indices 1 2 3 4 5 6 
#
# 1 0.006459 -0.000469 -0.003820 0.000000 0.000000 0.000000
# 2 -0.000469 0.017008 -0.003614 0.000000 0.000000 0.000000
# 3 -0.003820 -0.003614 0.019442 0.000000 0.000000 0.000000
# 4 0.000000 0.000000 0.000000 0.023000 0.000000 0.000000
# 5 0.000000 0.000000 0.000000 0.000000 0.045674 0.000000
# 6 0.000000 0.000000 0.000000 0.000000 0.000000 0.020459
#
#
# Mechanical properties :
#
#
# Convention : Reuss Voigt Hill
#
# Bulk Modulus (GPa) = 36.89605 47.75594 42.32599
# Shear Modulus (GPa) = 31.87089 38.65799 35.26444
#
# Velocity S-wave (km/s) = 3.76117 4.14234 3.95635
# Velocity P-wave (km/s) = 5.93623 6.63897 6.29741
#
# Compressibility (1/GPa) = 0.02710317
#
# Stress axis : x y z
#
# Youngs Moduli (GPa) = 154.81980 58.79710 51.43399
#
# Poissons Ratio (x) = 0.02757 0.19646
# Poissons Ratio (y) = 0.07258 0.18590
# Poissons Ratio (z) = 0.59137 0.21252
#
# Static dielectric constant tensor:
#      x y z
#    x 1.892240 0.000000 0.000000 
#    y 0.000000 1.884360 0.000000 
#    z 0.000000 0.000000 1.896080 
# 
# From -- ./inp_files/172.got.cif
#   From: 2010.05.17/outbox.cif.g08.bks.cpg/sg31_1_cif.got.tgz:172.got - 2010.06.03 17:08:30.
