data_PCOD9343433
_publ_section_title
;
Structure prediction by ZEFSAII (Michael W. Deem and Ramdas Pophale) SiO2 
 PCOD9343433
Probable space group: P M N 21
;
_chemical_formula_sum "Si O2"
_cell_formula_units_Z 32
_cell_length_a 35.485014
_cell_length_b 5.267185
_cell_length_c 8.858819
_cell_angle_alpha 90.000000
_cell_angle_beta 90.000000
_cell_angle_gamma 90.000000
_cell_volume 1655.767606
_symmetry_space_group_name_H-M "P M N 21"
_symmetry_group_IT_number 31
_symmetry_cell_setting 'orthorhombic'
loop_
_space_group_symop_operation_xyz
x,y,z
1/2-x,-y,1/2+z
-x,y,z
1/2+x,-y,1/2+z
loop_
_atom_site_type_symbol
_atom_site_label
_atom_site_fract_x
_atom_site_fract_y
_atom_site_fract_z
Si Si1 0.739265 0.332905 0.633590
Si Si2 0.180806 0.329563 0.023812
Si Si3 0.767836 0.972292 0.852016
Si Si4 0.376795 0.926092 0.736226
Si Si5 0.540549 0.863070 0.742103
Si Si6 0.375972 0.425583 0.945003
Si Si7 0.540789 0.362351 0.945005
Si Si8 0.682072 0.398371 0.218052
O O1 0.699546 0.474427 0.640536
O O2 0.737638 0.090352 0.742497
O O3 0.777342 0.476285 0.679376
O O4 0.744967 0.252059 0.459902
O O5 0.152485 0.140223 0.104627
O O6 0.217582 0.183492 0.965491
O O7 0.166539 0.475464 0.873252
O O8 0.804673 0.886118 0.758833
O O9 0.419118 0.909099 0.666482
O O10 0.373911 0.693874 0.856835
O O11 0.372024 0.192014 0.825223
O O12 0.500000 0.889651 0.660850
O O13 0.541040 0.583630 0.817023
O O14 0.540553 0.082994 0.870367
O O15 0.418107 0.397162 0.017279
O O16 0.345389 0.413029 0.077254
O O17 0.500000 0.392561 0.025432
#
# Coordination Sequence:
#
# PCOD9343433 Si02
#       8
#     4   4   4   4   4   4   4   4
#     4  10  22  40  56  78 100 142 188 228 284 332
#     4  10  23  40  55  78 111 148 187 234 293 338
#     4  10  22  40  58  74 103 144 187 232 284 338
#     4  10  22  36  57  89 113 144 191 235 280 333
#     4   8  14  28  50  78 112 142 175 224 277 327
#     4  10  22  36  57  89 113 144 191 235 280 333
#     4   8  14  28  50  78 112 142 175 224 277 327
#     4  10  23  40  55  78 111 148 187 234 293 338
#
# _framework density 19.326385999999999
#
# number of rings (size 3 to 8) (size 9 to 14) (size 15 to 20)
#    0.000    2.500    0.000    0.750    7.000    5.000 
#    2.250    0.000    0.000    0.750    0.000    0.875 
#    0.000    0.000    0.000    0.000    0.000    0.000 
#
# Total GULP energy -178172.341025 kJ/mol
# GULP energy per Si atom -5567.885657 kJ/mol
# Density = 1.928240 g / cm^3
# Si number density = 19.326386 Si / 1000 Ang^3
#
#
#
# Elastic Constant Matrix: (Units=GPa)
#
#
# Indices 1 2 3 4 5 6 
#
# 1 81.8320 2.5134 34.3812 0.0000 0.0000 0.0000
# 2 2.5134 67.4177 4.6849 0.0000 0.0000 0.0000
# 3 34.3812 4.6849 40.0530 0.0000 0.0000 0.0000
# 4 0.0000 0.0000 0.0000 22.8165 0.0000 0.0000
# 5 0.0000 0.0000 0.0000 0.0000 16.3615 0.0000
# 6 0.0000 0.0000 0.0000 0.0000 0.0000 12.4389
#
#
#
# Elastic Compliance Matrix: (Units=1/GPa)
#
#
# Indices 1 2 3 4 5 6 
#
# 1 0.019126 0.000431 -0.016468 0.000000 0.000000 0.000000
# 2 0.000431 0.014964 -0.002121 0.000000 0.000000 0.000000
# 3 -0.016468 -0.002121 0.039351 0.000000 0.000000 0.000000
# 4 0.000000 0.000000 0.000000 0.043828 0.000000 0.000000
# 5 0.000000 0.000000 0.000000 0.000000 0.061119 0.000000
# 6 0.000000 0.000000 0.000000 0.000000 0.000000 0.080393
#
#
# Mechanical properties :
#
#
# Convention : Reuss Voigt Hill
#
# Bulk Modulus (GPa) = 26.93487 30.27351 28.60419
# Shear Modulus (GPa) = 16.26171 20.17159 18.21665
#
# Velocity S-wave (km/s) = 2.90388 3.23419 3.07348
# Velocity P-wave (km/s) = 5.02100 5.44472 5.23715
#
# Compressibility (1/GPa) = 0.03712659
#
# Stress axis : x y z
#
# Youngs Moduli (GPa) = 52.28547 66.82622 25.41237
#
# Poissons Ratio (x) = -0.02883 0.41849
# Poissons Ratio (y) = -0.02255 0.05389
# Poissons Ratio (z) = 0.86103 0.14171
#
# Static dielectric constant tensor:
#      x y z
#    x 1.724660 0.000000 0.000000 
#    y 0.000000 1.755540 0.000000 
#    z 0.000000 0.000000 1.649860 
# 
# From -- ./inp_files/3207.got.cif
#   From: 2010.05.17/outbox.cif.g08.bks.cpg/sg31_2_cif.got.tgz:3207.got - 2010.06.03 17:08:30.
