data_PCOD9343932
_publ_section_title
;
Structure prediction by ZEFSAII (Michael W. Deem and Ramdas Pophale) SiO2 
 PCOD9343932
Probable space group: P B A 2
;
_chemical_formula_sum "Si O2"
_cell_formula_units_Z 24
_cell_length_a 9.705262
_cell_length_b 11.300813
_cell_length_c 9.961835
_cell_angle_alpha 90.000000
_cell_angle_beta 90.000000
_cell_angle_gamma 90.000000
_cell_volume 1092.587674
_symmetry_space_group_name_H-M "P B A 2"
_symmetry_group_IT_number 32
_symmetry_cell_setting 'orthorhombic'
loop_
_space_group_symop_operation_xyz
x,y,z
-x,-y,z
1/2-x,1/2+y,z
1/2+x,1/2-y,z
loop_
_atom_site_type_symbol
_atom_site_label
_atom_site_fract_x
_atom_site_fract_y
_atom_site_fract_z
Si Si1 0.402991 0.387632 0.314500
Si Si2 0.033526 0.701892 0.117323
Si Si3 0.773776 0.411831 0.798972
Si Si4 0.360403 0.424397 0.605855
Si Si5 0.211067 0.483545 0.080365
Si Si6 0.504403 0.731886 0.831923
O O1 0.500000 0.500000 0.329937
O O2 0.480183 0.273176 0.255028
O O3 0.333365 0.368694 0.459945
O O4 0.305736 0.428101 0.193722
O O5 0.166437 0.616752 0.123741
O O6 0.913521 0.609899 0.082123
O O7 0.035149 0.789887 0.989497
O O8 0.753854 0.487367 0.664451
O O9 0.653178 0.309726 0.805350
O O10 0.928790 0.362704 0.815411
O O11 0.741690 0.494745 0.927890
O O12 0.500000 0.500000 0.595046
O O13 0.402404 0.334817 0.722923
#
# Coordination Sequence:
#
# PCOD9343932 Si02
#       6
#     4   4   4   4   4   4
#     4  11  23  39  66  91 128 174 216 263 332 410
#     4  10  23  40  63  96 128 163 220 274 331 394
#     4  10  21  39  65  92 131 165 219 269 330 390
#     4   9  21  41  58  90 127 169 212 256 322 401
#     4  10  23  41  63  95 130 166 213 279 331 392
#     4  10  21  38  64  94 121 170 215 272 324 391
#
# _framework density 21.966201999999999
#
# number of rings (size 3 to 8) (size 9 to 14) (size 15 to 20)
#    0.000    2.000    0.000    2.000    9.333    2.667 
#    6.000    0.000    0.000    2.000    0.000    0.000 
#    0.000    0.000    0.000    0.000    0.000    0.000 
#
# Total GULP energy -133740.284814 kJ/mol
# GULP energy per Si atom -5572.511867 kJ/mol
# Density = 2.191621 g / cm^3
# Si number density = 21.966202 Si / 1000 Ang^3
#
#
#
# Elastic Constant Matrix: (Units=GPa)
#
#
# Indices 1 2 3 4 5 6 
#
# 1 51.4209 22.5355 30.9636 0.0000 0.0000 0.0000
# 2 22.5355 74.7215 56.1872 0.0000 0.0000 0.0000
# 3 30.9636 56.1872 155.7762 0.0000 0.0000 0.0000
# 4 0.0000 0.0000 0.0000 2.5151 0.0000 0.0000
# 5 0.0000 0.0000 0.0000 0.0000 32.0565 0.0000
# 6 0.0000 0.0000 0.0000 0.0000 0.0000 28.0309
#
#
#
# Elastic Compliance Matrix: (Units=1/GPa)
#
#
# Indices 1 2 3 4 5 6 
#
# 1 0.023314 -0.004867 -0.002879 0.000000 0.000000 0.000000
# 2 -0.004867 0.019380 -0.006023 0.000000 0.000000 0.000000
# 3 -0.002879 -0.006023 0.009164 0.000000 0.000000 0.000000
# 4 0.000000 0.000000 0.000000 0.397593 0.000000 0.000000
# 5 0.000000 0.000000 0.000000 0.000000 0.031195 0.000000
# 6 0.000000 0.000000 0.000000 0.000000 0.000000 0.035675
#
#
# Mechanical properties :
#
#
# Convention : Reuss Voigt Hill
#
# Bulk Modulus (GPa) = 41.11641 55.69900 48.40771
# Shear Modulus (GPa) = 9.05857 24.00266 16.53061
#
# Velocity S-wave (km/s) = 2.03293 3.30920 2.74624
# Velocity P-wave (km/s) = 4.92637 6.32557 5.66930
#
# Compressibility (1/GPa) = 0.02432119
#
# Stress axis : x y z
#
# Youngs Moduli (GPa) = 42.89347 51.60070 109.12246
#
# Poissons Ratio (x) = 0.25112 0.31413
# Poissons Ratio (y) = 0.20874 0.65722
# Poissons Ratio (z) = 0.12348 0.31078
#
# Static dielectric constant tensor:
#      x y z
#    x 1.763390 0.000000 0.000000 
#    y 0.000000 1.877900 0.000000 
#    z 0.000000 0.000000 1.865930 
# 
# From -- ./inp_files/2728.got.cif
#   From: 2010.05.17/outbox.cif.g08.bks.cpg/sg32_2_cif.got.tgz:2728.got - 2010.06.03 17:12:27.
