data_PCOD9343184
_publ_section_title
;
Structure prediction by ZEFSAII (Michael W. Deem and Ramdas Pophale) SiO2 
 PCOD9343184
Probable space group: P M N 21
;
_chemical_formula_sum "Si O2"
_cell_formula_units_Z 32
_cell_length_a 7.791011
_cell_length_b 15.338573
_cell_length_c 10.332559
_cell_angle_alpha 90.000000
_cell_angle_beta 90.000000
_cell_angle_gamma 90.000000
_cell_volume 1234.771705
_symmetry_space_group_name_H-M "P M N 21"
_symmetry_group_IT_number 31
_symmetry_cell_setting 'orthorhombic'
loop_
_space_group_symop_operation_xyz
x,y,z
1/2-x,-y,1/2+z
-x,y,z
1/2+x,-y,1/2+z
loop_
_atom_site_type_symbol
_atom_site_label
_atom_site_fract_x
_atom_site_fract_y
_atom_site_fract_z
Si Si1 0.204553 0.066683 0.811910
Si Si2 0.207243 0.732600 0.025879
Si Si3 0.798656 0.433950 0.165724
Si Si4 0.207291 0.547834 0.933016
Si Si5 0.797070 0.744256 0.585827
Si Si6 0.208979 0.935397 0.639874
Si Si7 0.693679 0.260821 0.810339
Si Si8 0.704424 0.930574 0.969059
O O1 0.311905 0.155256 0.817547
O O2 0.000000 0.083967 0.813408
O O3 0.234780 0.049252 0.641359
O O4 0.242143 0.955891 0.805328
O O5 0.276628 0.722372 0.172265
O O6 0.000000 0.728926 0.032215
O O7 0.268830 0.647235 0.951718
O O8 0.242837 0.829024 0.972252
O O9 0.764892 0.486475 0.295427
O O10 0.719500 0.338255 0.176652
O O11 0.000000 0.422073 0.148388
O O12 0.726113 0.487036 0.046201
O O13 0.000000 0.548937 0.938108
O O14 0.722418 0.835394 0.635152
O O15 0.721444 0.715695 0.446455
O O16 0.000000 0.758291 0.564279
O O17 0.000000 0.929046 0.638566
O O18 0.263311 0.960285 0.478281
O O19 0.500000 0.296961 0.806536
O O20 0.500000 0.933682 0.958553
#
# Coordination Sequence:
#
# PCOD9343184 Si02
#       8
#     4   4   4   4   4   4   4   4
#     4  11  21  34  53  81 122 171 218 268 320 376
#     4  10  22  40  63  92 124 165 217 265 325 397
#     4  11  26  47  73 106 134 164 220 280 330 397
#     4  10  25  49  73  98 135 176 213 267 340 408
#     4  10  21  40  65  90 127 176 217 261 333 401
#     4   9  19  35  54  79 117 165 210 250 308 380
#     4  10  20  36  61  91 122 169 222 268 321 389
#     4  11  21  37  56  83 121 164 213 265 315 372
#
# _framework density 25.915721000000001
#
# number of rings (size 3 to 8) (size 9 to 14) (size 15 to 20)
#    0.000    1.750    2.500    1.125    3.500    2.000 
#    0.000    0.625    0.000    0.000    0.000    0.000 
#    0.000    0.000    0.000    0.000    0.000    0.000 
#
# Total GULP energy -178584.685750 kJ/mol
# GULP energy per Si atom -5580.771430 kJ/mol
# Density = 2.585674 g / cm^3
# Si number density = 25.915721 Si / 1000 Ang^3
#
#
#
# Elastic Constant Matrix: (Units=GPa)
#
#
# Indices 1 2 3 4 5 6 
#
# 1 57.3307 4.2858 4.7306 0.0000 0.0000 0.0000
# 2 4.2858 112.0091 53.9597 0.0000 0.0000 0.0000
# 3 4.7306 53.9597 198.7769 0.0000 0.0000 0.0000
# 4 0.0000 0.0000 0.0000 40.8906 0.0000 0.0000
# 5 0.0000 0.0000 0.0000 0.0000 33.7098 0.0000
# 6 0.0000 0.0000 0.0000 0.0000 0.0000 -1.0562
#
#
#
# Elastic Compliance Matrix: (Units=1/GPa)
#
#
# Indices 1 2 3 4 5 6 
#
# 1 0.017505 -0.000540 -0.000270 0.000000 0.000000 0.000000
# 2 -0.000540 0.010288 -0.002780 0.000000 0.000000 0.000000
# 3 -0.000270 -0.002780 0.005792 0.000000 0.000000 0.000000
# 4 0.000000 0.000000 0.000000 0.024455 0.000000 0.000000
# 5 0.000000 0.000000 0.000000 0.000000 0.029665 0.000000
# 6 0.000000 0.000000 0.000000 0.000000 0.000000 -0.946776
#
#
# Mechanical properties :
#
#
# Convention : Reuss Voigt Hill
#
# Bulk Modulus (GPa) = 37.87083 54.89652 46.38368
# Shear Modulus (GPa) = -5.93057 35.05155 14.56049
#
# Velocity S-wave (km/s) = -1.51439 3.68165 2.37289
# Velocity P-wave (km/s) = 3.40396 6.26909 5.04423
#
# Compressibility (1/GPa) = 0.02640555
#
# Stress axis : x y z
#
# Youngs Moduli (GPa) = 57.12553 97.20378 172.65784
#
# Poissons Ratio (x) = 0.05246 0.04663
# Poissons Ratio (y) = 0.03083 0.47996
# Poissons Ratio (z) = 0.01543 0.27021
#
# Static dielectric constant tensor:
#      x y z
#    x 1.891660 0.000000 0.000000 
#    y 0.000000 1.974950 0.000000 
#    z 0.000000 0.000000 2.500230 
# 
# From -- ./inp_files/3623.got.cif
#   From: 2010.05.17/outbox.cif.g08.bks.cpg/sg31_2_cif.got.tgz:3623.got - 2010.06.03 17:08:30.
