data_PCOD9343401
_publ_section_title
;
Structure prediction by ZEFSAII (Michael W. Deem and Ramdas Pophale) SiO2 
 PCOD9343401
Probable space group: P M N 21
;
_chemical_formula_sum "Si O2"
_cell_formula_units_Z 32
_cell_length_a 13.141768
_cell_length_b 13.705353
_cell_length_c 8.270064
_cell_angle_alpha 90.000000
_cell_angle_beta 90.000000
_cell_angle_gamma 90.000000
_cell_volume 1489.542477
_symmetry_space_group_name_H-M "P M N 21"
_symmetry_group_IT_number 31
_symmetry_cell_setting 'orthorhombic'
loop_
_space_group_symop_operation_xyz
x,y,z
1/2-x,-y,1/2+z
-x,y,z
1/2+x,-y,1/2+z
loop_
_atom_site_type_symbol
_atom_site_label
_atom_site_fract_x
_atom_site_fract_y
_atom_site_fract_z
Si Si1 0.882745 0.091527 0.670270
Si Si2 0.617255 0.408473 0.212280
Si Si3 0.737472 0.486931 0.514959
Si Si4 0.618612 0.161972 0.825885
Si Si5 0.881389 0.338029 0.056667
Si Si6 0.237471 0.013068 0.367591
Si Si7 0.205052 0.292751 0.701069
Si Si8 0.794948 0.792751 0.681483
O O1 0.812020 0.038156 0.539175
O O2 0.868682 0.206616 0.640341
O O3 0.000000 0.062860 0.658689
O O4 0.833565 0.060469 0.843239
O O5 0.500000 0.437141 0.223861
O O6 0.687982 0.461842 0.343374
O O7 0.666435 0.439532 0.039312
O O8 0.631316 0.293383 0.242208
O O9 0.648850 0.550846 0.601686
O O10 0.774665 0.385443 0.590226
O O11 0.500000 0.179813 0.811041
O O12 0.687676 0.237616 0.727693
O O13 0.648850 0.050847 0.780861
O O14 0.656696 0.174876 0.010815
O O15 0.812323 0.262387 0.154859
O O16 0.000000 0.320188 0.071515
O O17 0.843306 0.325123 0.871736
O O18 0.274664 0.114558 0.292326
#
# Coordination Sequence:
#
# PCOD9343401 Si02
#       8
#     4   4   4   4   4   4   4   4
#     4  11  24  42  67  96 132 175 215 268 328 383
#     4  11  24  42  67  96 132 175 215 268 328 383
#     4  11  22  41  65  96 130 168 216 268 316 387
#     4  10  21  39  64  92 129 173 209 261 329 384
#     4  10  21  39  64  92 129 173 209 261 329 384
#     4  11  22  41  65  96 130 168 216 268 316 387
#     4  10  22  40  63  94 132 166 216 270 317 391
#     4  10  22  40  63  94 132 166 216 270 317 391
#
# _framework density 21.483107
#
# number of rings (size 3 to 8) (size 9 to 14) (size 15 to 20)
#    0.000    1.500    2.500    2.250    0.000    3.000 
#    0.000    6.250    0.000    0.000    0.000    0.000 
#    0.000    0.000    0.000    0.000    0.000    0.000 
#
# Total GULP energy -178509.452254 kJ/mol
# GULP energy per Si atom -5578.420383 kJ/mol
# Density = 2.143421 g / cm^3
# Si number density = 21.483107 Si / 1000 Ang^3
#
#
#
# Elastic Constant Matrix: (Units=GPa)
#
#
# Indices 1 2 3 4 5 6 
#
# 1 146.1752 9.1190 36.2980 0.0000 0.0000 0.0000
# 2 9.1190 108.7477 7.6339 0.0000 0.0000 0.0000
# 3 36.2980 7.6339 25.5117 0.0000 0.0000 0.0000
# 4 0.0000 0.0000 0.0000 24.2256 0.0000 0.0000
# 5 0.0000 0.0000 0.0000 0.0000 15.7486 0.0000
# 6 0.0000 0.0000 0.0000 0.0000 0.0000 19.2784
#
#
#
# Elastic Compliance Matrix: (Units=1/GPa)
#
#
# Indices 1 2 3 4 5 6 
#
# 1 0.010582 0.000173 -0.015108 0.000000 0.000000 0.000000
# 2 0.000173 0.009396 -0.003058 0.000000 0.000000 0.000000
# 3 -0.015108 -0.003058 0.061608 0.000000 0.000000 0.000000
# 4 0.000000 0.000000 0.000000 0.041279 0.000000 0.000000
# 5 0.000000 0.000000 0.000000 0.000000 0.063498 0.000000
# 6 0.000000 0.000000 0.000000 0.000000 0.000000 0.051871
#
#
# Mechanical properties :
#
#
# Convention : Reuss Voigt Hill
#
# Bulk Modulus (GPa) = 21.92948 42.94851 32.43899
# Shear Modulus (GPa) = 17.27604 27.00944 22.14274
#
# Velocity S-wave (km/s) = 2.83886 3.54961 3.21394
# Velocity P-wave (km/s) = 4.57990 6.06916 5.37635
#
# Compressibility (1/GPa) = 0.04560071
#
# Stress axis : x y z
#
# Youngs Moduli (GPa) = 94.50189 106.43126 16.23169
#
# Poissons Ratio (x) = -0.01843 0.24522
# Poissons Ratio (y) = -0.01637 0.04964
# Poissons Ratio (z) = 1.42770 0.32546
#
# Static dielectric constant tensor:
#      x y z
#    x 1.746080 0.000000 0.000000 
#    y 0.000000 1.833560 0.000000 
#    z 0.000000 0.000000 1.861780 
# 
# From -- ./inp_files/2244.got.cif
#   From: 2010.05.17/outbox.cif.g08.bks.cpg/sg31_2_cif.got.tgz:2244.got - 2010.06.03 17:08:30.
