data_PCOD9343304
_publ_section_title
;
Structure prediction by ZEFSAII (Michael W. Deem and Ramdas Pophale) SiO2 
 PCOD9343304
Probable space group: P M N 21
;
_chemical_formula_sum "Si O2"
_cell_formula_units_Z 32
_cell_length_a 7.751304
_cell_length_b 16.302914
_cell_length_c 9.634529
_cell_angle_alpha 90.000000
_cell_angle_beta 90.000000
_cell_angle_gamma 90.000000
_cell_volume 1217.504278
_symmetry_space_group_name_H-M "P M N 21"
_symmetry_group_IT_number 31
_symmetry_cell_setting 'orthorhombic'
loop_
_space_group_symop_operation_xyz
x,y,z
1/2-x,-y,1/2+z
-x,y,z
1/2+x,-y,1/2+z
loop_
_atom_site_type_symbol
_atom_site_label
_atom_site_fract_x
_atom_site_fract_y
_atom_site_fract_z
Si Si1 0.704327 0.347344 0.872640
Si Si2 0.704091 0.595726 0.961731
Si Si3 0.197133 0.507114 0.703348
Si Si4 0.298807 0.856437 0.873369
Si Si5 0.210183 0.242125 0.619013
Si Si6 0.708127 0.010288 0.695795
Si Si7 0.697838 0.253152 0.129351
Si Si8 0.703169 0.900980 0.453675
O O1 0.500000 0.365148 0.880823
O O2 0.791545 0.423541 0.795463
O O3 0.730157 0.269256 0.770659
O O4 0.766908 0.324042 0.026886
O O5 0.500000 0.596821 0.987266
O O6 0.776673 0.521937 0.057825
O O7 0.769257 0.680063 0.024804
O O8 0.728988 0.577058 0.801467
O O9 0.000000 0.529750 0.679200
O O10 0.500000 0.874091 0.893534
O O11 0.225406 0.931607 0.785817
O O12 0.288674 0.778376 0.768464
O O13 0.225101 0.833469 0.024279
O O14 0.000000 0.238202 0.622785
O O15 0.500000 0.014267 0.698783
O O16 0.758835 0.982559 0.540866
O O17 0.772880 0.085018 0.790132
O O18 0.500000 0.271161 0.165001
O O19 0.702606 0.174266 0.026045
O O20 0.500000 0.887967 0.480395
#
# Coordination Sequence:
#
# PCOD9343304 Si02
#       8
#     4   4   4   4   4   4   4   4
#     4  10  21  36  54  78 107 137 172 216 262 308
#     4   9  19  35  53  77 108 137 171 215 257 303
#     4  10  21  36  55  78 104 138 177 214 257 310
#     4   9  19  36  56  79 107 138 174 215 258 308
#     4   9  19  36  56  79 107 138 174 215 258 308
#     4   9  19  35  53  77 108 137 171 215 257 303
#     4  10  21  36  54  78 107 137 172 216 262 308
#     4  10  21  36  55  78 104 138 177 214 257 310
#
# _framework density 26.283275
#
# number of rings (size 3 to 8) (size 9 to 14) (size 15 to 20)
#    0.000    2.500    0.000    3.000    0.000    9.500 
#    0.000    5.000    0.000    0.000    0.000    0.000 
#    0.000    0.000    0.000    0.000    0.000    0.000 
#
# Total GULP energy -178894.251093 kJ/mol
# GULP energy per Si atom -5590.445347 kJ/mol
# Density = 2.622345 g / cm^3
# Si number density = 26.283275 Si / 1000 Ang^3
#
#
#
# Elastic Constant Matrix: (Units=GPa)
#
#
# Indices 1 2 3 4 5 6 
#
# 1 56.2908 -3.2833 -8.5332 0.0000 0.0000 0.0000
# 2 -3.2833 56.4648 10.7071 0.0000 0.0000 0.0000
# 3 -8.5332 10.7071 164.1989 0.0000 0.0000 0.0000
# 4 0.0000 0.0000 0.0000 57.8393 0.0000 0.0000
# 5 0.0000 0.0000 0.0000 0.0000 31.8235 0.0000
# 6 0.0000 0.0000 0.0000 0.0000 0.0000 14.3944
#
#
#
# Elastic Compliance Matrix: (Units=1/GPa)
#
#
# Indices 1 2 3 4 5 6 
#
# 1 0.017949 0.000878 0.000876 0.000000 0.000000 0.000000
# 2 0.000878 0.017975 -0.001126 0.000000 0.000000 0.000000
# 3 0.000876 -0.001126 0.006209 0.000000 0.000000 0.000000
# 4 0.000000 0.000000 0.000000 0.017289 0.000000 0.000000
# 5 0.000000 0.000000 0.000000 0.000000 0.031423 0.000000
# 6 0.000000 0.000000 0.000000 0.000000 0.000000 0.069471
#
#
# Mechanical properties :
#
#
# Convention : Reuss Voigt Hill
#
# Bulk Modulus (GPa) = 23.04884 30.52620 26.78752
# Shear Modulus (GPa) = 28.81426 39.34904 34.08165
#
# Velocity S-wave (km/s) = 3.31463 3.87345 3.60489
# Velocity P-wave (km/s) = 4.84122 5.62533 5.24794
#
# Compressibility (1/GPa) = 0.04338613
#
# Stress axis : x y z
#
# Youngs Moduli (GPa) = 55.71405 55.63348 161.05313
#
# Poissons Ratio (x) = -0.04883 -0.14101
# Poissons Ratio (y) = -0.04890 0.18142
# Poissons Ratio (z) = -0.04878 0.06267
#
# Static dielectric constant tensor:
#      x y z
#    x 1.904700 0.000000 0.000000 
#    y 0.000000 2.194540 0.000000 
#    z 0.000000 0.000000 2.047600 
# 
# From -- ./inp_files/1870.got.cif
#   From: 2010.05.17/outbox.cif.g08.bks.cpg/sg31_1_cif.got.tgz:1870.got - 2010.06.03 17:08:30.
