data_PCOD9343670
_publ_section_title
;
Structure prediction by ZEFSAII (Michael W. Deem and Ramdas Pophale) SiO2 
 PCOD9343670
Probable space group: P B A 2
;
_chemical_formula_sum "Si O2"
_cell_formula_units_Z 18
_cell_length_a 5.315179
_cell_length_b 17.483610
_cell_length_c 8.075650
_cell_angle_alpha 90.000000
_cell_angle_beta 90.000000
_cell_angle_gamma 90.000000
_cell_volume 750.458176
_symmetry_space_group_name_H-M "P B A 2"
_symmetry_group_IT_number 32
_symmetry_cell_setting 'orthorhombic'
loop_
_space_group_symop_operation_xyz
x,y,z
-x,-y,z
1/2-x,1/2+y,z
1/2+x,1/2-y,z
loop_
_atom_site_type_symbol
_atom_site_label
_atom_site_fract_x
_atom_site_fract_y
_atom_site_fract_z
Si Si1 0.375429 0.585617 0.950280
Si Si2 0.891746 0.704503 0.528532
Si Si3 0.000000 0.500000 0.148712
Si Si4 0.154537 0.873760 0.260237
Si Si5 0.976454 0.090237 0.596419
O O1 0.500000 0.500000 0.946854
O O2 0.386087 0.614684 0.764278
O O3 0.109045 0.566647 0.031810
O O4 0.528538 0.635672 0.083219
O O5 0.652596 0.757861 0.572849
O O6 0.854579 0.686820 0.331679
O O7 0.810142 0.623116 0.608546
O O8 0.209916 0.456862 0.254566
O O9 0.954371 0.878438 0.412873
O O10 0.000000 0.000000 0.589733
#
# Coordination Sequence:
#
# PCOD9343670 Si02
#       5
#     4   4   2   4   4
#     4   9  18  36  54  96 128 154 211 271 329 377
#     4  10  24  44  63  93 133 175 218 270 325 398
#     4  10  18  34  64 100 126 160 216 292 322 392
#     4   9  21  35  63  85 131 162 213 262 331 384
#     4   9  19  39  63  91 121 168 214 266 320 386
#
# _framework density 23.985347000000001
#
# number of rings (size 3 to 8) (size 9 to 14) (size 15 to 20)
#    1.333    1.333    0.000    2.000    3.111    0.000 
#   12.000    7.778    0.000    0.000    0.000    0.000 
#    0.000    0.000    0.000    0.000    0.000    0.000 
#
# Total GULP energy -100209.537658 kJ/mol
# GULP energy per Si atom -5567.196537 kJ/mol
# Density = 2.393076 g / cm^3
# Si number density = 23.985347 Si / 1000 Ang^3
#
#
#
# Elastic Constant Matrix: (Units=GPa)
#
#
# Indices 1 2 3 4 5 6 
#
# 1 82.7420 25.3494 35.9920 0.0000 0.0000 0.0000
# 2 25.3494 57.8964 28.6171 0.0000 0.0000 0.0000
# 3 35.9920 28.6171 142.9313 0.0000 0.0000 0.0000
# 4 0.0000 0.0000 0.0000 24.3302 0.0000 0.0000
# 5 0.0000 0.0000 0.0000 0.0000 11.5803 0.0000
# 6 0.0000 0.0000 0.0000 0.0000 0.0000 30.3305
#
#
#
# Elastic Compliance Matrix: (Units=1/GPa)
#
#
# Indices 1 2 3 4 5 6 
#
# 1 0.014844 -0.005163 -0.002704 0.000000 0.000000 0.000000
# 2 -0.005163 0.020965 -0.002897 0.000000 0.000000 0.000000
# 3 -0.002704 -0.002897 0.008257 0.000000 0.000000 0.000000
# 4 0.000000 0.000000 0.000000 0.041101 0.000000 0.000000
# 5 0.000000 0.000000 0.000000 0.000000 0.086354 0.000000
# 6 0.000000 0.000000 0.000000 0.000000 0.000000 0.032970
#
#
# Mechanical properties :
#
#
# Convention : Reuss Voigt Hill
#
# Bulk Modulus (GPa) = 44.37058 51.49852 47.93455
# Shear Modulus (GPa) = 21.41036 26.15561 23.78299
#
# Velocity S-wave (km/s) = 2.99096 3.30583 3.15233
# Velocity P-wave (km/s) = 5.51969 6.00739 5.76870
#
# Compressibility (1/GPa) = 0.02253745
#
# Stress axis : x y z
#
# Youngs Moduli (GPa) = 67.36868 47.69904 121.10277
#
# Poissons Ratio (x) = 0.24625 0.32749
# Poissons Ratio (y) = 0.34779 0.35089
# Poissons Ratio (z) = 0.18218 0.13821
#
# Static dielectric constant tensor:
#      x y z
#    x 1.982780 0.000000 0.000000 
#    y 0.000000 1.972370 0.000000 
#    z 0.000000 0.000000 1.932030 
# 
# From -- ./inp_files/1947.got.cif
#   From: 2010.05.17/outbox.cif.g08.bks.cpg/sg32_1_cif.got.tgz:1947.got - 2010.06.03 17:12:27.
