data_PCOD9343728
_publ_section_title
;
Structure prediction by ZEFSAII (Michael W. Deem and Ramdas Pophale) SiO2 
 PCOD9343728
Probable space group: P B A 2
;
_chemical_formula_sum "Si O2"
_cell_formula_units_Z 28
_cell_length_a 7.767263
_cell_length_b 22.239946
_cell_length_c 7.991344
_cell_angle_alpha 90.000000
_cell_angle_beta 90.000000
_cell_angle_gamma 90.000000
_cell_volume 1380.452810
_symmetry_space_group_name_H-M "P B A 2"
_symmetry_group_IT_number 32
_symmetry_cell_setting 'orthorhombic'
loop_
_space_group_symop_operation_xyz
x,y,z
-x,-y,z
1/2-x,1/2+y,z
1/2+x,1/2-y,z
loop_
_atom_site_type_symbol
_atom_site_label
_atom_site_fract_x
_atom_site_fract_y
_atom_site_fract_z
Si Si1 0.873222 0.325566 0.376630
Si Si2 0.071436 0.062840 0.932390
Si Si3 0.940134 0.694445 0.723961
Si Si4 0.810650 0.815259 0.850393
Si Si5 0.854577 0.750258 0.193298
Si Si6 0.412520 0.061878 0.159641
Si Si7 0.737415 0.132284 0.008994
O O1 0.696216 0.288865 0.357931
O O2 0.861320 0.392735 0.307836
O O3 0.984769 0.324089 0.544868
O O4 0.972557 0.284512 0.241235
O O5 0.241363 0.052518 0.046785
O O6 0.905828 0.091413 0.025700
O O7 0.128392 0.117506 0.811392
O O8 0.000000 0.000000 0.861214
O O9 0.882728 0.763516 0.731273
O O10 0.105965 0.688307 0.842733
O O11 0.792888 0.655859 0.817747
O O12 0.864186 0.795765 0.037360
O O13 0.749773 0.691959 0.123231
O O14 0.567564 0.094823 0.059306
O O15 0.500000 0.000000 0.217210
#
# Coordination Sequence:
#
# PCOD9343728 Si02
#       7
#     4   4   4   4   4   4   4
#     4  11  22  37  62  93 128 172 203 267 340 382
#     4  12  22  36  67  94 118 166 220 274 308 368
#     4  11  22  38  62  93 135 167 203 273 342 384
#     4  11  20  38  60  94 127 164 214 267 314 387
#     4  10  19  35  60  90 120 159 217 266 317 379
#     4  11  22  42  62  93 125 168 225 270 313 380
#     4  10  21  38  63  93 123 162 220 273 318 377
#
# _framework density 20.283200999999998
#
# number of rings (size 3 to 8) (size 9 to 14) (size 15 to 20)
#    0.000    1.143    4.286    5.143    0.000    0.000 
#    0.000    2.143    0.000    0.857    0.000    0.000 
#    0.000    0.000    0.000    0.000    0.000    0.000 
#
# Total GULP energy -156027.020572 kJ/mol
# GULP energy per Si atom -5572.393592 kJ/mol
# Density = 2.023704 g / cm^3
# Si number density = 20.283201 Si / 1000 Ang^3
#
#
#
# Elastic Constant Matrix: (Units=GPa)
#
#
# Indices 1 2 3 4 5 6 
#
# 1 83.1619 24.9752 -2.4735 0.0000 0.0000 0.0000
# 2 24.9752 145.5487 12.2605 0.0000 0.0000 0.0000
# 3 -2.4735 12.2605 67.3870 0.0000 0.0000 0.0000
# 4 0.0000 0.0000 0.0000 14.6446 0.0000 0.0000
# 5 0.0000 0.0000 0.0000 0.0000 16.7578 0.0000
# 6 0.0000 0.0000 0.0000 0.0000 0.0000 35.0352
#
#
#
# Elastic Compliance Matrix: (Units=1/GPa)
#
#
# Indices 1 2 3 4 5 6 
#
# 1 0.012729 -0.002258 0.000878 0.000000 0.000000 0.000000
# 2 -0.002258 0.007378 -0.001425 0.000000 0.000000 0.000000
# 3 0.000878 -0.001425 0.015131 0.000000 0.000000 0.000000
# 4 0.000000 0.000000 0.000000 0.068285 0.000000 0.000000
# 5 0.000000 0.000000 0.000000 0.000000 0.059674 0.000000
# 6 0.000000 0.000000 0.000000 0.000000 0.000000 0.028543
#
#
# Mechanical properties :
#
#
# Convention : Reuss Voigt Hill
#
# Bulk Modulus (GPa) = 33.75230 40.62466 37.18848
# Shear Modulus (GPa) = 24.12826 30.70989 27.41908
#
# Velocity S-wave (km/s) = 3.45275 3.89531 3.68069
# Velocity P-wave (km/s) = 5.70719 6.34850 6.03637
#
# Compressibility (1/GPa) = 0.02962761
#
# Stress axis : x y z
#
# Youngs Moduli (GPa) = 78.56057 135.53623 66.08863
#
# Poissons Ratio (x) = 0.30607 -0.05803
# Poissons Ratio (y) = 0.17740 0.09419
# Poissons Ratio (z) = -0.06898 0.19318
#
# Static dielectric constant tensor:
#      x y z
#    x 1.855900 0.000000 0.000000 
#    y 0.000000 1.769610 0.000000 
#    z 0.000000 0.000000 1.736320 
# 
# From -- ./inp_files/2515.got.cif
#   From: 2010.05.17/outbox.cif.g08.bks.cpg/sg32_2_cif.got.tgz:2515.got - 2010.06.03 17:12:27.
