data_PCOD9343318
_publ_section_title
;
Structure prediction by ZEFSAII (Michael W. Deem and Ramdas Pophale) SiO2 
 PCOD9343318
Probable space group: P M N 21
;
_chemical_formula_sum "Si O2"
_cell_formula_units_Z 24
_cell_length_a 19.277305
_cell_length_b 10.267365
_cell_length_c 5.267391
_cell_angle_alpha 90.000000
_cell_angle_beta 90.000000
_cell_angle_gamma 90.000000
_cell_volume 1042.559566
_symmetry_space_group_name_H-M "P M N 21"
_symmetry_group_IT_number 31
_symmetry_cell_setting 'orthorhombic'
loop_
_space_group_symop_operation_xyz
x,y,z
1/2-x,-y,1/2+z
-x,y,z
1/2+x,-y,1/2+z
loop_
_atom_site_type_symbol
_atom_site_label
_atom_site_fract_x
_atom_site_fract_y
_atom_site_fract_z
Si Si1 0.828605 0.711931 0.823370
Si Si2 0.194352 0.883122 0.321060
Si Si3 0.315333 0.619904 0.812217
Si Si4 0.925055 0.282741 0.916596
Si Si5 0.658411 0.883609 0.111673
Si Si6 0.075017 0.534609 0.564690
O O1 0.810526 0.799041 0.577637
O O2 0.767308 0.602133 0.817162
O O3 0.900965 0.643073 0.762916
O O4 0.828500 0.798625 0.077351
O O5 0.274244 0.924486 0.273550
O O6 0.151279 0.013130 0.386300
O O7 0.357076 0.679143 0.575120
O O8 0.321964 0.741472 0.005234
O O9 0.360592 0.492963 0.877884
O O10 0.908450 0.146307 0.780115
O O11 0.931047 0.398616 0.713229
O O12 0.000000 0.278992 0.055606
O O13 0.000000 0.563443 0.446625
#
# Coordination Sequence:
#
# PCOD9343318 Si02
#       6
#     4   4   4   4   4   4
#     4  11  25  40  65 102 133 176 227 275 334 412
#     4  11  23  40  67  98 133 171 218 277 337 401
#     4  10  21  36  66  95 125 167 226 284 332 389
#     4  10  21  39  63  94 127 171 222 283 346 393
#     4  10  21  39  63  95 128 166 217 277 336 395
#     4  10  24  42  62  90 135 181 222 276 344 406
#
# _framework density 23.02027
#
# number of rings (size 3 to 8) (size 9 to 14) (size 15 to 20)
#    0.000    1.667    1.667    2.500    7.000    0.667 
#    0.000    1.667    0.000    0.000    0.000    0.000 
#    0.000    0.000    0.000    0.000    0.000    0.000 
#
# Total GULP energy -133926.326633 kJ/mol
# GULP energy per Si atom -5580.263610 kJ/mol
# Density = 2.296788 g / cm^3
# Si number density = 23.020270 Si / 1000 Ang^3
#
#
#
# Elastic Constant Matrix: (Units=GPa)
#
#
# Indices 1 2 3 4 5 6 
#
# 1 77.2464 30.0870 11.1680 0.0000 0.0000 0.0000
# 2 30.0870 77.4002 29.5646 0.0000 0.0000 0.0000
# 3 11.1680 29.5646 94.3512 0.0000 0.0000 0.0000
# 4 0.0000 0.0000 0.0000 43.6644 0.0000 0.0000
# 5 0.0000 0.0000 0.0000 0.0000 13.0126 0.0000
# 6 0.0000 0.0000 0.0000 0.0000 0.0000 -34.6340
#
#
#
# Elastic Compliance Matrix: (Units=1/GPa)
#
#
# Indices 1 2 3 4 5 6 
#
# 1 0.015256 -0.005953 0.000060 0.000000 0.000000 0.000000
# 2 -0.005953 0.016999 -0.004622 0.000000 0.000000 0.000000
# 3 0.000060 -0.004622 0.012040 0.000000 0.000000 0.000000
# 4 0.000000 0.000000 0.000000 0.022902 0.000000 0.000000
# 5 0.000000 0.000000 0.000000 0.000000 0.076849 0.000000
# 6 0.000000 0.000000 0.000000 0.000000 0.000000 -0.028873
#
#
# Mechanical properties :
#
#
# Convention : Reuss Voigt Hill
#
# Bulk Modulus (GPa) = 42.98467 43.40413 43.19440
# Shear Modulus (GPa) = 34.73240 16.28716 25.50978
#
# Velocity S-wave (km/s) = 3.88851 2.66280 3.33249
# Velocity P-wave (km/s) = 6.23488 5.32444 5.79756
#
# Compressibility (1/GPa) = 0.02326411
#
# Stress axis : x y z
#
# Youngs Moduli (GPa) = 65.54971 58.82573 83.05680
#
# Poissons Ratio (x) = 0.35018 -0.00495
# Poissons Ratio (y) = 0.39021 0.38389
# Poissons Ratio (z) = -0.00390 0.27190
#
# Static dielectric constant tensor:
#      x y z
#    x 1.954740 0.000000 0.000000 
#    y 0.000000 1.872720 0.000000 
#    z 0.000000 0.000000 1.963210 
# 
# From -- ./inp_files/801.got.cif
#   From: 2010.05.17/outbox.cif.g08.bks.cpg/sg31_1_cif.got.tgz:801.got - 2010.06.03 17:08:30.
