data_PCOD9343696
_publ_section_title
;
Structure prediction by ZEFSAII (Michael W. Deem and Ramdas Pophale) SiO2 
 PCOD9343696
Probable space group: P B A 2
;
_chemical_formula_sum "Si O2"
_cell_formula_units_Z 32
_cell_length_a 8.641037
_cell_length_b 30.955407
_cell_length_c 5.247787
_cell_angle_alpha 90.000000
_cell_angle_beta 90.000000
_cell_angle_gamma 90.000000
_cell_volume 1403.713842
_symmetry_space_group_name_H-M "P B A 2"
_symmetry_group_IT_number 32
_symmetry_cell_setting 'orthorhombic'
loop_
_space_group_symop_operation_xyz
x,y,z
-x,-y,z
1/2-x,1/2+y,z
1/2+x,1/2-y,z
loop_
_atom_site_type_symbol
_atom_site_label
_atom_site_fract_x
_atom_site_fract_y
_atom_site_fract_z
Si Si1 0.785050 0.094581 0.305820
Si Si2 0.614137 0.642783 0.811573
Si Si3 0.460153 0.120590 0.507179
Si Si4 0.862284 0.464351 0.802353
Si Si5 0.190021 0.502447 0.306289
Si Si6 0.853760 0.789064 0.728959
Si Si7 0.171714 0.689848 0.242248
Si Si8 0.579017 0.196006 0.873003
O O1 0.845276 0.109751 0.582760
O O2 0.605375 0.109902 0.326361
O O3 0.765306 0.043739 0.255301
O O4 0.879761 0.117076 0.078763
O O5 0.465851 0.669696 0.724119
O O6 0.745429 0.679538 0.857852
O O7 0.426398 0.079864 0.686516
O O8 0.326170 0.139479 0.326708
O O9 0.495602 0.159721 0.701035
O O10 0.752952 0.481841 0.579718
O O11 0.000000 0.500000 0.834087
O O12 0.784865 0.464250 0.077384
O O13 0.000000 0.500000 0.334973
O O14 0.748977 0.786199 0.478019
O O15 0.938130 0.743495 0.759783
O O16 0.759431 0.796625 0.988349
O O17 0.993970 0.697517 0.156091
#
# Coordination Sequence:
#
# PCOD9343696 Si02
#       8
#     4   4   4   4   4   4   4   4
#     4  11  21  39  63  98 137 163 224 270 349 390
#     4  11  25  41  67  95 135 183 220 290 330 413
#     4  11  23  40  65 103 136 172 220 288 345 401
#     4  10  20  31  57  92 141 158 202 271 359 393
#     4  10  19  31  55  93 137 161 195 277 346 398
#     4  12  28  47  65  98 139 189 233 271 353 406
#     4  12  26  45  70  96 137 182 230 286 334 420
#     4  11  26  44  71  97 136 176 235 293 336 400
#
# _framework density 22.796669000000001
#
# number of rings (size 3 to 8) (size 9 to 14) (size 15 to 20)
#    0.000    1.000    5.000    2.250    8.750    2.000 
#    0.000    0.000    0.000    0.000    0.000   13.125 
#    0.000    0.000    0.000    0.000    0.000    0.000 
#
# Total GULP energy -178626.247336 kJ/mol
# GULP energy per Si atom -5582.070229 kJ/mol
# Density = 2.274478 g / cm^3
# Si number density = 22.796669 Si / 1000 Ang^3
#
#
#
# Elastic Constant Matrix: (Units=GPa)
#
#
# Indices 1 2 3 4 5 6 
#
# 1 19.1736 2.3856 28.3096 0.0000 0.0000 0.0000
# 2 2.3856 94.7593 18.4793 0.0000 0.0000 0.0000
# 3 28.3096 18.4793 153.6087 0.0000 0.0000 0.0000
# 4 0.0000 0.0000 0.0000 44.8742 0.0000 0.0000
# 5 0.0000 0.0000 0.0000 0.0000 24.8968 0.0000
# 6 0.0000 0.0000 0.0000 0.0000 0.0000 10.3735
#
#
#
# Elastic Compliance Matrix: (Units=1/GPa)
#
#
# Indices 1 2 3 4 5 6 
#
# 1 0.071710 0.000791 -0.013311 0.000000 0.000000 0.000000
# 2 0.000791 0.010815 -0.001447 0.000000 0.000000 0.000000
# 3 -0.013311 -0.001447 0.009137 0.000000 0.000000 0.000000
# 4 0.000000 0.000000 0.000000 0.022285 0.000000 0.000000
# 5 0.000000 0.000000 0.000000 0.000000 0.040166 0.000000
# 6 0.000000 0.000000 0.000000 0.000000 0.000000 0.096400
#
#
# Mechanical properties :
#
#
# Convention : Reuss Voigt Hill
#
# Bulk Modulus (GPa) = 15.69165 40.65452 28.17309
# Shear Modulus (GPa) = 16.68389 30.58670 23.63529
#
# Velocity S-wave (km/s) = 2.70822 3.66692 3.22341
# Velocity P-wave (km/s) = 4.08381 5.98337 5.12241
#
# Compressibility (1/GPa) = 0.06372816
#
# Stress axis : x y z
#
# Youngs Moduli (GPa) = 13.94499 92.46168 109.44154
#
# Poissons Ratio (x) = -0.07309 1.45679
# Poissons Ratio (y) = -0.01102 0.15834
# Poissons Ratio (z) = 0.18562 0.13377
#
# Static dielectric constant tensor:
#      x y z
#    x 1.834500 0.000000 0.000000 
#    y 0.000000 1.796130 0.000000 
#    z 0.000000 0.000000 1.882520 
# 
# From -- ./inp_files/641.got.cif
#   From: 2010.05.17/outbox.cif.g08.bks.cpg/sg32_1_cif.got.tgz:641.got - 2010.06.03 17:12:27.
