data_PCOD9343713
_publ_section_title
;
Structure prediction by ZEFSAII (Michael W. Deem and Ramdas Pophale) SiO2 
 PCOD9343713
Probable space group: P B A 2
;
_chemical_formula_sum "Si O2"
_cell_formula_units_Z 28
_cell_length_a 8.355058
_cell_length_b 20.240207
_cell_length_c 8.209506
_cell_angle_alpha 90.000000
_cell_angle_beta 90.000000
_cell_angle_gamma 90.000000
_cell_volume 1388.293990
_symmetry_space_group_name_H-M "P B A 2"
_symmetry_group_IT_number 32
_symmetry_cell_setting 'orthorhombic'
loop_
_space_group_symop_operation_xyz
x,y,z
-x,-y,z
1/2-x,1/2+y,z
1/2+x,1/2-y,z
loop_
_atom_site_type_symbol
_atom_site_label
_atom_site_fract_x
_atom_site_fract_y
_atom_site_fract_z
Si Si1 0.137946 0.544998 0.952970
Si Si2 0.309816 0.328361 0.368220
Si Si3 0.094637 0.221870 0.184632
Si Si4 0.845186 0.040356 0.184208
Si Si5 0.324499 0.294251 0.738528
Si Si6 0.939096 0.884434 0.925561
Si Si7 0.991314 0.313063 0.915289
O O1 0.303279 0.565636 0.862968
O O2 0.000000 0.500000 0.874402
O O3 0.047624 0.614057 0.972071
O O4 0.207754 0.507738 0.113200
O O5 0.209680 0.275714 0.262962
O O6 0.494629 0.312982 0.326424
O O7 0.282219 0.403009 0.305378
O O8 0.279722 0.312710 0.555690
O O9 0.145379 0.163526 0.060473
O O10 0.978638 0.263777 0.066778
O O11 0.000000 0.000000 0.251521
O O12 0.923696 0.077771 0.027639
O O13 0.474061 0.339589 0.793358
O O14 0.172950 0.309006 0.852058
O O15 0.379934 0.218954 0.774405
#
# Coordination Sequence:
#
# PCOD9343713 Si02
#       7
#     4   4   4   4   4   4   4
#     4  11  20  33  59  86 111 150 204 252 286 351
#     4  11  21  36  59  89 122 154 196 256 321 367
#     4  10  19  34  58  84 111 153 204 253 296 355
#     4   9  20  38  58  82 114 159 206 245 293 368
#     4  11  22  37  59  89 124 156 195 263 327 364
#     4   9  19  37  58  82 114 156 205 248 299 362
#     4  11  21  37  59  88 118 156 206 249 300 365
#
# _framework density 20.168638000000001
#
# number of rings (size 3 to 8) (size 9 to 14) (size 15 to 20)
#    0.000    1.714    0.000    7.714    0.000    0.000 
#    0.000    3.571    0.000   14.571    0.000    0.000 
#    0.000    0.000    0.000    0.000    0.000    0.000 
#
# Total GULP energy -156086.289953 kJ/mol
# GULP energy per Si atom -5574.510355 kJ/mol
# Density = 2.012273 g / cm^3
# Si number density = 20.168638 Si / 1000 Ang^3
#
#
#
# Elastic Constant Matrix: (Units=GPa)
#
#
# Indices 1 2 3 4 5 6 
#
# 1 83.8475 40.6192 21.1250 0.0000 0.0000 0.0000
# 2 40.6192 131.8859 29.9853 0.0000 0.0000 0.0000
# 3 21.1250 29.9853 69.9482 0.0000 0.0000 0.0000
# 4 0.0000 0.0000 0.0000 22.4422 0.0000 0.0000
# 5 0.0000 0.0000 0.0000 0.0000 15.8944 0.0000
# 6 0.0000 0.0000 0.0000 0.0000 0.0000 53.2683
#
#
#
# Elastic Compliance Matrix: (Units=1/GPa)
#
#
# Indices 1 2 3 4 5 6 
#
# 1 0.014472 -0.003838 -0.002726 0.000000 0.000000 0.000000
# 2 -0.003838 0.009419 -0.002879 0.000000 0.000000 0.000000
# 3 -0.002726 -0.002879 0.016353 0.000000 0.000000 0.000000
# 4 0.000000 0.000000 0.000000 0.044559 0.000000 0.000000
# 5 0.000000 0.000000 0.000000 0.000000 0.062915 0.000000
# 6 0.000000 0.000000 0.000000 0.000000 0.000000 0.018773
#
#
# Mechanical properties :
#
#
# Convention : Reuss Voigt Hill
#
# Bulk Modulus (GPa) = 46.81494 52.12675 49.47085
# Shear Modulus (GPa) = 25.97465 31.25111 28.61288
#
# Velocity S-wave (km/s) = 3.59259 3.94063 3.77063
# Velocity P-wave (km/s) = 6.36169 6.82688 6.59838
#
# Compressibility (1/GPa) = 0.02136070
#
# Stress axis : x y z
#
# Youngs Moduli (GPa) = 69.09796 106.17164 61.14903
#
# Poissons Ratio (x) = 0.40744 0.16667
# Poissons Ratio (y) = 0.26517 0.17603
# Poissons Ratio (z) = 0.18834 0.30563
#
# Static dielectric constant tensor:
#      x y z
#    x 1.786710 0.000000 0.000000 
#    y 0.000000 1.777590 0.000000 
#    z 0.000000 0.000000 1.673660 
# 
# From -- ./inp_files/2508.got.cif
#   From: 2010.05.17/outbox.cif.g08.bks.cpg/sg32_2_cif.got.tgz:2508.got - 2010.06.03 17:12:27.
