data_PCOD9343042
_publ_section_title
;
Structure prediction by ZEFSAII (Michael W. Deem and Ramdas Pophale) SiO2 
 PCOD9343042
Probable space group: P M N 21
;
_chemical_formula_sum "Si O2"
_cell_formula_units_Z 32
_cell_length_a 8.995805
_cell_length_b 21.802591
_cell_length_c 7.006855
_cell_angle_alpha 90.000000
_cell_angle_beta 90.000000
_cell_angle_gamma 90.000000
_cell_volume 1374.267484
_symmetry_space_group_name_H-M "P M N 21"
_symmetry_group_IT_number 31
_symmetry_cell_setting 'orthorhombic'
loop_
_space_group_symop_operation_xyz
x,y,z
1/2-x,-y,1/2+z
-x,y,z
1/2+x,-y,1/2+z
loop_
_atom_site_type_symbol
_atom_site_label
_atom_site_fract_x
_atom_site_fract_y
_atom_site_fract_z
Si Si1 0.681234 0.445968 0.205090
Si Si2 0.829814 0.159399 0.420402
Si Si3 0.823152 0.679824 0.569892
Si Si4 0.834252 0.919380 0.372162
Si Si5 0.818494 0.292927 0.484505
Si Si6 0.169565 0.199036 0.968722
Si Si7 0.175808 0.417754 0.602787
Si Si8 0.164613 0.957086 0.813677
O O1 0.500000 0.443911 0.238000
O O2 0.711927 0.393426 0.044237
O O3 0.780108 0.425587 0.382148
O O4 0.728652 0.516547 0.179133
O O5 0.784906 0.222034 0.527067
O O6 0.828111 0.179252 0.194568
O O7 0.731987 0.098516 0.436903
O O8 0.000000 0.143649 0.467330
O O9 0.766482 0.693425 0.786257
O O10 0.752073 0.736119 0.456237
O O11 0.000000 0.685476 0.558445
O O12 0.737019 0.858421 0.356581
O O13 0.000000 0.909369 0.298931
O O14 0.764156 0.982598 0.301534
O O15 0.844717 0.931064 0.600209
O O16 0.774193 0.347158 0.631655
O O17 0.000000 0.296192 0.455830
O O18 0.000000 0.208899 0.913048
O O19 0.000000 0.417870 0.637667
O O20 0.000000 0.974604 0.879876
#
# Coordination Sequence:
#
# PCOD9343042 Si02
#       8
#     4   4   4   4   4   4   4   4
#     4   9  18  30  45  68  95 122 155 193 232 277
#     4   8  14  25  42  64  88 115 148 188 231 270
#     4   9  15  24  40  63  90 117 148 189 233 273
#     4  10  20  33  50  72  97 125 155 189 231 275
#     4   8  14  25  42  63  86 115 151 190 232 272
#     4   9  16  27  44  66  91 118 152 192 230 270
#     4   9  17  30  47  67  93 123 154 190 232 277
#     4  10  20  32  48  71  96 123 155 189 227 274
#
# _framework density 23.285132999999998
#
# number of rings (size 3 to 8) (size 9 to 14) (size 15 to 20)
#    0.000    3.000    0.000    2.250    0.000    5.500 
#    0.000    0.000    0.000    1.500    0.000    5.250 
#    0.000    0.000    0.000    0.000    0.000    0.000 
#
# Total GULP energy -178457.249015 kJ/mol
# GULP energy per Si atom -5576.789032 kJ/mol
# Density = 2.323213 g / cm^3
# Si number density = 23.285133 Si / 1000 Ang^3
#
#
#
# Elastic Constant Matrix: (Units=GPa)
#
#
# Indices 1 2 3 4 5 6 
#
# 1 63.4286 65.9101 -5.3887 0.0000 0.0000 0.0000
# 2 65.9101 207.5123 21.8140 0.0000 0.0000 0.0000
# 3 -5.3887 21.8140 33.6476 0.0000 0.0000 0.0000
# 4 0.0000 0.0000 0.0000 38.5820 0.0000 0.0000
# 5 0.0000 0.0000 0.0000 0.0000 7.9510 0.0000
# 6 0.0000 0.0000 0.0000 0.0000 0.0000 31.0828
#
#
#
# Elastic Compliance Matrix: (Units=1/GPa)
#
#
# Indices 1 2 3 4 5 6 
#
# 1 0.026557 -0.009532 0.010432 0.000000 0.000000 0.000000
# 2 -0.009532 0.008592 -0.007097 0.000000 0.000000 0.000000
# 3 0.010432 -0.007097 0.035992 0.000000 0.000000 0.000000
# 4 0.000000 0.000000 0.000000 0.025919 0.000000 0.000000
# 5 0.000000 0.000000 0.000000 0.000000 0.125770 0.000000
# 6 0.000000 0.000000 0.000000 0.000000 0.000000 0.032172
#
#
# Mechanical properties :
#
#
# Convention : Reuss Voigt Hill
#
# Bulk Modulus (GPa) = 17.02175 52.13993 34.58084
# Shear Modulus (GPa) = 17.42301 30.34003 23.88152
#
# Velocity S-wave (km/s) = 2.73838 3.61360 3.20599
# Velocity P-wave (km/s) = 4.16224 6.31279 5.34676
#
# Compressibility (1/GPa) = 0.05874837
#
# Stress axis : x y z
#
# Youngs Moduli (GPa) = 37.65548 116.38093 27.78418
#
# Poissons Ratio (x) = 1.10929 -0.28986
# Poissons Ratio (y) = 0.35892 0.19719
# Poissons Ratio (z) = -0.39284 0.82596
#
# Static dielectric constant tensor:
#      x y z
#    x 1.810050 0.000000 0.000000 
#    y 0.000000 1.940760 0.000000 
#    z 0.000000 0.000000 1.975200 
# 
# From -- ./inp_files/3770.got.cif
#   From: 2010.05.17/outbox.cif.g08.bks.cpg/sg31_2_cif.got.tgz:3770.got - 2010.06.03 17:08:30.
