data_PCOD9343153
_publ_section_title
;
Structure prediction by ZEFSAII (Michael W. Deem and Ramdas Pophale) SiO2 
 PCOD9343153
Probable space group: P M N 21
;
_chemical_formula_sum "Si O2"
_cell_formula_units_Z 32
_cell_length_a 8.300262
_cell_length_b 16.360751
_cell_length_c 11.364857
_cell_angle_alpha 90.000000
_cell_angle_beta 90.000000
_cell_angle_gamma 90.000000
_cell_volume 1543.330759
_symmetry_space_group_name_H-M "P M N 21"
_symmetry_group_IT_number 31
_symmetry_cell_setting 'orthorhombic'
loop_
_space_group_symop_operation_xyz
x,y,z
1/2-x,-y,1/2+z
-x,y,z
1/2+x,-y,1/2+z
loop_
_atom_site_type_symbol
_atom_site_label
_atom_site_fract_x
_atom_site_fract_y
_atom_site_fract_z
Si Si1 0.805283 0.440854 0.178690
Si Si2 0.811847 0.286139 0.835860
Si Si3 0.691841 0.854015 0.179053
Si Si4 0.309990 0.746374 0.719398
Si Si5 0.312322 0.156385 0.014402
Si Si6 0.812826 0.843621 0.919641
Si Si7 0.804638 0.463180 0.912287
Si Si8 0.689239 0.011602 0.858617
O O1 0.759900 0.344721 0.182583
O O2 0.744860 0.480657 0.301135
O O3 0.000000 0.445083 0.181273
O O4 0.752846 0.477127 0.049955
O O5 0.747335 0.234503 0.725796
O O6 0.791148 0.220880 0.940014
O O7 0.742886 0.372651 0.875120
O O8 0.000000 0.301550 0.813826
O O9 0.500000 0.859192 0.200832
O O10 0.774995 0.925514 0.253430
O O11 0.729314 0.859928 0.043472
O O12 0.500000 0.754260 0.697266
O O13 0.216274 0.814878 0.645666
O O14 0.271535 0.768781 0.853132
O O15 0.500000 0.166344 0.982288
O O16 0.268609 0.064949 0.975393
O O17 0.000000 0.826033 0.934536
O O18 0.788355 0.929071 0.851540
O O19 0.000000 0.463427 0.916850
O O20 0.500000 0.991033 0.861122
#
# Coordination Sequence:
#
# PCOD9343153 Si02
#       8
#     4   4   4   4   4   4   4   4
#     4  10  23  42  64  93 128 167 214 264 325 393
#     4   9  18  37  63  87 116 157 199 244 304 368
#     4  10  21  39  62  88 120 158 204 253 310 373
#     4  11  23  42  64  85 121 164 207 256 314 375
#     4  10  20  35  61  92 119 148 198 251 296 359
#     4  12  26  41  59  87 124 162 207 257 313 374
#     4  10  21  40  64  94 129 165 211 265 318 388
#     4  10  22  40  61  88 121 159 202 252 308 366
#
# _framework density 20.734376000000001
#
# number of rings (size 3 to 8) (size 9 to 14) (size 15 to 20)
#    0.000    1.750    1.250    2.625    1.750    5.000 
#    0.000    3.750    0.000    0.000    0.000    0.000 
#    0.000    0.000    0.000    0.000    0.000    0.000 
#
# Total GULP energy -178525.352990 kJ/mol
# GULP energy per Si atom -5578.917281 kJ/mol
# Density = 2.068718 g / cm^3
# Si number density = 20.734376 Si / 1000 Ang^3
#
#
#
# Elastic Constant Matrix: (Units=GPa)
#
#
# Indices 1 2 3 4 5 6 
#
# 1 27.5518 9.7253 5.4424 0.0000 0.0000 0.0000
# 2 9.7253 62.0702 44.8831 0.0000 0.0000 0.0000
# 3 5.4424 44.8831 120.1248 0.0000 0.0000 0.0000
# 4 0.0000 0.0000 0.0000 25.0282 0.0000 0.0000
# 5 0.0000 0.0000 0.0000 0.0000 29.5166 0.0000
# 6 0.0000 0.0000 0.0000 0.0000 0.0000 20.5156
#
#
#
# Elastic Compliance Matrix: (Units=1/GPa)
#
#
# Indices 1 2 3 4 5 6 
#
# 1 0.038463 -0.006531 0.000698 0.000000 0.000000 0.000000
# 2 -0.006531 0.023184 -0.008366 0.000000 0.000000 0.000000
# 3 0.000698 -0.008366 0.011419 0.000000 0.000000 0.000000
# 4 0.000000 0.000000 0.000000 0.039955 0.000000 0.000000
# 5 0.000000 0.000000 0.000000 0.000000 0.033879 0.000000
# 6 0.000000 0.000000 0.000000 0.000000 0.000000 0.048743
#
#
# Mechanical properties :
#
#
# Convention : Reuss Voigt Hill
#
# Bulk Modulus (GPa) = 22.38830 36.64983 29.51907
# Shear Modulus (GPa) = 20.92651 24.99181 22.95916
#
# Velocity S-wave (km/s) = 3.18034 3.47556 3.33122
# Velocity P-wave (km/s) = 4.93023 5.81552 5.39108
#
# Compressibility (1/GPa) = 0.04466619
#
# Stress axis : x y z
#
# Youngs Moduli (GPa) = 25.99922 43.13353 87.57272
#
# Poissons Ratio (x) = 0.28170 -0.06108
# Poissons Ratio (y) = 0.16980 0.73267
# Poissons Ratio (z) = -0.01814 0.36087
#
# Static dielectric constant tensor:
#      x y z
#    x 1.716930 0.000000 0.000000 
#    y 0.000000 1.733010 0.000000 
#    z 0.000000 0.000000 1.818660 
# 
# From -- ./inp_files/3721.got.cif
#   From: 2010.05.17/outbox.cif.g08.bks.cpg/sg31_2_cif.got.tgz:3721.got - 2010.06.03 17:08:30.
