data_PCOD9343646
_publ_section_title
;
Structure prediction by ZEFSAII (Michael W. Deem and Ramdas Pophale) SiO2 
 PCOD9343646
Probable space group: P B A 2
;
_chemical_formula_sum "Si O2"
_cell_formula_units_Z 28
_cell_length_a 9.881011
_cell_length_b 13.519938
_cell_length_c 8.545710
_cell_angle_alpha 90.000000
_cell_angle_beta 90.000000
_cell_angle_gamma 90.000000
_cell_volume 1141.627006
_symmetry_space_group_name_H-M "P B A 2"
_symmetry_group_IT_number 32
_symmetry_cell_setting 'orthorhombic'
loop_
_space_group_symop_operation_xyz
x,y,z
-x,-y,z
1/2-x,1/2+y,z
1/2+x,1/2-y,z
loop_
_atom_site_type_symbol
_atom_site_label
_atom_site_fract_x
_atom_site_fract_y
_atom_site_fract_z
Si Si1 0.470626 0.731391 0.703820
Si Si2 0.724744 0.559612 0.283158
Si Si3 0.524683 0.335301 0.372652
Si Si4 0.142316 0.448866 0.612536
Si Si5 0.657289 0.032978 0.958577
Si Si6 0.260702 0.243660 0.902906
Si Si7 0.204381 0.718678 0.247969
O O1 0.487658 0.659638 0.558046
O O2 0.395437 0.832109 0.641774
O O3 0.615058 0.752081 0.782455
O O4 0.367998 0.688155 0.831855
O O5 0.566521 0.585950 0.282718
O O6 0.769035 0.533086 0.459046
O O7 0.776555 0.506550 0.126419
O O8 0.776083 0.673996 0.269888
O O9 0.679401 0.346998 0.323772
O O10 0.440037 0.234123 0.329989
O O11 0.000000 0.500000 0.580670
O O12 0.195507 0.494692 0.777796
O O13 0.500000 0.000000 0.968618
O O14 0.697352 0.149237 0.945318
O O15 0.315453 0.201357 0.064973
#
# Coordination Sequence:
#
# PCOD9343646 Si02
#       7
#     4   4   4   4   4   4   4
#     4  11  19  33  51  82 115 141 186 239 291 342
#     4   9  18  31  51  75 111 136 182 227 287 327
#     4  10  17  30  48  73 110 138 172 228 290 334
#     4  10  19  33  53  78 113 145 190 231 284 334
#     4   9  18  32  50  77 109 143 185 227 274 342
#     4  10  20  31  52  78 114 144 181 238 295 333
#     4   9  18  30  46  75 109 139 173 220 291 337
#
# _framework density 24.526399000000001
#
# number of rings (size 3 to 8) (size 9 to 14) (size 15 to 20)
#    0.857    1.429    1.429    3.857    0.000    0.000 
#    0.000    0.000    0.000    0.000    0.000   36.000 
#    0.000    0.000    0.000    0.000    0.000    0.000 
#
# Total GULP energy -155987.673501 kJ/mol
# GULP energy per Si atom -5570.988339 kJ/mol
# Density = 2.447058 g / cm^3
# Si number density = 24.526399 Si / 1000 Ang^3
#
#
#
# Elastic Constant Matrix: (Units=GPa)
#
#
# Indices 1 2 3 4 5 6 
#
# 1 100.9281 34.6951 39.3503 0.0000 0.0000 0.0000
# 2 34.6951 62.4881 25.3149 0.0000 0.0000 0.0000
# 3 39.3503 25.3149 160.7198 0.0000 0.0000 0.0000
# 4 0.0000 0.0000 0.0000 10.3106 0.0000 0.0000
# 5 0.0000 0.0000 0.0000 0.0000 -151.0702 0.0000
# 6 0.0000 0.0000 0.0000 0.0000 0.0000 34.9421
#
#
#
# Elastic Compliance Matrix: (Units=1/GPa)
#
#
# Indices 1 2 3 4 5 6 
#
# 1 0.012918 -0.006293 -0.002172 0.000000 0.000000 0.000000
# 2 -0.006293 0.020159 -0.001635 0.000000 0.000000 0.000000
# 3 -0.002172 -0.001635 0.007011 0.000000 0.000000 0.000000
# 4 0.000000 0.000000 0.000000 0.096987 0.000000 0.000000
# 5 0.000000 0.000000 0.000000 0.000000 -0.006619 0.000000
# 6 0.000000 0.000000 0.000000 0.000000 0.000000 0.028619
#
#
# Mechanical properties :
#
#
# Convention : Reuss Voigt Hill
#
# Bulk Modulus (GPa) = 50.27532 58.09519 54.18525
# Shear Modulus (GPa) = 26.89585 -6.17844 10.35870
#
# Velocity S-wave (km/s) = 3.31510 -1.58889 2.05734
# Velocity P-wave (km/s) = 5.93263 4.51355 5.27107
#
# Compressibility (1/GPa) = 0.01989048
#
# Stress axis : x y z
#
# Youngs Moduli (GPa) = 77.41212 49.60552 142.62947
#
# Poissons Ratio (x) = 0.31215 0.30974
# Poissons Ratio (y) = 0.48712 0.23314
# Poissons Ratio (z) = 0.16811 0.08108
#
# Static dielectric constant tensor:
#      x y z
#    x 1.953230 0.000000 0.000000 
#    y 0.000000 2.192320 0.000000 
#    z 0.000000 0.000000 1.965740 
# 
# From -- ./inp_files/2520.got.cif
#   From: 2010.05.17/outbox.cif.g08.bks.cpg/sg32_2_cif.got.tgz:2520.got - 2010.06.03 17:12:27.
