data_PCOD9343160
_publ_section_title
;
Structure prediction by ZEFSAII (Michael W. Deem and Ramdas Pophale) SiO2 
 PCOD9343160
Probable space group: P M N 21
;
_chemical_formula_sum "Si O2"
_cell_formula_units_Z 32
_cell_length_a 13.900621
_cell_length_b 12.320633
_cell_length_c 9.448930
_cell_angle_alpha 90.000000
_cell_angle_beta 90.000000
_cell_angle_gamma 90.000000
_cell_volume 1618.265798
_symmetry_space_group_name_H-M "P M N 21"
_symmetry_group_IT_number 31
_symmetry_cell_setting 'orthorhombic'
loop_
_space_group_symop_operation_xyz
x,y,z
1/2-x,-y,1/2+z
-x,y,z
1/2+x,-y,1/2+z
loop_
_atom_site_type_symbol
_atom_site_label
_atom_site_fract_x
_atom_site_fract_y
_atom_site_fract_z
Si Si1 0.690936 0.387510 0.662870
Si Si2 0.386532 0.627393 0.695849
Si Si3 0.759262 0.167396 0.224727
Si Si4 0.105151 0.869333 0.523996
Si Si5 0.611032 0.030852 0.723247
Si Si6 0.894232 0.630158 0.457431
Si Si7 0.393415 0.605301 0.037693
Si Si8 0.112539 0.801838 0.980096
O O1 0.658685 0.513453 0.641455
O O2 0.680435 0.369693 0.830543
O O3 0.798556 0.355762 0.615435
O O4 0.623788 0.307077 0.573295
O O5 0.500000 0.637610 0.654674
O O6 0.317836 0.729815 0.661517
O O7 0.385715 0.623586 0.868489
O O8 0.695538 0.097398 0.114282
O O9 0.686310 0.201284 0.349321
O O10 0.836962 0.078664 0.270140
O O11 0.116758 0.889911 0.358181
O O12 0.106490 0.739688 0.544122
O O13 0.000000 0.912523 0.566211
O O14 0.500000 0.003084 0.699685
O O15 0.640529 0.098183 0.584171
O O16 0.887678 0.525026 0.553558
O O17 0.000000 0.622505 0.385364
O O18 0.500000 0.642930 0.083073
O O19 0.000000 0.813882 0.937662
#
# Coordination Sequence:
#
# PCOD9343160 Si02
#       8
#     4   4   4   4   4   4   4   4
#     4  11  18  34  60  82 109 151 194 236 283 334
#     4  10  21  35  54  81 114 153 192 227 280 355
#     4  12  22  37  58  89 117 150 184 246 296 339
#     4  10  20  36  57  83 110 145 190 235 282 337
#     4  10  22  40  61  83 112 152 197 233 281 355
#     4   9  17  32  56  78 105 147 192 229 274 344
#     4   9  18  32  51  80 113 145 185 232 281 340
#     4  11  22  38  61  90 116 147 196 250 287 334
#
# _framework density 19.774253000000002
#
# number of rings (size 3 to 8) (size 9 to 14) (size 15 to 20)
#    0.000    1.750    2.500    4.125    0.000    0.000 
#    0.000    0.625    0.000    2.250    0.000    0.000 
#    0.000    0.000    0.000    0.000    0.000    0.000 
#
# Total GULP energy -178323.338949 kJ/mol
# GULP energy per Si atom -5572.604342 kJ/mol
# Density = 1.972925 g / cm^3
# Si number density = 19.774253 Si / 1000 Ang^3
#
#
#
# Elastic Constant Matrix: (Units=GPa)
#
#
# Indices 1 2 3 4 5 6 
#
# 1 100.3117 14.7552 24.2299 0.0000 0.0000 0.0000
# 2 14.7552 61.5116 -2.4273 0.0000 0.0000 0.0000
# 3 24.2299 -2.4273 32.8780 0.0000 0.0000 0.0000
# 4 0.0000 0.0000 0.0000 10.7094 0.0000 0.0000
# 5 0.0000 0.0000 0.0000 0.0000 27.9552 0.0000
# 6 0.0000 0.0000 0.0000 0.0000 0.0000 26.3171
#
#
#
# Elastic Compliance Matrix: (Units=1/GPa)
#
#
# Indices 1 2 3 4 5 6 
#
# 1 0.012822 -0.003459 -0.009705 0.000000 0.000000 0.000000
# 2 -0.003459 0.017238 0.003821 0.000000 0.000000 0.000000
# 3 -0.009705 0.003821 0.037850 0.000000 0.000000 0.000000
# 4 0.000000 0.000000 0.000000 0.093376 0.000000 0.000000
# 5 0.000000 0.000000 0.000000 0.000000 0.035772 0.000000
# 6 0.000000 0.000000 0.000000 0.000000 0.000000 0.037998
#
#
# Mechanical properties :
#
#
# Convention : Reuss Voigt Hill
#
# Bulk Modulus (GPa) = 20.31464 29.75741 25.03603
# Shear Modulus (GPa) = 18.50847 23.53923 21.02385
#
# Velocity S-wave (km/s) = 3.06271 3.45396 3.26420
# Velocity P-wave (km/s) = 4.77520 5.56666 5.18605
#
# Compressibility (1/GPa) = 0.04922557
#
# Stress axis : x y z
#
# Youngs Moduli (GPa) = 77.99237 58.01293 26.42038
#
# Poissons Ratio (x) = 0.20064 0.25640
# Poissons Ratio (y) = 0.26974 -0.10097
# Poissons Ratio (z) = 0.75688 -0.22170
#
# Static dielectric constant tensor:
#      x y z
#    x 1.772780 0.000000 0.000000 
#    y 0.000000 1.719660 0.000000 
#    z 0.000000 0.000000 1.694240 
# 
# From -- ./inp_files/4077.got.cif
#   From: 2010.05.17/outbox.cif.g08.bks.cpg/sg31_3_cif.got.tgz:4077.got - 2010.06.03 17:08:30.
