data_PCOD9343581
_publ_section_title
;
Structure prediction by ZEFSAII (Michael W. Deem and Ramdas Pophale) SiO2 
 PCOD9343581
Probable space group: P M N 21
;
_chemical_formula_sum "Si O2"
_cell_formula_units_Z 16
_cell_length_a 10.366437
_cell_length_b 10.914343
_cell_length_c 5.801459
_cell_angle_alpha 90.000000
_cell_angle_beta 90.000000
_cell_angle_gamma 90.000000
_cell_volume 656.393600
_symmetry_space_group_name_H-M "P M N 21"
_symmetry_group_IT_number 31
_symmetry_cell_setting 'orthorhombic'
loop_
_space_group_symop_operation_xyz
x,y,z
1/2-x,-y,1/2+z
-x,y,z
1/2+x,-y,1/2+z
loop_
_atom_site_type_symbol
_atom_site_label
_atom_site_fract_x
_atom_site_fract_y
_atom_site_fract_z
Si Si1 0.361906 0.915135 0.884050
Si Si2 0.000000 0.609678 0.039823
Si Si3 0.852068 0.816533 0.557457
Si Si4 0.728063 0.709961 0.163516
Si Si5 0.500000 0.528846 0.044103
O O1 0.500000 0.877952 0.779403
O O2 0.237643 0.868107 0.754616
O O3 0.344691 0.839354 0.120196
O O4 0.362774 0.060784 0.900874
O O5 0.868458 0.688289 0.049938
O O6 0.000000 0.534056 0.287368
O O7 0.000000 0.538944 0.795823
O O8 0.770472 0.711088 0.431108
O O9 0.000000 0.782366 0.605853
O O10 0.629511 0.610674 0.066205
#
# Coordination Sequence:
#
# PCOD9343581 Si02
#       5
#     4   2   4   4   2
#     4  11  25  43  69 109 151 194 243 298 377 469
#     4  12  30  52  74 106 146 200 266 324 374 440
#     4  11  25  43  69 109 151 194 243 298 377 469
#     4  12  26  46  74 106 144 196 246 312 390 436
#     4  12  30  52  74 106 146 200 266 324 374 440
#
# _framework density 24.375619
#
# number of rings (size 3 to 8) (size 9 to 14) (size 15 to 20)
#    0.000    0.500    5.000    1.500   10.500    1.000 
#    0.000    0.000    0.000    0.000    0.000    0.000 
#    0.000    0.000    0.000    0.000    0.000    0.000 
#
# Total GULP energy -89233.876061 kJ/mol
# GULP energy per Si atom -5577.117254 kJ/mol
# Density = 2.432014 g / cm^3
# Si number density = 24.375619 Si / 1000 Ang^3
#
#
#
# Elastic Constant Matrix: (Units=GPa)
#
#
# Indices 1 2 3 4 5 6 
#
# 1 196.0566 46.3567 46.3526 0.0000 0.0000 0.0000
# 2 46.3567 78.9663 25.6873 0.0000 0.0000 0.0000
# 3 46.3526 25.6873 76.6535 0.0000 0.0000 0.0000
# 4 0.0000 0.0000 0.0000 41.2590 0.0000 0.0000
# 5 0.0000 0.0000 0.0000 0.0000 30.1621 0.0000
# 6 0.0000 0.0000 0.0000 0.0000 0.0000 36.5314
#
#
#
# Elastic Compliance Matrix: (Units=1/GPa)
#
#
# Indices 1 2 3 4 5 6 
#
# 1 0.006472 -0.002835 -0.002963 0.000000 0.000000 0.000000
# 2 -0.002835 0.015455 -0.003465 0.000000 0.000000 0.000000
# 3 -0.002963 -0.003465 0.015999 0.000000 0.000000 0.000000
# 4 0.000000 0.000000 0.000000 0.024237 0.000000 0.000000
# 5 0.000000 0.000000 0.000000 0.000000 0.033154 0.000000
# 6 0.000000 0.000000 0.000000 0.000000 0.000000 0.027374
#
#
# Mechanical properties :
#
#
# Convention : Reuss Voigt Hill
#
# Bulk Modulus (GPa) = 51.54908 65.38553 58.46730
# Shear Modulus (GPa) = 33.85634 37.14248 35.49941
#
# Velocity S-wave (km/s) = 3.73090 3.90777 3.82035
# Velocity P-wave (km/s) = 6.30501 6.87337 6.59532
#
# Compressibility (1/GPa) = 0.01939899
#
# Stress axis : x y z
#
# Youngs Moduli (GPa) = 154.52348 64.70387 62.50523
#
# Poissons Ratio (x) = 0.18344 0.18522
# Poissons Ratio (y) = 0.43809 0.21656
# Poissons Ratio (z) = 0.45789 0.22418
#
# Static dielectric constant tensor:
#      x y z
#    x 1.916510 0.000000 0.000000 
#    y 0.000000 1.996560 0.000000 
#    z 0.000000 0.000000 2.063570 
# 
# From -- ./inp_files/285.got.cif
#   From: 2010.05.17/outbox.cif.g08.bks.cpg/sg31_1_cif.got.tgz:285.got - 2010.06.03 17:08:30.
