data_PCOD9343206
_publ_section_title
;
Structure prediction by ZEFSAII (Michael W. Deem and Ramdas Pophale) SiO2 
 PCOD9343206
Probable space group: P M N 21
;
_chemical_formula_sum "Si O2"
_cell_formula_units_Z 32
_cell_length_a 13.771248
_cell_length_b 14.306790
_cell_length_c 8.156578
_cell_angle_alpha 90.000000
_cell_angle_beta 90.000000
_cell_angle_gamma 90.000000
_cell_volume 1607.028191
_symmetry_space_group_name_H-M "P M N 21"
_symmetry_group_IT_number 31
_symmetry_cell_setting 'orthorhombic'
loop_
_space_group_symop_operation_xyz
x,y,z
1/2-x,-y,1/2+z
-x,y,z
1/2+x,-y,1/2+z
loop_
_atom_site_type_symbol
_atom_site_label
_atom_site_fract_x
_atom_site_fract_y
_atom_site_fract_z
Si Si1 0.891864 0.440640 0.660050
Si Si2 0.383108 0.915937 0.516338
Si Si3 0.795803 0.164910 0.517204
Si Si4 0.305800 0.021057 0.186514
Si Si5 0.893550 0.319934 0.327656
Si Si6 0.703220 0.362654 0.127704
Si Si7 0.310292 0.727096 0.358835
Si Si8 0.390960 0.195484 0.299382
O O1 0.888881 0.385912 0.487553
O O2 0.822994 0.529552 0.643285
O O3 0.869515 0.364369 0.800256
O O4 0.000000 0.477283 0.685812
O O5 0.500000 0.928943 0.539524
O O6 0.307920 0.949517 0.659399
O O7 0.361432 0.806528 0.472027
O O8 0.344467 0.974554 0.356564
O O9 0.871078 0.217817 0.400427
O O10 0.789665 0.218283 0.690380
O O11 0.690964 0.175045 0.434145
O O12 0.824189 0.059432 0.554614
O O13 0.366330 0.115993 0.165019
O O14 0.808753 0.348365 0.207313
O O15 0.000000 0.325310 0.253837
O O16 0.629329 0.297560 0.227626
O O17 0.716830 0.316511 0.949278
O O18 0.500000 0.185263 0.358869
#
# Coordination Sequence:
#
# PCOD9343206 Si02
#       8
#     4   4   4   4   4   4   4   4
#     4  10  20  37  59  84 118 159 198 242 304 367
#     4  11  23  41  64  91 128 166 208 265 311 360
#     4   9  21  38  60  81 119 154 200 250 294 360
#     4  11  21  38  61  90 121 159 209 252 302 370
#     4   9  20  37  57  84 116 154 197 247 305 354
#     4  11  21  37  59  90 119 154 195 258 298 363
#     4  10  21  39  62  89 122 154 205 257 304 354
#     4  11  22  39  59  83 119 164 199 241 307 368
#
# _framework density 19.912533
#
# number of rings (size 3 to 8) (size 9 to 14) (size 15 to 20)
#    0.000    1.750    2.500    1.875    0.000    4.500 
#    0.000    2.500    0.000    6.000    0.000    0.000 
#    0.000    0.000    0.000    0.000    0.000    0.000 
#
# Total GULP energy -178442.065090 kJ/mol
# GULP energy per Si atom -5576.314534 kJ/mol
# Density = 1.986721 g / cm^3
# Si number density = 19.912533 Si / 1000 Ang^3
#
#
#
# Elastic Constant Matrix: (Units=GPa)
#
#
# Indices 1 2 3 4 5 6 
#
# 1 97.4699 34.6055 8.9366 0.0000 0.0000 0.0000
# 2 34.6055 129.8756 11.3194 0.0000 0.0000 0.0000
# 3 8.9366 11.3194 30.6384 0.0000 0.0000 0.0000
# 4 0.0000 0.0000 0.0000 18.8101 0.0000 0.0000
# 5 0.0000 0.0000 0.0000 0.0000 11.7904 0.0000
# 6 0.0000 0.0000 0.0000 0.0000 0.0000 14.4421
#
#
#
# Elastic Compliance Matrix: (Units=1/GPa)
#
#
# Indices 1 2 3 4 5 6 
#
# 1 0.011485 -0.002860 -0.002293 0.000000 0.000000 0.000000
# 2 -0.002860 0.008668 -0.002368 0.000000 0.000000 0.000000
# 3 -0.002293 -0.002368 0.034183 0.000000 0.000000 0.000000
# 4 0.000000 0.000000 0.000000 0.053163 0.000000 0.000000
# 5 0.000000 0.000000 0.000000 0.000000 0.084815 0.000000
# 6 0.000000 0.000000 0.000000 0.000000 0.000000 0.069242
#
#
# Mechanical properties :
#
#
# Convention : Reuss Voigt Hill
#
# Bulk Modulus (GPa) = 25.45013 40.85634 33.15324
# Shear Modulus (GPa) = 17.25940 22.55001 19.90471
#
# Velocity S-wave (km/s) = 2.94727 3.36885 3.16509
# Velocity P-wave (km/s) = 4.93869 5.97450 5.48111
#
# Compressibility (1/GPa) = 0.03929252
#
# Stress axis : x y z
#
# Youngs Moduli (GPa) = 87.06709 115.36367 29.25460
#
# Poissons Ratio (x) = 0.32999 0.06709
# Poissons Ratio (y) = 0.24905 0.06928
# Poissons Ratio (z) = 0.19967 0.27320
#
# Static dielectric constant tensor:
#      x y z
#    x 1.679430 0.000000 0.000000 
#    y 0.000000 1.724750 0.000000 
#    z 0.000000 0.000000 1.750110 
# 
# From -- ./inp_files/2252.got.cif
#   From: 2010.05.17/outbox.cif.g08.bks.cpg/sg31_2_cif.got.tgz:2252.got - 2010.06.03 17:08:30.
