data_PCOD9343308
_publ_section_title
;
Structure prediction by ZEFSAII (Michael W. Deem and Ramdas Pophale) SiO2 
 PCOD9343308
Probable space group: P M N 21
;
_chemical_formula_sum "Si O2"
_cell_formula_units_Z 32
_cell_length_a 7.612340
_cell_length_b 14.583761
_cell_length_c 12.909759
_cell_angle_alpha 90.000000
_cell_angle_beta 90.000000
_cell_angle_gamma 90.000000
_cell_volume 1433.196870
_symmetry_space_group_name_H-M "P M N 21"
_symmetry_group_IT_number 31
_symmetry_cell_setting 'orthorhombic'
loop_
_space_group_symop_operation_xyz
x,y,z
1/2-x,-y,1/2+z
-x,y,z
1/2+x,-y,1/2+z
loop_
_atom_site_type_symbol
_atom_site_label
_atom_site_fract_x
_atom_site_fract_y
_atom_site_fract_z
Si Si1 0.299536 0.148715 0.731430
Si Si2 0.289442 0.146675 0.960276
Si Si3 0.211196 0.949607 0.023513
Si Si4 0.792757 0.459146 0.250149
Si Si5 0.798386 0.345293 0.674552
Si Si6 0.287214 0.272009 0.137662
Si Si7 0.713431 0.657703 0.941196
Si Si8 0.699259 0.158706 0.332631
O O1 0.500000 0.113285 0.735349
O O2 0.216518 0.132078 0.844385
O O3 0.223069 0.104090 0.625934
O O4 0.301885 0.258717 0.720115
O O5 0.500000 0.156513 0.949743
O O6 0.227813 0.234619 0.026249
O O7 0.251027 0.056730 0.027794
O O8 0.000000 0.935078 0.018816
O O9 0.282366 0.914546 0.911506
O O10 0.710379 0.556962 0.228517
O O11 0.760888 0.375543 0.169549
O O12 0.732733 0.419164 0.360003
O O13 0.000000 0.474620 0.254017
O O14 0.737253 0.362744 0.557671
O O15 0.000000 0.314119 0.670892
O O16 0.500000 0.268642 0.141334
O O17 0.221997 0.200440 0.226744
O O18 0.500000 0.667704 0.933871
O O19 0.800192 0.751624 0.905432
O O20 0.500000 0.128698 0.307564
#
# Coordination Sequence:
#
# PCOD9343308 Si02
#       8
#     4   4   4   4   4   4   4   4
#     4  10  22  41  59  83 117 152 191 235 287 342
#     4  10  23  39  58  83 117 158 192 230 287 347
#     4  10  21  36  57  84 113 146 188 238 285 334
#     4  10  21  37  58  84 114 152 192 235 288 344
#     4  11  22  37  59  86 114 149 191 238 287 340
#     4   9  19  37  57  81 113 148 190 236 283 336
#     4   9  19  35  54  79 108 141 185 232 280 333
#     4   9  17  32  56  80 104 138 181 234 283 324
#
# _framework density 22.327708000000001
#
# number of rings (size 3 to 8) (size 9 to 14) (size 15 to 20)
#    0.000    2.250    1.250    0.750    1.750    4.000 
#    0.000    5.000    0.000    0.000    0.000    0.000 
#    0.000    0.000    0.000    0.000    0.000    0.000 
#
# Total GULP energy -178527.677823 kJ/mol
# GULP energy per Si atom -5578.989932 kJ/mol
# Density = 2.227689 g / cm^3
# Si number density = 22.327708 Si / 1000 Ang^3
#
#
#
# Elastic Constant Matrix: (Units=GPa)
#
#
# Indices 1 2 3 4 5 6 
#
# 1 45.2551 -9.8214 4.7833 0.0000 0.0000 0.0000
# 2 -9.8214 87.6802 39.0138 0.0000 0.0000 0.0000
# 3 4.7833 39.0138 64.8658 0.0000 0.0000 0.0000
# 4 0.0000 0.0000 0.0000 27.2415 0.0000 0.0000
# 5 0.0000 0.0000 0.0000 0.0000 3.8540 0.0000
# 6 0.0000 0.0000 0.0000 0.0000 0.0000 20.5464
#
#
#
# Elastic Compliance Matrix: (Units=1/GPa)
#
#
# Indices 1 2 3 4 5 6 
#
# 1 0.023590 0.004665 -0.004545 0.000000 0.000000 0.000000
# 2 0.004665 0.016495 -0.010265 0.000000 0.000000 0.000000
# 3 -0.004545 -0.010265 0.021926 0.000000 0.000000 0.000000
# 4 0.000000 0.000000 0.000000 0.036709 0.000000 0.000000
# 5 0.000000 0.000000 0.000000 0.000000 0.259468 0.000000
# 6 0.000000 0.000000 0.000000 0.000000 0.000000 0.048670
#
#
# Mechanical properties :
#
#
# Convention : Reuss Voigt Hill
#
# Bulk Modulus (GPa) = 23.96961 29.52805 26.74883
# Shear Modulus (GPa) = 11.33646 21.25010 16.29328
#
# Velocity S-wave (km/s) = 2.25573 3.08837 2.70429
# Velocity P-wave (km/s) = 4.18845 5.09617 4.66444
#
# Compressibility (1/GPa) = 0.04171949
#
# Stress axis : x y z
#
# Youngs Moduli (GPa) = 42.39138 60.62416 45.60892
#
# Poissons Ratio (x) = -0.28280 0.20730
# Poissons Ratio (y) = -0.19775 0.46818
# Poissons Ratio (z) = 0.19268 0.62231
#
# Static dielectric constant tensor:
#      x y z
#    x 1.844290 0.000000 0.000000 
#    y 0.000000 1.787960 0.000000 
#    z 0.000000 0.000000 1.869640 
# 
# From -- ./inp_files/3665.got.cif
#   From: 2010.05.17/outbox.cif.g08.bks.cpg/sg31_2_cif.got.tgz:3665.got - 2010.06.03 17:08:30.
