data_PCOD9343303
_publ_section_title
;
Structure prediction by ZEFSAII (Michael W. Deem and Ramdas Pophale) SiO2 
 PCOD9343303
Probable space group: P M N 21
;
_chemical_formula_sum "Si O2"
_cell_formula_units_Z 32
_cell_length_a 12.582577
_cell_length_b 9.637804
_cell_length_c 12.088254
_cell_angle_alpha 90.000000
_cell_angle_beta 90.000000
_cell_angle_gamma 90.000000
_cell_volume 1465.923354
_symmetry_space_group_name_H-M "P M N 21"
_symmetry_group_IT_number 31
_symmetry_cell_setting 'orthorhombic'
loop_
_space_group_symop_operation_xyz
x,y,z
1/2-x,-y,1/2+z
-x,y,z
1/2+x,-y,1/2+z
loop_
_atom_site_type_symbol
_atom_site_label
_atom_site_fract_x
_atom_site_fract_y
_atom_site_fract_z
Si Si1 0.321885 0.491629 0.654480
Si Si2 0.372046 0.107906 0.934447
Si Si3 0.629268 0.193211 0.684949
Si Si4 0.882556 0.656443 0.598700
Si Si5 0.629268 0.806740 0.858878
Si Si6 0.821898 0.491681 0.389291
Si Si7 0.617443 0.656418 0.445084
Si Si8 0.872046 0.107957 0.109385
O O1 0.314762 0.328092 0.635355
O O2 0.210563 0.576113 0.662342
O O3 0.377773 0.499997 0.771882
O O4 0.384409 0.566023 0.557550
O O5 0.500000 0.107528 0.929527
O O6 0.341695 0.176608 0.815758
O O7 0.339556 0.947935 0.921971
O O8 0.352167 0.191977 0.048925
O O9 0.500000 0.207840 0.677804
O O10 0.660440 0.052014 0.621857
O O11 0.884420 0.566109 0.486203
O O12 0.000000 0.660111 0.649785
O O13 0.500000 0.792119 0.866022
O O14 0.685228 0.671847 0.908466
O O15 0.658312 0.823340 0.728071
O O16 0.710570 0.576145 0.381413
O O17 0.500000 0.660101 0.394002
O O18 0.647823 0.807978 0.494904
O O19 0.000000 0.107583 0.114317
#
# Coordination Sequence:
#
# PCOD9343303 Si02
#       8
#     4   4   4   4   4   4   4   4
#     4  11  21  33  54  83 113 149 189 230 283 338
#     4   8  15  30  54  81 107 138 180 233 287 332
#     4   9  16  29  55  86 109 137 179 231 286 335
#     4  10  21  36  53  79 114 149 187 233 280 333
#     4   9  16  29  55  86 109 137 179 231 286 335
#     4  11  21  33  54  83 113 149 189 230 283 338
#     4  10  21  36  53  79 114 149 187 233 280 333
#     4   8  15  30  54  81 107 138 180 233 287 332
#
# _framework density 21.829243999999999
#
# number of rings (size 3 to 8) (size 9 to 14) (size 15 to 20)
#    0.000    2.500    2.500    2.250    0.000    1.500 
#    0.000    5.000    0.000    0.000    0.000    5.250 
#    0.000    0.750    0.000    0.000    0.000    0.000 
#
# Total GULP energy -178282.234307 kJ/mol
# GULP energy per Si atom -5571.319822 kJ/mol
# Density = 2.177956 g / cm^3
# Si number density = 21.829244 Si / 1000 Ang^3
#
#
#
# Elastic Constant Matrix: (Units=GPa)
#
#
# Indices 1 2 3 4 5 6 
#
# 1 109.1075 31.8340 -1.0590 0.0000 0.0000 0.0000
# 2 31.8340 179.1804 16.5533 0.0000 0.0000 0.0000
# 3 -1.0590 16.5533 59.0281 0.0000 0.0000 0.0000
# 4 0.0000 0.0000 0.0000 31.2728 0.0000 0.0000
# 5 0.0000 0.0000 0.0000 0.0000 86.6675 0.0000
# 6 0.0000 0.0000 0.0000 0.0000 0.0000 17.5067
#
#
#
# Elastic Compliance Matrix: (Units=1/GPa)
#
#
# Indices 1 2 3 4 5 6 
#
# 1 0.009692 -0.001784 0.000674 0.000000 0.000000 0.000000
# 2 -0.001784 0.006058 -0.001731 0.000000 0.000000 0.000000
# 3 0.000674 -0.001731 0.017439 0.000000 0.000000 0.000000
# 4 0.000000 0.000000 0.000000 0.031977 0.000000 0.000000
# 5 0.000000 0.000000 0.000000 0.000000 0.011538 0.000000
# 6 0.000000 0.000000 0.000000 0.000000 0.000000 0.057121
#
#
# Mechanical properties :
#
#
# Convention : Reuss Voigt Hill
#
# Bulk Modulus (GPa) = 36.35420 49.10805 42.73112
# Shear Modulus (GPa) = 33.63029 47.08859 40.35944
#
# Velocity S-wave (km/s) = 3.92931 4.64953 4.30451
# Velocity P-wave (km/s) = 6.10541 7.16725 6.65754
#
# Compressibility (1/GPa) = 0.02750714
#
# Stress axis : x y z
#
# Youngs Moduli (GPa) = 103.17350 165.07450 57.34417
#
# Poissons Ratio (x) = 0.29454 -0.03866
# Poissons Ratio (y) = 0.18409 0.09925
# Poissons Ratio (z) = -0.06957 0.28571
#
# Static dielectric constant tensor:
#      x y z
#    x 1.851190 0.000000 0.000000 
#    y 0.000000 1.875570 0.000000 
#    z 0.000000 0.000000 1.810940 
# 
# From -- ./inp_files/5445.got.cif
#   From: 2010.05.17/outbox.cif.g08.bks.cpg/sg31_3_cif.got.tgz:5445.got - 2010.06.03 17:08:30.
