data_PCOD9343152
_publ_section_title
;
Structure prediction by ZEFSAII (Michael W. Deem and Ramdas Pophale) SiO2 
 PCOD9343152
Probable space group: P M N 21
;
_chemical_formula_sum "Si O2"
_cell_formula_units_Z 32
_cell_length_a 9.061030
_cell_length_b 14.382746
_cell_length_c 12.678981
_cell_angle_alpha 90.000000
_cell_angle_beta 90.000000
_cell_angle_gamma 90.000000
_cell_volume 1652.356412
_symmetry_space_group_name_H-M "P M N 21"
_symmetry_group_IT_number 31
_symmetry_cell_setting 'orthorhombic'
loop_
_space_group_symop_operation_xyz
x,y,z
1/2-x,-y,1/2+z
-x,y,z
1/2+x,-y,1/2+z
loop_
_atom_site_type_symbol
_atom_site_label
_atom_site_fract_x
_atom_site_fract_y
_atom_site_fract_z
Si Si1 0.173515 0.852014 0.998580
Si Si2 0.667039 0.163753 0.871647
Si Si3 0.673047 0.629523 0.701634
Si Si4 0.166815 0.636305 0.484641
Si Si5 0.674594 0.940335 0.560561
Si Si6 0.675400 0.551125 0.291337
Si Si7 0.175522 0.161661 0.276234
Si Si8 0.175662 0.254714 0.677118
O O1 0.240402 0.864977 0.882366
O O2 0.000000 0.832131 0.991031
O O3 0.254074 0.772319 0.065558
O O4 0.192697 0.949002 0.061003
O O5 0.500000 0.132867 0.846270
O O6 0.659552 0.263256 0.929977
O O7 0.757475 0.185601 0.765815
O O8 0.742991 0.097552 0.957075
O O9 0.500000 0.606338 0.709132
O O10 0.723181 0.643039 0.581714
O O11 0.770740 0.545669 0.744711
O O12 0.697295 0.728190 0.758164
O O13 0.234169 0.568106 0.398083
O O14 0.000000 0.609714 0.516700
O O15 0.500000 0.918695 0.549277
O O16 0.724643 0.892277 0.669835
O O17 0.500000 0.551859 0.310681
O O18 0.708073 0.639597 0.214988
O O19 0.000000 0.144317 0.288672
O O20 0.000000 0.244006 0.673135
#
# Coordination Sequence:
#
# PCOD9343152 Si02
#       8
#     4   4   4   4   4   4   4   4
#     4  11  25  41  62  93 127 164 209 258 309 365
#     4  10  20  35  61  91 118 152 199 256 304 354
#     4  11  22  38  63  90 120 162 206 254 310 367
#     4  10  20  36  58  87 119 153 200 253 305 365
#     4  10  22  41  62  89 123 160 203 251 305 369
#     4  10  22  39  61  89 122 162 207 256 309 370
#     4  10  23  43  64  88 125 166 205 251 311 375
#     4  10  22  41  63  87 122 165 205 249 311 371
#
# _framework density 19.366281000000001
#
# number of rings (size 3 to 8) (size 9 to 14) (size 15 to 20)
#    0.000    1.750    1.250    2.250    1.750    6.000 
#    0.000    1.250    0.000    0.000    0.000    0.000 
#    0.000    0.000    0.000    0.000    0.000    0.000 
#
# Total GULP energy -178744.662686 kJ/mol
# GULP energy per Si atom -5585.770709 kJ/mol
# Density = 1.932220 g / cm^3
# Si number density = 19.366281 Si / 1000 Ang^3
#
#
#
# Elastic Constant Matrix: (Units=GPa)
#
#
# Indices 1 2 3 4 5 6 
#
# 1 61.8342 42.3361 23.6871 0.0000 0.0000 0.0000
# 2 42.3361 48.9589 27.6079 0.0000 0.0000 0.0000
# 3 23.6871 27.6079 70.6502 0.0000 0.0000 0.0000
# 4 0.0000 0.0000 0.0000 17.1961 0.0000 0.0000
# 5 0.0000 0.0000 0.0000 0.0000 31.1536 0.0000
# 6 0.0000 0.0000 0.0000 0.0000 0.0000 18.2826
#
#
#
# Elastic Compliance Matrix: (Units=1/GPa)
#
#
# Indices 1 2 3 4 5 6 
#
# 1 0.039644 -0.034357 0.000134 0.000000 0.000000 0.000000
# 2 -0.034357 0.055973 -0.010354 0.000000 0.000000 0.000000
# 3 0.000134 -0.010354 0.018155 0.000000 0.000000 0.000000
# 4 0.000000 0.000000 0.000000 0.058153 0.000000 0.000000
# 5 0.000000 0.000000 0.000000 0.000000 0.032099 0.000000
# 6 0.000000 0.000000 0.000000 0.000000 0.000000 0.054697
#
#
# Mechanical properties :
#
#
# Convention : Reuss Voigt Hill
#
# Bulk Modulus (GPa) = 40.61846 40.96730 40.79288
# Shear Modulus (GPa) = 14.04176 19.18059 16.61117
#
# Velocity S-wave (km/s) = 2.69562 3.15049 2.93189
# Velocity P-wave (km/s) = 5.54146 5.86805 5.70709
#
# Compressibility (1/GPa) = 0.02461935
#
# Stress axis : x y z
#
# Youngs Moduli (GPa) = 25.22438 17.86572 55.08078
#
# Poissons Ratio (x) = 0.61381 -0.00738
# Poissons Ratio (y) = 0.86663 0.57028
# Poissons Ratio (z) = -0.00338 0.18497
#
# Static dielectric constant tensor:
#      x y z
#    x 1.656940 0.000000 0.000000 
#    y 0.000000 1.681620 0.000000 
#    z 0.000000 0.000000 1.665480 
# 
# From -- ./inp_files/3573.got.cif
#   From: 2010.05.17/outbox.cif.g08.bks.cpg/sg31_2_cif.got.tgz:3573.got - 2010.06.03 17:08:30.
