data_PCOD9343982
_publ_section_title
;
Structure prediction by ZEFSAII (Michael W. Deem and Ramdas Pophale) SiO2 
 PCOD9343982
Probable space group: P B A 2
;
_chemical_formula_sum "Si O2"
_cell_formula_units_Z 28
_cell_length_a 16.536347
_cell_length_b 11.393149
_cell_length_c 6.374570
_cell_angle_alpha 90.000000
_cell_angle_beta 90.000000
_cell_angle_gamma 90.000000
_cell_volume 1200.975779
_symmetry_space_group_name_H-M "P B A 2"
_symmetry_group_IT_number 32
_symmetry_cell_setting 'orthorhombic'
loop_
_space_group_symop_operation_xyz
x,y,z
-x,-y,z
1/2-x,1/2+y,z
1/2+x,1/2-y,z
loop_
_atom_site_type_symbol
_atom_site_label
_atom_site_fract_x
_atom_site_fract_y
_atom_site_fract_z
Si Si1 0.295144 0.860242 0.227320
Si Si2 0.890293 0.866604 0.056793
Si Si3 0.500000 0.000000 0.901350
Si Si4 0.387815 0.416258 0.367051
Si Si5 0.720338 0.927126 0.915852
Si Si6 0.622347 0.973718 0.551155
Si Si7 0.000000 0.000000 0.742576
Si Si8 0.078378 0.683665 0.185089
O O1 0.352314 0.751360 0.162324
O O2 0.204596 0.863387 0.338171
O O3 0.347943 0.929178 0.395797
O O4 0.286783 0.944387 0.023022
O O5 0.962411 0.898153 0.893149
O O6 0.892933 0.962258 0.242813
O O7 0.812802 0.898424 0.918126
O O8 0.572480 0.022833 0.744423
O O9 0.483524 0.113265 0.040638
O O10 0.430709 0.441344 0.590942
O O11 0.437204 0.317564 0.237372
O O12 0.694165 0.913132 0.676551
O O13 0.663914 0.844125 0.065197
O O14 0.577128 0.879821 0.409708
#
# Coordination Sequence:
#
# PCOD9343982 Si02
#       8
#     4   4   2   4   4   4   2   4
#     4  10  22  45  79  99 136 192 254 311 357 447
#     4  11  24  49  70 103 148 193 248 307 379 453
#     4  10  22  42  66 104 144 182 234 300 382 438
#     4  11  25  50  73 102 151 197 247 310 382 456
#     4   9  20  42  73 102 130 180 249 305 358 435
#     4  10  21  42  67 107 131 179 243 300 363 436
#     4  12  28  48  66 114 152 202 248 308 404 462
#     4  10  21  44  70 101 142 187 236 306 367 436
#
# _framework density 23.314375999999999
#
# number of rings (size 3 to 8) (size 9 to 14) (size 15 to 20)
#    0.000    1.714    1.429    1.714    0.000    3.429 
#   36.000    0.000    0.000    0.000    0.000    0.000 
#    0.000    0.000    0.000    0.000    0.000    0.000 
#
# Total GULP energy -156144.293944 kJ/mol
# GULP energy per Si atom -5576.581927 kJ/mol
# Density = 2.326131 g / cm^3
# Si number density = 23.314376 Si / 1000 Ang^3
#
#
#
# Elastic Constant Matrix: (Units=GPa)
#
#
# Indices 1 2 3 4 5 6 
#
# 1 87.3978 39.6788 49.6196 0.0000 0.0000 0.0000
# 2 39.6788 106.7077 42.6025 0.0000 0.0000 0.0000
# 3 49.6196 42.6025 102.9977 0.0000 0.0000 0.0000
# 4 0.0000 0.0000 0.0000 -5.7522 0.0000 0.0000
# 5 0.0000 0.0000 0.0000 0.0000 190.7187 0.0000
# 6 0.0000 0.0000 0.0000 0.0000 0.0000 22.4641
#
#
#
# Elastic Compliance Matrix: (Units=1/GPa)
#
#
# Indices 1 2 3 4 5 6 
#
# 1 0.016842 -0.003621 -0.006616 0.000000 0.000000 0.000000
# 2 -0.003621 0.012004 -0.003220 0.000000 0.000000 0.000000
# 3 -0.006616 -0.003220 0.014228 0.000000 0.000000 0.000000
# 4 0.000000 0.000000 0.000000 -0.173848 0.000000 0.000000
# 5 0.000000 0.000000 0.000000 0.000000 0.005243 0.000000
# 6 0.000000 0.000000 0.000000 0.000000 0.000000 0.044516
#
#
# Mechanical properties :
#
#
# Convention : Reuss Voigt Hill
#
# Bulk Modulus (GPa) = 61.88596 62.32280 62.10438
# Shear Modulus (GPa) = -102.64154 52.49961 -25.07096
#
# Velocity S-wave (km/s) = -6.64233 4.75048 -3.28280
# Velocity P-wave (km/s) = 5.67677 7.54181 3.51092
#
# Compressibility (1/GPa) = 0.01615876
#
# Stress axis : x y z
#
# Youngs Moduli (GPa) = 59.37471 83.30749 70.28261
#
# Poissons Ratio (x) = 0.30168 0.46498
# Poissons Ratio (y) = 0.21502 0.22634
# Poissons Ratio (z) = 0.39282 0.26829
#
# Static dielectric constant tensor:
#      x y z
#    x 2.090290 0.000000 0.000000 
#    y 0.000000 1.680220 0.000000 
#    z 0.000000 0.000000 1.861450 
# 
# From -- ./inp_files/1582.got.cif
#   From: 2010.05.17/outbox.cif.g08.bks.cpg/sg32_1_cif.got.tgz:1582.got - 2010.06.03 17:12:27.
