data_PCOD9343093
_publ_section_title
;
Structure prediction by ZEFSAII (Michael W. Deem and Ramdas Pophale) SiO2 
 PCOD9343093
Probable space group: P M N 21
;
_chemical_formula_sum "Si O2"
_cell_formula_units_Z 24
_cell_length_a 7.670021
_cell_length_b 14.710314
_cell_length_c 8.129152
_cell_angle_alpha 90.000000
_cell_angle_beta 90.000000
_cell_angle_gamma 90.000000
_cell_volume 917.199354
_symmetry_space_group_name_H-M "P M N 21"
_symmetry_group_IT_number 31
_symmetry_cell_setting 'orthorhombic'
loop_
_space_group_symop_operation_xyz
x,y,z
1/2-x,-y,1/2+z
-x,y,z
1/2+x,-y,1/2+z
loop_
_atom_site_type_symbol
_atom_site_label
_atom_site_fract_x
_atom_site_fract_y
_atom_site_fract_z
Si Si1 0.704985 0.358359 0.090440
Si Si2 0.213179 0.302738 0.575391
Si Si3 0.798548 0.139680 0.777589
Si Si4 0.797095 0.971601 0.959974
Si Si5 0.204109 0.190518 0.259561
Si Si6 0.710734 0.529047 0.264784
O O1 0.500000 0.348565 0.113234
O O2 0.776396 0.256104 0.102754
O O3 0.779218 0.428029 0.229416
O O4 0.736113 0.415414 0.925283
O O5 0.277024 0.236014 0.722034
O O6 0.270641 0.256629 0.406665
O O7 0.267378 0.404590 0.615102
O O8 0.000000 0.300387 0.576241
O O9 0.794047 0.082586 0.606003
O O10 0.000000 0.153511 0.822587
O O11 0.722530 0.069856 0.910335
O O12 0.789572 0.905890 0.799279
O O13 0.000000 0.982292 0.006661
O O14 0.000000 0.173357 0.280086
O O15 0.500000 0.524437 0.263873
#
# Coordination Sequence:
#
# PCOD9343093 Si02
#       6
#     4   4   4   4   4   4
#     4  11  23  37  55  83 114 142 180 226 268 319
#     4   8  16  34  57  78 102 139 184 221 261 322
#     4   9  19  35  54  78 110 146 182 222 271 326
#     4  10  20  34  54  82 113 144 184 230 271 319
#     4  10  20  37  59  79 106 146 186 226 278 329
#     4  10  21  37  57  80 109 145 180 217 267 325
#
# _framework density 26.166613000000002
#
# number of rings (size 3 to 8) (size 9 to 14) (size 15 to 20)
#    0.000    2.333    0.000    3.500    0.000    5.333 
#    0.000    5.833    0.000    0.000    0.000    0.000 
#    0.000    0.000    0.000    0.000    0.000    0.000 
#
# Total GULP energy -134189.108900 kJ/mol
# GULP energy per Si atom -5591.212871 kJ/mol
# Density = 2.610706 g / cm^3
# Si number density = 26.166613 Si / 1000 Ang^3
#
#
#
# Elastic Constant Matrix: (Units=GPa)
#
#
# Indices 1 2 3 4 5 6 
#
# 1 75.8664 0.4663 -10.7834 0.0000 0.0000 0.0000
# 2 0.4663 151.3722 0.9960 0.0000 0.0000 0.0000
# 3 -10.7834 0.9960 74.7778 0.0000 0.0000 0.0000
# 4 0.0000 0.0000 0.0000 50.9386 0.0000 0.0000
# 5 0.0000 0.0000 0.0000 0.0000 20.5730 0.0000
# 6 0.0000 0.0000 0.0000 0.0000 0.0000 8.0011
#
#
#
# Elastic Compliance Matrix: (Units=1/GPa)
#
#
# Indices 1 2 3 4 5 6 
#
# 1 0.013457 -0.000054 0.001941 0.000000 0.000000 0.000000
# 2 -0.000054 0.006607 -0.000096 0.000000 0.000000 0.000000
# 3 0.001941 -0.000096 0.013654 0.000000 0.000000 0.000000
# 4 0.000000 0.000000 0.000000 0.019631 0.000000 0.000000
# 5 0.000000 0.000000 0.000000 0.000000 0.048607 0.000000
# 6 0.000000 0.000000 0.000000 0.000000 0.000000 0.124983
#
#
# Mechanical properties :
#
#
# Convention : Reuss Voigt Hill
#
# Bulk Modulus (GPa) = 26.80882 31.48601 29.14742
# Shear Modulus (GPa) = 21.20517 36.65839 28.93178
#
# Velocity S-wave (km/s) = 2.84982 3.74700 3.32878
# Velocity P-wave (km/s) = 4.59307 5.54789 5.09291
#
# Compressibility (1/GPa) = 0.03730115
#
# Stress axis : x y z
#
# Youngs Moduli (GPa) = 74.30892 151.35391 73.23765
#
# Poissons Ratio (x) = 0.00821 -0.14218
# Poissons Ratio (y) = 0.00403 0.00702
# Poissons Ratio (z) = -0.14426 0.01450
#
# Static dielectric constant tensor:
#      x y z
#    x 1.929730 0.000000 0.000000 
#    y 0.000000 2.074980 0.000000 
#    z 0.000000 0.000000 2.196030 
# 
# From -- ./inp_files/1665.got.cif
#   From: 2010.05.17/outbox.cif.g08.bks.cpg/sg31_1_cif.got.tgz:1665.got - 2010.06.03 17:08:30.
