data_PCOD9343619
_publ_section_title
;
Structure prediction by ZEFSAII (Michael W. Deem and Ramdas Pophale) SiO2 
 PCOD9343619
Probable space group: P M N 21
;
_chemical_formula_sum "Si O2"
_cell_formula_units_Z 24
_cell_length_a 9.000000
_cell_length_b 12.000000
_cell_length_c 12.000000
_cell_angle_alpha 90.000000
_cell_angle_beta 90.000000
_cell_angle_gamma 90.000000
_cell_volume 1296.000000
_symmetry_space_group_name_H-M "P M N 21"
_symmetry_group_IT_number 31
_symmetry_cell_setting 'orthorhombic'
loop_
_space_group_symop_operation_xyz
x,y,z
1/2-x,-y,1/2+z
-x,y,z
1/2+x,-y,1/2+z
loop_
_atom_site_type_symbol
_atom_site_label
_atom_site_fract_x
_atom_site_fract_y
_atom_site_fract_z
Si Si1 0.677661 0.440348 0.294670
Si Si2 0.819494 0.845714 0.413006
Si Si3 0.178539 0.774107 0.653668
Si Si4 0.826124 0.307078 0.488412
Si Si5 0.825315 0.087950 0.343790
Si Si6 0.177815 0.669381 0.225132
O O1 0.500000 0.457090 0.292329
O O2 0.718862 0.346581 0.202799
O O3 0.730886 0.388853 0.411031
O O4 0.765381 0.552245 0.271320
O O5 0.765943 0.796630 0.529791
O O6 0.781227 0.764957 0.312528
O O7 0.000000 0.849073 0.419689
O O8 0.768397 0.970736 0.389121
O O9 0.240478 0.867356 0.736345
O O10 0.000000 0.779088 0.655139
O O11 0.812525 0.184277 0.435896
O O12 0.760780 0.309006 0.610471
O O13 0.000000 0.339017 0.486240
O O14 0.000000 0.076457 0.316251
O O15 0.000000 0.668610 0.210506
#
# Coordination Sequence:
#
# PCOD9343619 Si02
#       6
#     4   4   4   4   4   4
#     4  10  21  38  60  86 114 149 194 237 286 345
#     4   9  20  37  57  83 115 150 185 229 288 340
#     4   9  19  37  60  82 110 148 187 230 285 341
#     4  10  21  38  60  84 115 151 190 236 288 341
#     4   9  19  37  59  83 112 148 188 232 282 339
#     4  11  23  37  58  86 118 152 190 236 287 342
#
# _framework density 18.518519000000001
#
# number of rings (size 3 to 8) (size 9 to 14) (size 15 to 20)
#    0.000    2.333    0.000    1.500    4.667    1.333 
#    0.000    3.333    0.000    0.000    0.000    0.000 
#    0.000    0.000    0.000    0.000    0.000    0.000 
#
# Total GULP energy -133928.835698 kJ/mol
# GULP energy per Si atom -5580.368154 kJ/mol
# Density = 1.847637 g / cm^3
# Si number density = 18.518519 Si / 1000 Ang^3
#
#
#
# Elastic Constant Matrix: (Units=GPa)
#
#
# Indices 1 2 3 4 5 6 
#
# 1 -10.6115 5.9737 -30.1770 0.0000 0.0000 0.0000
# 2 5.9737 18.9377 23.4978 0.0000 0.0000 0.0000
# 3 -30.1770 23.4978 -4.1179 0.0000 0.0000 0.0000
# 4 0.0000 0.0000 0.0000 -7.7362 0.0000 0.0000
# 5 0.0000 0.0000 0.0000 0.0000 26.5078 0.0000
# 6 0.0000 0.0000 0.0000 0.0000 0.0000 21.6018
#
#
#
# Elastic Compliance Matrix: (Units=1/GPa)
#
#
# Indices 1 2 3 4 5 6 
#
# 1 0.033368 0.036247 -0.037696 0.000000 0.000000 0.000000
# 2 0.036247 0.045910 -0.003658 0.000000 0.000000 0.000000
# 3 -0.037696 -0.003658 0.012531 0.000000 0.000000 0.000000
# 4 0.000000 0.000000 0.000000 -0.129262 0.000000 0.000000
# 5 0.000000 0.000000 0.000000 0.000000 0.037725 0.000000
# 6 0.000000 0.000000 0.000000 0.000000 0.000000 0.046292
#
#
# Mechanical properties :
#
#
# Convention : Reuss Voigt Hill
#
# Bulk Modulus (GPa) = 12.25547 0.31079 6.28313
# Shear Modulus (GPa) = 59.54001 8.40226 33.97114
#
# Velocity S-wave (km/s) = 5.67639 2.13239 4.28768
# Velocity P-wave (km/s) = 7.04231 2.49619 5.28324
#
# Compressibility (1/GPa) = 0.08159620
#
# Stress axis : x y z
#
# Youngs Moduli (GPa) = 29.96845 21.78183 79.79978
#
# Poissons Ratio (x) = -0.78954 3.00814
# Poissons Ratio (y) = -1.08628 0.29191
# Poissons Ratio (z) = 1.12969 0.07968
#
# Static dielectric constant tensor:
#      x y z
#    x 1.615670 0.000000 0.000000 
#    y 0.000000 1.625860 0.000000 
#    z 0.000000 0.000000 1.635970 
# 
# From -- ./inp_files/3447.got.cif
#   From: 2010.05.17/outbox.ucp.g08.bks.cvg/sg31_2_cif.got.tgz:3447.got - 2010.06.11 10:34:26.
