data_PCOD9343259
_publ_section_title
;
Structure prediction by ZEFSAII (Michael W. Deem and Ramdas Pophale) SiO2 
 PCOD9343259
Probable space group: P M N 21
;
_chemical_formula_sum "Si O2"
_cell_formula_units_Z 28
_cell_length_a 19.412754
_cell_length_b 5.693687
_cell_length_c 13.421758
_cell_angle_alpha 90.000000
_cell_angle_beta 90.000000
_cell_angle_gamma 90.000000
_cell_volume 1483.508859
_symmetry_space_group_name_H-M "P M N 21"
_symmetry_group_IT_number 31
_symmetry_cell_setting 'orthorhombic'
loop_
_space_group_symop_operation_xyz
x,y,z
1/2-x,-y,1/2+z
-x,y,z
1/2+x,-y,1/2+z
loop_
_atom_site_type_symbol
_atom_site_label
_atom_site_fract_x
_atom_site_fract_y
_atom_site_fract_z
Si Si1 0.800080 0.832523 0.014600
Si Si2 0.199839 0.787959 0.572847
Si Si3 0.579569 0.843193 0.054780
Si Si4 0.236053 0.560419 0.214175
Si Si5 0.080559 0.803386 0.864598
Si Si6 0.826276 0.402684 0.408470
Si Si7 0.620052 0.697659 0.262211
O O1 0.794374 0.679015 0.115158
O O2 0.770671 0.083972 0.044424
O O3 0.872821 0.827348 0.962690
O O4 0.742723 0.742157 0.935756
O O5 0.218206 0.654690 0.673437
O O6 0.180024 0.621666 0.482111
O O7 0.135425 0.959503 0.582444
O O8 0.500000 0.913715 0.049150
O O9 0.590743 0.671234 0.149240
O O10 0.607820 0.736480 0.950871
O O11 0.180516 0.481904 0.295042
O O12 0.296388 0.720238 0.261473
O O13 0.100152 0.546456 0.817444
O O14 0.000000 0.793322 0.885498
O O15 0.092904 0.050987 0.804472
#
# Coordination Sequence:
#
# PCOD9343259 Si02
#       7
#     4   4   4   4   4   4   4
#     4  10  22  36  61  90 122 165 212 262 310 379
#     4  10  20  39  60  90 120 168 206 262 322 363
#     4  11  23  38  57  93 128 163 208 257 324 393
#     4  11  21  38  64  93 120 164 218 265 314 376
#     4  12  26  42  63  96 133 171 208 262 327 386
#     4  10  21  38  59  87 123 164 210 261 315 375
#     4  12  23  41  65  95 131 167 208 265 326 384
#
# _framework density 18.874172000000002
#
# number of rings (size 3 to 8) (size 9 to 14) (size 15 to 20)
#    0.000    1.143    5.714    3.000    2.000    2.857 
#    0.000    0.714    0.000    2.571    0.000    0.000 
#    0.000    0.000    0.000    0.000    0.000    0.000 
#
# Total GULP energy -156111.427190 kJ/mol
# GULP energy per Si atom -5575.408114 kJ/mol
# Density = 1.883121 g / cm^3
# Si number density = 18.874172 Si / 1000 Ang^3
#
#
#
# Elastic Constant Matrix: (Units=GPa)
#
#
# Indices 1 2 3 4 5 6 
#
# 1 119.6298 29.8696 47.3852 0.0000 0.0000 0.0000
# 2 29.8696 72.0787 10.5688 0.0000 0.0000 0.0000
# 3 47.3852 10.5688 48.1291 0.0000 0.0000 0.0000
# 4 0.0000 0.0000 0.0000 6.6416 0.0000 0.0000
# 5 0.0000 0.0000 0.0000 0.0000 14.0400 0.0000
# 6 0.0000 0.0000 0.0000 0.0000 0.0000 12.0826
#
#
#
# Elastic Compliance Matrix: (Units=1/GPa)
#
#
# Indices 1 2 3 4 5 6 
#
# 1 0.014805 -0.004131 -0.013669 0.000000 0.000000 0.000000
# 2 -0.004131 0.015488 0.000666 0.000000 0.000000 0.000000
# 3 -0.013669 0.000666 0.034089 0.000000 0.000000 0.000000
# 4 0.000000 0.000000 0.000000 0.150566 0.000000 0.000000
# 5 0.000000 0.000000 0.000000 0.000000 0.071225 0.000000
# 6 0.000000 0.000000 0.000000 0.000000 0.000000 0.082763
#
#
# Mechanical properties :
#
#
# Convention : Reuss Voigt Hill
#
# Bulk Modulus (GPa) = 33.20712 46.16497 39.68604
# Shear Modulus (GPa) = 12.09947 16.68711 14.39329
#
# Velocity S-wave (km/s) = 2.53466 2.97665 2.76450
# Velocity P-wave (km/s) = 5.11841 6.02713 5.59127
#
# Compressibility (1/GPa) = 0.03011402
#
# Stress axis : x y z
#
# Youngs Moduli (GPa) = 67.54599 64.56647 29.33518
#
# Poissons Ratio (x) = 0.26672 0.40098
# Poissons Ratio (y) = 0.27902 -0.01954
# Poissons Ratio (z) = 0.92327 -0.04300
#
# Static dielectric constant tensor:
#      x y z
#    x 1.632120 0.000000 0.000000 
#    y 0.000000 1.759680 0.000000 
#    z 0.000000 0.000000 1.659520 
# 
# From -- ./inp_files/4465.got.cif
#   From: 2010.05.17/outbox.cif.g08.bks.cpg/sg31_3_cif.got.tgz:4465.got - 2010.06.03 17:08:30.
