data_PCOD9343881
_publ_section_title
;
Structure prediction by ZEFSAII (Michael W. Deem and Ramdas Pophale) SiO2 
 PCOD9343881
Probable space group: P B A 2
;
_chemical_formula_sum "Si O2"
_cell_formula_units_Z 32
_cell_length_a 9.994179
_cell_length_b 21.842779
_cell_length_c 6.351092
_cell_angle_alpha 90.000000
_cell_angle_beta 90.000000
_cell_angle_gamma 90.000000
_cell_volume 1386.447469
_symmetry_space_group_name_H-M "P B A 2"
_symmetry_group_IT_number 32
_symmetry_cell_setting 'orthorhombic'
loop_
_space_group_symop_operation_xyz
x,y,z
-x,-y,z
1/2-x,1/2+y,z
1/2+x,1/2-y,z
loop_
_atom_site_type_symbol
_atom_site_label
_atom_site_fract_x
_atom_site_fract_y
_atom_site_fract_z
Si Si1 0.975469 0.656590 0.142320
Si Si2 0.161092 0.499018 0.557451
Si Si3 0.900198 0.056737 0.296921
Si Si4 0.294440 0.743653 0.218840
Si Si5 0.710202 0.866099 0.448282
Si Si6 0.125981 0.826333 0.548187
Si Si7 0.247182 0.910793 0.907382
Si Si8 0.133807 0.719343 0.808825
O O1 0.938199 0.725674 0.209363
O O2 0.066592 0.631164 0.327147
O O3 0.847745 0.618431 0.076497
O O4 0.048914 0.667232 0.922620
O O5 0.254827 0.461823 0.393808
O O6 0.224584 0.566572 0.536876
O O7 0.188137 0.468022 0.784352
O O8 0.000000 0.500000 0.519174
O O9 0.943193 0.118159 0.422835
O O10 0.879533 0.070316 0.049456
O O11 0.000000 0.000000 0.328772
O O12 0.294829 0.672186 0.277068
O O13 0.214048 0.787522 0.381260
O O14 0.224766 0.747770 0.991679
O O15 0.715133 0.818491 0.638230
O O16 0.212525 0.861998 0.725493
O O17 0.054507 0.772979 0.685384
#
# Coordination Sequence:
#
# PCOD9343881 Si02
#       8
#     4   4   4   4   4   4   4   4
#     4  11  21  38  68 100 128 183 232 296 356 433
#     4  11  25  45  71 104 139 189 238 304 358 423
#     4  11  25  46  69  98 142 189 240 296 360 432
#     4  10  21  40  64  94 131 169 218 284 356 420
#     4  10  24  41  62  98 141 167 228 291 361 417
#     4  10  20  42  66  91 126 178 230 285 342 430
#     4  11  23  40  74  95 136 187 240 283 358 439
#     4  10  21  38  64  97 132 169 225 284 350 426
#
# _framework density 23.080570999999999
#
# number of rings (size 3 to 8) (size 9 to 14) (size 15 to 20)
#    0.000    1.500    2.500    1.500    3.500    5.500 
#   11.250    0.000    0.000    0.000    0.000    0.000 
#    0.000    0.000    0.000    0.000    0.000    0.000 
#
# Total GULP energy -178500.372348 kJ/mol
# GULP energy per Si atom -5578.136636 kJ/mol
# Density = 2.302804 g / cm^3
# Si number density = 23.080571 Si / 1000 Ang^3
#
#
#
# Elastic Constant Matrix: (Units=GPa)
#
#
# Indices 1 2 3 4 5 6 
#
# 1 42.6077 4.7997 28.1545 0.0000 0.0000 0.0000
# 2 4.7997 128.1990 49.1330 0.0000 0.0000 0.0000
# 3 28.1545 49.1330 117.2767 0.0000 0.0000 0.0000
# 4 0.0000 0.0000 0.0000 37.1739 0.0000 0.0000
# 5 0.0000 0.0000 0.0000 0.0000 10.8090 0.0000
# 6 0.0000 0.0000 0.0000 0.0000 0.0000 24.8153
#
#
#
# Elastic Compliance Matrix: (Units=1/GPa)
#
#
# Indices 1 2 3 4 5 6 
#
# 1 0.028253 0.001837 -0.007552 0.000000 0.000000 0.000000
# 2 0.001837 0.009412 -0.004384 0.000000 0.000000 0.000000
# 3 -0.007552 -0.004384 0.012177 0.000000 0.000000 0.000000
# 4 0.000000 0.000000 0.000000 0.026901 0.000000 0.000000
# 5 0.000000 0.000000 0.000000 0.000000 0.092515 0.000000
# 6 0.000000 0.000000 0.000000 0.000000 0.000000 0.040298
#
#
# Mechanical properties :
#
#
# Convention : Reuss Voigt Hill
#
# Bulk Modulus (GPa) = 33.73514 50.25085 41.99300
# Shear Modulus (GPa) = 20.86502 28.29273 24.57888
#
# Velocity S-wave (km/s) = 3.00993 3.50498 3.26685
# Velocity P-wave (km/s) = 5.16987 6.18053 5.69766
#
# Compressibility (1/GPa) = 0.02964268
#
# Stress axis : x y z
#
# Youngs Moduli (GPa) = 35.39389 106.24957 82.12495
#
# Poissons Ratio (x) = -0.19514 0.62023
# Poissons Ratio (y) = -0.06501 0.36004
# Poissons Ratio (z) = 0.26730 0.46580
#
# Static dielectric constant tensor:
#      x y z
#    x 1.936750 0.000000 0.000000 
#    y 0.000000 1.897940 0.000000 
#    z 0.000000 0.000000 1.866760 
# 
# From -- ./inp_files/1075.got.cif
#   From: 2010.05.17/outbox.cif.g08.bks.cpg/sg32_1_cif.got.tgz:1075.got - 2010.06.03 17:12:27.
