data_PCOD9343592
_publ_section_title
;
Structure prediction by ZEFSAII (Michael W. Deem and Ramdas Pophale) SiO2 
 PCOD9343592
Probable space group: P M N 21
;
_chemical_formula_sum "Si O2"
_cell_formula_units_Z 20
_cell_length_a 17.170023
_cell_length_b 11.286690
_cell_length_c 5.066165
_cell_angle_alpha 90.000000
_cell_angle_beta 90.000000
_cell_angle_gamma 90.000000
_cell_volume 981.785930
_symmetry_space_group_name_H-M "P M N 21"
_symmetry_group_IT_number 31
_symmetry_cell_setting 'orthorhombic'
loop_
_space_group_symop_operation_xyz
x,y,z
1/2-x,-y,1/2+z
-x,y,z
1/2+x,-y,1/2+z
loop_
_atom_site_type_symbol
_atom_site_label
_atom_site_fract_x
_atom_site_fract_y
_atom_site_fract_z
Si Si1 0.351306 0.334591 0.372840
Si Si2 0.198159 0.023663 0.482547
Si Si3 0.090646 0.402598 0.975336
Si Si4 0.092568 0.803140 0.372139
Si Si5 0.171571 0.300008 0.474905
O O1 0.392030 0.458876 0.432971
O O2 0.383288 0.238348 0.580495
O O3 0.259003 0.344566 0.417797
O O4 0.370326 0.289187 0.080237
O O5 0.172572 0.158591 0.441814
O O6 0.265731 0.993096 0.272222
O O7 0.129536 0.930380 0.434436
O O8 0.144117 0.332864 0.767226
O O9 0.000000 0.378458 0.927184
O O10 0.114828 0.362547 0.267026
O O11 0.000000 0.802876 0.400086
#
# Coordination Sequence:
#
# PCOD9343592 Si02
#       5
#     4   4   4   4   4
#     4  12  24  45  70  97 134 177 226 273 327 398
#     4  12  23  45  69  95 134 174 220 274 327 396
#     4  12  26  43  65 101 140 175 217 277 336 389
#     4  12  24  41  69 103 132 172 224 280 335 382
#     4  12  24  44  72  96 132 180 229 264 330 403
#
# _framework density 20.371039
#
# number of rings (size 3 to 8) (size 9 to 14) (size 15 to 20)
#    0.000    0.000    4.000    7.200    0.000    1.600 
#    0.000    0.000    0.000    0.000    0.000    0.000 
#    0.000    0.000    0.000    0.000    0.000    0.000 
#
# Total GULP energy -112061.418156 kJ/mol
# GULP energy per Si atom -5603.070908 kJ/mol
# Density = 2.032467 g / cm^3
# Si number density = 20.371039 Si / 1000 Ang^3
#
#
#
# Elastic Constant Matrix: (Units=GPa)
#
#
# Indices 1 2 3 4 5 6 
#
# 1 113.3627 -9.4510 -19.6080 0.0000 0.0000 0.0000
# 2 -9.4510 42.5021 -13.5947 0.0000 0.0000 0.0000
# 3 -19.6080 -13.5947 45.5823 0.0000 0.0000 0.0000
# 4 0.0000 0.0000 0.0000 28.8994 0.0000 0.0000
# 5 0.0000 0.0000 0.0000 0.0000 31.9525 0.0000
# 6 0.0000 0.0000 0.0000 0.0000 0.0000 3.8915
#
#
#
# Elastic Compliance Matrix: (Units=1/GPa)
#
#
# Indices 1 2 3 4 5 6 
#
# 1 0.010117 0.004026 0.005553 0.000000 0.000000 0.000000
# 2 0.004026 0.027611 0.009967 0.000000 0.000000 0.000000
# 3 0.005553 0.009967 0.027300 0.000000 0.000000 0.000000
# 4 0.000000 0.000000 0.000000 0.034603 0.000000 0.000000
# 5 0.000000 0.000000 0.000000 0.000000 0.031296 0.000000
# 6 0.000000 0.000000 0.000000 0.000000 0.000000 0.256968
#
#
# Mechanical properties :
#
#
# Convention : Reuss Voigt Hill
#
# Bulk Modulus (GPa) = 9.60434 12.90438 11.25436
# Shear Modulus (GPa) = 13.03743 29.22207 21.12975
#
# Velocity S-wave (km/s) = 2.53256 3.79158 3.22412
# Velocity P-wave (km/s) = 3.64373 5.05138 4.40416
#
# Compressibility (1/GPa) = 0.10411956
#
# Stress axis : x y z
#
# Youngs Moduli (GPa) = 98.84014 36.21687 36.63059
#
# Poissons Ratio (x) = -0.14581 -0.20340
# Poissons Ratio (y) = -0.39792 -0.36509
# Poissons Ratio (z) = -0.54885 -0.36097
#
# Static dielectric constant tensor:
#      x y z
#    x 1.690020 0.000000 0.000000 
#    y 0.000000 1.695940 0.000000 
#    z 0.000000 0.000000 1.683890 
# 
# From -- ./inp_files/568.got.cif
#   From: 2010.05.17/outbox.cif.g08.bks.cpg/sg31_1_cif.got.tgz:568.got - 2010.06.03 17:08:30.
