data_PCOD9343188
_publ_section_title
;
Structure prediction by ZEFSAII (Michael W. Deem and Ramdas Pophale) SiO2 
 PCOD9343188
Probable space group: P M N 21
;
_chemical_formula_sum "Si O2"
_cell_formula_units_Z 32
_cell_length_a 8.604249
_cell_length_b 14.626278
_cell_length_c 12.478999
_cell_angle_alpha 90.000000
_cell_angle_beta 90.000000
_cell_angle_gamma 90.000000
_cell_volume 1570.458786
_symmetry_space_group_name_H-M "P M N 21"
_symmetry_group_IT_number 31
_symmetry_cell_setting 'orthorhombic'
loop_
_space_group_symop_operation_xyz
x,y,z
1/2-x,-y,1/2+z
-x,y,z
1/2+x,-y,1/2+z
loop_
_atom_site_type_symbol
_atom_site_label
_atom_site_fract_x
_atom_site_fract_y
_atom_site_fract_z
Si Si1 0.814632 0.553544 0.295990
Si Si2 0.679950 0.362143 0.369257
Si Si3 0.682310 0.043549 0.523698
Si Si4 0.686887 0.260579 0.911280
Si Si5 0.176655 0.162252 0.706300
Si Si6 0.674701 0.642219 0.090686
Si Si7 0.316329 0.137924 0.100083
Si Si8 0.683485 0.836290 0.829690
O O1 0.764273 0.453339 0.330327
O O2 0.772793 0.634882 0.380277
O O3 0.724541 0.578337 0.187797
O O4 0.000000 0.558509 0.279772
O O5 0.500000 0.362455 0.337832
O O6 0.701475 0.362826 0.497014
O O7 0.759649 0.268528 0.332193
O O8 0.500000 0.024416 0.515685
O O9 0.720496 0.094192 0.636012
O O10 0.734027 0.107075 0.424523
O O11 0.778959 0.950125 0.527702
O O12 0.500000 0.252470 0.904135
O O13 0.759082 0.194117 0.820982
O O14 0.732309 0.225764 0.029071
O O15 0.172102 0.255535 0.637251
O O16 0.000000 0.126691 0.716053
O O17 0.500000 0.620368 0.051342
O O18 0.500000 0.143653 0.122216
O O19 0.227367 0.128219 0.211867
O O20 0.500000 0.840578 0.848426
#
# Coordination Sequence:
#
# PCOD9343188 Si02
#       8
#     4   4   4   4   4   4   4   4
#     4  10  21  39  63  93 128 170 219 272 330 393
#     4  12  24  40  64  94 129 172 218 270 331 394
#     4  12  25  42  66  95 128 169 217 268 326 391
#     4   9  21  41  65  92 128 169 215 267 325 389
#     4  10  20  36  63  92 123 161 208 266 321 378
#     4  10  20  37  60  89 123 162 212 268 325 385
#     4  11  25  45  67  95 133 176 219 269 332 397
#     4  12  26  46  68  96 132 171 220 276 334 393
#
# _framework density 20.376211999999999
#
# number of rings (size 3 to 8) (size 9 to 14) (size 15 to 20)
#    0.000    1.250    1.250    4.875    1.750    3.500 
#    0.000    3.750    0.000    0.000    0.000    0.000 
#    0.000    0.000    0.000    0.000    0.000    0.000 
#
# Total GULP energy -178894.254441 kJ/mol
# GULP energy per Si atom -5590.445451 kJ/mol
# Density = 2.032983 g / cm^3
# Si number density = 20.376212 Si / 1000 Ang^3
#
#
#
# Elastic Constant Matrix: (Units=GPa)
#
#
# Indices 1 2 3 4 5 6 
#
# 1 51.1860 -4.8628 -3.2891 0.0000 0.0000 0.0000
# 2 -4.8628 71.5459 20.1777 0.0000 0.0000 0.0000
# 3 -3.2891 20.1777 47.6511 0.0000 0.0000 0.0000
# 4 0.0000 0.0000 0.0000 15.7083 0.0000 0.0000
# 5 0.0000 0.0000 0.0000 0.0000 30.8819 0.0000
# 6 0.0000 0.0000 0.0000 0.0000 0.0000 29.8225
#
#
#
# Elastic Compliance Matrix: (Units=1/GPa)
#
#
# Indices 1 2 3 4 5 6 
#
# 1 0.019698 0.001085 0.000900 0.000000 0.000000 0.000000
# 2 0.001085 0.015932 -0.006672 0.000000 0.000000 0.000000
# 3 0.000900 -0.006672 0.023873 0.000000 0.000000 0.000000
# 4 0.000000 0.000000 0.000000 0.063661 0.000000 0.000000
# 5 0.000000 0.000000 0.000000 0.000000 0.032381 0.000000
# 6 0.000000 0.000000 0.000000 0.000000 0.000000 0.033532
#
#
# Mechanical properties :
#
#
# Convention : Reuss Voigt Hill
#
# Bulk Modulus (GPa) = 19.94817 21.60386 20.77602
# Shear Modulus (GPa) = 23.23856 25.83968 24.53912
#
# Velocity S-wave (km/s) = 3.38076 3.56494 3.47407
# Velocity P-wave (km/s) = 5.00505 5.25077 5.12938
#
# Compressibility (1/GPa) = 0.05012991
#
# Stress axis : x y z
#
# Youngs Moduli (GPa) = 50.76783 62.76547 41.88820
#
# Poissons Ratio (x) = -0.06809 -0.03771
# Poissons Ratio (y) = -0.05508 0.27946
# Poissons Ratio (z) = -0.04570 0.41875
#
# Static dielectric constant tensor:
#      x y z
#    x 1.686670 0.000000 0.000000 
#    y 0.000000 1.737840 0.000000 
#    z 0.000000 0.000000 1.724670 
# 
# From -- ./inp_files/3662.got.cif
#   From: 2010.05.17/outbox.cif.g08.bks.cpg/sg31_2_cif.got.tgz:3662.got - 2010.06.03 17:08:30.
