data_PCOD9343068
_publ_section_title
;
Structure prediction by ZEFSAII (Michael W. Deem and Ramdas Pophale) SiO2 
 PCOD9343068
Probable space group: P M N 21
;
_chemical_formula_sum "Si O2"
_cell_formula_units_Z 22
_cell_length_a 10.683375
_cell_length_b 9.110243
_cell_length_c 13.721043
_cell_angle_alpha 90.000000
_cell_angle_beta 90.000000
_cell_angle_gamma 90.000000
_cell_volume 1335.443626
_symmetry_space_group_name_H-M "P M N 21"
_symmetry_group_IT_number 31
_symmetry_cell_setting 'orthorhombic'
loop_
_space_group_symop_operation_xyz
x,y,z
1/2-x,-y,1/2+z
-x,y,z
1/2+x,-y,1/2+z
loop_
_atom_site_type_symbol
_atom_site_label
_atom_site_fract_x
_atom_site_fract_y
_atom_site_fract_z
Si Si1 0.253067 0.742142 0.980710
Si Si2 0.000000 0.163033 0.374337
Si Si3 0.000000 0.921510 0.003883
Si Si4 0.000000 0.255255 0.997336
Si Si5 0.708555 0.355633 0.699308
Si Si6 0.500000 0.121613 0.735706
Si Si7 0.139855 0.473080 0.874242
Si Si8 0.500000 0.605786 0.700465
O O1 0.375632 0.823169 0.940523
O O2 0.230454 0.595894 0.916832
O O3 0.126153 0.837958 0.972671
O O4 0.258808 0.695101 0.094239
O O5 0.000000 0.301856 0.299751
O O6 0.000000 0.014573 0.309511
O O7 0.000000 0.925599 0.122091
O O8 0.000000 0.087522 0.967912
O O9 0.000000 0.279842 0.112097
O O10 0.882528 0.342936 0.951952
O O11 0.621827 0.226390 0.744164
O O12 0.813892 0.403380 0.774597
O O13 0.617667 0.496582 0.688328
O O14 0.000000 0.538238 0.862759
#
# Coordination Sequence:
#
# PCOD9343068 Si02
#       8
#     4   2   2   2   4   2   4   2
#     4  11  22  38  58  86 117 150 189 242 285 341
#     4  12  24  33  57  93 117 144 189 247 298 324
#     4  10  20  40  61  76 113 159 187 223 286 353
#     4  10  20  33  57  86 103 147 202 232 262 346
#     4  10  20  38  57  81 115 150 190 235 288 337
#     4   9  22  37  57  79 112 152 188 231 286 348
#     4  10  20  34  57  82 109 148 195 232 273 342
#     4  11  18  35  60  82 107 148 200 231 268 349
#
# _framework density 16.473925999999999
#
# number of rings (size 3 to 8) (size 9 to 14) (size 15 to 20)
#    0.545    1.091    5.455    0.545    3.818    0.000 
#    0.000    0.000    0.000    0.000    2.364    0.000 
#    0.000    0.000    0.000    0.000    0.000    0.000 
#
# Total GULP energy -122564.274838 kJ/mol
# GULP energy per Si atom -5571.103402 kJ/mol
# Density = 1.643643 g / cm^3
# Si number density = 16.473926 Si / 1000 Ang^3
#
#
#
# Elastic Constant Matrix: (Units=GPa)
#
#
# Indices 1 2 3 4 5 6 
#
# 1 83.4424 33.0051 53.5760 0.0000 0.0000 0.0000
# 2 33.0051 102.6411 36.2257 0.0000 0.0000 0.0000
# 3 53.5760 36.2257 84.1053 0.0000 0.0000 0.0000
# 4 0.0000 0.0000 0.0000 27.3853 0.0000 0.0000
# 5 0.0000 0.0000 0.0000 0.0000 27.8217 0.0000
# 6 0.0000 0.0000 0.0000 0.0000 0.0000 8.8873
#
#
#
# Elastic Compliance Matrix: (Units=1/GPa)
#
#
# Indices 1 2 3 4 5 6 
#
# 1 0.020755 -0.002368 -0.012201 0.000000 0.000000 0.000000
# 2 -0.002368 0.011759 -0.003557 0.000000 0.000000 0.000000
# 3 -0.012201 -0.003557 0.021194 0.000000 0.000000 0.000000
# 4 0.000000 0.000000 0.000000 0.036516 0.000000 0.000000
# 5 0.000000 0.000000 0.000000 0.000000 0.035943 0.000000
# 6 0.000000 0.000000 0.000000 0.000000 0.000000 0.112521
#
#
# Mechanical properties :
#
#
# Convention : Reuss Voigt Hill
#
# Bulk Modulus (GPa) = 57.28356 57.31139 57.29747
# Shear Modulus (GPa) = 17.80888 22.64431 20.22660
#
# Velocity S-wave (km/s) = 3.29148 3.71152 3.50779
# Velocity P-wave (km/s) = 7.02089 7.29602 7.15977
#
# Compressibility (1/GPa) = 0.01745702
#
# Stress axis : x y z
#
# Youngs Moduli (GPa) = 48.18124 85.03892 47.18270
#
# Poissons Ratio (x) = 0.20134 0.57569
# Poissons Ratio (y) = 0.11408 0.16782
# Poissons Ratio (z) = 0.58788 0.30246
#
# Static dielectric constant tensor:
#      x y z
#    x 1.550080 0.000000 0.000000 
#    y 0.000000 1.544370 0.000000 
#    z 0.000000 0.000000 1.539170 
# 
# From -- ./inp_files/4786.got.cif
#   From: 2010.05.17/outbox.cif.g08.bks.cpg/sg31_3_cif.got.tgz:4786.got - 2010.06.03 17:08:30.
