data_PCOD9343996
_publ_section_title
;
Structure prediction by ZEFSAII (Michael W. Deem and Ramdas Pophale) SiO2 
 PCOD9343996
Probable space group: P B A 2
;
_chemical_formula_sum "Si O2"
_cell_formula_units_Z 32
_cell_length_a 9.106357
_cell_length_b 14.999582
_cell_length_c 9.291950
_cell_angle_alpha 90.000000
_cell_angle_beta 90.000000
_cell_angle_gamma 90.000000
_cell_volume 1269.201839
_symmetry_space_group_name_H-M "P B A 2"
_symmetry_group_IT_number 32
_symmetry_cell_setting 'orthorhombic'
loop_
_space_group_symop_operation_xyz
x,y,z
-x,-y,z
1/2-x,1/2+y,z
1/2+x,1/2-y,z
loop_
_atom_site_type_symbol
_atom_site_label
_atom_site_fract_x
_atom_site_fract_y
_atom_site_fract_z
Si Si1 0.592841 0.292616 0.710810
Si Si2 0.613010 0.083274 0.743532
Si Si3 0.590368 0.176419 0.317435
Si Si4 0.782346 0.327550 0.448389
Si Si5 0.387596 0.422065 0.553821
Si Si6 0.659891 0.042386 0.062393
Si Si7 0.084952 0.079061 0.970583
Si Si8 0.511794 0.368754 0.267480
O O1 0.573352 0.186701 0.716212
O O2 0.727833 0.329609 0.612937
O O3 0.452233 0.333186 0.628166
O O4 0.605492 0.337925 0.866631
O O5 0.731290 0.059254 0.621284
O O6 0.500000 0.000000 0.744105
O O7 0.678099 0.088345 0.905936
O O8 0.450392 0.145682 0.415278
O O9 0.652942 0.110188 0.197454
O O10 0.510495 0.262311 0.246166
O O11 0.671516 0.384086 0.345401
O O12 0.719001 0.228279 0.404843
O O13 0.500000 0.500000 0.589694
O O14 0.404073 0.410348 0.383604
O O15 0.500000 0.000000 0.067886
O O16 0.768175 0.958180 0.043475
O O17 0.984916 0.097042 0.109117
O O18 0.000000 0.000000 0.889700
#
# Coordination Sequence:
#
# PCOD9343996 Si02
#       8
#     4   4   4   4   4   4   4   4
#     4  11  24  45  76 113 154 208 280 341 419 513
#     4  11  26  48  72 113 158 216 271 346 423 499
#     4  10  21  45  71 106 143 199 260 328 400 482
#     4   9  22  42  75 102 145 199 266 330 400 484
#     4  11  23  47  74 108 157 206 275 344 404 510
#     4  11  25  44  67 110 162 197 260 339 416 497
#     4  12  25  44  76 112 152 214 267 326 410 494
#     4   9  22  41  73 102 141 198 261 319 395 472
#
# _framework density 25.212696000000001
#
# number of rings (size 3 to 8) (size 9 to 14) (size 15 to 20)
#    0.750    0.750    0.000    4.500    1.750    3.000 
#    6.750    0.625    0.000    0.000    0.000    0.000 
#    0.000    0.000    0.000    0.000    0.000    0.000 
#
# Total GULP energy -178719.961565 kJ/mol
# GULP energy per Si atom -5584.998799 kJ/mol
# Density = 2.515531 g / cm^3
# Si number density = 25.212696 Si / 1000 Ang^3
#
#
#
# Elastic Constant Matrix: (Units=GPa)
#
#
# Indices 1 2 3 4 5 6 
#
# 1 131.4442 44.3835 60.6483 0.0000 0.0000 0.0000
# 2 44.3835 142.5583 64.2022 0.0000 0.0000 0.0000
# 3 60.6483 64.2022 219.5507 0.0000 0.0000 0.0000
# 4 0.0000 0.0000 0.0000 36.9802 0.0000 0.0000
# 5 0.0000 0.0000 0.0000 0.0000 35.6110 0.0000
# 6 0.0000 0.0000 0.0000 0.0000 0.0000 34.6042
#
#
#
# Elastic Compliance Matrix: (Units=1/GPa)
#
#
# Indices 1 2 3 4 5 6 
#
# 1 0.009178 -0.001976 -0.001958 0.000000 0.000000 0.000000
# 2 -0.001976 0.008504 -0.001941 0.000000 0.000000 0.000000
# 3 -0.001958 -0.001941 0.005663 0.000000 0.000000 0.000000
# 4 0.000000 0.000000 0.000000 0.027041 0.000000 0.000000
# 5 0.000000 0.000000 0.000000 0.000000 0.028081 0.000000
# 6 0.000000 0.000000 0.000000 0.000000 0.000000 0.028898
#
#
# Mechanical properties :
#
#
# Convention : Reuss Voigt Hill
#
# Bulk Modulus (GPa) = 86.23354 92.44679 89.34016
# Shear Modulus (GPa) = 40.65684 43.06035 41.85859
#
# Velocity S-wave (km/s) = 4.02002 4.13714 4.07900
# Velocity P-wave (km/s) = 7.47155 7.71800 7.59578
#
# Compressibility (1/GPa) = 0.01159642
#
# Stress axis : x y z
#
# Youngs Moduli (GPa) = 108.95394 117.59215 176.58183
#
# Poissons Ratio (x) = 0.23235 0.34567
# Poissons Ratio (y) = 0.21528 0.34274
# Poissons Ratio (z) = 0.21328 0.22824
#
# Static dielectric constant tensor:
#      x y z
#    x 2.083250 0.000000 0.000000 
#    y 0.000000 2.125650 0.000000 
#    z 0.000000 0.000000 2.009310 
# 
# From -- ./inp_files/2838.got.cif
#   From: 2010.05.17/outbox.cif.g08.bks.cpg/sg32_2_cif.got.tgz:2838.got - 2010.06.03 17:12:27.
