data_PCOD9343131
_publ_section_title
;
Structure prediction by ZEFSAII (Michael W. Deem and Ramdas Pophale) SiO2 
 PCOD9343131
Probable space group: P M N 21
;
_chemical_formula_sum "Si O2"
_cell_formula_units_Z 32
_cell_length_a 7.672300
_cell_length_b 12.984831
_cell_length_c 14.636846
_cell_angle_alpha 90.000000
_cell_angle_beta 90.000000
_cell_angle_gamma 90.000000
_cell_volume 1458.174104
_symmetry_space_group_name_H-M "P M N 21"
_symmetry_group_IT_number 31
_symmetry_cell_setting 'orthorhombic'
loop_
_space_group_symop_operation_xyz
x,y,z
1/2-x,-y,1/2+z
-x,y,z
1/2+x,-y,1/2+z
loop_
_atom_site_type_symbol
_atom_site_label
_atom_site_fract_x
_atom_site_fract_y
_atom_site_fract_z
Si Si1 0.211564 0.967229 0.826510
Si Si2 0.787224 0.490856 0.148459
Si Si3 0.797406 0.194661 0.847763
Si Si4 0.201212 0.721378 0.156446
Si Si5 0.299517 0.685568 0.513114
Si Si6 0.705799 0.783115 0.964821
Si Si7 0.788236 0.346736 0.303424
Si Si8 0.798954 0.835491 0.665289
O O1 0.260737 0.882468 0.901852
O O2 0.271680 0.930454 0.725301
O O3 0.000000 0.968636 0.821396
O O4 0.278242 0.079870 0.852303
O O5 0.728975 0.607081 0.134383
O O6 0.739168 0.450274 0.250139
O O7 0.000000 0.488013 0.144723
O O8 0.722681 0.408402 0.072913
O O9 0.791968 0.230366 0.743621
O O10 0.719312 0.278611 0.917317
O O11 0.000000 0.184804 0.875479
O O12 0.000000 0.710359 0.183111
O O13 0.212473 0.786596 0.064171
O O14 0.500000 0.655194 0.497187
O O15 0.293599 0.787435 0.577530
O O16 0.500000 0.773529 0.978245
O O17 0.767592 0.683694 0.905303
O O18 0.713555 0.256896 0.239079
O O19 0.000000 0.338714 0.301064
O O20 0.000000 0.854664 0.640686
#
# Coordination Sequence:
#
# PCOD9343131 Si02
#       8
#     4   4   4   4   4   4   4   4
#     4   9  19  36  56  80 110 140 172 217 269 315
#     4   8  16  33  55  78 105 139 176 217 268 320
#     4  10  22  39  56  77 107 142 181 223 266 317
#     4  11  23  37  53  76 110 146 178 218 269 321
#     4   9  18  35  57  77 102 138 179 221 265 318
#     4  10  20  35  57  82 107 140 183 225 264 316
#     4   8  15  31  54  77 102 134 174 217 261 311
#     4   9  16  28  50  79 107 131 163 212 262 310
#
# _framework density 21.945253000000001
#
# number of rings (size 3 to 8) (size 9 to 14) (size 15 to 20)
#    0.000    2.750    0.000    1.875    0.000    4.000 
#    0.000    7.500    0.000    0.000    0.000    0.000 
#    0.000    0.000    0.000    0.000    0.000    0.000 
#
# Total GULP energy -178394.402953 kJ/mol
# GULP energy per Si atom -5574.825092 kJ/mol
# Density = 2.189530 g / cm^3
# Si number density = 21.945253 Si / 1000 Ang^3
#
#
#
# Elastic Constant Matrix: (Units=GPa)
#
#
# Indices 1 2 3 4 5 6 
#
# 1 40.0676 -4.7018 -9.2947 0.0000 0.0000 0.0000
# 2 -4.7018 84.3694 29.9694 0.0000 0.0000 0.0000
# 3 -9.2947 29.9694 110.6485 0.0000 0.0000 0.0000
# 4 0.0000 0.0000 0.0000 20.6707 0.0000 0.0000
# 5 0.0000 0.0000 0.0000 0.0000 7.8713 0.0000
# 6 0.0000 0.0000 0.0000 0.0000 0.0000 11.3640
#
#
#
# Elastic Compliance Matrix: (Units=1/GPa)
#
#
# Indices 1 2 3 4 5 6 
#
# 1 0.025494 0.000730 0.001944 0.000000 0.000000 0.000000
# 2 0.000730 0.013135 -0.003496 0.000000 0.000000 0.000000
# 3 0.001944 -0.003496 0.010148 0.000000 0.000000 0.000000
# 4 0.000000 0.000000 0.000000 0.048378 0.000000 0.000000
# 5 0.000000 0.000000 0.000000 0.000000 0.127044 0.000000
# 6 0.000000 0.000000 0.000000 0.000000 0.000000 0.087997
#
#
# Mechanical properties :
#
#
# Convention : Reuss Voigt Hill
#
# Bulk Modulus (GPa) = 21.21653 29.67013 25.44333
# Shear Modulus (GPa) = 15.17210 22.58871 18.88041
#
# Velocity S-wave (km/s) = 2.63223 3.21178 2.93634
# Velocity P-wave (km/s) = 4.35053 5.22527 4.80784
#
# Compressibility (1/GPa) = 0.04713306
#
# Stress axis : x y z
#
# Youngs Moduli (GPa) = 39.22429 76.13065 98.54248
#
# Poissons Ratio (x) = -0.05560 -0.19154
# Poissons Ratio (y) = -0.02865 0.34454
# Poissons Ratio (z) = -0.07624 0.26618
#
# Static dielectric constant tensor:
#      x y z
#    x 1.836150 0.000000 0.000000 
#    y 0.000000 1.849890 0.000000 
#    z 0.000000 0.000000 1.819390 
# 
# From -- ./inp_files/5013.got.cif
#   From: 2010.05.17/outbox.cif.g08.bks.cpg/sg31_3_cif.got.tgz:5013.got - 2010.06.03 17:08:30.
