data_PCOD9343287
_publ_section_title
;
Structure prediction by ZEFSAII (Michael W. Deem and Ramdas Pophale) SiO2 
 PCOD9343287
Probable space group: P M N 21
;
_chemical_formula_sum "Si O2"
_cell_formula_units_Z 28
_cell_length_a 29.777077
_cell_length_b 4.940313
_cell_length_c 8.719981
_cell_angle_alpha 90.000000
_cell_angle_beta 90.000000
_cell_angle_gamma 90.000000
_cell_volume 1282.779668
_symmetry_space_group_name_H-M "P M N 21"
_symmetry_group_IT_number 31
_symmetry_cell_setting 'orthorhombic'
loop_
_space_group_symop_operation_xyz
x,y,z
1/2-x,-y,1/2+z
-x,y,z
1/2+x,-y,1/2+z
loop_
_atom_site_type_symbol
_atom_site_label
_atom_site_fract_x
_atom_site_fract_y
_atom_site_fract_z
Si Si1 0.210889 0.484824 0.527350
Si Si2 0.677304 0.247836 0.303608
Si Si3 0.593398 0.951618 0.428502
Si Si4 0.404500 0.448752 0.641308
Si Si5 0.775509 0.995530 0.314463
Si Si6 0.500000 0.581366 0.653479
Si Si7 0.691465 0.586823 0.609263
Si Si8 0.000000 0.917773 0.935097
O O1 0.174289 0.586097 0.646478
O O2 0.204983 0.207323 0.439720
O O3 0.257767 0.469177 0.623692
O O4 0.217733 0.713798 0.398758
O O5 0.636025 0.049955 0.334732
O O6 0.722996 0.070420 0.297807
O O7 0.681709 0.468433 0.439946
O O8 0.593753 0.143642 0.580283
O O9 0.546053 0.017415 0.349724
O O10 0.593578 0.649558 0.493048
O O11 0.451183 0.518646 0.728558
O O12 0.353916 0.502230 0.700629
O O13 0.799946 0.097363 0.156622
O O14 0.500000 0.381332 0.504991
O O15 0.500000 0.881900 0.583946
#
# Coordination Sequence:
#
# PCOD9343287 Si02
#       8
#     4   4   4   4   4   2   4   2
#     4  10  21  34  48  69  98 128 159 197 239 281
#     4   9  19  33  51  71  95 127 163 197 235 285
#     4   9  16  26  42  65  90 116 147 187 232 275
#     4   9  16  26  42  65  90 116 147 187 232 275
#     4  10  21  34  48  69  98 128 159 197 239 281
#     4   8  14  24  38  60  90 114 138 182 235 274
#     4   9  19  33  51  71  95 127 163 197 235 285
#     4   8  14  24  38  60  90 114 138 182 235 274
#
# _framework density 21.827598999999999
#
# number of rings (size 3 to 8) (size 9 to 14) (size 15 to 20)
#    0.000    2.857    0.000    0.857    0.000   13.714 
#    0.000    0.000    0.000    0.000    0.000    2.000 
#    0.000    0.000    0.000    0.000    0.000    0.000 
#
# Total GULP energy -156031.951158 kJ/mol
# GULP energy per Si atom -5572.569684 kJ/mol
# Density = 2.177792 g / cm^3
# Si number density = 21.827599 Si / 1000 Ang^3
#
#
#
# Elastic Constant Matrix: (Units=GPa)
#
#
# Indices 1 2 3 4 5 6 
#
# 1 144.7217 6.2751 12.8467 0.0000 0.0000 0.0000
# 2 6.2751 76.6416 26.4577 0.0000 0.0000 0.0000
# 3 12.8467 26.4577 61.3725 0.0000 0.0000 0.0000
# 4 0.0000 0.0000 0.0000 25.4071 0.0000 0.0000
# 5 0.0000 0.0000 0.0000 0.0000 17.5246 0.0000
# 6 0.0000 0.0000 0.0000 0.0000 0.0000 34.4483
#
#
#
# Elastic Compliance Matrix: (Units=1/GPa)
#
#
# Indices 1 2 3 4 5 6 
#
# 1 0.007041 -0.000080 -0.001440 0.000000 0.000000 0.000000
# 2 -0.000080 0.015330 -0.006592 0.000000 0.000000 0.000000
# 3 -0.001440 -0.006592 0.019437 0.000000 0.000000 0.000000
# 4 0.000000 0.000000 0.000000 0.039359 0.000000 0.000000
# 5 0.000000 0.000000 0.000000 0.000000 0.057063 0.000000
# 6 0.000000 0.000000 0.000000 0.000000 0.000000 0.029029
#
#
# Mechanical properties :
#
#
# Convention : Reuss Voigt Hill
#
# Bulk Modulus (GPa) = 39.08431 41.54388 40.31409
# Shear Modulus (GPa) = 26.04032 31.28640 28.66336
#
# Velocity S-wave (km/s) = 3.45773 3.79006 3.62770
# Velocity P-wave (km/s) = 5.82117 6.18278 6.00470
#
# Compressibility (1/GPa) = 0.02558572
#
# Stress axis : x y z
#
# Youngs Moduli (GPa) = 142.02425 65.23186 51.44795
#
# Poissons Ratio (x) = 0.00519 0.07406
# Poissons Ratio (y) = 0.01130 0.33915
# Poissons Ratio (z) = 0.20445 0.43001
#
# Static dielectric constant tensor:
#      x y z
#    x 1.935600 0.000000 0.000000 
#    y 0.000000 1.854350 0.000000 
#    z 0.000000 0.000000 1.816560 
# 
# From -- ./inp_files/3172.got.cif
#   From: 2010.05.17/outbox.cif.g08.bks.cpg/sg31_2_cif.got.tgz:3172.got - 2010.06.03 17:08:30.
