data_PCOD9343192
_publ_section_title
;
Structure prediction by ZEFSAII (Michael W. Deem and Ramdas Pophale) SiO2 
 PCOD9343192
Probable space group: P M N 21
;
_chemical_formula_sum "Si O2"
_cell_formula_units_Z 28
_cell_length_a 13.348183
_cell_length_b 11.014547
_cell_length_c 7.251072
_cell_angle_alpha 90.000000
_cell_angle_beta 90.000000
_cell_angle_gamma 90.000000
_cell_volume 1066.082980
_symmetry_space_group_name_H-M "P M N 21"
_symmetry_group_IT_number 31
_symmetry_cell_setting 'orthorhombic'
loop_
_space_group_symop_operation_xyz
x,y,z
1/2-x,-y,1/2+z
-x,y,z
1/2+x,-y,1/2+z
loop_
_atom_site_type_symbol
_atom_site_label
_atom_site_fract_x
_atom_site_fract_y
_atom_site_fract_z
Si Si1 0.773882 0.317470 0.356070
Si Si2 0.385369 0.476553 0.282913
Si Si3 0.388609 0.158285 0.166840
Si Si4 0.112857 0.038289 0.980084
Si Si5 0.878813 0.249465 0.724552
Si Si6 0.118285 0.563626 0.340455
Si Si7 0.383742 0.160014 0.752888
O O1 0.677204 0.394833 0.420904
O O2 0.713970 0.226695 0.222770
O O3 0.662512 0.052557 0.628580
O O4 0.837211 0.432337 0.277689
O O5 0.500000 0.467649 0.329090
O O6 0.356942 0.615887 0.295873
O O7 0.369700 0.442010 0.066097
O O8 0.500000 0.223524 0.179565
O O9 0.396654 0.049612 0.306646
O O10 0.383852 0.112920 0.960187
O O11 0.000000 0.072743 0.049764
O O12 0.156951 0.156847 0.881664
O O13 0.831995 0.248843 0.518505
O O14 0.000000 0.235790 0.705850
O O15 0.150509 0.699404 0.275716
O O16 0.000000 0.557735 0.305575
O O17 0.500000 0.169503 0.685706
#
# Coordination Sequence:
#
# PCOD9343192 Si02
#       7
#     4   4   4   4   4   4   4
#     4  11  19  31  64 102 144 192 241 301 381 446
#     4   9  17  33  59  94 137 191 245 303 377 452
#     4  10  20  36  65 105 143 182 245 316 369 434
#     4   9  19  38  67  98 133 187 246 303 372 438
#     4   9  20  39  65  97 141 197 253 310 376 451
#     4   9  18  33  56  96 147 197 249 305 372 449
#     4   9  17  34  62  96 135 186 247 310 369 432
#
# _framework density 26.264372000000002
#
# number of rings (size 3 to 8) (size 9 to 14) (size 15 to 20)
#    0.000    2.571    1.429    1.714    0.000    2.286 
#    0.000    0.000   12.571   10.286    0.000    3.000 
#    0.000    8.000    0.000    0.000    0.000    0.000 
#
# Total GULP energy -156341.059826 kJ/mol
# GULP energy per Si atom -5583.609280 kJ/mol
# Density = 2.620459 g / cm^3
# Si number density = 26.264372 Si / 1000 Ang^3
#
#
#
# Elastic Constant Matrix: (Units=GPa)
#
#
# Indices 1 2 3 4 5 6 
#
# 1 97.3364 21.5799 40.6306 0.0000 0.0000 0.0000
# 2 21.5799 154.7809 92.5728 0.0000 0.0000 0.0000
# 3 40.6306 92.5728 128.9219 0.0000 0.0000 0.0000
# 4 0.0000 0.0000 0.0000 54.9430 0.0000 0.0000
# 5 0.0000 0.0000 0.0000 0.0000 32.9559 0.0000
# 6 0.0000 0.0000 0.0000 0.0000 0.0000 24.4418
#
#
#
# Elastic Compliance Matrix: (Units=1/GPa)
#
#
# Indices 1 2 3 4 5 6 
#
# 1 0.011922 0.001025 -0.004494 0.000000 0.000000 0.000000
# 2 0.001025 0.011412 -0.008518 0.000000 0.000000 0.000000
# 3 -0.004494 -0.008518 0.015289 0.000000 0.000000 0.000000
# 4 0.000000 0.000000 0.000000 0.018201 0.000000 0.000000
# 5 0.000000 0.000000 0.000000 0.000000 0.030344 0.000000
# 6 0.000000 0.000000 0.000000 0.000000 0.000000 0.040913
#
#
# Mechanical properties :
#
#
# Convention : Reuss Voigt Hill
#
# Bulk Modulus (GPa) = 68.25305 76.73398 72.49351
# Shear Modulus (GPa) = 31.86004 37.55187 34.70596
#
# Velocity S-wave (km/s) = 3.48667 3.78532 3.63906
# Velocity P-wave (km/s) = 6.50019 6.95588 6.73189
#
# Compressibility (1/GPa) = 0.01465136
#
# Stress axis : x y z
#
# Youngs Moduli (GPa) = 83.87820 87.62628 65.40673
#
# Poissons Ratio (x) = -0.08985 0.29391
# Poissons Ratio (y) = -0.08601 0.55711
# Poissons Ratio (z) = 0.37691 0.74637
#
# Static dielectric constant tensor:
#      x y z
#    x 2.193790 0.000000 0.000000 
#    y 0.000000 2.131110 0.000000 
#    z 0.000000 0.000000 2.033600 
# 
# From -- ./inp_files/4012.got.cif
#   From: 2010.05.17/outbox.cif.g08.bks.cpg/sg31_3_cif.got.tgz:4012.got - 2010.06.03 17:08:30.
