data_PCOD9343230
_publ_section_title
;
Structure prediction by ZEFSAII (Michael W. Deem and Ramdas Pophale) SiO2 
 PCOD9343230
Probable space group: P M N 21
;
_chemical_formula_sum "Si O2"
_cell_formula_units_Z 24
_cell_length_a 8.411669
_cell_length_b 10.176234
_cell_length_c 14.346174
_cell_angle_alpha 90.000000
_cell_angle_beta 90.000000
_cell_angle_gamma 90.000000
_cell_volume 1228.019756
_symmetry_space_group_name_H-M "P M N 21"
_symmetry_group_IT_number 31
_symmetry_cell_setting 'orthorhombic'
loop_
_space_group_symop_operation_xyz
x,y,z
1/2-x,-y,1/2+z
-x,y,z
1/2+x,-y,1/2+z
loop_
_atom_site_type_symbol
_atom_site_label
_atom_site_fract_x
_atom_site_fract_y
_atom_site_fract_z
Si Si1 0.310578 0.283130 0.164810
Si Si2 0.692796 0.975923 0.144175
Si Si3 0.192736 0.103314 0.843971
Si Si4 0.311129 0.152405 0.455972
Si Si5 0.185412 0.402857 0.358011
Si Si6 0.810986 0.348150 0.965225
O O1 0.500000 0.282616 0.176879
O O2 0.259871 0.129450 0.155375
O O3 0.238962 0.353499 0.255714
O O4 0.265863 0.352999 0.067603
O O5 0.500000 0.973570 0.135196
O O6 0.739954 0.895830 0.236594
O O7 0.770527 0.907565 0.055829
O O8 0.251093 0.219231 0.910319
O O9 0.000000 0.109716 0.846079
O O10 0.236849 0.961835 0.884153
O O11 0.500000 0.175932 0.446991
O O12 0.220240 0.283514 0.428765
O O13 0.276351 0.528131 0.399434
O O14 0.000000 0.433990 0.355558
O O15 0.000000 0.335307 0.978750
#
# Coordination Sequence:
#
# PCOD9343230 Si02
#       6
#     4   4   4   4   4   4
#     4  11  22  40  66  94 127 168 209 258 320 385
#     4  10  20  37  62  94 128 165 208 257 312 376
#     4   9  19  37  62  90 122 159 206 256 309 369
#     4  11  21  39  63  93 125 161 209 262 315 371
#     4  12  26  43  63  92 129 172 217 261 314 378
#     4  11  23  42  66  93 127 169 213 264 320 379
#
# _framework density 19.543659000000002
#
# number of rings (size 3 to 8) (size 9 to 14) (size 15 to 20)
#    0.000    1.333    3.333    3.000    0.000    2.000 
#    0.000    6.667    0.000    0.000    0.000    0.000 
#    0.000    0.000    0.000    0.000    0.000    0.000 
#
# Total GULP energy -134099.705885 kJ/mol
# GULP energy per Si atom -5587.487745 kJ/mol
# Density = 1.949918 g / cm^3
# Si number density = 19.543659 Si / 1000 Ang^3
#
#
#
# Elastic Constant Matrix: (Units=GPa)
#
#
# Indices 1 2 3 4 5 6 
#
# 1 24.6716 -10.3637 -2.1745 0.0000 0.0000 0.0000
# 2 -10.3637 41.9497 -6.8579 0.0000 0.0000 0.0000
# 3 -2.1745 -6.8579 83.9521 0.0000 0.0000 0.0000
# 4 0.0000 0.0000 0.0000 31.0408 0.0000 0.0000
# 5 0.0000 0.0000 0.0000 0.0000 28.8795 0.0000
# 6 0.0000 0.0000 0.0000 0.0000 0.0000 20.2886
#
#
#
# Elastic Compliance Matrix: (Units=1/GPa)
#
#
# Indices 1 2 3 4 5 6 
#
# 1 0.045598 0.011613 0.002130 0.000000 0.000000 0.000000
# 2 0.011613 0.027118 0.002516 0.000000 0.000000 0.000000
# 3 0.002130 0.002516 0.012172 0.000000 0.000000 0.000000
# 4 0.000000 0.000000 0.000000 0.032216 0.000000 0.000000
# 5 0.000000 0.000000 0.000000 0.000000 0.034627 0.000000
# 6 0.000000 0.000000 0.000000 0.000000 0.000000 0.049289
#
#
# Mechanical properties :
#
#
# Convention : Reuss Voigt Hill
#
# Bulk Modulus (GPa) = 8.51736 12.42013 10.46875
# Shear Modulus (GPa) = 24.08040 27.37308 25.72674
#
# Velocity S-wave (km/s) = 3.51398 3.74653 3.63212
# Velocity P-wave (km/s) = 4.56418 5.00842 4.79145
#
# Compressibility (1/GPa) = 0.11740726
#
# Stress axis : x y z
#
# Youngs Moduli (GPa) = 21.93060 36.87527 82.15403
#
# Poissons Ratio (x) = -0.42824 -0.17497
# Poissons Ratio (y) = -0.25469 -0.20671
# Poissons Ratio (z) = -0.04671 -0.09278
#
# Static dielectric constant tensor:
#      x y z
#    x 1.664080 0.000000 0.000000 
#    y 0.000000 1.668260 0.000000 
#    z 0.000000 0.000000 1.679080 
# 
# From -- ./inp_files/4728.got.cif
#   From: 2010.05.17/outbox.cif.g08.bks.cpg/sg31_3_cif.got.tgz:4728.got - 2010.06.03 17:08:30.
