data_PCOD9343044
_publ_section_title
;
Structure prediction by ZEFSAII (Michael W. Deem and Ramdas Pophale) SiO2 
 PCOD9343044
Probable space group: P M N 21
;
_chemical_formula_sum "Si O2"
_cell_formula_units_Z 32
_cell_length_a 9.212860
_cell_length_b 22.153943
_cell_length_c 7.487888
_cell_angle_alpha 90.000000
_cell_angle_beta 90.000000
_cell_angle_gamma 90.000000
_cell_volume 1528.286741
_symmetry_space_group_name_H-M "P M N 21"
_symmetry_group_IT_number 31
_symmetry_cell_setting 'orthorhombic'
loop_
_space_group_symop_operation_xyz
x,y,z
1/2-x,-y,1/2+z
-x,y,z
1/2+x,-y,1/2+z
loop_
_atom_site_type_symbol
_atom_site_label
_atom_site_fract_x
_atom_site_fract_y
_atom_site_fract_z
Si Si1 0.175268 0.819770 0.815400
Si Si2 0.335292 0.439408 0.337730
Si Si3 0.662926 0.937642 0.830613
Si Si4 0.174463 0.188445 0.925832
Si Si5 0.672318 0.306755 0.905445
Si Si6 0.664102 0.438990 0.909834
Si Si7 0.337791 0.942684 0.402062
Si Si8 0.172567 0.689723 0.837880
O O1 0.239231 0.881544 0.893510
O O2 0.240662 0.816304 0.614795
O O3 0.221494 0.755698 0.903197
O O4 0.000000 0.821823 0.808755
O O5 0.500000 0.444757 0.406118
O O6 0.252586 0.500987 0.373122
O O7 0.268151 0.375200 0.400780
O O8 0.342934 0.433728 0.123828
O O9 0.500000 0.931898 0.901518
O O10 0.655299 0.934704 0.615698
O O11 0.729956 0.002772 0.868952
O O12 0.237383 0.249364 0.839435
O O13 0.000000 0.192891 0.953051
O O14 0.202073 0.123981 0.831158
O O15 0.500000 0.299710 0.868123
O O16 0.688709 0.307702 0.121984
O O17 0.718820 0.373644 0.842630
O O18 0.500000 0.446403 0.842599
O O19 0.500000 0.958936 0.338736
O O20 0.000000 0.686428 0.873266
#
# Coordination Sequence:
#
# PCOD9343044 Si02
#       8
#     4   4   4   4   4   4   4   4
#     4   9  15  26  45  65  89 121 152 186 232 275
#     4   9  17  30  47  67  93 122 152 188 229 272
#     4  10  20  32  48  72  97 121 155 194 228 271
#     4   9  16  26  42  67  94 115 148 195 231 268
#     4   8  14  26  43  62  87 118 150 185 229 275
#     4   9  18  31  46  68  96 122 153 192 230 275
#     4   9  19  33  47  68  97 124 150 185 230 276
#     4   7  12  24  42  63  85 113 148 183 221 268
#
# _framework density 20.938479000000001
#
# number of rings (size 3 to 8) (size 9 to 14) (size 15 to 20)
#    0.000    3.250    0.000    4.125    0.000    4.000 
#    0.000    5.625    0.000    1.500    0.000    1.750 
#    0.000    0.000    0.000    0.000    0.000    0.000 
#
# Total GULP energy -178174.927025 kJ/mol
# GULP energy per Si atom -5567.966470 kJ/mol
# Density = 2.089082 g / cm^3
# Si number density = 20.938479 Si / 1000 Ang^3
#
#
#
# Elastic Constant Matrix: (Units=GPa)
#
#
# Indices 1 2 3 4 5 6 
#
# 1 86.7703 104.4414 6.0000 0.0000 0.0000 0.0000
# 2 104.4414 264.9675 4.9895 0.0000 0.0000 0.0000
# 3 6.0000 4.9895 47.6174 0.0000 0.0000 0.0000
# 4 0.0000 0.0000 0.0000 16.1071 0.0000 0.0000
# 5 0.0000 0.0000 0.0000 0.0000 9.1105 0.0000
# 6 0.0000 0.0000 0.0000 0.0000 0.0000 41.4489
#
#
#
# Elastic Compliance Matrix: (Units=1/GPa)
#
#
# Indices 1 2 3 4 5 6 
#
# 1 0.022094 -0.008674 -0.001875 0.000000 0.000000 0.000000
# 2 -0.008674 0.007186 0.000340 0.000000 0.000000 0.000000
# 3 -0.001875 0.000340 0.021201 0.000000 0.000000 0.000000
# 4 0.000000 0.000000 0.000000 0.062084 0.000000 0.000000
# 5 0.000000 0.000000 0.000000 0.000000 0.109764 0.000000
# 6 0.000000 0.000000 0.000000 0.000000 0.000000 0.024126
#
#
# Mechanical properties :
#
#
# Convention : Reuss Voigt Hill
#
# Bulk Modulus (GPa) = 33.26172 70.02409 51.64290
# Shear Modulus (GPa) = 18.05735 32.26158 25.15946
#
# Velocity S-wave (km/s) = 2.93985 3.92953 3.47016
# Velocity P-wave (km/s) = 5.23866 7.35552 6.38542
#
# Compressibility (1/GPa) = 0.03006459
#
# Stress axis : x y z
#
# Youngs Moduli (GPa) = 45.26063 139.15056 47.16670
#
# Poissons Ratio (x) = 1.20692 0.08844
# Poissons Ratio (y) = 0.39257 -0.01603
# Poissons Ratio (z) = 0.08487 -0.04729
#
# Static dielectric constant tensor:
#      x y z
#    x 1.745690 0.000000 0.000000 
#    y 0.000000 1.837220 0.000000 
#    z 0.000000 0.000000 1.828010 
# 
# From -- ./inp_files/3774.got.cif
#   From: 2010.05.17/outbox.cif.g08.bks.cpg/sg31_2_cif.got.tgz:3774.got - 2010.06.03 17:08:30.
