data_PCOD9343755
_publ_section_title
;
Structure prediction by ZEFSAII (Michael W. Deem and Ramdas Pophale) SiO2 
 PCOD9343755
Probable space group: P B A 2
;
_chemical_formula_sum "Si O2"
_cell_formula_units_Z 32
_cell_length_a 8.271179
_cell_length_b 23.268459
_cell_length_c 8.827131
_cell_angle_alpha 90.000000
_cell_angle_beta 90.000000
_cell_angle_gamma 90.000000
_cell_volume 1698.848354
_symmetry_space_group_name_H-M "P B A 2"
_symmetry_group_IT_number 32
_symmetry_cell_setting 'orthorhombic'
loop_
_space_group_symop_operation_xyz
x,y,z
-x,-y,z
1/2-x,1/2+y,z
1/2+x,1/2-y,z
loop_
_atom_site_type_symbol
_atom_site_label
_atom_site_fract_x
_atom_site_fract_y
_atom_site_fract_z
Si Si1 0.499525 0.178019 0.326940
Si Si2 0.021720 0.856638 0.936030
Si Si3 0.565076 0.941823 0.179375
Si Si4 0.319220 0.282005 0.162382
Si Si5 0.291476 0.733965 0.834467
Si Si6 0.849692 0.572781 0.874457
Si Si7 0.487693 0.829648 0.686178
Si Si8 0.831705 0.967244 0.959177
O O1 0.435786 0.116490 0.271052
O O2 0.396837 0.230682 0.258160
O O3 0.678075 0.187820 0.257196
O O4 0.496496 0.176551 0.507376
O O5 0.051309 0.829132 0.102598
O O6 0.881704 0.903575 0.913181
O O7 0.189226 0.888493 0.899457
O O8 0.955975 0.803610 0.838935
O O9 0.739092 0.959107 0.116030
O O10 0.500000 0.000000 0.256597
O O11 0.455044 0.929599 0.028792
O O12 0.248260 0.254916 0.005723
O O13 0.337967 0.789461 0.737561
O O14 0.146171 0.695910 0.769065
O O15 0.950178 0.606064 0.746547
O O16 0.782437 0.507711 0.854909
O O17 0.000000 0.000000 0.978630
#
# Coordination Sequence:
#
# PCOD9343755 Si02
#       8
#     4   4   4   4   4   4   4   4
#     4  12  25  38  58  95 129 166 206 262 337 390
#     4  11  19  34  62  92 112 149 209 266 293 364
#     4  10  20  39  63  87 118 162 215 266 305 380
#     4  12  21  37  62  87 120 161 211 255 306 379
#     4  12  21  38  61  86 121 165 208 257 304 376
#     4  10  19  38  61  88 115 159 207 260 307 372
#     4  12  23  38  57  90 132 164 201 260 333 387
#     4   9  20  34  61  95 112 143 208 274 307 352
#
# _framework density 18.836290000000002
#
# number of rings (size 3 to 8) (size 9 to 14) (size 15 to 20)
#    0.000    1.000    5.000    3.000    0.000    0.000 
#    0.000    3.125    0.000    0.000    6.500    0.000 
#    0.000    0.000    0.000    0.000    0.000    0.000 
#
# Total GULP energy -178445.313833 kJ/mol
# GULP energy per Si atom -5576.416057 kJ/mol
# Density = 1.879342 g / cm^3
# Si number density = 18.836290 Si / 1000 Ang^3
#
#
#
# Elastic Constant Matrix: (Units=GPa)
#
#
# Indices 1 2 3 4 5 6 
#
# 1 50.8697 13.4812 13.3869 0.0000 0.0000 0.0000
# 2 13.4812 121.7541 35.2290 0.0000 0.0000 0.0000
# 3 13.3869 35.2290 90.7625 0.0000 0.0000 0.0000
# 4 0.0000 0.0000 0.0000 15.9815 0.0000 0.0000
# 5 0.0000 0.0000 0.0000 0.0000 19.4671 0.0000
# 6 0.0000 0.0000 0.0000 0.0000 0.0000 30.7631
#
#
#
# Elastic Compliance Matrix: (Units=1/GPa)
#
#
# Indices 1 2 3 4 5 6 
#
# 1 0.020721 -0.001588 -0.002440 0.000000 0.000000 0.000000
# 2 -0.001588 0.009374 -0.003404 0.000000 0.000000 0.000000
# 3 -0.002440 -0.003404 0.012699 0.000000 0.000000 0.000000
# 4 0.000000 0.000000 0.000000 0.062572 0.000000 0.000000
# 5 0.000000 0.000000 0.000000 0.000000 0.051369 0.000000
# 6 0.000000 0.000000 0.000000 0.000000 0.000000 0.032506
#
#
# Mechanical properties :
#
#
# Convention : Reuss Voigt Hill
#
# Bulk Modulus (GPa) = 35.80453 43.06450 39.43451
# Shear Modulus (GPa) = 23.42843 26.66165 25.04504
#
# Velocity S-wave (km/s) = 3.53057 3.76632 3.65035
# Velocity P-wave (km/s) = 5.97239 6.46728 6.22475
#
# Compressibility (1/GPa) = 0.02792943
#
# Stress axis : x y z
#
# Youngs Moduli (GPa) = 48.26014 106.67631 78.74667
#
# Poissons Ratio (x) = 0.16945 0.19212
# Poissons Ratio (y) = 0.07666 0.26807
# Poissons Ratio (z) = 0.11774 0.36315
#
# Static dielectric constant tensor:
#      x y z
#    x 1.704780 0.000000 0.000000 
#    y 0.000000 1.701530 0.000000 
#    z 0.000000 0.000000 1.601420 
# 
# From -- ./inp_files/2623.got.cif
#   From: 2010.05.17/outbox.cif.g08.bks.cpg/sg32_2_cif.got.tgz:2623.got - 2010.06.03 17:12:27.
