data_PCOD9343290
_publ_section_title
;
Structure prediction by ZEFSAII (Michael W. Deem and Ramdas Pophale) SiO2 
 PCOD9343290
Probable space group: P M N 21
;
_chemical_formula_sum "Si O2"
_cell_formula_units_Z 32
_cell_length_a 13.014228
_cell_length_b 7.429232
_cell_length_c 13.072713
_cell_angle_alpha 90.000000
_cell_angle_beta 90.000000
_cell_angle_gamma 90.000000
_cell_volume 1263.944657
_symmetry_space_group_name_H-M "P M N 21"
_symmetry_group_IT_number 31
_symmetry_cell_setting 'orthorhombic'
loop_
_space_group_symop_operation_xyz
x,y,z
1/2-x,-y,1/2+z
-x,y,z
1/2+x,-y,1/2+z
loop_
_atom_site_type_symbol
_atom_site_label
_atom_site_fract_x
_atom_site_fract_y
_atom_site_fract_z
Si Si1 0.390606 0.719741 0.676130
Si Si2 0.666464 0.281038 0.118861
Si Si3 0.611519 0.790941 0.349334
Si Si4 0.158501 0.706756 0.400258
Si Si5 0.888481 0.790941 0.849334
Si Si6 0.333536 0.718962 0.118861
Si Si7 0.390606 0.280260 0.676130
Si Si8 0.841499 0.293244 0.400258
O O1 0.500000 0.777031 0.632530
O O2 0.286094 0.775382 0.622768
O O3 0.388631 0.500000 0.676752
O O4 0.381360 0.783757 0.793803
O O5 0.617938 0.221267 0.225393
O O6 0.661452 0.500000 0.119595
O O7 0.626131 0.216460 0.009486
O O8 0.500000 0.715369 0.380605
O O9 0.716793 0.706337 0.390564
O O10 0.617938 0.778732 0.225393
O O11 0.615022 1.000000 0.377762
O O12 0.118640 0.783757 0.293803
O O13 0.124249 0.500000 0.400540
O O14 0.783207 0.706337 0.890564
O O15 0.000000 0.715370 0.880604
O O16 0.213905 0.775382 0.122768
O O17 0.373869 0.783540 0.009487
O O18 0.500000 0.222969 0.632530
#
# Coordination Sequence:
#
# PCOD9343290 Si02
#       8
#     4   4   4   4   4   4   4   4
#     4   8  14  26  44  67  94 119 147 190 242 292
#     4   9  18  32  51  74  97 125 164 208 252 294
#     4  10  21  35  50  71 102 139 173 204 244 296
#     4   9  18  32  51  74  97 125 164 208 252 294
#     4  10  21  35  50  71 102 139 173 204 244 296
#     4   9  18  32  51  74  97 125 164 208 252 294
#     4   8  14  26  44  67  94 119 147 190 242 292
#     4   9  18  32  51  74  97 125 164 208 252 294
#
# _framework density 25.317565999999999
#
# number of rings (size 3 to 8) (size 9 to 14) (size 15 to 20)
#    0.000    3.000    0.000    2.250    0.000    5.000 
#    0.000    5.000    0.000   12.000    0.000    0.000 
#    0.000    0.000    0.000    0.000    0.000    0.000 
#
# Total GULP energy -178751.964154 kJ/mol
# GULP energy per Si atom -5585.998880 kJ/mol
# Density = 2.525994 g / cm^3
# Si number density = 25.317566 Si / 1000 Ang^3
#
#
#
# Elastic Constant Matrix: (Units=GPa)
#
#
# Indices 1 2 3 4 5 6 
#
# 1 149.7400 -2.3989 -6.3031 0.0000 0.0000 0.0000
# 2 -2.3989 91.2896 -7.9283 0.0000 0.0000 0.0000
# 3 -6.3031 -7.9283 121.7848 0.0000 0.0000 0.0000
# 4 0.0000 0.0000 0.0000 103.0234 0.0000 0.0000
# 5 0.0000 0.0000 0.0000 0.0000 -21.7586 0.0000
# 6 0.0000 0.0000 0.0000 0.0000 0.0000 2.7915
#
#
#
# Elastic Compliance Matrix: (Units=1/GPa)
#
#
# Indices 1 2 3 4 5 6 
#
# 1 0.006697 0.000207 0.000360 0.000000 0.000000 0.000000
# 2 0.000207 0.011023 0.000728 0.000000 0.000000 0.000000
# 3 0.000360 0.000728 0.008277 0.000000 0.000000 0.000000
# 4 0.000000 0.000000 0.000000 0.009707 0.000000 0.000000
# 5 0.000000 0.000000 0.000000 0.000000 -0.045959 0.000000
# 6 0.000000 0.000000 0.000000 0.000000 0.000000 0.358233
#
#
# Mechanical properties :
#
#
# Convention : Reuss Voigt Hill
#
# Bulk Modulus (GPa) = 34.97953 36.61709 35.79831
# Shear Modulus (GPa) = 14.08787 42.10756 28.09772
#
# Velocity S-wave (km/s) = 2.36147 4.08263 3.33500
# Velocity P-wave (km/s) = 4.61321 6.05957 5.38517
#
# Compressibility (1/GPa) = 0.02858815
#
# Stress axis : x y z
#
# Youngs Moduli (GPa) = 149.32686 90.72062 120.81294
#
# Poissons Ratio (x) = -0.01880 -0.04350
# Poissons Ratio (y) = -0.03095 -0.08799
# Poissons Ratio (z) = -0.05377 -0.06607
#
# Static dielectric constant tensor:
#      x y z
#    x 1.988110 0.000000 0.000000 
#    y 0.000000 1.873830 0.000000 
#    z 0.000000 0.000000 1.979050 
# 
# From -- ./inp_files/5456.got.cif
#   From: 2010.05.17/outbox.cif.g08.bks.cpg/sg31_3_cif.got.tgz:5456.got - 2010.06.03 17:08:30.
