data_PCOD9343145
_publ_section_title
;
Structure prediction by ZEFSAII (Michael W. Deem and Ramdas Pophale) SiO2 
 PCOD9343145
Probable space group: P M N 21
;
_chemical_formula_sum "Si O2"
_cell_formula_units_Z 32
_cell_length_a 8.704407
_cell_length_b 12.162546
_cell_length_c 15.839161
_cell_angle_alpha 90.000000
_cell_angle_beta 90.000000
_cell_angle_gamma 90.000000
_cell_volume 1676.856346
_symmetry_space_group_name_H-M "P M N 21"
_symmetry_group_IT_number 31
_symmetry_cell_setting 'orthorhombic'
loop_
_space_group_symop_operation_xyz
x,y,z
1/2-x,-y,1/2+z
-x,y,z
1/2+x,-y,1/2+z
loop_
_atom_site_type_symbol
_atom_site_label
_atom_site_fract_x
_atom_site_fract_y
_atom_site_fract_z
Si Si1 0.683730 0.856630 0.433810
Si Si2 0.815942 0.495523 0.525586
Si Si3 0.683942 0.744929 0.093884
Si Si4 0.183756 0.497229 0.838781
Si Si5 0.315415 0.268191 0.095027
Si Si6 0.817474 0.727103 0.274192
Si Si7 0.686968 0.258628 0.282867
Si Si8 0.314242 0.112729 0.441344
O O1 0.500000 0.848619 0.426881
O O2 0.738317 0.796285 0.518629
O O3 0.756680 0.797531 0.352985
O O4 0.727381 0.984826 0.437503
O O5 0.771679 0.379744 0.567100
O O6 0.731661 0.510808 0.436595
O O7 0.784888 0.601612 0.583233
O O8 0.000000 0.492894 0.510074
O O9 0.500000 0.749730 0.098019
O O10 0.752403 0.769469 0.185477
O O11 0.744558 0.826476 0.022122
O O12 0.258911 0.397198 0.788722
O O13 0.233032 0.617104 0.806133
O O14 0.000000 0.488725 0.830578
O O15 0.500000 0.253710 0.088794
O O16 0.263308 0.231222 0.187909
O O17 0.000000 0.728846 0.273398
O O18 0.500000 0.257598 0.282280
O O19 0.736769 0.176290 0.356487
O O20 0.500000 0.120626 0.446172
#
# Coordination Sequence:
#
# PCOD9343145 Si02
#       8
#     4   4   4   4   4   4   4   4
#     4  11  24  41  61  87 120 159 208 259 304 358
#     4  10  20  35  58  90 126 158 191 243 303 365
#     4  11  23  40  64  93 125 159 202 250 302 365
#     4  11  20  35  63  92 121 155 197 245 302 367
#     4  10  20  37  61  87 119 157 198 244 302 362
#     4  12  25  41  62  89 125 163 203 250 306 364
#     4   9  19  37  62  89 117 155 196 242 298 358
#     4  10  22  42  63  87 121 160 205 253 303 357
#
# _framework density 19.08333
#
# number of rings (size 3 to 8) (size 9 to 14) (size 15 to 20)
#    0.000    1.500    2.500    3.000    0.000    4.500 
#    0.000    4.375    0.000    0.000    0.000    0.000 
#    0.000    0.000    0.000    0.000    0.000    0.000 
#
# Total GULP energy -178874.694584 kJ/mol
# GULP energy per Si atom -5589.834206 kJ/mol
# Density = 1.903990 g / cm^3
# Si number density = 19.083330 Si / 1000 Ang^3
#
#
#
# Elastic Constant Matrix: (Units=GPa)
#
#
# Indices 1 2 3 4 5 6 
#
# 1 30.4040 26.0274 16.2221 0.0000 0.0000 0.0000
# 2 26.0274 107.3629 29.3694 0.0000 0.0000 0.0000
# 3 16.2221 29.3694 110.2308 0.0000 0.0000 0.0000
# 4 0.0000 0.0000 0.0000 -0.9398 0.0000 0.0000
# 5 0.0000 0.0000 0.0000 0.0000 20.0040 0.0000
# 6 0.0000 0.0000 0.0000 0.0000 0.0000 32.4476
#
#
#
# Elastic Compliance Matrix: (Units=1/GPa)
#
#
# Indices 1 2 3 4 5 6 
#
# 1 0.042949 -0.009365 -0.003825 0.000000 0.000000 0.000000
# 2 -0.009365 0.012089 -0.001843 0.000000 0.000000 0.000000
# 3 -0.003825 -0.001843 0.010126 0.000000 0.000000 0.000000
# 4 0.000000 0.000000 0.000000 -1.064026 0.000000 0.000000
# 5 0.000000 0.000000 0.000000 0.000000 0.049990 0.000000
# 6 0.000000 0.000000 0.000000 0.000000 0.000000 0.030819
#
#
# Mechanical properties :
#
#
# Convention : Reuss Voigt Hill
#
# Bulk Modulus (GPa) = 28.49284 43.47061 35.98172
# Shear Modulus (GPa) = -5.70588 22.06095 8.17754
#
# Velocity S-wave (km/s) = -1.73103 3.40374 2.07231
# Velocity P-wave (km/s) = 3.31178 6.18676 4.96205
#
# Compressibility (1/GPa) = 0.03509654
#
# Stress axis : x y z
#
# Youngs Moduli (GPa) = 23.28366 82.72224 98.75816
#
# Poissons Ratio (x) = 0.77473 0.37777
# Poissons Ratio (y) = 0.21806 0.18197
# Poissons Ratio (z) = 0.08907 0.15242
#
# Static dielectric constant tensor:
#      x y z
#    x 1.644020 0.000000 0.000000 
#    y 0.000000 1.648310 0.000000 
#    z 0.000000 0.000000 1.642490 
# 
# From -- ./inp_files/5037.got.cif
#   From: 2010.05.17/outbox.cif.g08.bks.cpg/sg31_3_cif.got.tgz:5037.got - 2010.06.03 17:08:30.
