data_PCOD9343306
_publ_section_title
;
Structure prediction by ZEFSAII (Michael W. Deem and Ramdas Pophale) SiO2 
 PCOD9343306
Probable space group: P M N 21
;
_chemical_formula_sum "Si O2"
_cell_formula_units_Z 32
_cell_length_a 10.601729
_cell_length_b 14.810698
_cell_length_c 10.553266
_cell_angle_alpha 90.000000
_cell_angle_beta 90.000000
_cell_angle_gamma 90.000000
_cell_volume 1657.063343
_symmetry_space_group_name_H-M "P M N 21"
_symmetry_group_IT_number 31
_symmetry_cell_setting 'orthorhombic'
loop_
_space_group_symop_operation_xyz
x,y,z
1/2-x,-y,1/2+z
-x,y,z
1/2+x,-y,1/2+z
loop_
_atom_site_type_symbol
_atom_site_label
_atom_site_fract_x
_atom_site_fract_y
_atom_site_fract_z
Si Si1 0.137106 0.245186 0.087380
Si Si2 0.861725 0.646362 0.466603
Si Si3 0.642553 0.621451 0.815155
Si Si4 0.647381 0.969407 0.567456
Si Si5 0.852487 0.955511 0.350835
Si Si6 0.862171 0.762408 0.240346
Si Si7 0.641436 0.490361 0.179279
Si Si8 0.642096 0.690956 0.095598
O O1 0.139993 0.290795 0.224944
O O2 0.000000 0.266956 0.029238
O O3 0.247602 0.294501 0.015299
O O4 0.150862 0.138519 0.087936
O O5 0.863521 0.668137 0.318236
O O6 0.846924 0.549685 0.534946
O O7 0.000000 0.679262 0.511355
O O8 0.500000 0.581445 0.812403
O O9 0.748554 0.554720 0.760985
O O10 0.668916 0.657873 0.954161
O O11 0.500000 0.993065 0.534332
O O12 0.750740 0.987854 0.456267
O O13 0.674695 0.011244 0.706532
O O14 0.847603 0.846400 0.336304
O O15 0.000000 0.979720 0.380203
O O16 0.000000 0.773461 0.179175
O O17 0.746688 0.758573 0.145539
O O18 0.500000 0.464404 0.223842
O O19 0.645741 0.597741 0.174704
O O20 0.500000 0.727762 0.102101
#
# Coordination Sequence:
#
# PCOD9343306 Si02
#       8
#     4   4   4   4   4   4   4   4
#     4   9  17  32  55  80 103 134 177 222 270 323
#     4   9  17  32  55  77 102 138 176 217 266 320
#     4   9  19  35  53  75 106 141 179 225 277 333
#     4  10  21  37  59  87 118 151 192 243 290 346
#     4  10  22  40  60  87 121 153 195 242 290 351
#     4  10  21  36  56  80 109 147 184 223 275 333
#     4   9  19  34  52  77 105 137 180 227 272 324
#     4  10  22  36  52  77 110 143 181 229 278 332
#
# _framework density 19.311271999999999
#
# number of rings (size 3 to 8) (size 9 to 14) (size 15 to 20)
#    0.000    2.500    1.250    0.000    1.750    3.500 
#    0.000    1.250    0.000    0.000    0.000    0.000 
#    0.000    0.000    0.000    0.000    0.000    0.000 
#
# Total GULP energy -178190.706337 kJ/mol
# GULP energy per Si atom -5568.459573 kJ/mol
# Density = 1.926732 g / cm^3
# Si number density = 19.311272 Si / 1000 Ang^3
#
#
#
# Elastic Constant Matrix: (Units=GPa)
#
#
# Indices 1 2 3 4 5 6 
#
# 1 124.1818 22.7598 76.4726 0.0000 0.0000 0.0000
# 2 22.7598 20.6080 2.0911 0.0000 0.0000 0.0000
# 3 76.4726 2.0911 73.6598 0.0000 0.0000 0.0000
# 4 0.0000 0.0000 0.0000 20.4666 0.0000 0.0000
# 5 0.0000 0.0000 0.0000 0.0000 32.1023 0.0000
# 6 0.0000 0.0000 0.0000 0.0000 0.0000 22.1626
#
#
#
# Elastic Compliance Matrix: (Units=1/GPa)
#
#
# Indices 1 2 3 4 5 6 
#
# 1 0.041391 -0.041472 -0.041794 0.000000 0.000000 0.000000
# 2 -0.041472 0.090218 0.040494 0.000000 0.000000 0.000000
# 3 -0.041794 0.040494 0.055816 0.000000 0.000000 0.000000
# 4 0.000000 0.000000 0.000000 0.048860 0.000000 0.000000
# 5 0.000000 0.000000 0.000000 0.000000 0.031150 0.000000
# 6 0.000000 0.000000 0.000000 0.000000 0.000000 0.045121
#
#
# Mechanical properties :
#
#
# Convention : Reuss Voigt Hill
#
# Bulk Modulus (GPa) = 9.81527 46.78850 28.30188
# Shear Modulus (GPa) = 11.57244 22.75470 17.16357
#
# Velocity S-wave (km/s) = 2.45063 3.43638 2.98448
# Velocity P-wave (km/s) = 3.61955 6.32662 5.15399
#
# Compressibility (1/GPa) = 0.10188210
#
# Stress axis : x y z
#
# Youngs Moduli (GPa) = 24.15992 11.08425 17.91588
#
# Poissons Ratio (x) = 0.45968 0.74878
# Poissons Ratio (y) = 1.00196 -0.72549
# Poissons Ratio (z) = 1.00974 -0.44885
#
# Static dielectric constant tensor:
#      x y z
#    x 1.703310 0.000000 0.000000 
#    y 0.000000 1.680990 0.000000 
#    z 0.000000 0.000000 1.693610 
# 
# From -- ./inp_files/3730.got.cif
#   From: 2010.05.17/outbox.cif.g08.bks.cpg/sg31_2_cif.got.tgz:3730.got - 2010.06.03 17:08:30.
