data_PCOD9343577
_publ_section_title
;
Structure prediction by ZEFSAII (Michael W. Deem and Ramdas Pophale) SiO2 
 PCOD9343577
Probable space group: P M N 21
;
_chemical_formula_sum "Si O2"
_cell_formula_units_Z 22
_cell_length_a 31.113870
_cell_length_b 5.367775
_cell_length_c 4.938235
_cell_angle_alpha 90.000000
_cell_angle_beta 90.000000
_cell_angle_gamma 90.000000
_cell_volume 824.745756
_symmetry_space_group_name_H-M "P M N 21"
_symmetry_group_IT_number 31
_symmetry_cell_setting 'orthorhombic'
loop_
_space_group_symop_operation_xyz
x,y,z
1/2-x,-y,1/2+z
-x,y,z
1/2+x,-y,1/2+z
loop_
_atom_site_type_symbol
_atom_site_label
_atom_site_fract_x
_atom_site_fract_y
_atom_site_fract_z
Si Si1 0.250821 0.134538 0.096640
Si Si2 0.432848 0.250377 0.078751
Si Si3 0.339924 0.648891 0.776537
Si Si4 0.658217 0.350038 0.278547
Si Si5 0.500000 0.518191 0.407872
Si Si6 0.932247 0.226149 0.239296
O O1 0.206966 0.259163 0.195125
O O2 0.295790 0.242150 0.198330
O O3 0.249024 0.879797 0.273147
O O4 0.437101 0.510204 0.905673
O O5 0.446726 0.011897 0.908681
O O6 0.383985 0.211542 0.174865
O O7 0.462803 0.313589 0.328535
O O8 0.345032 0.399167 0.596557
O O9 0.381446 0.804160 0.686069
O O10 0.343116 0.602329 0.096272
O O11 0.537848 0.720826 0.486629
#
# Coordination Sequence:
#
# PCOD9343577 Si02
#       6
#     4   4   4   4   2   4
#     4  12  24  40  68 106 144 196 250 312 386 468
#     4  11  26  46  72 107 150 196 260 322 390 469
#     4  11  23  45  68 104 145 200 250 317 386 467
#     4  11  23  45  68 104 145 200 250 317 386 467
#     4  12  24  50  72 112 140 214 248 334 390 468
#     4  11  26  46  72 107 150 196 260 322 390 469
#
# _framework density 26.674885
#
# number of rings (size 3 to 8) (size 9 to 14) (size 15 to 20)
#    0.000    0.727    1.818    5.455    0.000    5.818 
#    0.000    0.000    0.000    0.000    0.000    0.000 
#    0.000    0.000    0.000    0.000    0.000    0.000 
#
# Total GULP energy -122670.058419 kJ/mol
# GULP energy per Si atom -5575.911746 kJ/mol
# Density = 2.661417 g / cm^3
# Si number density = 26.674885 Si / 1000 Ang^3
#
#
#
# Elastic Constant Matrix: (Units=GPa)
#
#
# Indices 1 2 3 4 5 6 
#
# 1 204.7938 39.7541 25.6053 0.0000 0.0000 0.0000
# 2 39.7541 135.2350 40.9591 0.0000 0.0000 0.0000
# 3 25.6053 40.9591 95.2052 0.0000 0.0000 0.0000
# 4 0.0000 0.0000 0.0000 63.9386 0.0000 0.0000
# 5 0.0000 0.0000 0.0000 0.0000 -21.4652 0.0000
# 6 0.0000 0.0000 0.0000 0.0000 0.0000 -148.2763
#
#
#
# Elastic Compliance Matrix: (Units=1/GPa)
#
#
# Indices 1 2 3 4 5 6 
#
# 1 0.005239 -0.001280 -0.000858 0.000000 0.000000 0.000000
# 2 -0.001280 0.008815 -0.003448 0.000000 0.000000 0.000000
# 3 -0.000858 -0.003448 0.012218 0.000000 0.000000 0.000000
# 4 0.000000 0.000000 0.000000 0.015640 0.000000 0.000000
# 5 0.000000 0.000000 0.000000 0.000000 -0.046587 0.000000
# 6 0.000000 0.000000 0.000000 0.000000 0.000000 -0.006744
#
#
# Mechanical properties :
#
#
# Convention : Reuss Voigt Hill
#
# Bulk Modulus (GPa) = 66.23013 71.98568 69.10790
# Shear Modulus (GPa) = 1044.59029 0.76712 522.67871
#
# Velocity S-wave (km/s) = 19.81037 0.53685 14.01319
# Velocity P-wave (km/s) = 23.41261 5.23729 16.96437
#
# Compressibility (1/GPa) = 0.01509887
#
# Stress axis : x y z
#
# Youngs Moduli (GPa) = 190.88523 113.44052 81.84688
#
# Poissons Ratio (x) = 0.14521 0.07025
# Poissons Ratio (y) = 0.24434 0.28222
# Poissons Ratio (z) = 0.16383 0.39117
#
# Static dielectric constant tensor:
#      x y z
#    x 2.042960 0.000000 0.000000 
#    y 0.000000 2.159530 0.000000 
#    z 0.000000 0.000000 2.133320 
# 
# From -- ./inp_files/1317.got.cif
#   From: 2010.05.17/outbox.cif.g08.bks.cpg/sg31_1_cif.got.tgz:1317.got - 2010.06.03 17:08:30.
