data_PCOD9343114
_publ_section_title
;
Structure prediction by ZEFSAII (Michael W. Deem and Ramdas Pophale) SiO2 
 PCOD9343114
Probable space group: P M N 21
;
_chemical_formula_sum "Si O2"
_cell_formula_units_Z 32
_cell_length_a 7.563776
_cell_length_b 10.994852
_cell_length_c 17.672438
_cell_angle_alpha 90.000000
_cell_angle_beta 90.000000
_cell_angle_gamma 90.000000
_cell_volume 1469.685851
_symmetry_space_group_name_H-M "P M N 21"
_symmetry_group_IT_number 31
_symmetry_cell_setting 'orthorhombic'
loop_
_space_group_symop_operation_xyz
x,y,z
1/2-x,-y,1/2+z
-x,y,z
1/2+x,-y,1/2+z
loop_
_atom_site_type_symbol
_atom_site_label
_atom_site_fract_x
_atom_site_fract_y
_atom_site_fract_z
Si Si1 0.198411 0.328700 0.101280
Si Si2 0.710749 0.298848 0.787572
Si Si3 0.290002 0.313879 0.421137
Si Si4 0.713937 0.785356 0.755517
Si Si5 0.784112 0.948867 0.208700
Si Si6 0.288174 0.590574 0.448098
Si Si7 0.796772 0.408731 0.639174
Si Si8 0.201919 0.837204 0.057717
O O1 0.280721 0.274719 0.177333
O O2 0.193661 0.472613 0.116042
O O3 0.000000 0.275675 0.095619
O O4 0.284075 0.330534 0.018519
O O5 0.500000 0.303211 0.778447
O O6 0.771744 0.166335 0.759172
O O7 0.755645 0.337213 0.871490
O O8 0.791705 0.394510 0.729117
O O9 0.500000 0.317934 0.436177
O O10 0.266924 0.278633 0.333570
O O11 0.221860 0.450461 0.440035
O O12 0.218547 0.207738 0.477561
O O13 0.500000 0.778270 0.754505
O O14 0.768183 0.925931 0.747966
O O15 0.722139 0.929609 0.121232
O O16 0.000000 0.947543 0.205238
O O17 0.500000 0.582208 0.459374
O O18 0.707660 0.289481 0.604389
O O19 0.000000 0.415077 0.613773
O O20 0.000000 0.876951 0.043596
#
# Coordination Sequence:
#
# PCOD9343114 Si02
#       8
#     4   4   4   4   4   4   4   4
#     4  10  20  36  55  77 110 148 179 221 277 330
#     4  10  20  35  56  78 106 146 183 217 273 330
#     4  10  20  35  56  82 113 143 175 227 283 330
#     4  10  21  37  57  80 108 145 189 229 269 324
#     4   8  17  36  58  77 102 141 188 227 261 322
#     4  10  20  35  54  82 115 138 176 231 279 325
#     4  11  20  31  53  83 111 138 177 224 272 322
#     4   9  17  35  59  79 105 145 185 220 272 329
#
# _framework density 21.77336
#
# number of rings (size 3 to 8) (size 9 to 14) (size 15 to 20)
#    0.000    2.250    1.250    3.000    0.000    4.000 
#    2.250    3.125    0.000    0.000    0.000    0.000 
#    0.000    0.000    0.000    0.000    0.000    0.000 
#
# Total GULP energy -178435.814032 kJ/mol
# GULP energy per Si atom -5576.119188 kJ/mol
# Density = 2.172380 g / cm^3
# Si number density = 21.773360 Si / 1000 Ang^3
#
#
#
# Elastic Constant Matrix: (Units=GPa)
#
#
# Indices 1 2 3 4 5 6 
#
# 1 69.1838 0.1531 1.9779 0.0000 0.0000 0.0000
# 2 0.1531 33.1598 29.6502 0.0000 0.0000 0.0000
# 3 1.9779 29.6502 182.7656 0.0000 0.0000 0.0000
# 4 0.0000 0.0000 0.0000 29.1232 0.0000 0.0000
# 5 0.0000 0.0000 0.0000 0.0000 31.0779 0.0000
# 6 0.0000 0.0000 0.0000 0.0000 0.0000 4.5890
#
#
#
# Elastic Compliance Matrix: (Units=1/GPa)
#
#
# Indices 1 2 3 4 5 6 
#
# 1 0.014459 0.000086 -0.000170 0.000000 0.000000 0.000000
# 2 0.000086 0.035274 -0.005724 0.000000 0.000000 0.000000
# 3 -0.000170 -0.005724 0.006402 0.000000 0.000000 0.000000
# 4 0.000000 0.000000 0.000000 0.034337 0.000000 0.000000
# 5 0.000000 0.000000 0.000000 0.000000 0.032177 0.000000
# 6 0.000000 0.000000 0.000000 0.000000 0.000000 0.217913
#
#
# Mechanical properties :
#
#
# Convention : Reuss Voigt Hill
#
# Bulk Modulus (GPa) = 22.46255 38.74130 30.60192
# Shear Modulus (GPa) = 13.62328 29.84655 21.73491
#
# Velocity S-wave (km/s) = 2.50408 3.70642 3.16291
# Velocity P-wave (km/s) = 4.32429 6.01235 5.23679
#
# Compressibility (1/GPa) = 0.04451854
#
# Stress axis : x y z
#
# Youngs Moduli (GPa) = 69.16139 28.34921 156.20454
#
# Poissons Ratio (x) = -0.00243 0.02661
# Poissons Ratio (y) = -0.00592 0.89404
# Poissons Ratio (z) = 0.01178 0.16226
#
# Static dielectric constant tensor:
#      x y z
#    x 1.806270 0.000000 0.000000 
#    y 0.000000 1.766860 0.000000 
#    z 0.000000 0.000000 1.842720 
# 
# From -- ./inp_files/5901.got.cif
#   From: 2010.05.17/outbox.cif.g08.bks.cpg/sg31_3_cif.got.tgz:5901.got - 2010.06.03 17:08:30.
