data_PCOD9343587
_publ_section_title
;
Structure prediction by ZEFSAII (Michael W. Deem and Ramdas Pophale) SiO2 
 PCOD9343587
Probable space group: P M N 21
;
_chemical_formula_sum "Si O2"
_cell_formula_units_Z 12
_cell_length_a 17.484727
_cell_length_b 5.409374
_cell_length_c 4.828197
_cell_angle_alpha 90.000000
_cell_angle_beta 90.000000
_cell_angle_gamma 90.000000
_cell_volume 456.657765
_symmetry_space_group_name_H-M "P M N 21"
_symmetry_group_IT_number 31
_symmetry_cell_setting 'orthorhombic'
loop_
_space_group_symop_operation_xyz
x,y,z
1/2-x,-y,1/2+z
-x,y,z
1/2+x,-y,1/2+z
loop_
_atom_site_type_symbol
_atom_site_label
_atom_site_fract_x
_atom_site_fract_y
_atom_site_fract_z
Si Si1 0.625658 0.973633 0.078970
Si Si2 0.500000 0.336646 0.240948
Si Si3 0.000000 0.314731 0.245653
Si Si4 0.741697 0.666576 0.416018
O O1 0.666396 0.777367 0.277957
O O2 0.574245 0.162965 0.260329
O O3 0.571818 0.843154 0.853928
O O4 0.693052 0.127642 0.935169
O O5 0.500000 0.576833 0.437209
O O6 0.500000 0.436820 0.928912
O O7 0.729759 0.552258 0.716733
#
# Coordination Sequence:
#
# PCOD9343587 Si02
#       4
#     4   2   2   4
#     4  11  28  50  78 113 154 200 256 315 380 452
#     4  11  28  51  77 110 153 203 254 311 377 454
#     4  11  28  51  77 110 153 203 254 311 377 454
#     4  12  28  48  78 116 154 198 252 316 382 450
#
# _framework density 26.277885000000001
#
# number of rings (size 3 to 8) (size 9 to 14) (size 15 to 20)
#    0.000    0.667    0.000    4.000    0.000   32.000 
#    0.000    5.000    0.000    0.000    0.000    0.000 
#    0.000    0.000    0.000    0.000    0.000    0.000 
#
# Total GULP energy -67484.355767 kJ/mol
# GULP energy per Si atom -5623.696314 kJ/mol
# Density = 2.621807 g / cm^3
# Si number density = 26.277885 Si / 1000 Ang^3
#
#
#
# Elastic Constant Matrix: (Units=GPa)
#
#
# Indices 1 2 3 4 5 6 
#
# 1 139.3413 49.8716 47.7608 0.0000 0.0000 0.0000
# 2 49.8716 108.0327 11.2125 0.0000 0.0000 0.0000
# 3 47.7608 11.2125 75.6492 0.0000 0.0000 0.0000
# 4 0.0000 0.0000 0.0000 54.4052 0.0000 0.0000
# 5 0.0000 0.0000 0.0000 0.0000 23.5442 0.0000
# 6 0.0000 0.0000 0.0000 0.0000 0.0000 47.1230
#
#
#
# Elastic Compliance Matrix: (Units=1/GPa)
#
#
# Indices 1 2 3 4 5 6 
#
# 1 0.010873 -0.004374 -0.006216 0.000000 0.000000 0.000000
# 2 -0.004374 0.011161 0.001107 0.000000 0.000000 0.000000
# 3 -0.006216 0.001107 0.016979 0.000000 0.000000 0.000000
# 4 0.000000 0.000000 0.000000 0.018381 0.000000 0.000000
# 5 0.000000 0.000000 0.000000 0.000000 0.042473 0.000000
# 6 0.000000 0.000000 0.000000 0.000000 0.000000 0.021221
#
#
# Mechanical properties :
#
#
# Convention : Reuss Voigt Hill
#
# Bulk Modulus (GPa) = 49.88262 60.07922 54.98092
# Shear Modulus (GPa) = 34.07474 39.29301 36.68387
#
# Velocity S-wave (km/s) = 3.60489 3.87109 3.74036
# Velocity P-wave (km/s) = 6.02917 6.54928 6.29460
#
# Compressibility (1/GPa) = 0.02004706
#
# Stress axis : x y z
#
# Youngs Moduli (GPa) = 91.97234 89.59957 58.89502
#
# Poissons Ratio (x) = 0.39192 0.36610
# Poissons Ratio (y) = 0.40230 -0.06522
# Poissons Ratio (z) = 0.57172 -0.09922
#
# Static dielectric constant tensor:
#      x y z
#    x 2.031050 0.000000 0.000000 
#    y 0.000000 2.004450 0.000000 
#    z 0.000000 0.000000 1.977840 
# 
# From -- ./inp_files/712.got.cif
#   From: 2010.05.17/outbox.cif.g08.bks.cpg/sg31_1_cif.got.tgz:712.got - 2010.06.03 17:08:30.
