data_PCOD9343835
_publ_section_title
;
Structure prediction by ZEFSAII (Michael W. Deem and Ramdas Pophale) SiO2 
 PCOD9343835
Probable space group: P B A 2
;
_chemical_formula_sum "Si O2"
_cell_formula_units_Z 30
_cell_length_a 15.999534
_cell_length_b 12.138602
_cell_length_c 8.000562
_cell_angle_alpha 90.000000
_cell_angle_beta 90.000000
_cell_angle_gamma 90.000000
_cell_volume 1553.804950
_symmetry_space_group_name_H-M "P B A 2"
_symmetry_group_IT_number 32
_symmetry_cell_setting 'orthorhombic'
loop_
_space_group_symop_operation_xyz
x,y,z
-x,-y,z
1/2-x,1/2+y,z
1/2+x,1/2-y,z
loop_
_atom_site_type_symbol
_atom_site_label
_atom_site_fract_x
_atom_site_fract_y
_atom_site_fract_z
Si Si1 0.420757 0.931787 0.110070
Si Si2 0.668421 0.586775 0.453572
Si Si3 0.739696 0.477935 0.123147
Si Si4 0.306886 0.763245 0.577452
Si Si5 0.000000 0.000000 0.336472
Si Si6 0.411373 0.963605 0.720172
Si Si7 0.617709 0.310583 0.241202
Si Si8 0.741663 0.439113 0.751881
O O1 0.410494 0.808871 0.180182
O O2 0.500000 0.000000 0.173692
O O3 0.337854 0.002797 0.146930
O O4 0.428023 0.923044 0.909113
O O5 0.698746 0.553095 0.267103
O O6 0.717031 0.698441 0.503071
O O7 0.569000 0.567769 0.443554
O O8 0.703535 0.504860 0.595856
O O9 0.701229 0.357043 0.153213
O O10 0.721946 0.499043 0.927096
O O11 0.362970 0.867967 0.623260
O O12 0.357121 0.700114 0.434316
O O13 0.292167 0.684178 0.734603
O O14 0.048719 0.092850 0.229301
O O15 0.500000 0.000000 0.646813
O O16 0.342215 0.059686 0.733593
#
# Coordination Sequence:
#
# PCOD9343835 Si02
#       8
#     4   4   4   4   2   4   4   4
#     4  10  21  40  62  93 122 161 208 260 310 370
#     4  10  21  40  58  85 118 158 205 248 303 372
#     4  10  20  39  63  85 122 162 204 255 307 368
#     4  11  20  36  63  86 118 161 202 248 307 369
#     4  10  22  40  58  86 128 160 198 262 304 356
#     4   9  21  38  60  89 124 150 206 259 300 365
#     4  11  22  38  63  89 125 163 204 255 308 367
#     4  10  20  38  61  86 117 161 200 247 310 365
#
# _framework density 19.307442999999999
#
# number of rings (size 3 to 8) (size 9 to 14) (size 15 to 20)
#    0.000    1.867    4.000    0.800    0.000    2.667 
#    0.000    2.667    5.867    0.000    0.000    0.000 
#    0.000    0.000    0.000    0.000    0.000    0.000 
#
# Total GULP energy -167069.938753 kJ/mol
# GULP energy per Si atom -5568.997958 kJ/mol
# Density = 1.926350 g / cm^3
# Si number density = 19.307443 Si / 1000 Ang^3
#
#
#
# Elastic Constant Matrix: (Units=GPa)
#
#
# Indices 1 2 3 4 5 6 
#
# 1 112.5225 44.4052 33.2994 0.0000 0.0000 0.0000
# 2 44.4052 94.3253 23.0911 0.0000 0.0000 0.0000
# 3 33.2994 23.0911 73.4443 0.0000 0.0000 0.0000
# 4 0.0000 0.0000 0.0000 0.4695 0.0000 0.0000
# 5 0.0000 0.0000 0.0000 0.0000 22.1774 0.0000
# 6 0.0000 0.0000 0.0000 0.0000 0.0000 30.5485
#
#
#
# Elastic Compliance Matrix: (Units=1/GPa)
#
#
# Indices 1 2 3 4 5 6 
#
# 1 0.011877 -0.004629 -0.003929 0.000000 0.000000 0.000000
# 2 -0.004629 0.013290 -0.002080 0.000000 0.000000 0.000000
# 3 -0.003929 -0.002080 0.016051 0.000000 0.000000 0.000000
# 4 0.000000 0.000000 0.000000 2.129856 0.000000 0.000000
# 5 0.000000 0.000000 0.000000 0.000000 0.045091 0.000000
# 6 0.000000 0.000000 0.000000 0.000000 0.000000 0.032735
#
#
# Mechanical properties :
#
#
# Convention : Reuss Voigt Hill
#
# Bulk Modulus (GPa) = 50.14667 53.54261 51.84464
# Shear Modulus (GPa) = 2.19604 22.60551 12.40078
#
# Velocity S-wave (km/s) = 1.06765 3.42543 2.53707
# Velocity P-wave (km/s) = 5.24871 6.59064 5.95758
#
# Compressibility (1/GPa) = 0.01994150
#
# Stress axis : x y z
#
# Youngs Moduli (GPa) = 84.19744 75.24467 62.30074
#
# Poissons Ratio (x) = 0.34833 0.24481
# Poissons Ratio (y) = 0.38977 0.12955
# Poissons Ratio (z) = 0.33085 0.15647
#
# Static dielectric constant tensor:
#      x y z
#    x 1.702680 0.000000 0.000000 
#    y 0.000000 1.721450 0.000000 
#    z 0.000000 0.000000 1.681430 
# 
# From -- ./inp_files/3066.got.cif
#   From: 2010.05.17/outbox.cif.g08.bks.cpg/sg32_2_cif.got.tgz:3066.got - 2010.06.03 17:12:27.
