data_PCOD9343971
_publ_section_title
;
Structure prediction by ZEFSAII (Michael W. Deem and Ramdas Pophale) SiO2 
 PCOD9343971
Probable space group: P B A 2
;
_chemical_formula_sum "Si O2"
_cell_formula_units_Z 30
_cell_length_a 7.077279
_cell_length_b 19.841021
_cell_length_c 8.472948
_cell_angle_alpha 90.000000
_cell_angle_beta 90.000000
_cell_angle_gamma 90.000000
_cell_volume 1189.775097
_symmetry_space_group_name_H-M "P B A 2"
_symmetry_group_IT_number 32
_symmetry_cell_setting 'orthorhombic'
loop_
_space_group_symop_operation_xyz
x,y,z
-x,-y,z
1/2-x,1/2+y,z
1/2+x,1/2-y,z
loop_
_atom_site_type_symbol
_atom_site_label
_atom_site_fract_x
_atom_site_fract_y
_atom_site_fract_z
Si Si1 0.769517 0.395686 0.058270
Si Si2 0.251135 0.821911 0.636767
Si Si3 0.222973 0.483501 0.873361
Si Si4 0.500000 0.000000 0.284007
Si Si5 0.679286 0.157267 0.996281
Si Si6 0.105241 0.698109 0.466845
Si Si7 0.669989 0.548426 0.512219
Si Si8 0.137101 0.217487 0.218170
O O1 0.875843 0.447656 0.179586
O O2 0.604827 0.340939 0.092346
O O3 0.685436 0.447551 0.931333
O O4 0.948940 0.350441 0.000803
O O5 0.251403 0.822533 0.823013
O O6 0.458182 0.842478 0.569979
O O7 0.118974 0.872717 0.537940
O O8 0.216257 0.746095 0.584237
O O9 0.244431 0.421317 0.996191
O O10 0.278806 0.468493 0.694193
O O11 0.000000 0.500000 0.867480
O O12 0.654739 0.037166 0.394537
O O13 0.718200 0.216656 0.123197
O O14 0.996495 0.746817 0.342942
O O15 0.241511 0.668043 0.336622
O O16 0.500000 0.500000 0.461585
#
# Coordination Sequence:
#
# PCOD9343971 Si02
#       8
#     4   4   4   2   4   4   4   4
#     4  11  22  41  69 100 128 187 230 274 356 417
#     4  10  24  44  66  95 135 179 228 283 343 417
#     4   9  19  45  68  94 129 180 230 279 342 413
#     4  12  24  42  76  98 142 186 228 296 356 418
#     4  10  21  41  67  93 131 169 229 281 334 408
#     4  10  23  41  62  92 134 174 219 281 345 406
#     4  11  25  45  69 105 137 182 235 290 347 418
#     4  11  22  40  63  95 133 171 221 281 343 404
#
# _framework density 25.214849999999998
#
# number of rings (size 3 to 8) (size 9 to 14) (size 15 to 20)
#    0.000    1.600    4.000    0.800    5.600    0.000 
#    7.200    0.667    0.000    0.000    0.000    0.000 
#    0.000    0.000    0.000    0.000    0.000    0.000 
#
# Total GULP energy -167154.932299 kJ/mol
# GULP energy per Si atom -5571.831077 kJ/mol
# Density = 2.515746 g / cm^3
# Si number density = 25.214850 Si / 1000 Ang^3
#
#
#
# Elastic Constant Matrix: (Units=GPa)
#
#
# Indices 1 2 3 4 5 6 
#
# 1 31.9827 -4.7910 7.8309 0.0000 0.0000 0.0000
# 2 -4.7910 62.3248 17.1231 0.0000 0.0000 0.0000
# 3 7.8309 17.1231 89.3962 0.0000 0.0000 0.0000
# 4 0.0000 0.0000 0.0000 13.3885 0.0000 0.0000
# 5 0.0000 0.0000 0.0000 0.0000 23.0064 0.0000
# 6 0.0000 0.0000 0.0000 0.0000 0.0000 26.0574
#
#
#
# Elastic Compliance Matrix: (Units=1/GPa)
#
#
# Indices 1 2 3 4 5 6 
#
# 1 0.032652 0.003479 -0.003527 0.000000 0.000000 0.000000
# 2 0.003479 0.017307 -0.003620 0.000000 0.000000 0.000000
# 3 -0.003527 -0.003620 0.012188 0.000000 0.000000 0.000000
# 4 0.000000 0.000000 0.000000 0.074691 0.000000 0.000000
# 5 0.000000 0.000000 0.000000 0.000000 0.043466 0.000000
# 6 0.000000 0.000000 0.000000 0.000000 0.000000 0.038377
#
#
# Mechanical properties :
#
#
# Convention : Reuss Voigt Hill
#
# Bulk Modulus (GPa) = 18.24419 24.89219 21.56819
# Shear Modulus (GPa) = 20.46778 23.39317 21.93047
#
# Velocity S-wave (km/s) = 2.85219 3.04921 2.95234
# Velocity P-wave (km/s) = 4.25415 4.72127 4.49378
#
# Compressibility (1/GPa) = 0.05481197
#
# Stress axis : x y z
#
# Youngs Moduli (GPa) = 30.62646 57.78042 82.04519
#
# Poissons Ratio (x) = -0.20101 0.28934
# Poissons Ratio (y) = -0.10655 0.29698
# Poissons Ratio (z) = 0.10801 0.20915
#
# Static dielectric constant tensor:
#      x y z
#    x 2.218760 0.000000 0.000000 
#    y 0.000000 2.051380 0.000000 
#    z 0.000000 0.000000 1.966770 
# 
# From -- ./inp_files/2575.got.cif
#   From: 2010.05.17/outbox.cif.g08.bks.cpg/sg32_2_cif.got.tgz:2575.got - 2010.06.03 17:12:27.
