data_PCOD9343498
_publ_section_title
;
Structure prediction by ZEFSAII (Michael W. Deem and Ramdas Pophale) SiO2 
 PCOD9343498
Probable space group: P M N 21
;
_chemical_formula_sum "Si O2"
_cell_formula_units_Z 24
_cell_length_a 8.792161
_cell_length_b 12.111807
_cell_length_c 12.092134
_cell_angle_alpha 90.000000
_cell_angle_beta 90.000000
_cell_angle_gamma 90.000000
_cell_volume 1287.678739
_symmetry_space_group_name_H-M "P M N 21"
_symmetry_group_IT_number 31
_symmetry_cell_setting 'orthorhombic'
loop_
_space_group_symop_operation_xyz
x,y,z
1/2-x,-y,1/2+z
-x,y,z
1/2+x,-y,1/2+z
loop_
_atom_site_type_symbol
_atom_site_label
_atom_site_fract_x
_atom_site_fract_y
_atom_site_fract_z
Si Si1 0.681380 0.215693 0.277390
Si Si2 0.681832 0.924840 0.975064
Si Si3 0.819145 0.283607 0.628506
Si Si4 0.181225 0.160568 0.039206
Si Si5 0.182256 0.415177 0.409579
Si Si6 0.319149 0.329829 0.865049
O O1 0.500000 0.208494 0.273734
O O2 0.747194 0.126404 0.363995
O O3 0.750094 0.194766 0.157188
O O4 0.732974 0.334235 0.325152
O O5 0.500000 0.933938 0.961985
O O6 0.710812 0.834930 0.071754
O O7 0.752972 0.041666 0.004936
O O8 0.781835 0.373239 0.533449
O O9 0.727611 0.302459 0.739862
O O10 0.000000 0.290672 0.651629
O O11 0.000000 0.155514 0.045993
O O12 0.232654 0.249164 0.948097
O O13 0.218841 0.542606 0.390718
O O14 0.000000 0.399382 0.394905
O O15 0.500000 0.315763 0.879926
#
# Coordination Sequence:
#
# PCOD9343498 Si02
#       6
#     4   4   4   4   4   4
#     4  11  23  41  66  94 125 163 207 254 312 369
#     4  10  22  43  67  91 123 163 209 257 309 369
#     4   9  20  40  64  89 122 162 205 255 309 367
#     4  12  26  42  63  92 127 165 209 256 309 368
#     4   9  21  42  64  90 125 165 207 254 308 366
#     4  11  24  40  62  94 128 162 207 258 309 365
#
# _framework density 18.638189000000001
#
# number of rings (size 3 to 8) (size 9 to 14) (size 15 to 20)
#    0.000    1.667    0.000    5.000    4.667    4.667 
#    0.000    0.000    0.000    0.000    0.000    0.000 
#    0.000    0.000    0.000    0.000    0.000    0.000 
#
# Total GULP energy -134191.957039 kJ/mol
# GULP energy per Si atom -5591.331543 kJ/mol
# Density = 1.859577 g / cm^3
# Si number density = 18.638189 Si / 1000 Ang^3
#
#
#
# Elastic Constant Matrix: (Units=GPa)
#
#
# Indices 1 2 3 4 5 6 
#
# 1 126.6732 94.8605 84.9142 0.0000 0.0000 0.0000
# 2 94.8605 141.2751 95.4427 0.0000 0.0000 0.0000
# 3 84.9142 95.4427 145.3892 0.0000 0.0000 0.0000
# 4 0.0000 0.0000 0.0000 9.9641 0.0000 0.0000
# 5 0.0000 0.0000 0.0000 0.0000 37.8005 0.0000
# 6 0.0000 0.0000 0.0000 0.0000 0.0000 34.1200
#
#
#
# Elastic Compliance Matrix: (Units=1/GPa)
#
#
# Indices 1 2 3 4 5 6 
#
# 1 0.017356 -0.008636 -0.004468 0.000000 0.000000 0.000000
# 2 -0.008636 0.017016 -0.006127 0.000000 0.000000 0.000000
# 3 -0.004468 -0.006127 0.013510 0.000000 0.000000 0.000000
# 4 0.000000 0.000000 0.000000 0.100360 0.000000 0.000000
# 5 0.000000 0.000000 0.000000 0.000000 0.026455 0.000000
# 6 0.000000 0.000000 0.000000 0.000000 0.000000 0.029308
#
#
# Mechanical properties :
#
#
# Convention : Reuss Voigt Hill
#
# Bulk Modulus (GPa) = 106.14336 107.08583 106.61459
# Shear Modulus (GPa) = 20.35783 25.58492 22.97138
#
# Velocity S-wave (km/s) = 3.30853 3.70904 3.51449
# Velocity P-wave (km/s) = 8.46571 8.71335 8.59042
#
# Compressibility (1/GPa) = 0.00942122
#
# Stress axis : x y z
#
# Youngs Moduli (GPa) = 57.61641 58.76851 74.02157
#
# Poissons Ratio (x) = 0.50750 0.33072
# Poissons Ratio (y) = 0.49755 0.45351
# Poissons Ratio (z) = 0.25743 0.36006
#
# Static dielectric constant tensor:
#      x y z
#    x 1.625710 0.000000 0.000000 
#    y 0.000000 1.621860 0.000000 
#    z 0.000000 0.000000 1.607480 
# 
# From -- ./inp_files/3460.got.cif
#   From: 2010.05.17/outbox.cif.g08.bks.cpg/sg31_2_cif.got.tgz:3460.got - 2010.06.03 17:08:30.
