data_PCOD9343829
_publ_section_title
;
Structure prediction by ZEFSAII (Michael W. Deem and Ramdas Pophale) SiO2 
 PCOD9343829
Probable space group: P B A 2
;
_chemical_formula_sum "Si O2"
_cell_formula_units_Z 26
_cell_length_a 7.966738
_cell_length_b 16.255593
_cell_length_c 8.979210
_cell_angle_alpha 90.000000
_cell_angle_beta 90.000000
_cell_angle_gamma 90.000000
_cell_volume 1162.844065
_symmetry_space_group_name_H-M "P B A 2"
_symmetry_group_IT_number 32
_symmetry_cell_setting 'orthorhombic'
loop_
_space_group_symop_operation_xyz
x,y,z
-x,-y,z
1/2-x,1/2+y,z
1/2+x,1/2-y,z
loop_
_atom_site_type_symbol
_atom_site_label
_atom_site_fract_x
_atom_site_fract_y
_atom_site_fract_z
Si Si1 0.156773 0.693102 0.662950
Si Si2 0.545046 0.329432 0.475023
Si Si3 0.119632 0.931700 0.948637
Si Si4 0.000000 0.000000 0.389712
Si Si5 0.374844 0.687649 0.135549
Si Si6 0.138541 0.304969 0.864390
Si Si7 0.180638 0.535284 0.178201
O O1 0.271001 0.648485 0.541758
O O2 0.300098 0.726625 0.772693
O O3 0.059008 0.762103 0.566414
O O4 0.022206 0.658632 0.780273
O O5 0.453945 0.416883 0.473977
O O6 0.570682 0.297329 0.305639
O O7 0.008751 0.875373 0.060263
O O8 0.264040 0.980573 0.036699
O O9 0.211243 0.868460 0.844626
O O10 0.000000 0.000000 0.879172
O O11 0.164611 0.020000 0.291206
O O12 0.203361 0.632545 0.139939
O O13 0.371014 0.768920 0.032222
O O14 0.000000 0.500000 0.226629
#
# Coordination Sequence:
#
# PCOD9343829 Si02
#       7
#     4   4   4   2   4   4   4
#     4  10  24  41  62  94 142 171 222 281 341 413
#     4  10  22  44  66  97 134 180 221 285 343 415
#     4  10  20  40  64  95 136 176 227 299 348 397
#     4  10  20  46  66  94 142 180 224 282 360 402
#     4  10  21  39  68  96 124 176 237 278 348 400
#     4  11  22  41  64  96 129 181 224 286 338 416
#     4  10  20  37  63 103 138 165 221 305 340 400
#
# _framework density 22.358974
#
# number of rings (size 3 to 8) (size 9 to 14) (size 15 to 20)
#    0.000    1.846    5.385    0.000    4.308    0.000 
#   15.231    0.000    0.000    0.000    0.000    0.000 
#    0.000    0.000    0.000    0.000    0.000    0.000 
#
# Total GULP energy -144898.901047 kJ/mol
# GULP energy per Si atom -5573.034656 kJ/mol
# Density = 2.230808 g / cm^3
# Si number density = 22.358974 Si / 1000 Ang^3
#
#
#
# Elastic Constant Matrix: (Units=GPa)
#
#
# Indices 1 2 3 4 5 6 
#
# 1 96.4024 11.8834 14.0282 0.0000 0.0000 0.0000
# 2 11.8834 47.8404 17.0774 0.0000 0.0000 0.0000
# 3 14.0282 17.0774 80.2675 0.0000 0.0000 0.0000
# 4 0.0000 0.0000 0.0000 -6.6152 0.0000 0.0000
# 5 0.0000 0.0000 0.0000 0.0000 29.0357 0.0000
# 6 0.0000 0.0000 0.0000 0.0000 0.0000 32.3575
#
#
#
# Elastic Compliance Matrix: (Units=1/GPa)
#
#
# Indices 1 2 3 4 5 6 
#
# 1 0.010851 -0.002184 -0.001432 0.000000 0.000000 0.000000
# 2 -0.002184 0.023061 -0.004525 0.000000 0.000000 0.000000
# 3 -0.001432 -0.004525 0.013671 0.000000 0.000000 0.000000
# 4 0.000000 0.000000 0.000000 -0.151167 0.000000 0.000000
# 5 0.000000 0.000000 0.000000 0.000000 0.034440 0.000000
# 6 0.000000 0.000000 0.000000 0.000000 0.000000 0.030905
#
#
# Mechanical properties :
#
#
# Convention : Reuss Voigt Hill
#
# Bulk Modulus (GPa) = 31.94728 34.49872 33.22300
# Shear Modulus (GPa) = -433.85668 23.05702 -205.39983
#
# Velocity S-wave (km/s) = -13.94499 3.21475 -9.59500
# Velocity P-wave (km/s) = 15.65133 5.40763 10.38561
#
# Compressibility (1/GPa) = 0.03130157
#
# Stress axis : x y z
#
# Youngs Moduli (GPa) = 92.15945 43.36419 73.14663
#
# Poissons Ratio (x) = 0.09472 0.10472
# Poissons Ratio (y) = 0.20130 0.33095
# Poissons Ratio (z) = 0.13194 0.19620
#
# Static dielectric constant tensor:
#      x y z
#    x 1.860290 0.000000 0.000000 
#    y 0.000000 1.875330 0.000000 
#    z 0.000000 0.000000 1.864870 
# 
# From -- ./inp_files/2415.got.cif
#   From: 2010.05.17/outbox.cif.g08.bks.cpg/sg32_2_cif.got.tgz:2415.got - 2010.06.03 17:12:27.
