data_PCOD9343773
_publ_section_title
;
Structure prediction by ZEFSAII (Michael W. Deem and Ramdas Pophale) SiO2 
 PCOD9343773
Probable space group: P B A 2
;
_chemical_formula_sum "Si O2"
_cell_formula_units_Z 30
_cell_length_a 5.431806
_cell_length_b 22.123185
_cell_length_c 11.996467
_cell_angle_alpha 90.000000
_cell_angle_beta 90.000000
_cell_angle_gamma 90.000000
_cell_volume 1441.601632
_symmetry_space_group_name_H-M "P B A 2"
_symmetry_group_IT_number 32
_symmetry_cell_setting 'orthorhombic'
loop_
_space_group_symop_operation_xyz
x,y,z
-x,-y,z
1/2-x,1/2+y,z
1/2+x,1/2-y,z
loop_
_atom_site_type_symbol
_atom_site_label
_atom_site_fract_x
_atom_site_fract_y
_atom_site_fract_z
Si Si1 0.216987 0.235357 0.169000
Si Si2 0.171407 0.283086 0.923281
Si Si3 0.168796 0.911467 0.871737
Si Si4 0.500000 0.000000 0.984905
Si Si5 0.749698 0.037474 0.638771
Si Si6 0.704935 0.071624 0.393505
Si Si7 0.693800 0.434054 0.308595
Si Si8 0.700702 0.398997 0.074283
O O1 0.461998 0.254601 0.230975
O O2 0.232477 0.168410 0.118158
O O3 0.193778 0.277446 0.057868
O O4 0.428204 0.252631 0.884979
O O5 0.159374 0.352872 0.890141
O O6 0.153806 0.920521 0.739610
O O7 0.946207 0.898620 0.957938
O O8 0.277668 0.975749 0.911241
O O9 0.436293 0.058978 0.055040
O O10 0.662020 0.069758 0.525414
O O11 0.500000 0.000000 0.672873
O O12 0.000000 0.000000 0.609641
O O13 0.465177 0.094958 0.327205
O O14 0.974842 0.099137 0.373812
O O15 0.753691 0.002043 0.352207
O O16 0.591593 0.432392 0.182408
#
# Coordination Sequence:
#
# PCOD9343773 Si02
#       8
#     4   4   4   2   4   4   4   4
#     4  10  20  39  61  79 118 165 215 255 290 379
#     4  10  20  40  61  80 118 163 219 254 289 379
#     4  12  26  37  59  93 133 170 200 257 331 384
#     4  12  24  36  48  88 140 158 184 238 318 406
#     4  12  22  41  60  86 127 170 210 257 308 388
#     4  10  19  40  57  79 118 164 217 245 290 374
#     4  10  21  34  59  82 112 161 203 251 293 365
#     4  12  25  37  59  93 133 167 202 256 331 388
#
# _framework density 20.810186999999999
#
# number of rings (size 3 to 8) (size 9 to 14) (size 15 to 20)
#    0.000    1.067    6.000    3.600    5.600    0.000 
#    0.000    0.000    0.000    0.000    0.000    5.600 
#    0.000    0.000    0.000    0.000    0.000    0.000 
#
# Total GULP energy -167052.838220 kJ/mol
# GULP energy per Si atom -5568.427941 kJ/mol
# Density = 2.076282 g / cm^3
# Si number density = 20.810187 Si / 1000 Ang^3
#
#
#
# Elastic Constant Matrix: (Units=GPa)
#
#
# Indices 1 2 3 4 5 6 
#
# 1 160.6743 23.8536 4.6047 0.0000 0.0000 0.0000
# 2 23.8536 63.3394 8.8112 0.0000 0.0000 0.0000
# 3 4.6047 8.8112 94.1683 0.0000 0.0000 0.0000
# 4 0.0000 0.0000 0.0000 -35.1272 0.0000 0.0000
# 5 0.0000 0.0000 0.0000 0.0000 -277.4173 0.0000
# 6 0.0000 0.0000 0.0000 0.0000 0.0000 23.9754
#
#
#
# Elastic Compliance Matrix: (Units=1/GPa)
#
#
# Indices 1 2 3 4 5 6 
#
# 1 0.006593 -0.002470 -0.000091 0.000000 0.000000 0.000000
# 2 -0.002470 0.016922 -0.001463 0.000000 0.000000 0.000000
# 3 -0.000091 -0.001463 0.010761 0.000000 0.000000 0.000000
# 4 0.000000 0.000000 0.000000 -0.028468 0.000000 0.000000
# 5 0.000000 0.000000 0.000000 0.000000 -0.003605 0.000000
# 6 0.000000 0.000000 0.000000 0.000000 0.000000 0.041709
#
#
# Mechanical properties :
#
#
# Convention : Reuss Voigt Hill
#
# Bulk Modulus (GPa) = 38.12823 43.63567 40.88195
# Shear Modulus (GPa) = 82.36852 -38.98632 21.69110
#
# Velocity S-wave (km/s) = 6.29816 -4.33300 3.23202
# Velocity P-wave (km/s) = 8.44101 2.00482 5.79791
#
# Compressibility (1/GPa) = 0.02622729
#
# Stress axis : x y z
#
# Youngs Moduli (GPa) = 151.67317 59.09558 92.93162
#
# Poissons Ratio (x) = 0.14598 0.00848
# Poissons Ratio (y) = 0.37468 0.13592
# Poissons Ratio (z) = 0.01384 0.08643
#
# Static dielectric constant tensor:
#      x y z
#    x 2.679550 0.000000 0.000000 
#    y 0.000000 2.253060 0.000000 
#    z 0.000000 0.000000 1.804490 
# 
# From -- ./inp_files/3596.got.cif
#   From: 2010.05.17/outbox.cif.g08.bks.cpg/sg32_2_cif.got.tgz:3596.got - 2010.06.03 17:12:27.
