data_PCOD9343886
_publ_section_title
;
Structure prediction by ZEFSAII (Michael W. Deem and Ramdas Pophale) SiO2 
 PCOD9343886
Probable space group: P B A 2
;
_chemical_formula_sum "Si O2"
_cell_formula_units_Z 12
_cell_length_a 4.966408
_cell_length_b 13.174096
_cell_length_c 8.548392
_cell_angle_alpha 90.000000
_cell_angle_beta 90.000000
_cell_angle_gamma 90.000000
_cell_volume 559.303643
_symmetry_space_group_name_H-M "P B A 2"
_symmetry_group_IT_number 32
_symmetry_cell_setting 'orthorhombic'
loop_
_space_group_symop_operation_xyz
x,y,z
-x,-y,z
1/2-x,1/2+y,z
1/2+x,1/2-y,z
loop_
_atom_site_type_symbol
_atom_site_label
_atom_site_fract_x
_atom_site_fract_y
_atom_site_fract_z
Si Si1 0.265154 0.068448 0.399030
Si Si2 0.000000 0.500000 0.103433
Si Si3 0.500000 0.500000 0.891834
Si Si4 0.722964 0.312250 0.694985
O O1 0.206693 0.161781 0.510584
O O2 0.386832 0.084459 0.225893
O O3 0.500000 0.000000 0.479515
O O4 0.000000 0.000000 0.383299
O O5 0.250807 0.465657 0.000250
O O6 0.382875 0.590016 0.786241
O O7 0.525609 0.219308 0.732226
#
# Coordination Sequence:
#
# PCOD9343886 Si02
#       4
#     4   2   2   4
#     4  10  20  42  68  95 124 175 228 264 334 387
#     4  10  22  40  74  90 130 188 208 274 356 384
#     4  12  24  44  68  96 144 174 214 286 338 398
#     4  12  26  42  69 102 133 179 229 274 330 402
#
# _framework density 21.455251000000001
#
# number of rings (size 3 to 8) (size 9 to 14) (size 15 to 20)
#    1.000    0.000    3.333    4.000    2.333    0.000 
#    0.000   10.000    0.000    0.000    0.000    0.000 
#    0.000    0.000    0.000    0.000    0.000    0.000 
#
# Total GULP energy -66971.082839 kJ/mol
# GULP energy per Si atom -5580.923570 kJ/mol
# Density = 2.140642 g / cm^3
# Si number density = 21.455251 Si / 1000 Ang^3
#
#
#
# Elastic Constant Matrix: (Units=GPa)
#
#
# Indices 1 2 3 4 5 6 
#
# 1 140.8918 15.5811 39.4881 0.0000 0.0000 0.0000
# 2 15.5811 50.6923 31.1958 0.0000 0.0000 0.0000
# 3 39.4881 31.1958 108.4661 0.0000 0.0000 0.0000
# 4 0.0000 0.0000 0.0000 1.1269 0.0000 0.0000
# 5 0.0000 0.0000 0.0000 0.0000 8.5000 0.0000
# 6 0.0000 0.0000 0.0000 0.0000 0.0000 27.2764
#
#
#
# Elastic Compliance Matrix: (Units=1/GPa)
#
#
# Indices 1 2 3 4 5 6 
#
# 1 0.007931 -0.000803 -0.002656 0.000000 0.000000 0.000000
# 2 -0.000803 0.024051 -0.006625 0.000000 0.000000 0.000000
# 3 -0.002656 -0.006625 0.012092 0.000000 0.000000 0.000000
# 4 0.000000 0.000000 0.000000 0.887426 0.000000 0.000000
# 5 0.000000 0.000000 0.000000 0.000000 0.117647 0.000000
# 6 0.000000 0.000000 0.000000 0.000000 0.000000 0.036662
#
#
# Mechanical properties :
#
#
# Convention : Reuss Voigt Hill
#
# Bulk Modulus (GPa) = 41.83217 52.50890 47.17054
# Shear Modulus (GPa) = 4.48855 21.63300 13.06078
#
# Velocity S-wave (km/s) = 1.44796 3.17879 2.46995
# Velocity P-wave (km/s) = 4.72601 6.16440 5.49249
#
# Compressibility (1/GPa) = 0.02390505
#
# Stress axis : x y z
#
# Youngs Moduli (GPa) = 126.08811 41.57906 82.69990
#
# Poissons Ratio (x) = 0.03339 0.21968
# Poissons Ratio (y) = 0.10125 0.54787
# Poissons Ratio (z) = 0.33494 0.27545
#
# Static dielectric constant tensor:
#      x y z
#    x 1.768870 0.000000 0.000000 
#    y 0.000000 1.791520 0.000000 
#    z 0.000000 0.000000 1.803280 
# 
# From -- ./inp_files/1853.got.cif
#   From: 2010.05.17/outbox.cif.g08.bks.cpg/sg32_1_cif.got.tgz:1853.got - 2010.06.03 17:12:27.
