data_PCOD9343631
_publ_section_title
;
Structure prediction by ZEFSAII (Michael W. Deem and Ramdas Pophale) SiO2 
 PCOD9343631
Probable space group: P B A 2
;
_chemical_formula_sum "Si O2"
_cell_formula_units_Z 20
_cell_length_a 13.657352
_cell_length_b 10.304931
_cell_length_c 5.494730
_cell_angle_alpha 90.000000
_cell_angle_beta 90.000000
_cell_angle_gamma 90.000000
_cell_volume 773.317695
_symmetry_space_group_name_H-M "P B A 2"
_symmetry_group_IT_number 32
_symmetry_cell_setting 'orthorhombic'
loop_
_space_group_symop_operation_xyz
x,y,z
-x,-y,z
1/2-x,1/2+y,z
1/2+x,1/2-y,z
loop_
_atom_site_type_symbol
_atom_site_label
_atom_site_fract_x
_atom_site_fract_y
_atom_site_fract_z
Si Si1 0.834941 0.243908 0.071360
Si Si2 0.541966 0.147484 0.079541
Si Si3 0.784145 0.883512 0.429282
Si Si4 0.104106 0.423246 0.570916
Si Si5 0.693630 0.459048 0.920863
O O1 0.950574 0.257485 0.067216
O O2 0.784436 0.262734 0.337478
O O3 0.794755 0.375194 0.942464
O O4 0.805197 0.113645 0.934720
O O5 0.593702 0.169901 0.337698
O O6 0.500000 0.000000 0.097252
O O7 0.605820 0.144765 0.834740
O O8 0.696284 0.988311 0.493308
O O9 0.848033 0.902439 0.671703
O O10 0.845099 0.923981 0.189775
O O11 0.000000 0.500000 0.583693
#
# Coordination Sequence:
#
# PCOD9343631 Si02
#       5
#     4   4   4   4   4
#     4  10  22  35  52  82 110 142 178 223 268 334
#     4  10  17  27  50  75 103 127 171 227 271 297
#     4  10  20  34  51  78 109 139 177 218 271 329
#     4  10  15  28  47  75  99 129 163 226 269 302
#     4  10  22  32  54  72 113 144 178 215 269 324
#
# _framework density 25.862591999999999
#
# number of rings (size 3 to 8) (size 9 to 14) (size 15 to 20)
#    1.200    0.800    4.000    3.600    2.800    0.000 
#    0.000    0.000    0.000    0.000    0.000   15.400 
#    0.000    0.000    0.000    0.000    0.000    0.000 
#
# Total GULP energy -111432.954603 kJ/mol
# GULP energy per Si atom -5571.647730 kJ/mol
# Density = 2.580373 g / cm^3
# Si number density = 25.862592 Si / 1000 Ang^3
#
#
#
# Elastic Constant Matrix: (Units=GPa)
#
#
# Indices 1 2 3 4 5 6 
#
# 1 43.1683 9.9617 -8.6384 0.0000 0.0000 0.0000
# 2 9.9617 68.8653 12.7887 0.0000 0.0000 0.0000
# 3 -8.6384 12.7887 252.2964 0.0000 0.0000 0.0000
# 4 0.0000 0.0000 0.0000 14.8365 0.0000 0.0000
# 5 0.0000 0.0000 0.0000 0.0000 -6.8379 0.0000
# 6 0.0000 0.0000 0.0000 0.0000 0.0000 30.4106
#
#
#
# Elastic Compliance Matrix: (Units=1/GPa)
#
#
# Indices 1 2 3 4 5 6 
#
# 1 0.024221 -0.003692 0.001016 0.000000 0.000000 0.000000
# 2 -0.003692 0.015222 -0.000898 0.000000 0.000000 0.000000
# 3 0.001016 -0.000898 0.004044 0.000000 0.000000 0.000000
# 4 0.000000 0.000000 0.000000 0.067402 0.000000 0.000000
# 5 0.000000 0.000000 0.000000 0.000000 -0.146243 0.000000
# 6 0.000000 0.000000 0.000000 0.000000 0.000000 0.032883
#
#
# Mechanical properties :
#
#
# Convention : Reuss Voigt Hill
#
# Bulk Modulus (GPa) = 27.51893 43.61711 35.56802
# Shear Modulus (GPa) = 297.81919 31.02969 164.42444
#
# Velocity S-wave (km/s) = 10.74264 3.46756 7.98212
# Velocity P-wave (km/s) = 12.82716 5.73877 9.93654
#
# Compressibility (1/GPa) = 0.03633862
#
# Stress axis : x y z
#
# Youngs Moduli (GPa) = 41.28718 65.69447 247.28516
#
# Poissons Ratio (x) = 0.24257 -0.25135
# Poissons Ratio (y) = 0.15245 0.22207
# Poissons Ratio (z) = -0.04197 0.05899
#
# Static dielectric constant tensor:
#      x y z
#    x 2.095690 0.000000 0.000000 
#    y 0.000000 2.092390 0.000000 
#    z 0.000000 0.000000 2.228370 
# 
# From -- ./inp_files/804.got.cif
#   From: 2010.05.17/outbox.cif.g08.bks.cpg/sg32_1_cif.got.tgz:804.got - 2010.06.03 17:12:27.
