data_PCOD9343763
_publ_section_title
;
Structure prediction by ZEFSAII (Michael W. Deem and Ramdas Pophale) SiO2 
 PCOD9343763
Probable space group: P B A 2
;
_chemical_formula_sum "Si O2"
_cell_formula_units_Z 30
_cell_length_a 22.514409
_cell_length_b 7.830446
_cell_length_c 7.728987
_cell_angle_alpha 90.000000
_cell_angle_beta 90.000000
_cell_angle_gamma 90.000000
_cell_volume 1362.603898
_symmetry_space_group_name_H-M "P B A 2"
_symmetry_group_IT_number 32
_symmetry_cell_setting 'orthorhombic'
loop_
_space_group_symop_operation_xyz
x,y,z
-x,-y,z
1/2-x,1/2+y,z
1/2+x,1/2-y,z
loop_
_atom_site_type_symbol
_atom_site_label
_atom_site_fract_x
_atom_site_fract_y
_atom_site_fract_z
Si Si1 0.311255 0.852916 0.799200
Si Si2 0.825350 0.112813 0.459834
Si Si3 0.300740 0.788530 0.402937
Si Si4 0.815930 0.054766 0.844232
Si Si5 0.890656 0.627906 0.099720
Si Si6 0.038588 0.844428 0.384417
Si Si7 0.500000 0.000000 0.298010
Si Si8 0.062281 0.990624 0.014853
O O1 0.310763 0.883214 0.590693
O O2 0.316957 0.648620 0.814626
O O3 0.250900 0.904039 0.901013
O O4 0.364209 0.928403 0.914965
O O5 0.769806 0.200250 0.365092
O O6 0.892768 0.163357 0.431187
O O7 0.818919 0.909845 0.424231
O O8 0.816001 0.148896 0.661326
O O9 0.339804 0.861813 0.247095
O O10 0.877504 0.091472 0.939609
O O11 0.942606 0.514481 0.177369
O O12 0.917055 0.819610 0.073059
O O13 0.004894 0.668696 0.412388
O O14 0.042939 0.881336 0.179850
O O15 0.000000 0.000000 0.460158
O O16 0.000000 0.000000 0.907927
#
# Coordination Sequence:
#
# PCOD9343763 Si02
#       8
#     4   4   4   4   4   4   2   4
#     4   9  21  38  58  89 125 156 205 259 310 376
#     4  10  21  38  60  91 123 163 207 262 319 376
#     4  10  21  38  60  92 127 160 207 263 319 379
#     4   9  20  37  60  86 122 161 202 256 318 369
#     4  11  22  39  62  86 124 167 203 259 321 369
#     4  11  22  41  63  88 130 165 211 268 309 377
#     4  12  24  40  66  96 120 168 226 256 310 394
#     4  10  19  39  59  83 121 163 204 254 306 373
#
# _framework density 22.016670000000001
#
# number of rings (size 3 to 8) (size 9 to 14) (size 15 to 20)
#    0.000    1.867    4.000    0.000    3.733    1.600 
#    0.000    2.000    0.000    0.000    0.000    0.000 
#    0.000    0.000    0.000    0.000    0.000    0.000 
#
# Total GULP energy -167271.703724 kJ/mol
# GULP energy per Si atom -5575.723457 kJ/mol
# Density = 2.196656 g / cm^3
# Si number density = 22.016670 Si / 1000 Ang^3
#
#
#
# Elastic Constant Matrix: (Units=GPa)
#
#
# Indices 1 2 3 4 5 6 
#
# 1 106.5435 -4.8871 16.6651 0.0000 0.0000 0.0000
# 2 -4.8871 48.2236 -1.6920 0.0000 0.0000 0.0000
# 3 16.6651 -1.6920 40.4590 0.0000 0.0000 0.0000
# 4 0.0000 0.0000 0.0000 -5.2036 0.0000 0.0000
# 5 0.0000 0.0000 0.0000 0.0000 -40.5984 0.0000
# 6 0.0000 0.0000 0.0000 0.0000 0.0000 37.2651
#
#
#
# Elastic Compliance Matrix: (Units=1/GPa)
#
#
# Indices 1 2 3 4 5 6 
#
# 1 0.010069 0.000876 -0.004111 0.000000 0.000000 0.000000
# 2 0.000876 0.020843 0.000511 0.000000 0.000000 0.000000
# 3 -0.004111 0.000511 0.026431 0.000000 0.000000 0.000000
# 4 0.000000 0.000000 0.000000 -0.192174 0.000000 0.000000
# 5 0.000000 0.000000 0.000000 0.000000 -0.024632 0.000000
# 6 0.000000 0.000000 0.000000 0.000000 0.000000 0.026835
#
#
# Mechanical properties :
#
#
# Convention : Reuss Voigt Hill
#
# Bulk Modulus (GPa) = 19.26938 23.93312 21.60125
# Shear Modulus (GPa) = -45.50374 10.63530 -17.43422
#
# Velocity S-wave (km/s) = -4.55112 2.20024 -2.81706
# Velocity P-wave (km/s) = 4.34117 4.16519 0.86516
#
# Compressibility (1/GPa) = 0.05189582
#
# Stress axis : x y z
#
# Youngs Moduli (GPa) = 99.31445 47.97665 37.83439
#
# Poissons Ratio (x) = -0.04204 0.15553
# Poissons Ratio (y) = -0.08702 -0.01933
# Poissons Ratio (z) = 0.40826 -0.02451
#
# Static dielectric constant tensor:
#      x y z
#    x 2.084850 0.000000 0.000000 
#    y 0.000000 1.941930 0.000000 
#    z 0.000000 0.000000 1.849160 
# 
# From -- ./inp_files/2544.got.cif
#   From: 2010.05.17/outbox.cif.g08.bks.cpg/sg32_2_cif.got.tgz:2544.got - 2010.06.03 17:12:27.
