data_PCOD9343327
_publ_section_title
;
Structure prediction by ZEFSAII (Michael W. Deem and Ramdas Pophale) SiO2 
 PCOD9343327
Probable space group: P M N 21
;
_chemical_formula_sum "Si O2"
_cell_formula_units_Z 32
_cell_length_a 16.549490
_cell_length_b 15.913735
_cell_length_c 5.080048
_cell_angle_alpha 90.000000
_cell_angle_beta 90.000000
_cell_angle_gamma 90.000000
_cell_volume 1337.902769
_symmetry_space_group_name_H-M "P M N 21"
_symmetry_group_IT_number 31
_symmetry_cell_setting 'orthorhombic'
loop_
_space_group_symop_operation_xyz
x,y,z
1/2-x,-y,1/2+z
-x,y,z
1/2+x,-y,1/2+z
loop_
_atom_site_type_symbol
_atom_site_label
_atom_site_fract_x
_atom_site_fract_y
_atom_site_fract_z
Si Si1 0.092182 0.138313 0.500000
Si Si2 0.598734 0.039082 0.244939
Si Si3 0.849602 0.857505 0.258377
Si Si4 0.777016 0.714126 0.025708
Si Si5 0.415340 0.275335 0.111618
Si Si6 0.092236 0.247248 0.014600
Si Si7 0.654622 0.428180 0.904121
Si Si8 0.178608 0.401091 0.190722
O O1 0.088961 0.206818 0.728784
O O2 0.000000 0.113908 0.419052
O O3 0.121618 0.055530 0.657675
O O4 0.127153 0.179915 0.231520
O O5 0.500000 0.047143 0.225586
O O6 0.647030 0.091036 0.025246
O O7 0.623618 0.079514 0.525930
O O8 0.771016 0.801360 0.185123
O O9 0.908664 0.780107 0.345699
O O10 0.836115 0.740011 0.785579
O O11 0.820737 0.639470 0.183754
O O12 0.700724 0.665093 0.917527
O O13 0.500000 0.252421 0.242126
O O14 0.410887 0.374908 0.061562
O O15 0.135859 0.337086 0.995250
O O16 0.000000 0.263640 0.105198
O O17 0.736407 0.436417 0.077824
O O18 0.631561 0.517962 0.791283
#
# Coordination Sequence:
#
# PCOD9343327 Si02
#       8
#     4   4   4   4   4   4   4   4
#     4   9  20  39  59  93 129 158 203 255 316 368
#     4  11  20  33  60  91 127 165 202 253 302 371
#     4  11  21  34  57  92 125 162 208 243 302 367
#     4  10  22  39  58  90 124 167 206 253 301 371
#     4  10  21  37  57  90 132 163 196 255 316 366
#     4  10  22  40  66  96 125 158 207 268 320 365
#     4  10  22  38  62  89 117 163 215 257 297 379
#     4  11  22  40  68  87 120 162 219 254 310 373
#
# _framework density 23.918028
#
# number of rings (size 3 to 8) (size 9 to 14) (size 15 to 20)
#    0.000    1.750    2.500    1.875    1.750    5.000 
#    0.000    0.000    0.000    3.000    0.000    0.000 
#    0.000    0.000    0.000    0.000    0.000    0.000 
#
# Total GULP energy -178392.222094 kJ/mol
# GULP energy per Si atom -5574.756940 kJ/mol
# Density = 2.386359 g / cm^3
# Si number density = 23.918028 Si / 1000 Ang^3
#
#
#
# Elastic Constant Matrix: (Units=GPa)
#
#
# Indices 1 2 3 4 5 6 
#
# 1 23.5608 17.0609 2.3226 0.0000 0.0000 0.0000
# 2 17.0609 122.9641 12.6890 0.0000 0.0000 0.0000
# 3 2.3226 12.6890 108.1092 0.0000 0.0000 0.0000
# 4 0.0000 0.0000 0.0000 37.3960 0.0000 0.0000
# 5 0.0000 0.0000 0.0000 0.0000 39.0620 0.0000
# 6 0.0000 0.0000 0.0000 0.0000 0.0000 48.0046
#
#
#
# Elastic Compliance Matrix: (Units=1/GPa)
#
#
# Indices 1 2 3 4 5 6 
#
# 1 0.047191 -0.006522 -0.000248 0.000000 0.000000 0.000000
# 2 -0.006522 0.009134 -0.000932 0.000000 0.000000 0.000000
# 3 -0.000248 -0.000932 0.009365 0.000000 0.000000 0.000000
# 4 0.000000 0.000000 0.000000 0.026741 0.000000 0.000000
# 5 0.000000 0.000000 0.000000 0.000000 0.025600 0.000000
# 6 0.000000 0.000000 0.000000 0.000000 0.000000 0.020831
#
#
# Mechanical properties :
#
#
# Convention : Reuss Voigt Hill
#
# Bulk Modulus (GPa) = 19.88687 35.41990 27.65339
# Shear Modulus (GPa) = 29.23513 39.72997 34.48255
#
# Velocity S-wave (km/s) = 3.49994 4.08007 3.80109
# Velocity P-wave (km/s) = 4.96643 6.08580 5.55438
#
# Compressibility (1/GPa) = 0.05028442
#
# Stress axis : x y z
#
# Youngs Moduli (GPa) = 21.19064 109.48683 106.78490
#
# Poissons Ratio (x) = 0.71407 0.02652
# Poissons Ratio (y) = 0.13820 0.09951
# Poissons Ratio (z) = 0.00526 0.10203
#
# Static dielectric constant tensor:
#      x y z
#    x 1.964720 0.000000 0.000000 
#    y 0.000000 1.951210 0.000000 
#    z 0.000000 0.000000 1.990920 
# 
# From -- ./inp_files/872.got.cif
#   From: 2010.05.17/outbox.cif.g08.bks.cpg/sg31_1_cif.got.tgz:872.got - 2010.06.03 17:08:30.
