data_PCOD9343248
_publ_section_title
;
Structure prediction by ZEFSAII (Michael W. Deem and Ramdas Pophale) SiO2 
 PCOD9343248
Probable space group: P M N 21
;
_chemical_formula_sum "Si O2"
_cell_formula_units_Z 32
_cell_length_a 18.935978
_cell_length_b 5.622770
_cell_length_c 12.791734
_cell_angle_alpha 90.000000
_cell_angle_beta 90.000000
_cell_angle_gamma 90.000000
_cell_volume 1361.969805
_symmetry_space_group_name_H-M "P M N 21"
_symmetry_group_IT_number 31
_symmetry_cell_setting 'orthorhombic'
loop_
_space_group_symop_operation_xyz
x,y,z
1/2-x,-y,1/2+z
-x,y,z
1/2+x,-y,1/2+z
loop_
_atom_site_type_symbol
_atom_site_label
_atom_site_fract_x
_atom_site_fract_y
_atom_site_fract_z
Si Si1 0.921871 0.915718 0.935140
Si Si2 0.746051 0.170208 0.670963
Si Si3 0.079008 0.671134 0.722106
Si Si4 0.732101 0.324028 0.454157
Si Si5 0.161394 0.289645 0.856765
Si Si6 0.083699 0.264159 0.389670
Si Si7 0.914077 0.765310 0.491294
Si Si8 0.312252 0.688482 0.734106
O O1 0.927939 0.868203 0.810607
O O2 0.848744 0.781910 0.966283
O O3 0.000000 0.862651 0.980188
O O4 0.899853 0.189426 0.930904
O O5 0.773066 0.234129 0.555361
O O6 0.798478 0.137412 0.769105
O O7 0.705068 0.420465 0.697194
O O8 0.706398 0.917345 0.664945
O O9 0.128039 0.483204 0.779029
O O10 0.107597 0.764359 0.612782
O O11 0.000000 0.569378 0.703491
O O12 0.718001 0.603509 0.437639
O O13 0.770368 0.270217 0.344647
O O14 0.108772 0.511962 0.443351
O O15 0.107143 0.288975 0.270028
O O16 0.000000 0.264467 0.402546
O O17 0.107940 0.006039 0.432772
O O18 0.000000 0.767962 0.489456
#
# Coordination Sequence:
#
# PCOD9343248 Si02
#       8
#     4   4   4   4   4   4   4   4
#     4  10  20  38  63  90 129 172 214 272 330 384
#     4  11  25  42  68  92 128 168 216 267 320 387
#     4   9  19  32  52  87 126 161 206 261 320 392
#     4  10  24  43  63  92 134 168 214 270 326 386
#     4  10  21  39  60  94 122 166 216 265 326 388
#     4  10  21  39  61  88 127 166 208 264 315 371
#     4   9  19  33  54  89 126 162 203 251 319 383
#     4  11  24  44  65  98 125 169 219 260 323 383
#
# _framework density 23.495383
#
# number of rings (size 3 to 8) (size 9 to 14) (size 15 to 20)
#    0.000    2.000    1.250    1.125    5.250    0.500 
#    0.000    1.250    0.000    0.000    0.000    0.000 
#    0.000    0.000    0.000    0.000    0.000    0.000 
#
# Total GULP energy -178195.577918 kJ/mol
# GULP energy per Si atom -5568.611810 kJ/mol
# Density = 2.344191 g / cm^3
# Si number density = 23.495383 Si / 1000 Ang^3
#
#
#
# Elastic Constant Matrix: (Units=GPa)
#
#
# Indices 1 2 3 4 5 6 
#
# 1 45.5409 24.4315 -3.4338 0.0000 0.0000 0.0000
# 2 24.4315 114.3402 22.8431 0.0000 0.0000 0.0000
# 3 -3.4338 22.8431 46.3221 0.0000 0.0000 0.0000
# 4 0.0000 0.0000 0.0000 26.8466 0.0000 0.0000
# 5 0.0000 0.0000 0.0000 0.0000 23.7959 0.0000
# 6 0.0000 0.0000 0.0000 0.0000 0.0000 27.5965
#
#
#
# Elastic Compliance Matrix: (Units=1/GPa)
#
#
# Indices 1 2 3 4 5 6 
#
# 1 0.025863 -0.006555 0.005150 0.000000 0.000000 0.000000
# 2 -0.006555 0.011363 -0.006089 0.000000 0.000000 0.000000
# 3 0.005150 -0.006089 0.024973 0.000000 0.000000 0.000000
# 4 0.000000 0.000000 0.000000 0.037249 0.000000 0.000000
# 5 0.000000 0.000000 0.000000 0.000000 0.042024 0.000000
# 6 0.000000 0.000000 0.000000 0.000000 0.000000 0.036236
#
#
# Mechanical properties :
#
#
# Convention : Reuss Voigt Hill
#
# Bulk Modulus (GPa) = 21.18225 32.65386 26.91806
# Shear Modulus (GPa) = 23.98839 26.47196 25.23017
#
# Velocity S-wave (km/s) = 3.19875 3.36026 3.28050
# Velocity P-wave (km/s) = 4.76211 5.38361 5.08237
#
# Compressibility (1/GPa) = 0.04720934
#
# Stress axis : x y z
#
# Youngs Moduli (GPa) = 38.66489 88.00447 40.04381
#
# Poissons Ratio (x) = 0.57688 -0.20622
# Poissons Ratio (y) = 0.25345 0.24385
# Poissons Ratio (z) = -0.19912 0.53590
#
# Static dielectric constant tensor:
#      x y z
#    x 1.998660 0.000000 0.000000 
#    y 0.000000 1.969170 0.000000 
#    z 0.000000 0.000000 1.853470 
# 
# From -- ./inp_files/4552.got.cif
#   From: 2010.05.17/outbox.cif.g08.bks.cpg/sg31_3_cif.got.tgz:4552.got - 2010.06.03 17:08:30.
