data_PCOD9343383
_publ_section_title
;
Structure prediction by ZEFSAII (Michael W. Deem and Ramdas Pophale) SiO2 
 PCOD9343383
Probable space group: P M N 21
;
_chemical_formula_sum "Si O2"
_cell_formula_units_Z 32
_cell_length_a 7.765331
_cell_length_b 16.189453
_cell_length_c 11.437446
_cell_angle_alpha 90.000000
_cell_angle_beta 90.000000
_cell_angle_gamma 90.000000
_cell_volume 1437.875237
_symmetry_space_group_name_H-M "P M N 21"
_symmetry_group_IT_number 31
_symmetry_cell_setting 'orthorhombic'
loop_
_space_group_symop_operation_xyz
x,y,z
1/2-x,-y,1/2+z
-x,y,z
1/2+x,-y,1/2+z
loop_
_atom_site_type_symbol
_atom_site_label
_atom_site_fract_x
_atom_site_fract_y
_atom_site_fract_z
Si Si1 0.206214 0.157311 0.916320
Si Si2 0.196045 0.137713 0.548682
Si Si3 0.799798 0.465007 0.696682
Si Si4 0.788582 0.016640 0.737083
Si Si5 0.703376 0.162172 0.185492
Si Si6 0.200819 0.723974 0.225460
Si Si7 0.794524 0.448077 0.439436
Si Si8 0.702985 0.732642 0.877915
O O1 0.264512 0.076641 0.842557
O O2 0.281369 0.238782 0.854705
O O3 0.000000 0.160922 0.908087
O O4 0.259845 0.153890 0.049381
O O5 0.272559 0.059298 0.615672
O O6 0.198540 0.209484 0.647228
O O7 0.281877 0.187558 0.443393
O O8 0.000000 0.115407 0.517201
O O9 0.776436 0.366506 0.709942
O O10 0.728629 0.483753 0.564669
O O11 0.728482 0.504415 0.816622
O O12 0.000000 0.488010 0.696974
O O13 0.000000 0.016824 0.734447
O O14 0.728598 0.922922 0.742972
O O15 0.500000 0.166185 0.202863
O O16 0.779947 0.244420 0.242833
O O17 0.000000 0.723426 0.191965
O O18 0.725003 0.354925 0.418385
O O19 0.000000 0.441544 0.456394
O O20 0.500000 0.731524 0.907296
#
# Coordination Sequence:
#
# PCOD9343383 Si02
#       8
#     4   4   4   4   4   4   4   4
#     4  10  21  40  60  81 116 161 206 248 304 372
#     4   9  17  36  62  84 113 156 200 240 289 355
#     4  11  23  42  67  95 128 167 205 256 319 383
#     4   8  18  35  57  83 115 154 197 248 300 355
#     4  11  23  37  55  87 125 156 199 259 312 361
#     4  11  21  36  62  92 118 149 195 249 303 358
#     4  10  23  43  65  93 127 163 214 265 312 377
#     4  10  21  39  62  85 118 164 204 245 301 369
#
# _framework density 22.25506
#
# number of rings (size 3 to 8) (size 9 to 14) (size 15 to 20)
#    0.000    2.000    1.250    3.000    1.750    3.000 
#    0.000    8.125    0.000    0.000    0.000    0.000 
#    0.000    0.000    0.000    0.000    0.000    0.000 
#
# Total GULP energy -178545.475912 kJ/mol
# GULP energy per Si atom -5579.546122 kJ/mol
# Density = 2.220441 g / cm^3
# Si number density = 22.255060 Si / 1000 Ang^3
#
#
#
# Elastic Constant Matrix: (Units=GPa)
#
#
# Indices 1 2 3 4 5 6 
#
# 1 50.3282 -12.6041 -2.1997 0.0000 0.0000 0.0000
# 2 -12.6041 52.4946 42.6555 0.0000 0.0000 0.0000
# 3 -2.1997 42.6555 137.7205 0.0000 0.0000 0.0000
# 4 0.0000 0.0000 0.0000 26.7090 0.0000 0.0000
# 5 0.0000 0.0000 0.0000 0.0000 17.9983 0.0000
# 6 0.0000 0.0000 0.0000 0.0000 0.0000 8.0457
#
#
#
# Elastic Compliance Matrix: (Units=1/GPa)
#
#
# Indices 1 2 3 4 5 6 
#
# 1 0.021425 0.006503 -0.001672 0.000000 0.000000 0.000000
# 2 0.006503 0.027430 -0.008392 0.000000 0.000000 0.000000
# 3 -0.001672 -0.008392 0.009834 0.000000 0.000000 0.000000
# 4 0.000000 0.000000 0.000000 0.037441 0.000000 0.000000
# 5 0.000000 0.000000 0.000000 0.000000 0.055561 0.000000
# 6 0.000000 0.000000 0.000000 0.000000 0.000000 0.124290
#
#
# Mechanical properties :
#
#
# Convention : Reuss Voigt Hill
#
# Bulk Modulus (GPa) = 19.39246 32.91628 26.15437
# Shear Modulus (GPa) = 16.65055 24.73004 20.69030
#
# Velocity S-wave (km/s) = 2.73824 3.33710 3.05239
# Velocity P-wave (km/s) = 4.32781 5.44710 4.91939
#
# Compressibility (1/GPa) = 0.05156642
#
# Stress axis : x y z
#
# Youngs Moduli (GPa) = 46.67441 36.45665 101.69277
#
# Poissons Ratio (x) = -0.23707 0.17001
# Poissons Ratio (y) = -0.30351 0.85339
# Poissons Ratio (z) = 0.07803 0.30594
#
# Static dielectric constant tensor:
#      x y z
#    x 1.834710 0.000000 0.000000 
#    y 0.000000 1.798180 0.000000 
#    z 0.000000 0.000000 1.908130 
# 
# From -- ./inp_files/3594.got.cif
#   From: 2010.05.17/outbox.cif.g08.bks.cpg/sg31_2_cif.got.tgz:3594.got - 2010.06.03 17:08:30.
