data_PCOD9343045
_publ_section_title
;
Structure prediction by ZEFSAII (Michael W. Deem and Ramdas Pophale) SiO2 
 PCOD9343045
Probable space group: P M N 21
;
_chemical_formula_sum "Si O2"
_cell_formula_units_Z 32
_cell_length_a 9.354826
_cell_length_b 7.424451
_cell_length_c 20.501122
_cell_angle_alpha 90.000000
_cell_angle_beta 90.000000
_cell_angle_gamma 90.000000
_cell_volume 1423.894097
_symmetry_space_group_name_H-M "P M N 21"
_symmetry_group_IT_number 31
_symmetry_cell_setting 'orthorhombic'
loop_
_space_group_symop_operation_xyz
x,y,z
1/2-x,-y,1/2+z
-x,y,z
1/2+x,-y,1/2+z
loop_
_atom_site_type_symbol
_atom_site_label
_atom_site_fract_x
_atom_site_fract_y
_atom_site_fract_z
Si Si1 0.164229 0.401935 0.620610
Si Si2 0.338686 0.020504 0.166032
Si Si3 0.660305 0.292551 0.500213
Si Si4 0.837251 0.789035 0.424212
Si Si5 0.660368 0.879333 0.548168
Si Si6 0.839957 0.371031 0.379509
Si Si7 0.828887 0.517795 0.244923
Si Si8 0.828926 0.128220 0.801186
O O1 0.162411 0.190878 0.643507
O O2 0.240820 0.401099 0.550782
O O3 0.253965 0.507074 0.675410
O O4 0.000000 0.461299 0.616860
O O5 0.500000 0.086961 0.155165
O O6 0.228325 0.120097 0.119690
O O7 0.308790 0.015247 0.243141
O O8 0.500000 0.366355 0.498519
O O9 0.654017 0.089730 0.527306
O O10 0.726973 0.288285 0.428544
O O11 0.841703 0.582743 0.399749
O O12 0.746256 0.899681 0.370581
O O13 0.000000 0.854875 0.428360
O O14 0.761089 0.794423 0.493663
O O15 0.500000 0.806103 0.547305
O O16 0.809652 0.371901 0.302357
O O17 0.000000 0.299419 0.390944
O O18 0.749094 0.694160 0.273190
O O19 0.000000 0.548099 0.237938
O O20 0.000000 0.155918 0.808750
#
# Coordination Sequence:
#
# PCOD9343045 Si02
#       8
#     4   4   4   4   4   4   4   4
#     4   9  16  27  45  68  94 124 158 197 240 282
#     4   8  15  27  44  67  93 122 155 193 236 279
#     4  10  20  32  49  73  99 128 161 198 240 286
#     4  10  20  33  50  72  98 129 162 197 240 287
#     4  10  20  32  48  72  99 127 160 197 237 284
#     4   9  19  33  49  71  98 128 160 195 237 285
#     4   9  16  27  44  68  96 123 157 200 240 280
#     4   9  16  27  45  69  95 123 157 197 240 283
#
# _framework density 22.473582
#
# number of rings (size 3 to 8) (size 9 to 14) (size 15 to 20)
#    0.000    2.750    0.000    3.750    0.000    8.000 
#    0.000    0.000    0.000    1.500    0.000    8.750 
#    0.000    0.000    0.000    0.000    0.000    0.000 
#
# Total GULP energy -178755.170258 kJ/mol
# GULP energy per Si atom -5586.099071 kJ/mol
# Density = 2.242243 g / cm^3
# Si number density = 22.473582 Si / 1000 Ang^3
#
#
#
# Elastic Constant Matrix: (Units=GPa)
#
#
# Indices 1 2 3 4 5 6 
#
# 1 162.9441 57.7801 43.7990 0.0000 0.0000 0.0000
# 2 57.7801 40.5270 75.8844 0.0000 0.0000 0.0000
# 3 43.7990 75.8844 -16.5279 0.0000 0.0000 0.0000
# 4 0.0000 0.0000 0.0000 26.4876 0.0000 0.0000
# 5 0.0000 0.0000 0.0000 0.0000 40.1996 0.0000
# 6 0.0000 0.0000 0.0000 0.0000 0.0000 6.8705
#
#
#
# Elastic Compliance Matrix: (Units=1/GPa)
#
#
# Indices 1 2 3 4 5 6 
#
# 1 0.009372 -0.006238 -0.003804 0.000000 0.000000 0.000000
# 2 -0.006238 0.006723 0.014337 0.000000 0.000000 0.000000
# 3 -0.003804 0.014337 -0.004760 0.000000 0.000000 0.000000
# 4 0.000000 0.000000 0.000000 0.037753 0.000000 0.000000
# 5 0.000000 0.000000 0.000000 0.000000 0.024876 0.000000
# 6 0.000000 0.000000 0.000000 0.000000 0.000000 0.145549
#
#
# Mechanical properties :
#
#
# Convention : Reuss Voigt Hill
#
# Bulk Modulus (GPa) = 50.19022 60.20781 55.19902
# Shear Modulus (GPa) = 22.98169 15.34353 19.16261
#
# Velocity S-wave (km/s) = 3.20130 2.61576 2.92322
# Velocity P-wave (km/s) = 6.00382 5.99763 6.00073
#
# Compressibility (1/GPa) = 0.01992420
#
# Stress axis : x y z
#
# Youngs Moduli (GPa) = 106.70545 148.74438 -210.08019
#
# Poissons Ratio (x) = 0.92783 -0.79923
# Poissons Ratio (y) = 0.66560 3.01192
# Poissons Ratio (z) = 0.40595 -2.13255
#
# Static dielectric constant tensor:
#      x y z
#    x 1.800200 0.000000 0.000000 
#    y 0.000000 1.894160 0.000000 
#    z 0.000000 0.000000 1.823480 
# 
# From -- ./inp_files/5847.got.cif
#   From: 2010.05.17/outbox.cif.g08.bks.cpg/sg31_3_cif.got.tgz:5847.got - 2010.06.03 17:08:30.
