data_PCOD9343919
_publ_section_title
;
Structure prediction by ZEFSAII (Michael W. Deem and Ramdas Pophale) SiO2 
 PCOD9343919
Probable space group: P B A 2
;
_chemical_formula_sum "Si O2"
_cell_formula_units_Z 32
_cell_length_a 15.100866
_cell_length_b 13.378446
_cell_length_c 7.931145
_cell_angle_alpha 90.000000
_cell_angle_beta 90.000000
_cell_angle_gamma 90.000000
_cell_volume 1602.298454
_symmetry_space_group_name_H-M "P B A 2"
_symmetry_group_IT_number 32
_symmetry_cell_setting 'orthorhombic'
loop_
_space_group_symop_operation_xyz
x,y,z
-x,-y,z
1/2-x,1/2+y,z
1/2+x,1/2-y,z
loop_
_atom_site_type_symbol
_atom_site_label
_atom_site_fract_x
_atom_site_fract_y
_atom_site_fract_z
Si Si1 0.198837 0.183490 0.581640
Si Si2 0.463221 0.713558 0.824536
Si Si3 0.934311 0.590533 0.022881
Si Si4 0.898777 0.008500 0.442064
Si Si5 0.856769 0.196298 0.640577
Si Si6 0.183040 0.291263 0.231311
Si Si7 0.261660 0.413908 0.949578
Si Si8 0.116810 0.083527 0.076954
O O1 0.165516 0.074304 0.525828
O O2 0.302242 0.201047 0.619208
O O3 0.188797 0.259507 0.423731
O O4 0.131952 0.213313 0.731375
O O5 0.542025 0.709137 0.693079
O O6 0.475051 0.814713 0.928831
O O7 0.461778 0.619999 0.954242
O O8 0.000000 0.500000 0.036253
O O9 0.898600 0.632958 0.201015
O O10 0.157373 0.435680 0.926792
O O11 0.904632 0.976645 0.246789
O O12 0.861068 0.117717 0.485546
O O13 0.000000 0.000000 0.509965
O O14 0.805379 0.142623 0.794247
O O15 0.161188 0.188013 0.134260
O O16 0.259771 0.345528 0.121105
O O17 0.314796 0.515010 0.977756
#
# Coordination Sequence:
#
# PCOD9343919 Si02
#       8
#     4   4   4   4   4   4   4   4
#     4  11  21  45  63  90 142 159 214 280 325 397
#     4  11  23  41  62  98 128 172 214 278 328 392
#     4   9  20  41  61  91 125 168 221 261 319 396
#     4  11  24  40  66  96 128 173 219 275 335 396
#     4  12  24  39  67  95 129 173 216 267 337 388
#     4   8  20  40  61  90 124 170 203 268 323 382
#     4  10  21  37  64  91 121 173 208 262 316 393
#     4  10  21  39  62  90 131 160 219 267 323 392
#
# _framework density 19.971309000000002
#
# number of rings (size 3 to 8) (size 9 to 14) (size 15 to 20)
#    0.750    1.000    2.500    1.500    1.750    3.000 
#    0.000    3.125    0.000    0.000    0.000    0.000 
#    0.000    0.000    0.000    0.000    0.000    0.000 
#
# Total GULP energy -178313.607338 kJ/mol
# GULP energy per Si atom -5572.300229 kJ/mol
# Density = 1.992585 g / cm^3
# Si number density = 19.971309 Si / 1000 Ang^3
#
#
#
# Elastic Constant Matrix: (Units=GPa)
#
#
# Indices 1 2 3 4 5 6 
#
# 1 71.0754 38.1534 2.3450 0.0000 0.0000 0.0000
# 2 38.1534 71.8844 8.4159 0.0000 0.0000 0.0000
# 3 2.3450 8.4159 65.4625 0.0000 0.0000 0.0000
# 4 0.0000 0.0000 0.0000 16.9538 0.0000 0.0000
# 5 0.0000 0.0000 0.0000 0.0000 25.0988 0.0000
# 6 0.0000 0.0000 0.0000 0.0000 0.0000 39.8996
#
#
#
# Elastic Compliance Matrix: (Units=1/GPa)
#
#
# Indices 1 2 3 4 5 6 
#
# 1 0.019702 -0.010533 0.000648 0.000000 0.000000 0.000000
# 2 -0.010533 0.019755 -0.002162 0.000000 0.000000 0.000000
# 3 0.000648 -0.002162 0.015531 0.000000 0.000000 0.000000
# 4 0.000000 0.000000 0.000000 0.058984 0.000000 0.000000
# 5 0.000000 0.000000 0.000000 0.000000 0.039843 0.000000
# 6 0.000000 0.000000 0.000000 0.000000 0.000000 0.025063
#
#
# Mechanical properties :
#
#
# Convention : Reuss Voigt Hill
#
# Bulk Modulus (GPa) = 32.36908 34.02790 33.19849
# Shear Modulus (GPa) = 23.44448 27.02429 25.23438
#
# Velocity S-wave (km/s) = 3.42995 3.68252 3.55848
# Velocity P-wave (km/s) = 5.65058 5.92930 5.79162
#
# Compressibility (1/GPa) = 0.03089368
#
# Stress axis : x y z
#
# Youngs Moduli (GPa) = 50.75523 50.62017 64.38863
#
# Poissons Ratio (x) = 0.53319 -0.04175
# Poissons Ratio (y) = 0.53461 0.13923
# Poissons Ratio (z) = -0.03291 0.10946
#
# Static dielectric constant tensor:
#      x y z
#    x 1.724930 0.000000 0.000000 
#    y 0.000000 1.685460 0.000000 
#    z 0.000000 0.000000 1.745700 
# 
# From -- ./inp_files/3096.got.cif
#   From: 2010.05.17/outbox.cif.g08.bks.cpg/sg32_2_cif.got.tgz:3096.got - 2010.06.03 17:12:27.
