data_PCOD9343961
_publ_section_title
;
Structure prediction by ZEFSAII (Michael W. Deem and Ramdas Pophale) SiO2 
 PCOD9343961
Probable space group: P B A 2
;
_chemical_formula_sum "Si O2"
_cell_formula_units_Z 32
_cell_length_a 8.673102
_cell_length_b 11.603617
_cell_length_c 14.713024
_cell_angle_alpha 90.000000
_cell_angle_beta 90.000000
_cell_angle_gamma 90.000000
_cell_volume 1480.709228
_symmetry_space_group_name_H-M "P B A 2"
_symmetry_group_IT_number 32
_symmetry_cell_setting 'orthorhombic'
loop_
_space_group_symop_operation_xyz
x,y,z
-x,-y,z
1/2-x,1/2+y,z
1/2+x,1/2-y,z
loop_
_atom_site_type_symbol
_atom_site_label
_atom_site_fract_x
_atom_site_fract_y
_atom_site_fract_z
Si Si1 0.405971 0.880669 0.457480
Si Si2 0.176643 0.968457 0.828127
Si Si3 0.173208 0.366069 0.247708
Si Si4 0.882852 0.200970 0.562489
Si Si5 0.606549 0.219964 0.858372
Si Si6 0.682738 0.880508 0.965134
Si Si7 0.656595 0.352800 0.682954
Si Si8 0.177166 0.621336 0.181051
O O1 0.338620 0.863099 0.356651
O O2 0.255032 0.875132 0.521349
O O3 0.524847 0.780298 0.489279
O O4 0.500000 0.000000 0.461949
O O5 0.263642 0.000947 0.921292
O O6 0.224416 0.039142 0.738458
O O7 0.242357 0.843626 0.820003
O O8 0.000000 0.000000 0.841721
O O9 0.239304 0.493942 0.215986
O O10 0.243715 0.243639 0.211520
O O11 0.996870 0.369622 0.215615
O O12 0.792036 0.286603 0.630993
O O13 0.017333 0.130420 0.612535
O O14 0.464584 0.155947 0.904930
O O15 0.675510 0.298941 0.937509
O O16 0.569947 0.286139 0.765457
O O17 0.666211 0.883457 0.071914
#
# Coordination Sequence:
#
# PCOD9343961 Si02
#       8
#     4   4   4   4   4   4   4   4
#     4  11  23  45  69  98 132 178 225 290 368 421
#     4  11  23  37  62  90 137 177 224 274 331 411
#     4  11  25  47  73 102 143 181 228 300 368 431
#     4  10  23  40  70  95 136 169 233 286 337 436
#     4  11  22  40  64  89 142 178 224 285 339 412
#     4  11  24  39  62  96 127 182 228 280 342 407
#     4  10  21  41  58  98 129 178 221 275 342 401
#     4  11  25  45  74 104 141 183 236 296 350 441
#
# _framework density 21.611263999999998
#
# number of rings (size 3 to 8) (size 9 to 14) (size 15 to 20)
#    0.000    1.250    1.250    5.625    5.250    3.500 
#    0.000    1.875    0.000    0.000    0.000    0.000 
#    0.000    0.000    0.000    0.000    0.000    0.000 
#
# Total GULP energy -178328.484148 kJ/mol
# GULP energy per Si atom -5572.765130 kJ/mol
# Density = 2.156208 g / cm^3
# Si number density = 21.611264 Si / 1000 Ang^3
#
#
#
# Elastic Constant Matrix: (Units=GPa)
#
#
# Indices 1 2 3 4 5 6 
#
# 1 60.1854 31.3256 7.7243 0.0000 0.0000 0.0000
# 2 31.3256 105.8137 30.9630 0.0000 0.0000 0.0000
# 3 7.7243 30.9630 107.3489 0.0000 0.0000 0.0000
# 4 0.0000 0.0000 0.0000 -53.4642 0.0000 0.0000
# 5 0.0000 0.0000 0.0000 0.0000 35.1158 0.0000
# 6 0.0000 0.0000 0.0000 0.0000 0.0000 52.1524
#
#
#
# Elastic Compliance Matrix: (Units=1/GPa)
#
#
# Indices 1 2 3 4 5 6 
#
# 1 0.019650 -0.005902 0.000288 0.000000 0.000000 0.000000
# 2 -0.005902 0.012094 -0.003064 0.000000 0.000000 0.000000
# 3 0.000288 -0.003064 0.010178 0.000000 0.000000 0.000000
# 4 0.000000 0.000000 0.000000 -0.018704 0.000000 0.000000
# 5 0.000000 0.000000 0.000000 0.000000 0.028477 0.000000
# 6 0.000000 0.000000 0.000000 0.000000 0.000000 0.019175
#
#
# Mechanical properties :
#
#
# Convention : Reuss Voigt Hill
#
# Bulk Modulus (GPa) = 40.70257 45.93044 43.31651
# Shear Modulus (GPa) = 51.85970 20.31646 36.08808
#
# Velocity S-wave (km/s) = 4.90395 3.06941 4.09084
# Velocity P-wave (km/s) = 7.13721 5.81901 6.51155
#
# Compressibility (1/GPa) = 0.02456848
#
# Stress axis : x y z
#
# Youngs Moduli (GPa) = 50.89049 82.68409 98.24776
#
# Poissons Ratio (x) = 0.48797 -0.02833
# Poissons Ratio (y) = 0.30034 0.30100
# Poissons Ratio (z) = -0.01467 0.25332
#
# Static dielectric constant tensor:
#      x y z
#    x 1.679030 0.000000 0.000000 
#    y 0.000000 4.617030 0.000000 
#    z 0.000000 0.000000 1.845750 
# 
# From -- ./inp_files/4140.got.cif
#   From: 2010.05.17/outbox.cif.g08.bks.cpg/sg32_3_cif.got.tgz:4140.got - 2010.06.03 17:12:27.
