data_PCOD9343504
_publ_section_title
;
Structure prediction by ZEFSAII (Michael W. Deem and Ramdas Pophale) SiO2 
 PCOD9343504
Probable space group: P M N 21
;
_chemical_formula_sum "Si O2"
_cell_formula_units_Z 32
_cell_length_a 8.822720
_cell_length_b 11.593766
_cell_length_c 16.382177
_cell_angle_alpha 90.000000
_cell_angle_beta 90.000000
_cell_angle_gamma 90.000000
_cell_volume 1675.709150
_symmetry_space_group_name_H-M "P M N 21"
_symmetry_group_IT_number 31
_symmetry_cell_setting 'orthorhombic'
loop_
_space_group_symop_operation_xyz
x,y,z
1/2-x,-y,1/2+z
-x,y,z
1/2+x,-y,1/2+z
loop_
_atom_site_type_symbol
_atom_site_label
_atom_site_fract_x
_atom_site_fract_y
_atom_site_fract_z
Si Si1 0.331810 0.595073 0.694680
Si Si2 0.818869 0.690532 0.395592
Si Si3 0.173972 0.645425 0.118385
Si Si4 0.824778 0.733998 0.822129
Si Si5 0.324277 0.782808 0.557679
Si Si6 0.320185 0.816462 0.237870
Si Si7 0.181049 0.431812 0.450319
Si Si8 0.817813 0.068321 0.214381
O O1 0.500000 0.625834 0.729654
O O2 0.327785 0.459992 0.682209
O O3 0.198023 0.640294 0.750331
O O4 0.321949 0.663837 0.609679
O O5 0.771868 0.762740 0.476488
O O6 0.741954 0.747395 0.316680
O O7 0.773724 0.556355 0.412007
O O8 0.000000 0.693204 0.384855
O O9 0.272423 0.745763 0.157376
O O10 0.000000 0.682667 0.105193
O O11 0.242548 0.590973 0.037078
O O12 0.735074 0.675089 0.895466
O O13 0.749841 0.847394 0.783446
O O14 0.000000 0.752362 0.842034
O O15 0.500000 0.805787 0.535426
O O16 0.275203 0.878255 0.625037
O O17 0.500000 0.827473 0.243913
O O18 0.244204 0.941513 0.229880
O O19 0.000000 0.433639 0.458158
O O20 0.000000 0.070974 0.217813
#
# Coordination Sequence:
#
# PCOD9343504 Si02
#       8
#     4   4   4   4   4   4   4   4
#     4   9  18  34  58  87 121 158 196 243 303 363
#     4  11  23  39  63  94 128 164 206 257 311 368
#     4  11  22  39  62  88 124 163 202 251 310 368
#     4  11  22  36  60  91 121 158 202 250 303 361
#     4   9  18  36  63  92 120 156 200 253 306 363
#     4  12  26  43  63  90 125 165 212 260 311 372
#     4  11  23  39  60  92 129 163 204 251 307 370
#     4  10  22  44  67  88 120 161 208 257 309 369
#
# _framework density 19.096394
#
# number of rings (size 3 to 8) (size 9 to 14) (size 15 to 20)
#    0.000    1.500    1.250    5.250    0.000    8.000 
#    2.250    0.000    0.000    0.000    0.000    0.000 
#    0.000    0.000    0.000    0.000    0.000    0.000 
#
# Total GULP energy -178691.335555 kJ/mol
# GULP energy per Si atom -5584.104236 kJ/mol
# Density = 1.905293 g / cm^3
# Si number density = 19.096394 Si / 1000 Ang^3
#
#
#
# Elastic Constant Matrix: (Units=GPa)
#
#
# Indices 1 2 3 4 5 6 
#
# 1 63.1284 23.6327 17.3002 0.0000 0.0000 0.0000
# 2 23.6327 109.0535 37.6525 0.0000 0.0000 0.0000
# 3 17.3002 37.6525 54.2287 0.0000 0.0000 0.0000
# 4 0.0000 0.0000 0.0000 23.3629 0.0000 0.0000
# 5 0.0000 0.0000 0.0000 0.0000 33.4904 0.0000
# 6 0.0000 0.0000 0.0000 0.0000 0.0000 -23.5253
#
#
#
# Elastic Compliance Matrix: (Units=1/GPa)
#
#
# Indices 1 2 3 4 5 6 
#
# 1 0.017863 -0.002504 -0.003960 0.000000 0.000000 0.000000
# 2 -0.002504 0.012412 -0.007819 0.000000 0.000000 0.000000
# 3 -0.003960 -0.007819 0.025133 0.000000 0.000000 0.000000
# 4 0.000000 0.000000 0.000000 0.042803 0.000000 0.000000
# 5 0.000000 0.000000 0.000000 0.000000 0.029859 0.000000
# 6 0.000000 0.000000 0.000000 0.000000 0.000000 -0.042508
#
#
# Mechanical properties :
#
#
# Convention : Reuss Voigt Hill
#
# Bulk Modulus (GPa) = 37.25563 42.62019 39.93791
# Shear Modulus (GPa) = 40.62481 16.52062 28.57271
#
# Velocity S-wave (km/s) = 4.61733 2.94448 3.87232
# Velocity P-wave (km/s) = 6.92661 5.82467 6.39940
#
# Compressibility (1/GPa) = 0.02684158
#
# Stress axis : x y z
#
# Youngs Moduli (GPa) = 55.98049 80.56624 39.78819
#
# Poissons Ratio (x) = 0.20172 0.15758
# Poissons Ratio (y) = 0.14016 0.31112
# Poissons Ratio (z) = 0.22171 0.62998
#
# Static dielectric constant tensor:
#      x y z
#    x 1.649230 0.000000 0.000000 
#    y 0.000000 1.655200 0.000000 
#    z 0.000000 0.000000 1.703760 
# 
# From -- ./inp_files/5895.got.cif
#   From: 2010.05.17/outbox.cif.g08.bks.cpg/sg31_3_cif.got.tgz:5895.got - 2010.06.03 17:08:30.
