data_PCOD9343945
_publ_section_title
;
Structure prediction by ZEFSAII (Michael W. Deem and Ramdas Pophale) SiO2 
 PCOD9343945
Probable space group: P B A 2
;
_chemical_formula_sum "Si O2"
_cell_formula_units_Z 32
_cell_length_a 13.849760
_cell_length_b 14.509604
_cell_length_c 6.612396
_cell_angle_alpha 90.000000
_cell_angle_beta 90.000000
_cell_angle_gamma 90.000000
_cell_volume 1328.790951
_symmetry_space_group_name_H-M "P B A 2"
_symmetry_group_IT_number 32
_symmetry_cell_setting 'orthorhombic'
loop_
_space_group_symop_operation_xyz
x,y,z
-x,-y,z
1/2-x,1/2+y,z
1/2+x,1/2-y,z
loop_
_atom_site_type_symbol
_atom_site_label
_atom_site_fract_x
_atom_site_fract_y
_atom_site_fract_z
Si Si1 0.226948 0.598421 0.078260
Si Si2 0.473231 0.155171 0.124346
Si Si3 0.041836 0.258949 0.712717
Si Si4 0.765556 0.028288 0.700238
Si Si5 0.890519 0.203527 0.435355
Si Si6 0.912851 0.567652 0.429897
Si Si7 0.257198 0.256159 0.783481
Si Si8 0.114855 0.998891 0.351013
O O1 0.117900 0.586830 0.160959
O O2 0.317104 0.567829 0.219366
O O3 0.234950 0.536862 0.879539
O O4 0.217310 0.703091 0.990400
O O5 0.445384 0.239884 0.266327
O O6 0.570506 0.105993 0.203515
O O7 0.489921 0.192906 0.901499
O O8 0.065528 0.340980 0.559730
O O9 0.146836 0.224504 0.767235
O O10 0.972216 0.185989 0.606357
O O11 0.685470 0.029841 0.522226
O O12 0.770543 0.132868 0.786356
O O13 0.860260 0.989344 0.588506
O O14 0.812866 0.262303 0.568441
O O15 0.853787 0.109581 0.335018
O O16 0.000000 0.500000 0.479559
O O17 0.000000 0.000000 0.304786
#
# Coordination Sequence:
#
# PCOD9343945 Si02
#       8
#     4   4   4   4   4   4   4   4
#     4  12  26  43  75 106 140 191 242 299 369 433
#     4  11  24  41  75 104 142 180 242 295 363 434
#     4  10  22  42  66 102 133 197 229 296 360 431
#     4  10  25  48  68  99 148 192 238 296 370 428
#     4  10  24  46  68  99 149 187 238 298 365 433
#     4  10  21  39  66 101 141 175 236 295 363 427
#     4  10  24  45  70  98 143 187 239 295 360 428
#     4  11  28  46  70 106 142 191 247 300 353 435
#
# _framework density 24.082042000000001
#
# number of rings (size 3 to 8) (size 9 to 14) (size 15 to 20)
#    0.000    1.500    1.250    1.500    8.750    5.000 
#    4.500    0.000    0.000    0.000    0.000    0.000 
#    0.000    0.000    0.000    0.000    0.000    0.000 
#
# Total GULP energy -178508.571476 kJ/mol
# GULP energy per Si atom -5578.392859 kJ/mol
# Density = 2.402723 g / cm^3
# Si number density = 24.082042 Si / 1000 Ang^3
#
#
#
# Elastic Constant Matrix: (Units=GPa)
#
#
# Indices 1 2 3 4 5 6 
#
# 1 126.9825 7.5466 28.9628 0.0000 0.0000 0.0000
# 2 7.5466 67.6978 21.3038 0.0000 0.0000 0.0000
# 3 28.9628 21.3038 58.9458 0.0000 0.0000 0.0000
# 4 0.0000 0.0000 0.0000 36.8862 0.0000 0.0000
# 5 0.0000 0.0000 0.0000 0.0000 -35.5473 0.0000
# 6 0.0000 0.0000 0.0000 0.0000 0.0000 33.5341
#
#
#
# Elastic Compliance Matrix: (Units=1/GPa)
#
#
# Indices 1 2 3 4 5 6 
#
# 1 0.008880 0.000432 -0.004520 0.000000 0.000000 0.000000
# 2 0.000432 0.016688 -0.006244 0.000000 0.000000 0.000000
# 3 -0.004520 -0.006244 0.021442 0.000000 0.000000 0.000000
# 4 0.000000 0.000000 0.000000 0.027110 0.000000 0.000000
# 5 0.000000 0.000000 0.000000 0.000000 -0.028132 0.000000
# 6 0.000000 0.000000 0.000000 0.000000 0.000000 0.029820
#
#
# Mechanical properties :
#
#
# Convention : Reuss Voigt Hill
#
# Bulk Modulus (GPa) = 37.95283 41.02805 39.49044
# Shear Modulus (GPa) = 47.50398 20.02881 33.76639
#
# Velocity S-wave (km/s) = 4.44620 2.88703 3.74858
# Velocity P-wave (km/s) = 6.49248 5.30915 5.93040
#
# Compressibility (1/GPa) = 0.02634849
#
# Stress axis : x y z
#
# Youngs Moduli (GPa) = 112.60948 59.92261 46.63752
#
# Poissons Ratio (x) = -0.02591 0.21078
# Poissons Ratio (y) = -0.04868 0.29119
# Poissons Ratio (z) = 0.50894 0.37414
#
# Static dielectric constant tensor:
#      x y z
#    x 2.109340 0.000000 0.000000 
#    y 0.000000 1.934010 0.000000 
#    z 0.000000 0.000000 1.958550 
# 
# From -- ./inp_files/1305.got.cif
#   From: 2010.05.17/outbox.cif.g08.bks.cpg/sg32_1_cif.got.tgz:1305.got - 2010.06.03 17:12:27.
