data_PCOD9343780
_publ_section_title
;
Structure prediction by ZEFSAII (Michael W. Deem and Ramdas Pophale) SiO2 
 PCOD9343780
Probable space group: P B A 2
;
_chemical_formula_sum "Si O2"
_cell_formula_units_Z 32
_cell_length_a 25.459770
_cell_length_b 6.954373
_cell_length_c 7.584179
_cell_angle_alpha 90.000000
_cell_angle_beta 90.000000
_cell_angle_gamma 90.000000
_cell_volume 1342.829987
_symmetry_space_group_name_H-M "P B A 2"
_symmetry_group_IT_number 32
_symmetry_cell_setting 'orthorhombic'
loop_
_space_group_symop_operation_xyz
x,y,z
-x,-y,z
1/2-x,1/2+y,z
1/2+x,1/2-y,z
loop_
_atom_site_type_symbol
_atom_site_label
_atom_site_fract_x
_atom_site_fract_y
_atom_site_fract_z
Si Si1 0.627484 0.864794 0.461130
Si Si2 0.127484 0.635206 0.055476
Si Si3 0.513666 0.781784 0.473208
Si Si4 0.098017 0.176716 0.055070
Si Si5 0.325139 0.614704 0.758304
Si Si6 0.513666 0.781784 0.043398
Si Si7 0.401983 0.676716 0.461537
Si Si8 0.296407 0.059983 0.758303
O O1 0.639131 0.816164 0.258303
O O2 0.574311 0.756844 0.523582
O O3 0.677250 0.842996 0.587628
O O4 0.611238 0.093012 0.461073
O O5 0.111238 0.406988 0.055534
O O6 0.074310 0.743156 0.993024
O O7 0.177250 0.657004 0.928979
O O8 0.513435 0.775511 0.258303
O O9 0.462387 0.661007 0.526183
O O10 0.500000 0.000000 0.527347
O O11 0.100616 0.113731 0.258304
O O12 0.037613 0.161007 0.990424
O O13 0.140431 0.077245 0.931324
O O14 0.359569 0.577244 0.585284
O O15 0.265952 0.541762 0.758303
O O16 0.317488 0.844280 0.758303
O O17 0.500000 0.000000 0.989259
#
# Coordination Sequence:
#
# PCOD9343780 Si02
#       8
#     4   4   4   4   4   4   4   4
#     4   8  14  25  41  62  87 110 133 169 215 254
#     4   8  14  25  41  62  87 110 133 169 215 254
#     4   7  10  19  37  61  86 106 126 162 214 260
#     4   8  14  25  41  62  87 110 133 169 215 254
#     4  10  20  31  43  61  85 114 147 176 202 240
#     4   7  10  19  37  61  86 106 126 162 214 260
#     4   8  14  25  41  62  87 110 133 169 215 254
#     4  10  20  31  43  61  85 114 147 176 202 240
#
# _framework density 23.830269999999999
#
# number of rings (size 3 to 8) (size 9 to 14) (size 15 to 20)
#    0.000    3.750    0.000    3.000    0.000    2.000 
#    0.000    5.000    0.000    0.000    0.000    3.500 
#    0.000    6.000    0.000    0.000    0.000    0.000 
#
# Total GULP energy -178784.088983 kJ/mol
# GULP energy per Si atom -5587.002781 kJ/mol
# Density = 2.377603 g / cm^3
# Si number density = 23.830270 Si / 1000 Ang^3
#
#
#
# Elastic Constant Matrix: (Units=GPa)
#
#
# Indices 1 2 3 4 5 6 
#
# 1 241.9718 34.9496 110.3999 0.0000 0.0000 0.0000
# 2 34.9496 85.7498 12.0115 0.0000 0.0000 0.0000
# 3 110.3999 12.0115 121.0457 0.0000 0.0000 0.0000
# 4 0.0000 0.0000 0.0000 -10.3827 0.0000 0.0000
# 5 0.0000 0.0000 0.0000 0.0000 40.2455 0.0000
# 6 0.0000 0.0000 0.0000 0.0000 0.0000 44.6788
#
#
#
# Elastic Compliance Matrix: (Units=1/GPa)
#
#
# Indices 1 2 3 4 5 6 
#
# 1 0.007436 -0.002110 -0.006573 0.000000 0.000000 0.000000
# 2 -0.002110 0.012425 0.000692 0.000000 0.000000 0.000000
# 3 -0.006573 0.000692 0.014188 0.000000 0.000000 0.000000
# 4 0.000000 0.000000 0.000000 -0.096314 0.000000 0.000000
# 5 0.000000 0.000000 0.000000 0.000000 0.024847 0.000000
# 6 0.000000 0.000000 0.000000 0.000000 0.000000 0.022382
#
#
# Mechanical properties :
#
#
# Convention : Reuss Voigt Hill
#
# Bulk Modulus (GPa) = 55.35266 84.83215 70.09241
# Shear Modulus (GPa) = 717.42760 34.33541 375.88150
#
# Velocity S-wave (km/s) = 17.36983 3.79995 12.57280
# Velocity P-wave (km/s) = 20.62909 7.41138 15.49981
#
# Compressibility (1/GPa) = 0.01806598
#
# Stress axis : x y z
#
# Youngs Moduli (GPa) = 134.47255 80.48279 70.48378
#
# Poissons Ratio (x) = 0.16983 0.46329
# Poissons Ratio (y) = 0.28376 -0.04875
# Poissons Ratio (z) = 0.88389 -0.05567
#
# Static dielectric constant tensor:
#      x y z
#    x 1.890180 0.000000 0.000000 
#    y 0.000000 2.047720 0.000000 
#    z 0.000000 0.000000 1.868110 
# 
# From -- ./inp_files/3370.got.cif
#   From: 2010.05.17/outbox.cif.g08.bks.cpg/sg32_2_cif.got.tgz:3370.got - 2010.06.03 17:12:27.
