data_PCOD9343858
_publ_section_title
;
Structure prediction by ZEFSAII (Michael W. Deem and Ramdas Pophale) SiO2 
 PCOD9343858
Probable space group: P B A 2
;
_chemical_formula_sum "Si O2"
_cell_formula_units_Z 20
_cell_length_a 18.376163
_cell_length_b 6.708398
_cell_length_c 5.692770
_cell_angle_alpha 90.000000
_cell_angle_beta 90.000000
_cell_angle_gamma 90.000000
_cell_volume 701.774031
_symmetry_space_group_name_H-M "P B A 2"
_symmetry_group_IT_number 32
_symmetry_cell_setting 'orthorhombic'
loop_
_space_group_symop_operation_xyz
x,y,z
-x,-y,z
1/2-x,1/2+y,z
1/2+x,1/2-y,z
loop_
_atom_site_type_symbol
_atom_site_label
_atom_site_fract_x
_atom_site_fract_y
_atom_site_fract_z
Si Si1 0.769746 0.632434 0.024300
Si Si2 0.922976 0.605571 0.875742
Si Si3 0.424108 0.386643 0.494614
Si Si4 0.397409 0.422175 0.992160
Si Si5 0.179722 0.250060 0.528442
O O1 0.776686 0.707544 0.293259
O O2 0.849447 0.527816 0.007152
O O3 0.688809 0.548840 0.018029
O O4 0.771851 0.736172 0.763373
O O5 0.926012 0.845170 0.960175
O O6 0.891812 0.618774 0.605014
O O7 0.000000 0.500000 0.907451
O O8 0.500000 0.500000 0.511368
O O9 0.415083 0.299885 0.755143
O O10 0.356590 0.537631 0.497033
O O11 0.424235 0.313849 0.228040
#
# Coordination Sequence:
#
# PCOD9343858 Si02
#       5
#     4   4   4   4   4
#     4  10  20  39  65  88 128 178 221 269 316 397
#     4   9  21  40  67  91 133 172 217 269 334 396
#     4  11  21  40  67  95 134 167 211 277 327 397
#     4  11  22  40  66  95 134 170 226 266 328 389
#     4   9  19  39  63  87 126 167 218 258 330 377
#
# _framework density 28.499205
#
# number of rings (size 3 to 8) (size 9 to 14) (size 15 to 20)
#    1.200    0.800    2.000    1.800    0.000    0.800 
#    0.000    6.000    0.000    0.000    0.000    0.000 
#    0.000    0.000    0.000    0.000    0.000    0.000 
#
# Total GULP energy -111415.293240 kJ/mol
# GULP energy per Si atom -5570.764662 kJ/mol
# Density = 2.843434 g / cm^3
# Si number density = 28.499205 Si / 1000 Ang^3
#
#
#
# Elastic Constant Matrix: (Units=GPa)
#
#
# Indices 1 2 3 4 5 6 
#
# 1 151.0031 51.7841 76.3327 0.0000 0.0000 0.0000
# 2 51.7841 71.2530 43.7775 0.0000 0.0000 0.0000
# 3 76.3327 43.7775 314.1735 0.0000 0.0000 0.0000
# 4 0.0000 0.0000 0.0000 37.3441 0.0000 0.0000
# 5 0.0000 0.0000 0.0000 0.0000 64.1620 0.0000
# 6 0.0000 0.0000 0.0000 0.0000 0.0000 44.7431
#
#
#
# Elastic Compliance Matrix: (Units=1/GPa)
#
#
# Indices 1 2 3 4 5 6 
#
# 1 0.009392 -0.005932 -0.001455 0.000000 0.000000 0.000000
# 2 -0.005932 0.019095 -0.001219 0.000000 0.000000 0.000000
# 3 -0.001455 -0.001219 0.003707 0.000000 0.000000 0.000000
# 4 0.000000 0.000000 0.000000 0.026778 0.000000 0.000000
# 5 0.000000 0.000000 0.000000 0.000000 0.015586 0.000000
# 6 0.000000 0.000000 0.000000 0.000000 0.000000 0.022350
#
#
# Mechanical properties :
#
#
# Convention : Reuss Voigt Hill
#
# Bulk Modulus (GPa) = 66.75507 97.80203 82.27855
# Shear Modulus (GPa) = 41.97670 53.55220 47.76445
#
# Velocity S-wave (km/s) = 3.84201 4.33954 4.09833
# Velocity P-wave (km/s) = 6.56930 7.71367 7.16437
#
# Compressibility (1/GPa) = 0.01498014
#
# Stress axis : x y z
#
# Youngs Moduli (GPa) = 106.46999 52.37045 269.79613
#
# Poissons Ratio (x) = 0.31065 0.39267
# Poissons Ratio (y) = 0.63156 0.32901
# Poissons Ratio (z) = 0.15496 0.06387
#
# Static dielectric constant tensor:
#      x y z
#    x 2.146980 0.000000 0.000000 
#    y 0.000000 2.615470 0.000000 
#    z 0.000000 0.000000 2.269260 
# 
# From -- ./inp_files/805.got.cif
#   From: 2010.05.17/outbox.cif.g08.bks.cpg/sg32_1_cif.got.tgz:805.got - 2010.06.03 17:12:27.
