data_PCOD9343746
_publ_section_title
;
Structure prediction by ZEFSAII (Michael W. Deem and Ramdas Pophale) SiO2 
 PCOD9343746
Probable space group: P B A 2
;
_chemical_formula_sum "Si O2"
_cell_formula_units_Z 30
_cell_length_a 14.388971
_cell_length_b 11.690863
_cell_length_c 8.590094
_cell_angle_alpha 90.000000
_cell_angle_beta 90.000000
_cell_angle_gamma 90.000000
_cell_volume 1445.021220
_symmetry_space_group_name_H-M "P B A 2"
_symmetry_group_IT_number 32
_symmetry_cell_setting 'orthorhombic'
loop_
_space_group_symop_operation_xyz
x,y,z
-x,-y,z
1/2-x,1/2+y,z
1/2+x,1/2-y,z
loop_
_atom_site_type_symbol
_atom_site_label
_atom_site_fract_x
_atom_site_fract_y
_atom_site_fract_z
Si Si1 0.120611 0.874385 0.040250
Si Si2 0.470104 0.762932 0.215254
Si Si3 0.217345 0.024374 0.278823
Si Si4 0.106444 0.176151 0.509384
Si Si5 0.819902 0.573602 0.544084
Si Si6 0.500000 0.000000 0.387966
Si Si7 0.279208 0.695719 0.041318
Si Si8 0.839585 0.971474 0.768867
O O1 0.215536 0.804701 0.020373
O O2 0.043986 0.786563 0.096020
O O3 0.135710 0.968119 0.176692
O O4 0.107986 0.939599 0.879252
O O5 0.472265 0.694834 0.380380
O O6 0.486014 0.891285 0.275207
O O7 0.371567 0.737769 0.132001
O O8 0.186856 0.114326 0.409507
O O9 0.270823 0.100870 0.152344
O O10 0.267172 0.926374 0.376871
O O11 0.140800 0.299173 0.570875
O O12 0.091909 0.089623 0.648482
O O13 0.747782 0.529253 0.675124
O O14 0.909473 0.494973 0.501217
O O15 0.301794 0.628096 0.883593
#
# Coordination Sequence:
#
# PCOD9343746 Si02
#       8
#     4   4   4   4   4   2   4   4
#     4  11  21  37  61  89 119 163 206 239 302 373
#     4  10  22  40  64  92 120 155 208 259 304 360
#     4   9  18  32  58  85 115 156 202 249 294 348
#     4   9  19  37  58  84 120 152 192 255 299 341
#     4  10  19  37  60  89 120 158 204 248 303 363
#     4  10  20  36  66  94 120 154 204 264 310 358
#     4  10  21  38  58  88 127 157 195 255 304 354
#     4  10  22  38  60  85 123 165 197 242 305 367
#
# _framework density 20.760942
#
# number of rings (size 3 to 8) (size 9 to 14) (size 15 to 20)
#    0.000    2.133    0.000    4.000    0.000    6.933 
#    0.000    9.333    0.000    2.400    0.000    0.000 
#    0.000    0.000    0.000    0.000    0.000    0.000 
#
# Total GULP energy -167218.727082 kJ/mol
# GULP energy per Si atom -5573.957569 kJ/mol
# Density = 2.071369 g / cm^3
# Si number density = 20.760942 Si / 1000 Ang^3
#
#
#
# Elastic Constant Matrix: (Units=GPa)
#
#
# Indices 1 2 3 4 5 6 
#
# 1 63.4819 31.3623 41.3234 0.0000 0.0000 0.0000
# 2 31.3623 98.9487 50.6892 0.0000 0.0000 0.0000
# 3 41.3234 50.6892 130.9228 0.0000 0.0000 0.0000
# 4 0.0000 0.0000 0.0000 47.7710 0.0000 0.0000
# 5 0.0000 0.0000 0.0000 0.0000 18.4415 0.0000
# 6 0.0000 0.0000 0.0000 0.0000 0.0000 22.4238
#
#
#
# Elastic Compliance Matrix: (Units=1/GPa)
#
#
# Indices 1 2 3 4 5 6 
#
# 1 0.021069 -0.004081 -0.005070 0.000000 0.000000 0.000000
# 2 -0.004081 0.013397 -0.003899 0.000000 0.000000 0.000000
# 3 -0.005070 -0.003899 0.010748 0.000000 0.000000 0.000000
# 4 0.000000 0.000000 0.000000 0.020933 0.000000 0.000000
# 5 0.000000 0.000000 0.000000 0.000000 0.054225 0.000000
# 6 0.000000 0.000000 0.000000 0.000000 0.000000 0.044595
#
#
# Mechanical properties :
#
#
# Convention : Reuss Voigt Hill
#
# Bulk Modulus (GPa) = 52.31636 60.01147 56.16391
# Shear Modulus (GPa) = 25.32434 29.05917 27.19176
#
# Velocity S-wave (km/s) = 3.49636 3.74532 3.62298
# Velocity P-wave (km/s) = 6.44620 6.90449 6.67928
#
# Compressibility (1/GPa) = 0.01911448
#
# Stress axis : x y z
#
# Youngs Moduli (GPa) = 47.46338 74.64391 93.04131
#
# Poissons Ratio (x) = 0.30459 0.47173
# Poissons Ratio (y) = 0.19368 0.36276
# Poissons Ratio (z) = 0.24065 0.29103
#
# Static dielectric constant tensor:
#      x y z
#    x 1.780880 0.000000 0.000000 
#    y 0.000000 1.772850 0.000000 
#    z 0.000000 0.000000 1.759520 
# 
# From -- ./inp_files/3065.got.cif
#   From: 2010.05.17/outbox.cif.g08.bks.cpg/sg32_2_cif.got.tgz:3065.got - 2010.06.03 17:12:27.
