data_PCOD9343017
_publ_section_title
;
Structure prediction by ZEFSAII (Michael W. Deem and Ramdas Pophale) SiO2 
 PCOD9343017
Probable space group: P M N 21
;
_chemical_formula_sum "Si O2"
_cell_formula_units_Z 32
_cell_length_a 8.929543
_cell_length_b 15.853403
_cell_length_c 11.238652
_cell_angle_alpha 90.000000
_cell_angle_beta 90.000000
_cell_angle_gamma 90.000000
_cell_volume 1590.984528
_symmetry_space_group_name_H-M "P M N 21"
_symmetry_group_IT_number 31
_symmetry_cell_setting 'orthorhombic'
loop_
_space_group_symop_operation_xyz
x,y,z
1/2-x,-y,1/2+z
-x,y,z
1/2+x,-y,1/2+z
loop_
_atom_site_type_symbol
_atom_site_label
_atom_site_fract_x
_atom_site_fract_y
_atom_site_fract_z
Si Si1 0.820132 0.446179 0.137450
Si Si2 0.330175 0.290002 0.803296
Si Si3 0.673263 0.834921 0.144464
Si Si4 0.821671 0.732215 0.689932
Si Si5 0.670971 0.137328 0.992957
Si Si6 0.672560 0.840630 0.863102
Si Si7 0.821449 0.461816 0.867780
Si Si8 0.322742 0.984240 0.320869
O O1 0.760928 0.350296 0.143485
O O2 0.753824 0.489924 0.256208
O O3 0.000000 0.448300 0.143153
O O4 0.776349 0.482560 0.005734
O O5 0.500000 0.321949 0.790534
O O6 0.270371 0.244588 0.685495
O O7 0.224626 0.364623 0.846910
O O8 0.331184 0.213834 0.897978
O O9 0.500000 0.818790 0.179787
O O10 0.718943 0.919559 0.215002
O O11 0.680689 0.847512 0.004976
O O12 0.782028 0.814211 0.611065
O O13 0.767859 0.760713 0.819246
O O14 0.000000 0.719657 0.682244
O O15 0.500000 0.105039 0.006169
O O16 0.775236 0.064988 0.940985
O O17 0.500000 0.828798 0.827592
O O18 0.736736 0.928397 0.814656
O O19 0.000000 0.473156 0.859783
O O20 0.500000 0.999415 0.317187
#
# Coordination Sequence:
#
# PCOD9343017 Si02
#       8
#     4   4   4   4   4   4   4   4
#     4  11  25  44  68  98 131 169 218 267 323 391
#     4  10  19  36  64  92 117 152 198 247 303 365
#     4   9  21  40  58  81 119 160 201 253 309 369
#     4  11  23  41  64  90 124 163 204 254 314 374
#     4   9  19  36  60  87 117 153 193 244 300 359
#     4  11  24  40  58  85 123 164 207 256 313 373
#     4  11  24  42  67  98 131 169 213 264 321 387
#     4  10  21  37  59  87 116 156 204 253 307 364
#
# _framework density 20.113330999999999
#
# number of rings (size 3 to 8) (size 9 to 14) (size 15 to 20)
#    0.000    1.750    1.250    2.250    1.750    5.500 
#    0.000    0.000    0.000    0.000    0.000    0.000 
#    0.000    0.000    0.000    0.000    0.000    0.000 
#
# Total GULP energy -178658.685361 kJ/mol
# GULP energy per Si atom -5583.083918 kJ/mol
# Density = 2.006755 g / cm^3
# Si number density = 20.113331 Si / 1000 Ang^3
#
#
#
# Elastic Constant Matrix: (Units=GPa)
#
#
# Indices 1 2 3 4 5 6 
#
# 1 51.7289 24.1075 45.2162 0.0000 0.0000 0.0000
# 2 24.1075 47.4811 40.7457 0.0000 0.0000 0.0000
# 3 45.2162 40.7457 105.0191 0.0000 0.0000 0.0000
# 4 0.0000 0.0000 0.0000 22.4947 0.0000 0.0000
# 5 0.0000 0.0000 0.0000 0.0000 17.7437 0.0000
# 6 0.0000 0.0000 0.0000 0.0000 0.0000 31.3065
#
#
#
# Elastic Compliance Matrix: (Units=1/GPa)
#
#
# Indices 1 2 3 4 5 6 
#
# 1 0.032362 -0.006707 -0.011331 0.000000 0.000000 0.000000
# 2 -0.006707 0.032963 -0.009901 0.000000 0.000000 0.000000
# 3 -0.011331 -0.009901 0.018242 0.000000 0.000000 0.000000
# 4 0.000000 0.000000 0.000000 0.044455 0.000000 0.000000
# 5 0.000000 0.000000 0.000000 0.000000 0.056358 0.000000
# 6 0.000000 0.000000 0.000000 0.000000 0.000000 0.031942
#
#
# Mechanical properties :
#
#
# Convention : Reuss Voigt Hill
#
# Bulk Modulus (GPa) = 36.11686 47.15200 41.63443
# Shear Modulus (GPa) = 17.76628 20.58628 19.17628
#
# Velocity S-wave (km/s) = 2.97527 3.20271 3.09109
# Velocity P-wave (km/s) = 5.45882 6.09676 5.78659
#
# Compressibility (1/GPa) = 0.02768790
#
# Stress axis : x y z
#
# Youngs Moduli (GPa) = 30.90043 30.33677 54.81748
#
# Poissons Ratio (x) = 0.20348 0.62115
# Poissons Ratio (y) = 0.20726 0.54277
# Poissons Ratio (z) = 0.35014 0.30038
#
# Static dielectric constant tensor:
#      x y z
#    x 1.690770 0.000000 0.000000 
#    y 0.000000 1.680600 0.000000 
#    z 0.000000 0.000000 1.764190 
# 
# From -- ./inp_files/3719.got.cif
#   From: 2010.05.17/outbox.cif.g08.bks.cpg/sg31_2_cif.got.tgz:3719.got - 2010.06.03 17:08:30.
