data_PCOD9343095
_publ_section_title
;
Structure prediction by ZEFSAII (Michael W. Deem and Ramdas Pophale) SiO2 
 PCOD9343095
Probable space group: P M N 21
;
_chemical_formula_sum "Si O2"
_cell_formula_units_Z 32
_cell_length_a 7.887480
_cell_length_b 15.203550
_cell_length_c 12.656662
_cell_angle_alpha 90.000000
_cell_angle_beta 90.000000
_cell_angle_gamma 90.000000
_cell_volume 1517.757753
_symmetry_space_group_name_H-M "P M N 21"
_symmetry_group_IT_number 31
_symmetry_cell_setting 'orthorhombic'
loop_
_space_group_symop_operation_xyz
x,y,z
1/2-x,-y,1/2+z
-x,y,z
1/2+x,-y,1/2+z
loop_
_atom_site_type_symbol
_atom_site_label
_atom_site_fract_x
_atom_site_fract_y
_atom_site_fract_z
Si Si1 0.696287 0.826564 0.264470
Si Si2 0.295621 0.945921 0.450399
Si Si3 0.792300 0.863714 0.893211
Si Si4 0.803071 0.726884 0.058124
Si Si5 0.305836 0.362329 0.115742
Si Si6 0.704943 0.167947 0.155920
Si Si7 0.703458 0.551765 0.174732
Si Si8 0.802981 0.357787 0.884465
O O1 0.500000 0.846914 0.237636
O O2 0.768238 0.901979 0.340670
O O3 0.782940 0.794468 0.156898
O O4 0.697154 0.740856 0.339613
O O5 0.500000 0.943986 0.442194
O O6 0.252340 0.890737 0.554852
O O7 0.239633 0.047051 0.452400
O O8 0.741375 0.867152 0.770617
O O9 0.000000 0.861359 0.895163
O O10 0.731107 0.777494 0.956179
O O11 0.733973 0.632021 0.093575
O O12 0.000000 0.711929 0.038627
O O13 0.500000 0.360934 0.155496
O O14 0.228545 0.268213 0.145902
O O15 0.227388 0.455307 0.149489
O O16 0.302945 0.364302 0.989441
O O17 0.500000 0.171401 0.155125
O O18 0.500000 0.545566 0.181100
O O19 0.764463 0.583271 0.289113
O O20 0.000000 0.380558 0.907589
#
# Coordination Sequence:
#
# PCOD9343095 Si02
#       8
#     4   4   4   4   4   4   4   4
#     4   9  18  33  55  78 106 143 179 224 278 330
#     4  10  20  37  58  80 109 146 184 225 274 334
#     4   9  21  38  56  81 116 151 182 225 285 336
#     4  10  20  35  56  82 111 144 188 235 273 323
#     4  10  20  34  55  80 108 140 181 231 275 323
#     4  10  21  38  58  83 113 146 185 231 282 333
#     4   9  20  37  54  77 110 150 187 224 279 339
#     4   9  17  32  52  75 103 138 180 221 270 328
#
# _framework density 21.083734
#
# number of rings (size 3 to 8) (size 9 to 14) (size 15 to 20)
#    0.000    2.500    1.250    1.125    1.750    4.000 
#    0.000    5.000    0.000    0.000    0.000    0.000 
#    0.000    0.000    0.000    0.000    0.000    0.000 
#
# Total GULP energy -178427.108379 kJ/mol
# GULP energy per Si atom -5575.847137 kJ/mol
# Density = 2.103575 g / cm^3
# Si number density = 21.083734 Si / 1000 Ang^3
#
#
#
# Elastic Constant Matrix: (Units=GPa)
#
#
# Indices 1 2 3 4 5 6 
#
# 1 20.3993 4.9837 -6.1344 0.0000 0.0000 0.0000
# 2 4.9837 131.1321 49.8549 0.0000 0.0000 0.0000
# 3 -6.1344 49.8549 63.1893 0.0000 0.0000 0.0000
# 4 0.0000 0.0000 0.0000 15.7359 0.0000 0.0000
# 5 0.0000 0.0000 0.0000 0.0000 11.3870 0.0000
# 6 0.0000 0.0000 0.0000 0.0000 0.0000 15.1769
#
#
#
# Elastic Compliance Matrix: (Units=1/GPa)
#
#
# Indices 1 2 3 4 5 6 
#
# 1 0.053326 -0.005707 0.009679 0.000000 0.000000 0.000000
# 2 -0.005707 0.011504 -0.009631 0.000000 0.000000 0.000000
# 3 0.009679 -0.009631 0.024363 0.000000 0.000000 0.000000
# 4 0.000000 0.000000 0.000000 0.063549 0.000000 0.000000
# 5 0.000000 0.000000 0.000000 0.000000 0.087819 0.000000
# 6 0.000000 0.000000 0.000000 0.000000 0.000000 0.065889
#
#
# Mechanical properties :
#
#
# Convention : Reuss Voigt Hill
#
# Bulk Modulus (GPa) = 12.84061 34.68102 23.76082
# Shear Modulus (GPa) = 14.54645 19.52774 17.03709
#
# Velocity S-wave (km/s) = 2.62951 3.04665 2.84574
# Velocity P-wave (km/s) = 3.91442 5.37225 4.70020
#
# Compressibility (1/GPa) = 0.07787791
#
# Stress axis : x y z
#
# Youngs Moduli (GPa) = 18.75255 86.92474 41.04513
#
# Poissons Ratio (x) = 0.49605 -0.39729
# Poissons Ratio (y) = 0.10701 0.39529
# Poissons Ratio (z) = -0.18151 0.83713
#
# Static dielectric constant tensor:
#      x y z
#    x 1.781920 0.000000 0.000000 
#    y 0.000000 1.792690 0.000000 
#    z 0.000000 0.000000 1.740490 
# 
# From -- ./inp_files/3725.got.cif
#   From: 2010.05.17/outbox.cif.g08.bks.cpg/sg31_2_cif.got.tgz:3725.got - 2010.06.03 17:08:30.
