data_PCOD9343084
_publ_section_title
;
Structure prediction by ZEFSAII (Michael W. Deem and Ramdas Pophale) SiO2 
 PCOD9343084
Probable space group: P M N 21
;
_chemical_formula_sum "Si O2"
_cell_formula_units_Z 32
_cell_length_a 7.818073
_cell_length_b 19.540157
_cell_length_c 10.719442
_cell_angle_alpha 90.000000
_cell_angle_beta 90.000000
_cell_angle_gamma 90.000000
_cell_volume 1637.570284
_symmetry_space_group_name_H-M "P M N 21"
_symmetry_group_IT_number 31
_symmetry_cell_setting 'orthorhombic'
loop_
_space_group_symop_operation_xyz
x,y,z
1/2-x,-y,1/2+z
-x,y,z
1/2+x,-y,1/2+z
loop_
_atom_site_type_symbol
_atom_site_label
_atom_site_fract_x
_atom_site_fract_y
_atom_site_fract_z
Si Si1 0.296000 0.847879 0.936430
Si Si2 0.206282 0.707493 0.545837
Si Si3 0.293719 0.292507 0.330106
Si Si4 0.204000 0.152120 0.939514
Si Si5 0.294344 0.447440 0.329122
Si Si6 0.293936 0.922264 0.687972
Si Si7 0.793027 0.081836 0.687972
Si Si8 0.205656 0.552560 0.546821
O O1 0.500000 0.858538 0.937062
O O2 0.264681 0.767321 0.920826
O O3 0.226847 0.885724 0.812966
O O4 0.228082 0.880956 0.063202
O O5 0.263141 0.723753 0.687972
O O6 0.264682 0.767321 0.455117
O O7 0.264819 0.630174 0.517627
O O8 0.000000 0.707264 0.545793
O O9 0.500000 0.292736 0.330150
O O10 0.235181 0.369826 0.358316
O O11 0.271918 0.119044 0.812742
O O12 0.000000 0.141462 0.938882
O O13 0.273153 0.114277 0.062978
O O14 0.500000 0.444962 0.322957
O O15 0.250000 0.500000 0.437972
O O16 0.233693 0.465292 0.187972
O O17 0.500000 0.914728 0.687972
O O18 0.252915 0.002215 0.687972
O O19 0.000000 0.086657 0.687972
O O20 0.000000 0.555038 0.552986
#
# Coordination Sequence:
#
# PCOD9343084 Si02
#       8
#     4   4   4   4   4   4   4   4
#     4  10  20  35  53  76 105 135 172 214 257 308
#     4   9  18  34  56  79 103 135 176 217 255 303
#     4   9  18  34  56  79 103 135 176 217 255 303
#     4  10  20  35  53  76 105 135 172 214 257 308
#     4   9  19  36  56  81 111 141 178 220 263 316
#     4  10  20  34  54  76  99 132 177 218 251 306
#     4  10  22  36  50  74 107 138 167 210 265 310
#     4   9  19  36  56  81 111 141 178 220 263 316
#
# _framework density 19.541146999999999
#
# number of rings (size 3 to 8) (size 9 to 14) (size 15 to 20)
#    0.000    2.500    1.250    2.250    0.000    3.500 
#    2.250    2.500    0.000    0.000    0.000    0.000 
#    0.000    0.000    0.000    0.000    0.000    0.000 
#
# Total GULP energy -178543.390737 kJ/mol
# GULP energy per Si atom -5579.480961 kJ/mol
# Density = 1.949667 g / cm^3
# Si number density = 19.541147 Si / 1000 Ang^3
#
#
#
# Elastic Constant Matrix: (Units=GPa)
#
#
# Indices 1 2 3 4 5 6 
#
# 1 18.7848 -4.4148 14.3449 0.0000 0.0000 0.0000
# 2 -4.4148 153.7606 111.5940 0.0000 0.0000 0.0000
# 3 14.3449 111.5940 172.4947 0.0000 0.0000 0.0000
# 4 0.0000 0.0000 0.0000 34.1482 0.0000 0.0000
# 5 0.0000 0.0000 0.0000 0.0000 11.3186 0.0000
# 6 0.0000 0.0000 0.0000 0.0000 0.0000 30.7121
#
#
#
# Elastic Compliance Matrix: (Units=1/GPa)
#
#
# Indices 1 2 3 4 5 6 
#
# 1 0.065392 0.010979 -0.012541 0.000000 0.000000 0.000000
# 2 0.010979 0.014104 -0.010037 0.000000 0.000000 0.000000
# 3 -0.012541 -0.010037 0.013334 0.000000 0.000000 0.000000
# 4 0.000000 0.000000 0.000000 0.029284 0.000000 0.000000
# 5 0.000000 0.000000 0.000000 0.000000 0.088350 0.000000
# 6 0.000000 0.000000 0.000000 0.000000 0.000000 0.032560
#
#
# Mechanical properties :
#
#
# Convention : Reuss Voigt Hill
#
# Bulk Modulus (GPa) = 14.36132 65.34312 39.85222
# Shear Modulus (GPa) = 17.27520 30.13686 23.70603
#
# Velocity S-wave (km/s) = 2.97651 3.93138 3.48679
# Velocity P-wave (km/s) = 4.37927 7.35656 6.05380
#
# Compressibility (1/GPa) = 0.06963150
#
# Stress axis : x y z
#
# Youngs Moduli (GPa) = 15.29237 70.90432 74.99789
#
# Poissons Ratio (x) = -0.77849 0.94056
# Poissons Ratio (y) = -0.16790 0.75277
# Poissons Ratio (z) = 0.19178 0.71168
#
# Static dielectric constant tensor:
#      x y z
#    x 1.706760 0.000000 0.000000 
#    y 0.000000 1.660470 0.000000 
#    z 0.000000 0.000000 1.689540 
# 
# From -- ./inp_files/3775.got.cif
#   From: 2010.05.17/outbox.cif.g08.bks.cpg/sg31_2_cif.got.tgz:3775.got - 2010.06.03 17:08:30.
