data_PCOD9343850
_publ_section_title
;
Structure prediction by ZEFSAII (Michael W. Deem and Ramdas Pophale) SiO2 
 PCOD9343850
Probable space group: P B A 2
;
_chemical_formula_sum "Si O2"
_cell_formula_units_Z 30
_cell_length_a 25.453564
_cell_length_b 8.495288
_cell_length_c 5.898483
_cell_angle_alpha 90.000000
_cell_angle_beta 90.000000
_cell_angle_gamma 90.000000
_cell_volume 1275.460576
_symmetry_space_group_name_H-M "P B A 2"
_symmetry_group_IT_number 32
_symmetry_cell_setting 'orthorhombic'
loop_
_space_group_symop_operation_xyz
x,y,z
-x,-y,z
1/2-x,1/2+y,z
1/2+x,1/2-y,z
loop_
_atom_site_type_symbol
_atom_site_label
_atom_site_fract_x
_atom_site_fract_y
_atom_site_fract_z
Si Si1 0.724100 0.381113 0.261870
Si Si2 0.633099 0.803836 0.909720
Si Si3 0.926784 0.074457 0.192738
Si Si4 0.500000 0.000000 0.234326
Si Si5 0.962661 0.248237 0.584965
Si Si6 0.533967 0.283694 0.976002
Si Si7 0.201708 0.403375 0.964247
Si Si8 0.281688 0.348600 0.580635
O O1 0.699279 0.492106 0.455947
O O2 0.768677 0.281487 0.392582
O O3 0.752606 0.498650 0.090440
O O4 0.693125 0.254203 0.110803
O O5 0.580367 0.805859 0.762169
O O6 0.653163 0.978070 0.960280
O O7 0.677561 0.719182 0.759908
O O8 0.619903 0.690626 0.121208
O O9 0.939721 0.094257 0.457673
O O10 0.979796 0.145548 0.080206
O O11 0.923082 0.903710 0.075525
O O12 0.531166 0.883349 0.398393
O O13 0.463560 0.890651 0.077697
O O14 0.018344 0.222184 0.711592
O O15 0.226477 0.373246 0.716001
#
# Coordination Sequence:
#
# PCOD9343850 Si02
#       8
#     4   4   4   2   4   4   4   4
#     4  10  22  36  68  88 120 183 218 257 335 379
#     4  11  23  37  67  93 132 163 230 267 324 378
#     4   9  21  37  64  94 120 161 209 258 309 379
#     4  10  20  38  70  90 126 166 202 246 330 392
#     4  10  22  40  70  91 127 168 203 267 320 384
#     4   9  19  39  64  92 123 160 207 246 314 389
#     4  11  21  40  64  92 129 172 217 275 315 392
#     4  11  21  40  64  93 126 174 217 267 322 392
#
# _framework density 23.520913
#
# number of rings (size 3 to 8) (size 9 to 14) (size 15 to 20)
#    0.000    1.867    2.667    0.400    1.867    8.533 
#    0.000    0.000   55.733    0.000    0.000    0.000 
#    0.000    0.000    0.000    0.000    0.000    0.000 
#
# Total GULP energy -167550.537720 kJ/mol
# GULP energy per Si atom -5585.017924 kJ/mol
# Density = 2.346738 g / cm^3
# Si number density = 23.520913 Si / 1000 Ang^3
#
#
#
# Elastic Constant Matrix: (Units=GPa)
#
#
# Indices 1 2 3 4 5 6 
#
# 1 55.2642 24.7646 10.7626 0.0000 0.0000 0.0000
# 2 24.7646 127.5594 47.2467 0.0000 0.0000 0.0000
# 3 10.7626 47.2467 86.7446 0.0000 0.0000 0.0000
# 4 0.0000 0.0000 0.0000 46.0728 0.0000 0.0000
# 5 0.0000 0.0000 0.0000 0.0000 28.8600 0.0000
# 6 0.0000 0.0000 0.0000 0.0000 0.0000 41.6461
#
#
#
# Elastic Compliance Matrix: (Units=1/GPa)
#
#
# Indices 1 2 3 4 5 6 
#
# 1 0.019833 -0.003682 -0.000455 0.000000 0.000000 0.000000
# 2 -0.003682 0.010504 -0.005264 0.000000 0.000000 0.000000
# 3 -0.000455 -0.005264 0.014452 0.000000 0.000000 0.000000
# 4 0.000000 0.000000 0.000000 0.021705 0.000000 0.000000
# 5 0.000000 0.000000 0.000000 0.000000 0.034650 0.000000
# 6 0.000000 0.000000 0.000000 0.000000 0.000000 0.024012
#
#
# Mechanical properties :
#
#
# Convention : Reuss Voigt Hill
#
# Bulk Modulus (GPa) = 38.48194 48.34621 43.41408
# Shear Modulus (GPa) = 32.76074 35.76874 34.26474
#
# Velocity S-wave (km/s) = 3.73612 3.90387 3.82092
# Velocity P-wave (km/s) = 5.91673 6.39683 6.16146
#
# Compressibility (1/GPa) = 0.02598622
#
# Stress axis : x y z
#
# Youngs Moduli (GPa) = 50.41987 95.20026 69.19480
#
# Poissons Ratio (x) = 0.35051 0.03151
# Poissons Ratio (y) = 0.18564 0.36427
# Poissons Ratio (z) = 0.02296 0.50118
#
# Static dielectric constant tensor:
#      x y z
#    x 1.923960 0.000000 0.000000 
#    y 0.000000 1.954470 0.000000 
#    z 0.000000 0.000000 1.957560 
# 
# From -- ./inp_files/1812.got.cif
#   From: 2010.05.17/outbox.cif.g08.bks.cpg/sg32_1_cif.got.tgz:1812.got - 2010.06.03 17:12:27.
