data_PCOD9343973
_publ_section_title
;
Structure prediction by ZEFSAII (Michael W. Deem and Ramdas Pophale) SiO2 
 PCOD9343973
Probable space group: P B A 2
;
_chemical_formula_sum "Si O2"
_cell_formula_units_Z 30
_cell_length_a 20.949689
_cell_length_b 10.673887
_cell_length_c 6.523032
_cell_angle_alpha 90.000000
_cell_angle_beta 90.000000
_cell_angle_gamma 90.000000
_cell_volume 1458.645277
_symmetry_space_group_name_H-M "P B A 2"
_symmetry_group_IT_number 32
_symmetry_cell_setting 'orthorhombic'
loop_
_space_group_symop_operation_xyz
x,y,z
-x,-y,z
1/2-x,1/2+y,z
1/2+x,1/2-y,z
loop_
_atom_site_type_symbol
_atom_site_label
_atom_site_fract_x
_atom_site_fract_y
_atom_site_fract_z
Si Si1 0.215401 0.940818 0.212720
Si Si2 0.000000 0.500000 0.712230
Si Si3 0.843687 0.450743 0.250037
Si Si4 0.626935 0.606354 0.828160
Si Si5 0.939404 0.669534 0.361897
Si Si6 0.551279 0.805592 0.026522
Si Si7 0.850670 0.880823 0.545731
Si Si8 0.219029 0.727495 0.544325
O O1 0.231045 0.816380 0.345256
O O2 0.280530 0.004340 0.134312
O O3 0.180710 0.034835 0.368406
O O4 0.168503 0.917925 0.028206
O O5 0.968295 0.599497 0.559501
O O6 0.957179 0.417943 0.864755
O O7 0.889851 0.568745 0.271866
O O8 0.884701 0.340657 0.150177
O O9 0.816819 0.397463 0.465341
O O10 0.618772 0.476560 0.707484
O O11 0.670532 0.698024 0.688621
O O12 0.563648 0.678830 0.900769
O O13 0.901662 0.789344 0.443497
O O14 0.993445 0.696707 0.190293
O O15 0.788752 0.805911 0.633867
#
# Coordination Sequence:
#
# PCOD9343973 Si02
#       8
#     4   2   4   4   4   4   4   4
#     4  10  22  41  68  99 132 173 217 284 350 403
#     4  12  24  42  68 100 124 170 244 280 338 394
#     4  11  20  42  69  97 131 171 217 287 350 395
#     4  11  25  42  68 101 136 177 228 275 348 420
#     4  12  24  45  67  95 140 180 227 289 340 408
#     4  12  25  43  67  99 133 183 229 285 345 407
#     4  10  25  43  64 102 138 177 225 276 348 423
#     4  10  21  41  69  99 133 172 217 285 353 403
#
# _framework density 20.567028000000001
#
# number of rings (size 3 to 8) (size 9 to 14) (size 15 to 20)
#    0.000    1.067    5.333    0.800    1.867    2.133 
#    0.000    4.000    0.000    0.000    0.000    0.000 
#    0.000    0.000    0.000    0.000    0.000    0.000 
#
# Total GULP energy -167585.399450 kJ/mol
# GULP energy per Si atom -5586.179982 kJ/mol
# Density = 2.052022 g / cm^3
# Si number density = 20.567028 Si / 1000 Ang^3
#
#
#
# Elastic Constant Matrix: (Units=GPa)
#
#
# Indices 1 2 3 4 5 6 
#
# 1 91.0803 53.3073 35.7480 0.0000 0.0000 0.0000
# 2 53.3073 112.2618 32.6732 0.0000 0.0000 0.0000
# 3 35.7480 32.6732 64.5341 0.0000 0.0000 0.0000
# 4 0.0000 0.0000 0.0000 34.2071 0.0000 0.0000
# 5 0.0000 0.0000 0.0000 0.0000 18.3650 0.0000
# 6 0.0000 0.0000 0.0000 0.0000 0.0000 40.1850
#
#
#
# Elastic Compliance Matrix: (Units=1/GPa)
#
#
# Indices 1 2 3 4 5 6 
#
# 1 0.017145 -0.006306 -0.006304 0.000000 0.000000 0.000000
# 2 -0.006306 0.012767 -0.002970 0.000000 0.000000 0.000000
# 3 -0.006304 -0.002970 0.020492 0.000000 0.000000 0.000000
# 4 0.000000 0.000000 0.000000 0.029234 0.000000 0.000000
# 5 0.000000 0.000000 0.000000 0.000000 0.054451 0.000000
# 6 0.000000 0.000000 0.000000 0.000000 0.000000 0.024885
#
#
# Mechanical properties :
#
#
# Convention : Reuss Voigt Hill
#
# Bulk Modulus (GPa) = 51.97171 56.81478 54.39325
# Shear Modulus (GPa) = 25.43899 28.29461 26.86680
#
# Velocity S-wave (km/s) = 3.52075 3.71310 3.61820
# Velocity P-wave (km/s) = 6.46930 6.78727 6.63019
#
# Compressibility (1/GPa) = 0.01924124
#
# Stress axis : x y z
#
# Youngs Moduli (GPa) = 58.32754 78.32826 48.80009
#
# Poissons Ratio (x) = 0.49396 0.30765
# Poissons Ratio (y) = 0.36783 0.14496
# Poissons Ratio (z) = 0.36771 0.23267
#
# Static dielectric constant tensor:
#      x y z
#    x 1.740060 0.000000 0.000000 
#    y 0.000000 1.774470 0.000000 
#    z 0.000000 0.000000 1.730190 
# 
# From -- ./inp_files/1580.got.cif
#   From: 2010.05.17/outbox.cif.g08.bks.cpg/sg32_1_cif.got.tgz:1580.got - 2010.06.03 17:12:27.
