data_PCOD9343617
_publ_section_title
;
Structure prediction by ZEFSAII (Michael W. Deem and Ramdas Pophale) SiO2 
 PCOD9343617
Probable space group: P M N 21
;
_chemical_formula_sum "Si O2"
_cell_formula_units_Z 32
_cell_length_a 9.000000
_cell_length_b 15.000000
_cell_length_c 12.000000
_cell_angle_alpha 90.000000
_cell_angle_beta 90.000000
_cell_angle_gamma 90.000000
_cell_volume 1620.000000
_symmetry_space_group_name_H-M "P M N 21"
_symmetry_group_IT_number 31
_symmetry_cell_setting 'orthorhombic'
loop_
_space_group_symop_operation_xyz
x,y,z
1/2-x,-y,1/2+z
-x,y,z
1/2+x,-y,1/2+z
loop_
_atom_site_type_symbol
_atom_site_label
_atom_site_fract_x
_atom_site_fract_y
_atom_site_fract_z
Si Si1 0.167272 0.716768 0.620250
Si Si2 0.167098 0.867442 0.430407
Si Si3 0.678905 0.173495 0.533177
Si Si4 0.678708 0.543317 0.300094
Si Si5 0.822773 0.162064 0.290194
Si Si6 0.179740 0.728765 0.247246
Si Si7 0.322456 0.981205 0.607743
Si Si8 0.678431 0.479051 0.041211
O O1 0.160207 0.790235 0.523686
O O2 0.274796 0.753117 0.715590
O O3 0.209634 0.625287 0.562002
O O4 0.000000 0.706132 0.667531
O O5 0.215652 0.817131 0.319191
O O6 0.268815 0.939227 0.490694
O O7 0.000000 0.903828 0.412336
O O8 0.500000 0.173369 0.520283
O O9 0.751414 0.170655 0.411808
O O10 0.716793 0.253979 0.617409
O O11 0.722318 0.083620 0.599511
O O12 0.500000 0.535094 0.308184
O O13 0.735975 0.645029 0.298108
O O14 0.718436 0.514892 0.168988
O O15 0.747131 0.500383 0.417329
O O16 0.769774 0.076852 0.214587
O O17 0.000000 0.157155 0.300831
O O18 0.000000 0.716468 0.257270
O O19 0.500000 0.976707 0.612078
O O20 0.500000 0.493722 0.028622
#
# Coordination Sequence:
#
# PCOD9343617 Si02
#       8
#     4   4   4   4   4   4   4   4
#     4   9  17  35  61  82 106 145 192 232 281 353
#     4   9  17  32  59  84 104 142 189 230 278 342
#     4  10  22  38  56  79 113 157 199 236 291 361
#     4  11  24  40  64  96 127 159 206 260 311 367
#     4  10  21  36  55  82 116 146 185 245 301 345
#     4  10  21  39  61  83 115 158 197 239 292 358
#     4   9  20  36  54  80 112 147 188 241 290 337
#     4  10  22  42  64  90 125 164 204 251 306 373
#
# _framework density 19.753086
#
# number of rings (size 3 to 8) (size 9 to 14) (size 15 to 20)
#    0.000    2.250    1.250    0.750    1.750    4.500 
#    0.000    3.750    0.000    0.000    0.000    0.000 
#    0.000    0.000    0.000    0.000    0.000    0.000 
#
# Total GULP energy -178200.952854 kJ/mol
# GULP energy per Si atom -5568.779777 kJ/mol
# Density = 1.970813 g / cm^3
# Si number density = 19.753086 Si / 1000 Ang^3
#
#
#
# Elastic Constant Matrix: (Units=GPa)
#
#
# Indices 1 2 3 4 5 6 
#
# 1 29.9752 10.4734 42.7120 0.0000 0.0000 0.0000
# 2 10.4734 34.3342 19.0387 0.0000 0.0000 0.0000
# 3 42.7120 19.0387 165.8590 0.0000 0.0000 0.0000
# 4 0.0000 0.0000 0.0000 24.0225 0.0000 0.0000
# 5 0.0000 0.0000 0.0000 0.0000 28.7643 0.0000
# 6 0.0000 0.0000 0.0000 0.0000 0.0000 14.7623
#
#
#
# Elastic Compliance Matrix: (Units=1/GPa)
#
#
# Indices 1 2 3 4 5 6 
#
# 1 0.055522 -0.009621 -0.013194 0.000000 0.000000 0.000000
# 2 -0.009621 0.032772 -0.001284 0.000000 0.000000 0.000000
# 3 -0.013194 -0.001284 0.009574 0.000000 0.000000 0.000000
# 4 0.000000 0.000000 0.000000 0.041628 0.000000 0.000000
# 5 0.000000 0.000000 0.000000 0.000000 0.034765 0.000000
# 6 0.000000 0.000000 0.000000 0.000000 0.000000 0.067740
#
#
# Mechanical properties :
#
#
# Convention : Reuss Voigt Hill
#
# Bulk Modulus (GPa) = 20.13227 41.62405 30.87816
# Shear Modulus (GPa) = 16.29957 24.03946 20.16952
#
# Velocity S-wave (km/s) = 2.87569 3.49233 3.19890
# Velocity P-wave (km/s) = 4.60871 6.11390 5.41387
#
# Compressibility (1/GPa) = 0.04967150
#
# Stress axis : x y z
#
# Youngs Moduli (GPa) = 18.01077 30.51352 104.44620
#
# Poissons Ratio (x) = 0.29356 1.37804
# Poissons Ratio (y) = 0.17327 0.13415
# Poissons Ratio (z) = 0.23763 0.03919
#
# Static dielectric constant tensor:
#      x y z
#    x 1.685360 0.000000 0.000000 
#    y 0.000000 1.732760 0.000000 
#    z 0.000000 0.000000 1.719490 
# 
# From -- ./inp_files/3666.got.cif
#   From: 2010.05.17/outbox.ucp.g08.bks.cvg/sg31_2_cif.got.tgz:3666.got - 2010.06.11 10:34:26.
