data_PCOD9343752
_publ_section_title
;
Structure prediction by ZEFSAII (Michael W. Deem and Ramdas Pophale) SiO2 
 PCOD9343752
Probable space group: P B A 2
;
_chemical_formula_sum "Si O2"
_cell_formula_units_Z 26
_cell_length_a 8.451247
_cell_length_b 17.302565
_cell_length_c 8.085534
_cell_angle_alpha 90.000000
_cell_angle_beta 90.000000
_cell_angle_gamma 90.000000
_cell_volume 1182.333492
_symmetry_space_group_name_H-M "P B A 2"
_symmetry_group_IT_number 32
_symmetry_cell_setting 'orthorhombic'
loop_
_space_group_symop_operation_xyz
x,y,z
-x,-y,z
1/2-x,1/2+y,z
1/2+x,1/2-y,z
loop_
_atom_site_type_symbol
_atom_site_label
_atom_site_fract_x
_atom_site_fract_y
_atom_site_fract_z
Si Si1 0.500000 0.000000 0.023111
Si Si2 0.112709 0.765076 0.604601
Si Si3 0.395701 0.838385 0.447187
Si Si4 0.451000 0.617577 0.374698
Si Si5 0.476033 0.174216 0.932760
Si Si6 0.797562 0.761544 0.144425
Si Si7 0.735085 0.016973 0.324532
O O1 0.651298 0.005292 0.147525
O O2 0.489504 0.081127 0.923945
O O3 0.284242 0.804185 0.591808
O O4 0.086301 0.719905 0.773677
O O5 0.067482 0.698607 0.470115
O O6 0.995788 0.833570 0.539082
O O7 0.305954 0.802357 0.288511
O O8 0.384546 0.929602 0.429784
O O9 0.411810 0.673499 0.221713
O O10 0.603422 0.567288 0.324848
O O11 0.299583 0.562715 0.398193
O O12 0.359488 0.195500 0.085579
O O13 0.637397 0.214947 0.987751
#
# Coordination Sequence:
#
# PCOD9343752 Si02
#       7
#     2   4   4   4   4   4   4
#     4  12  24  38  62 104 136 164 208 282 342 378
#     4  10  22  38  59  89 129 167 209 256 322 388
#     4  10  20  39  64  90 120 168 218 263 308 381
#     4   9  20  39  65  91 120 167 221 264 314 386
#     4  12  24  40  61  95 136 169 212 270 335 391
#     4  11  21  38  65  93 120 174 226 264 308 394
#     4  10  19  37  65  96 123 156 220 280 313 374
#
# _framework density 21.990411000000002
#
# number of rings (size 3 to 8) (size 9 to 14) (size 15 to 20)
#    0.000    1.538    3.077    3.692    0.000    0.000 
#    0.000    5.385    0.000    9.231    0.000    0.000 
#    0.000    0.000    0.000    0.000    0.000    0.000 
#
# Total GULP energy -144997.979823 kJ/mol
# GULP energy per Si atom -5576.845378 kJ/mol
# Density = 2.194036 g / cm^3
# Si number density = 21.990411 Si / 1000 Ang^3
#
#
#
# Elastic Constant Matrix: (Units=GPa)
#
#
# Indices 1 2 3 4 5 6 
#
# 1 41.6117 39.8285 5.1629 0.0000 0.0000 0.0000
# 2 39.8285 169.1463 37.3874 0.0000 0.0000 0.0000
# 3 5.1629 37.3874 93.9268 0.0000 0.0000 0.0000
# 4 0.0000 0.0000 0.0000 34.7348 0.0000 0.0000
# 5 0.0000 0.0000 0.0000 0.0000 28.9372 0.0000
# 6 0.0000 0.0000 0.0000 0.0000 0.0000 51.8830
#
#
#
# Elastic Compliance Matrix: (Units=1/GPa)
#
#
# Indices 1 2 3 4 5 6 
#
# 1 0.031173 -0.007633 0.001325 0.000000 0.000000 0.000000
# 2 -0.007633 0.008351 -0.002905 0.000000 0.000000 0.000000
# 3 0.001325 -0.002905 0.011730 0.000000 0.000000 0.000000
# 4 0.000000 0.000000 0.000000 0.028790 0.000000 0.000000
# 5 0.000000 0.000000 0.000000 0.000000 0.034558 0.000000
# 6 0.000000 0.000000 0.000000 0.000000 0.000000 0.019274
#
#
# Mechanical properties :
#
#
# Convention : Reuss Voigt Hill
#
# Bulk Modulus (GPa) = 30.46105 52.16025 41.31065
# Shear Modulus (GPa) = 30.62877 37.93140 34.28009
#
# Velocity S-wave (km/s) = 3.73610 4.15771 3.95253
# Velocity P-wave (km/s) = 5.70029 6.84249 6.29734
#
# Compressibility (1/GPa) = 0.03282881
#
# Stress axis : x y z
#
# Youngs Moduli (GPa) = 32.07859 119.73955 85.25167
#
# Poissons Ratio (x) = 0.91399 -0.11295
# Poissons Ratio (y) = 0.24486 0.24763
# Poissons Ratio (z) = -0.04250 0.34781
#
# Static dielectric constant tensor:
#      x y z
#    x 1.899010 0.000000 0.000000 
#    y 0.000000 1.842440 0.000000 
#    z 0.000000 0.000000 1.872290 
# 
# From -- ./inp_files/2413.got.cif
#   From: 2010.05.17/outbox.cif.g08.bks.cpg/sg32_2_cif.got.tgz:2413.got - 2010.06.03 17:12:27.
