data_PCOD9343930
_publ_section_title
;
Structure prediction by ZEFSAII (Michael W. Deem and Ramdas Pophale) SiO2 
 PCOD9343930
Probable space group: P B A 2
;
_chemical_formula_sum "Si O2"
_cell_formula_units_Z 32
_cell_length_a 8.758774
_cell_length_b 14.603192
_cell_length_c 11.558419
_cell_angle_alpha 90.000000
_cell_angle_beta 90.000000
_cell_angle_gamma 90.000000
_cell_volume 1478.391816
_symmetry_space_group_name_H-M "P B A 2"
_symmetry_group_IT_number 32
_symmetry_cell_setting 'orthorhombic'
loop_
_space_group_symop_operation_xyz
x,y,z
-x,-y,z
1/2-x,1/2+y,z
1/2+x,1/2-y,z
loop_
_atom_site_type_symbol
_atom_site_label
_atom_site_fract_x
_atom_site_fract_y
_atom_site_fract_z
Si Si1 0.261662 0.462813 0.683190
Si Si2 0.160402 0.153823 0.407732
Si Si3 0.081529 0.213195 0.908484
Si Si4 0.277548 0.346871 0.039453
Si Si5 0.163661 0.467524 0.436962
Si Si6 0.182311 0.016534 0.921860
Si Si7 0.940268 0.844290 0.658446
Si Si8 0.660420 0.690095 0.303252
O O1 0.150670 0.449861 0.575335
O O2 0.220838 0.469630 0.818264
O O3 0.389052 0.384622 0.663908
O O4 0.337716 0.564113 0.672399
O O5 0.104810 0.191798 0.532821
O O6 0.299487 0.212122 0.357881
O O7 0.014375 0.163202 0.325431
O O8 0.214295 0.049611 0.422078
O O9 0.192553 0.125412 0.932819
O O10 0.081055 0.220796 0.769130
O O11 0.133720 0.300250 0.979749
O O12 0.917763 0.183892 0.957433
O O13 0.302082 0.312777 0.168391
O O14 0.279168 0.457153 0.033951
O O15 0.231187 0.381132 0.370711
O O16 0.000000 0.500000 0.392838
O O17 0.000000 0.000000 0.893653
#
# Coordination Sequence:
#
# PCOD9343930 Si02
#       8
#     4   4   4   4   4   4   4   4
#     4   9  14  34  63  91 121 152 196 258 320 385
#     4  11  24  41  64  93 126 170 215 268 329 385
#     4  10  21  38  62  90 122 157 211 266 315 380
#     4  11  23  39  60  90 120 168 211 259 310 371
#     4  11  24  41  65  95 128 166 213 271 333 394
#     4   9  17  36  64  87 117 162 206 249 312 385
#     4   9  16  34  64  92 118 159 201 257 326 386
#     4  12  25  41  62  90 130 173 221 263 312 390
#
# _framework density 21.645140000000001
#
# number of rings (size 3 to 8) (size 9 to 14) (size 15 to 20)
#    0.000    1.750    5.000    1.875    0.000    6.000 
#    0.000    5.625    0.000    0.000    0.000    0.000 
#    0.000    0.000    0.000    0.000    0.000    0.000 
#
# Total GULP energy -178616.773230 kJ/mol
# GULP energy per Si atom -5581.774163 kJ/mol
# Density = 2.159587 g / cm^3
# Si number density = 21.645140 Si / 1000 Ang^3
#
#
#
# Elastic Constant Matrix: (Units=GPa)
#
#
# Indices 1 2 3 4 5 6 
#
# 1 32.2945 -14.6299 -16.5650 0.0000 0.0000 0.0000
# 2 -14.6299 30.3933 0.2442 0.0000 0.0000 0.0000
# 3 -16.5650 0.2442 77.6798 0.0000 0.0000 0.0000
# 4 0.0000 0.0000 0.0000 10.9017 0.0000 0.0000
# 5 0.0000 0.0000 0.0000 0.0000 15.7818 0.0000
# 6 0.0000 0.0000 0.0000 0.0000 0.0000 26.7620
#
#
#
# Elastic Compliance Matrix: (Units=1/GPa)
#
#
# Indices 1 2 3 4 5 6 
#
# 1 0.045935 0.022033 0.009726 0.000000 0.000000 0.000000
# 2 0.022033 0.043471 0.004562 0.000000 0.000000 0.000000
# 3 0.009726 0.004562 0.014933 0.000000 0.000000 0.000000
# 4 0.000000 0.000000 0.000000 0.091729 0.000000 0.000000
# 5 0.000000 0.000000 0.000000 0.000000 0.063364 0.000000
# 6 0.000000 0.000000 0.000000 0.000000 0.000000 0.037366
#
#
# Mechanical properties :
#
#
# Convention : Reuss Voigt Hill
#
# Bulk Modulus (GPa) = 5.65029 8.71843 7.18436
# Shear Modulus (GPa) = 17.65846 22.11032 19.88439
#
# Velocity S-wave (km/s) = 2.85935 3.19955 3.03422
# Velocity P-wave (km/s) = 3.67658 4.20548 3.94989
#
# Compressibility (1/GPa) = 0.17698221
#
# Stress axis : x y z
#
# Youngs Moduli (GPa) = 21.76969 23.00383 66.96509
#
# Poissons Ratio (x) = -0.50684 -0.65133
# Poissons Ratio (y) = -0.47965 -0.30549
# Poissons Ratio (z) = -0.21174 -0.10494
#
# Static dielectric constant tensor:
#      x y z
#    x 1.785130 0.000000 0.000000 
#    y 0.000000 1.806470 0.000000 
#    z 0.000000 0.000000 1.808560 
# 
# From -- ./inp_files/3783.got.cif
#   From: 2010.05.17/outbox.cif.g08.bks.cpg/sg32_2_cif.got.tgz:3783.got - 2010.06.03 17:12:27.
