data_PCOD9343405
_publ_section_title
;
Structure prediction by ZEFSAII (Michael W. Deem and Ramdas Pophale) SiO2 
 PCOD9343405
Probable space group: P M N 21
;
_chemical_formula_sum "Si O2"
_cell_formula_units_Z 28
_cell_length_a 22.928855
_cell_length_b 7.613842
_cell_length_c 7.310455
_cell_angle_alpha 90.000000
_cell_angle_beta 90.000000
_cell_angle_gamma 90.000000
_cell_volume 1276.234957
_symmetry_space_group_name_H-M "P M N 21"
_symmetry_group_IT_number 31
_symmetry_cell_setting 'orthorhombic'
loop_
_space_group_symop_operation_xyz
x,y,z
1/2-x,-y,1/2+z
-x,y,z
1/2+x,-y,1/2+z
loop_
_atom_site_type_symbol
_atom_site_label
_atom_site_fract_x
_atom_site_fract_y
_atom_site_fract_z
Si Si1 0.679355 0.176559 0.320120
Si Si2 0.936952 0.598365 0.360075
Si Si3 0.813112 0.677038 0.361330
Si Si4 0.063670 0.891968 0.044081
Si Si5 0.309027 0.539937 0.487755
Si Si6 0.302378 0.954970 0.946419
Si Si7 0.107627 0.242964 0.208592
O O1 0.618119 0.127529 0.410707
O O2 0.681247 0.391189 0.333714
O O3 0.737834 0.120702 0.429593
O O4 0.685196 0.057560 0.136146
O O5 0.875327 0.638956 0.458036
O O6 0.930845 0.402738 0.281701
O O7 0.000000 0.620464 0.453992
O O8 0.935470 0.732796 0.189388
O O9 0.753847 0.627928 0.464064
O O10 0.810168 0.880683 0.310393
O O11 0.811922 0.563935 0.178340
O O12 0.000000 0.890782 0.952481
O O13 0.071788 0.072055 0.155089
O O14 0.356862 0.690277 0.527977
O O15 0.153058 0.190276 0.370623
#
# Coordination Sequence:
#
# PCOD9343405 Si02
#       7
#     4   4   4   4   4   4   4
#     4  12  23  42  61 100 133 178 219 283 348 398
#     4  10  21  39  65  93 127 167 221 268 318 401
#     4  11  20  38  59  99 128 170 215 270 339 390
#     4  11  22  42  68  93 130 176 225 272 332 413
#     4  11  22  37  65  94 139 167 223 279 337 407
#     4  12  24  38  69  94 140 170 223 285 344 412
#     4  11  21  42  65 103 120 174 222 275 338 399
#
# _framework density 21.939533000000001
#
# number of rings (size 3 to 8) (size 9 to 14) (size 15 to 20)
#    0.000    0.857    4.286    6.429    0.000    0.000 
#    0.000    5.000    0.000    0.000    0.000    0.000 
#    0.000    0.000    0.000    0.000    0.000    0.000 
#
# Total GULP energy -156309.040964 kJ/mol
# GULP energy per Si atom -5582.465749 kJ/mol
# Density = 2.188960 g / cm^3
# Si number density = 21.939533 Si / 1000 Ang^3
#
#
#
# Elastic Constant Matrix: (Units=GPa)
#
#
# Indices 1 2 3 4 5 6 
#
# 1 164.7649 36.6757 18.4427 0.0000 0.0000 0.0000
# 2 36.6757 137.4158 16.7720 0.0000 0.0000 0.0000
# 3 18.4427 16.7720 59.7681 0.0000 0.0000 0.0000
# 4 0.0000 0.0000 0.0000 30.6600 0.0000 0.0000
# 5 0.0000 0.0000 0.0000 0.0000 42.8003 0.0000
# 6 0.0000 0.0000 0.0000 0.0000 0.0000 0.8832
#
#
#
# Elastic Compliance Matrix: (Units=1/GPa)
#
#
# Indices 1 2 3 4 5 6 
#
# 1 0.006596 -0.001566 -0.001596 0.000000 0.000000 0.000000
# 2 -0.001566 0.007907 -0.001736 0.000000 0.000000 0.000000
# 3 -0.001596 -0.001736 0.017711 0.000000 0.000000 0.000000
# 4 0.000000 0.000000 0.000000 0.032616 0.000000 0.000000
# 5 0.000000 0.000000 0.000000 0.000000 0.023364 0.000000
# 6 0.000000 0.000000 0.000000 0.000000 0.000000 1.132210
#
#
# Mechanical properties :
#
#
# Convention : Reuss Voigt Hill
#
# Bulk Modulus (GPa) = 44.60462 56.19219 50.39840
# Shear Modulus (GPa) = 4.03984 34.20594 19.12289
#
# Velocity S-wave (km/s) = 1.35844 3.95283 2.95552
# Velocity P-wave (km/s) = 4.77863 6.81917 5.88797
#
# Compressibility (1/GPa) = 0.02241920
#
# Stress axis : x y z
#
# Youngs Moduli (GPa) = 151.59697 126.47145 56.46243
#
# Poissons Ratio (x) = 0.19802 0.09012
# Poissons Ratio (y) = 0.23736 0.09800
# Poissons Ratio (z) = 0.24196 0.21951
#
# Static dielectric constant tensor:
#      x y z
#    x 1.821150 0.000000 0.000000 
#    y 0.000000 1.816470 0.000000 
#    z 0.000000 0.000000 1.856560 
# 
# From -- ./inp_files/2958.got.cif
#   From: 2010.05.17/outbox.cif.g08.bks.cpg/sg31_2_cif.got.tgz:2958.got - 2010.06.03 17:08:30.
