data_PCOD9343528
_publ_section_title
;
Structure prediction by ZEFSAII (Michael W. Deem and Ramdas Pophale) SiO2 
 PCOD9343528
Probable space group: P M N 21
;
_chemical_formula_sum "Si O2"
_cell_formula_units_Z 28
_cell_length_a 13.543239
_cell_length_b 7.915794
_cell_length_c 11.568825
_cell_angle_alpha 90.000000
_cell_angle_beta 90.000000
_cell_angle_gamma 90.000000
_cell_volume 1240.241553
_symmetry_space_group_name_H-M "P M N 21"
_symmetry_group_IT_number 31
_symmetry_cell_setting 'orthorhombic'
loop_
_space_group_symop_operation_xyz
x,y,z
1/2-x,-y,1/2+z
-x,y,z
1/2+x,-y,1/2+z
loop_
_atom_site_type_symbol
_atom_site_label
_atom_site_fract_x
_atom_site_fract_y
_atom_site_fract_z
Si Si1 0.382087 0.734457 0.143510
Si Si2 0.380924 0.910786 0.898282
Si Si3 0.264308 0.500001 0.570404
Si Si4 0.881138 0.169988 0.140248
Si Si5 0.381138 0.169989 0.500561
Si Si6 0.380924 0.089210 0.242528
Si Si7 0.117913 0.734461 0.497300
O O1 0.500000 0.700345 0.152739
O O2 0.313723 0.573276 0.164886
O O3 0.354230 0.893999 0.221578
O O4 0.359659 0.800446 0.012349
O O5 0.500000 0.912102 0.895426
O O6 0.349086 0.850180 0.773150
O O7 0.354230 0.105998 0.919232
O O8 0.333643 0.658636 0.595093
O O9 0.333643 0.341367 0.545715
O O10 0.186277 0.573279 0.475924
O O11 0.852904 0.999999 0.070406
O O12 0.000000 0.181786 0.133980
O O13 0.500000 0.181788 0.506830
O O14 0.349085 0.149818 0.367660
O O15 0.500000 0.087895 0.245384
O O16 0.359659 0.199550 0.128461
O O17 0.000000 0.700349 0.488071
#
# Coordination Sequence:
#
# PCOD9343528 Si02
#       7
#     4   4   4   4   4   4   4
#     4   9  19  39  66  98 128 163 211 265 328 381
#     4   8  17  40  69  87 122 173 209 260 322 377
#     4  12  24  38  64 102 130 170 216 270 318 384
#     4  10  23  45  65  89 131 176 219 263 316 384
#     4  10  23  45  65  89 131 176 219 263 316 384
#     4   8  17  40  69  87 122 173 209 260 322 377
#     4   9  19  39  66  98 128 163 211 265 328 381
#
# _framework density 22.576248
#
# number of rings (size 3 to 8) (size 9 to 14) (size 15 to 20)
#    0.000    2.571    0.000    2.571    4.000    1.143 
#   10.286    0.000    0.000    0.000    0.000    0.000 
#    0.000    0.000    0.000    0.000    0.000    0.000 
#
# Total GULP energy -156420.496619 kJ/mol
# GULP energy per Si atom -5586.446308 kJ/mol
# Density = 2.252486 g / cm^3
# Si number density = 22.576248 Si / 1000 Ang^3
#
#
#
# Elastic Constant Matrix: (Units=GPa)
#
#
# Indices 1 2 3 4 5 6 
#
# 1 123.5265 70.5999 29.5026 0.0000 0.0000 0.0000
# 2 70.5999 178.9830 35.0116 0.0000 0.0000 0.0000
# 3 29.5026 35.0116 59.8710 0.0000 0.0000 0.0000
# 4 0.0000 0.0000 0.0000 14.8111 0.0000 0.0000
# 5 0.0000 0.0000 0.0000 0.0000 2.4964 0.0000
# 6 0.0000 0.0000 0.0000 0.0000 0.0000 44.6809
#
#
#
# Elastic Compliance Matrix: (Units=1/GPa)
#
#
# Indices 1 2 3 4 5 6 
#
# 1 0.010985 -0.003697 -0.003251 0.000000 0.000000 0.000000
# 2 -0.003697 0.007553 -0.002595 0.000000 0.000000 0.000000
# 3 -0.003251 -0.002595 0.019822 0.000000 0.000000 0.000000
# 4 0.000000 0.000000 0.000000 0.067517 0.000000 0.000000
# 5 0.000000 0.000000 0.000000 0.000000 0.400579 0.000000
# 6 0.000000 0.000000 0.000000 0.000000 0.000000 0.022381
#
#
# Mechanical properties :
#
#
# Convention : Reuss Voigt Hill
#
# Bulk Modulus (GPa) = 51.88415 70.28987 61.08701
# Shear Modulus (GPa) = 9.01961 27.54876 18.28418
#
# Velocity S-wave (km/s) = 2.00096 3.49700 2.84894
# Velocity P-wave (km/s) = 5.32636 6.89256 6.15944
#
# Compressibility (1/GPa) = 0.01927371
#
# Stress axis : x y z
#
# Youngs Moduli (GPa) = 91.03412 132.39650 50.44856
#
# Poissons Ratio (x) = 0.48948 0.16401
# Poissons Ratio (y) = 0.33656 0.13092
# Poissons Ratio (z) = 0.29596 0.34359
#
# Static dielectric constant tensor:
#      x y z
#    x 1.903850 0.000000 0.000000 
#    y 0.000000 1.843890 0.000000 
#    z 0.000000 0.000000 1.857960 
# 
# From -- ./inp_files/4386.got.cif
#   From: 2010.05.17/outbox.cif.g08.bks.cpg/sg31_3_cif.got.tgz:4386.got - 2010.06.03 17:08:30.
