data_PCOD9343301
_publ_section_title
;
Structure prediction by ZEFSAII (Michael W. Deem and Ramdas Pophale) SiO2 
 PCOD9343301
Probable space group: P M N 21
;
_chemical_formula_sum "Si O2"
_cell_formula_units_Z 32
_cell_length_a 7.501066
_cell_length_b 19.461544
_cell_length_c 8.161436
_cell_angle_alpha 90.000000
_cell_angle_beta 90.000000
_cell_angle_gamma 90.000000
_cell_volume 1191.425411
_symmetry_space_group_name_H-M "P M N 21"
_symmetry_group_IT_number 31
_symmetry_cell_setting 'orthorhombic'
loop_
_space_group_symop_operation_xyz
x,y,z
1/2-x,-y,1/2+z
-x,y,z
1/2+x,-y,1/2+z
loop_
_atom_site_type_symbol
_atom_site_label
_atom_site_fract_x
_atom_site_fract_y
_atom_site_fract_z
Si Si1 0.213211 0.479163 0.165270
Si Si2 0.283695 0.858575 0.372887
Si Si3 0.718010 0.644915 0.869568
Si Si4 0.208147 0.891455 0.888694
Si Si5 0.286995 0.604984 0.351983
Si Si6 0.204592 0.986151 0.180121
Si Si7 0.204399 0.234312 0.570764
Si Si8 0.216289 0.268513 0.047786
O O1 0.279084 0.430907 0.316218
O O2 0.253381 0.558857 0.192920
O O3 0.000000 0.472682 0.161760
O O4 0.282312 0.443212 0.000957
O O5 0.500000 0.863530 0.375062
O O6 0.217268 0.934686 0.336266
O O7 0.223874 0.809525 0.521092
O O8 0.222934 0.812822 0.215832
O O9 0.500000 0.643014 0.882029
O O10 0.783020 0.692533 0.018666
O O11 0.766172 0.691094 0.710474
O O12 0.296210 0.817387 0.913851
O O13 0.000000 0.879063 0.917982
O O14 0.224663 0.939633 0.730366
O O15 0.285607 0.940603 0.034045
O O16 0.500000 0.608672 0.362978
O O17 0.225661 0.681465 0.397315
O O18 0.000000 0.997280 0.135025
O O19 0.000000 0.248058 0.618910
O O20 0.000000 0.266245 0.047017
#
# Coordination Sequence:
#
# PCOD9343301 Si02
#       8
#     4   4   4   4   4   4   4   4
#     4   9  18  32  49  71  99 130 165 204 245 290
#     4   9  17  30  49  72  96 123 158 199 241 287
#     4   8  15  29  48  69  94 124 159 199 241 287
#     4  10  21  36  53  74 101 132 164 199 241 288
#     4   9  18  32  49  71  99 130 165 204 245 290
#     4  10  21  36  53  74 101 132 164 199 241 288
#     4   9  17  30  49  72  96 123 158 199 241 287
#     4   8  15  29  48  69  94 124 159 199 241 287
#
# _framework density 26.858581999999998
#
# number of rings (size 3 to 8) (size 9 to 14) (size 15 to 20)
#    0.000    3.000    0.000    2.250    0.000    4.000 
#    0.000    6.250    0.000    4.500    0.000    0.000 
#    0.000    0.000    0.000    0.000    0.000    0.000 
#
# Total GULP energy -178791.818450 kJ/mol
# GULP energy per Si atom -5587.244327 kJ/mol
# Density = 2.679745 g / cm^3
# Si number density = 26.858582 Si / 1000 Ang^3
#
#
#
# Elastic Constant Matrix: (Units=GPa)
#
#
# Indices 1 2 3 4 5 6 
#
# 1 80.2508 -7.6105 -9.5401 0.0000 0.0000 0.0000
# 2 -7.6105 199.6860 22.6733 0.0000 0.0000 0.0000
# 3 -9.5401 22.6733 44.2466 0.0000 0.0000 0.0000
# 4 0.0000 0.0000 0.0000 59.4583 0.0000 0.0000
# 5 0.0000 0.0000 0.0000 0.0000 6.9116 0.0000
# 6 0.0000 0.0000 0.0000 0.0000 0.0000 -39.9958
#
#
#
# Elastic Compliance Matrix: (Units=1/GPa)
#
#
# Indices 1 2 3 4 5 6 
#
# 1 0.012795 0.000185 0.002664 0.000000 0.000000 0.000000
# 2 0.000185 0.005320 -0.002686 0.000000 0.000000 0.000000
# 3 0.002664 -0.002686 0.024551 0.000000 0.000000 0.000000
# 4 0.000000 0.000000 0.000000 0.016818 0.000000 0.000000
# 5 0.000000 0.000000 0.000000 0.000000 0.144684 0.000000
# 6 0.000000 0.000000 0.000000 0.000000 0.000000 -0.025003
#
#
# Mechanical properties :
#
#
# Convention : Reuss Voigt Hill
#
# Bulk Modulus (GPa) = 23.25992 37.24763 30.25378
# Shear Modulus (GPa) = 25.88382 26.51889 26.20135
#
# Velocity S-wave (km/s) = 3.10773 3.14563 3.12674
# Velocity P-wave (km/s) = 4.64287 5.20494 4.93192
#
# Compressibility (1/GPa) = 0.04299241
#
# Stress axis : x y z
#
# Youngs Moduli (GPa) = 78.15440 187.97282 40.73079
#
# Poissons Ratio (x) = -0.03481 -0.10850
# Poissons Ratio (y) = -0.01447 0.10941
# Poissons Ratio (z) = -0.20820 0.50492
#
# Static dielectric constant tensor:
#      x y z
#    x 2.007020 0.000000 0.000000 
#    y 0.000000 2.063520 0.000000 
#    z 0.000000 0.000000 2.263270 
# 
# From -- ./inp_files/1872.got.cif
#   From: 2010.05.17/outbox.cif.g08.bks.cpg/sg31_1_cif.got.tgz:1872.got - 2010.06.03 17:08:30.
