data_PCOD9343452
_publ_section_title
;
Structure prediction by ZEFSAII (Michael W. Deem and Ramdas Pophale) SiO2 
 PCOD9343452
Probable space group: P M N 21
;
_chemical_formula_sum "Si O2"
_cell_formula_units_Z 24
_cell_length_a 14.386584
_cell_length_b 9.476058
_cell_length_c 8.349753
_cell_angle_alpha 90.000000
_cell_angle_beta 90.000000
_cell_angle_gamma 90.000000
_cell_volume 1138.305999
_symmetry_space_group_name_H-M "P M N 21"
_symmetry_group_IT_number 31
_symmetry_cell_setting 'orthorhombic'
loop_
_space_group_symop_operation_xyz
x,y,z
1/2-x,-y,1/2+z
-x,y,z
1/2+x,-y,1/2+z
loop_
_atom_site_type_symbol
_atom_site_label
_atom_site_fract_x
_atom_site_fract_y
_atom_site_fract_z
Si Si1 0.201944 0.685853 0.760730
Si Si2 0.196418 0.823848 0.270830
Si Si3 0.205718 0.407418 0.584836
Si Si4 0.000000 0.190593 0.236892
Si Si5 0.500000 0.298152 0.191762
Si Si6 0.689484 0.906127 0.575978
Si Si7 0.500000 0.102647 0.918636
Si Si8 0.000000 0.408272 0.517518
O O1 0.214699 0.572777 0.618172
O O2 0.237212 0.833370 0.695975
O O3 0.092613 0.686008 0.794001
O O4 0.260180 0.634850 0.910466
O O5 0.230309 0.673787 0.210340
O O6 0.271827 0.877149 0.400105
O O7 0.094576 0.831402 0.348325
O O8 0.190147 0.929509 0.119795
O O9 0.097430 0.363122 0.597503
O O10 0.091192 0.164060 0.127504
O O11 0.000000 0.336574 0.339711
O O12 0.000000 0.062139 0.368225
O O13 0.500000 0.421663 0.053327
O O14 0.500000 0.147476 0.103448
#
# Coordination Sequence:
#
# PCOD9343452 Si02
#       8
#     4   4   4   2   2   4   2   2
#     4  11  22  40  63  91 124 164 208 256 306 369
#     4  11  24  41  63  94 125 165 210 256 312 369
#     4  11  24  41  63  94 125 165 210 256 312 369
#     4  10  22  39  63  93 125 162 210 254 312 365
#     4  10  22  39  63  93 125 162 210 254 312 365
#     4  11  22  40  63  91 124 164 208 256 306 369
#     4  10  22  39  63  91 127 164 204 254 316 371
#     4  10  22  39  63  91 127 164 204 254 316 371
#
# _framework density 21.083964000000002
#
# number of rings (size 3 to 8) (size 9 to 14) (size 15 to 20)
#    0.000    1.333    3.333    2.000    4.667    1.333 
#    0.000    6.667    0.000    0.000    0.000    0.000 
#    0.000    0.000    0.000    0.000    0.000    0.000 
#
# Total GULP energy -133998.555833 kJ/mol
# GULP energy per Si atom -5583.273160 kJ/mol
# Density = 2.103598 g / cm^3
# Si number density = 21.083964 Si / 1000 Ang^3
#
#
#
# Elastic Constant Matrix: (Units=GPa)
#
#
# Indices 1 2 3 4 5 6 
#
# 1 114.3120 22.2660 -2.3776 0.0000 0.0000 0.0000
# 2 22.2660 40.3439 -7.1375 0.0000 0.0000 0.0000
# 3 -2.3776 -7.1375 34.8240 0.0000 0.0000 0.0000
# 4 0.0000 0.0000 0.0000 31.0921 0.0000 0.0000
# 5 0.0000 0.0000 0.0000 0.0000 9.3006 0.0000
# 6 0.0000 0.0000 0.0000 0.0000 0.0000 19.9171
#
#
#
# Elastic Compliance Matrix: (Units=1/GPa)
#
#
# Indices 1 2 3 4 5 6 
#
# 1 0.009809 -0.005494 -0.000456 0.000000 0.000000 0.000000
# 2 -0.005494 0.028797 0.005527 0.000000 0.000000 0.000000
# 3 -0.000456 0.005527 0.029817 0.000000 0.000000 0.000000
# 4 0.000000 0.000000 0.000000 0.032162 0.000000 0.000000
# 5 0.000000 0.000000 0.000000 0.000000 0.107519 0.000000
# 6 0.000000 0.000000 0.000000 0.000000 0.000000 0.050208
#
#
# Mechanical properties :
#
#
# Convention : Reuss Voigt Hill
#
# Bulk Modulus (GPa) = 14.79813 23.88686 19.34249
# Shear Modulus (GPa) = 17.75028 23.84389 20.79709
#
# Velocity S-wave (km/s) = 2.90467 3.36654 3.14410
# Velocity P-wave (km/s) = 4.27591 5.14446 4.73016
#
# Compressibility (1/GPa) = 0.06757611
#
# Stress axis : x y z
#
# Youngs Moduli (GPa) = 101.95053 34.72580 33.53739
#
# Poissons Ratio (x) = 0.19079 0.01531
# Poissons Ratio (y) = 0.56014 -0.18536
# Poissons Ratio (z) = 0.04653 -0.19193
#
# Static dielectric constant tensor:
#      x y z
#    x 1.746700 0.000000 0.000000 
#    y 0.000000 1.740250 0.000000 
#    z 0.000000 0.000000 1.733790 
# 
# From -- ./inp_files/2129.got.cif
#   From: 2010.05.17/outbox.cif.g08.bks.cpg/sg31_2_cif.got.tgz:2129.got - 2010.06.03 17:08:30.
