data_PCOD9343384
_publ_section_title
;
Structure prediction by ZEFSAII (Michael W. Deem and Ramdas Pophale) SiO2 
 PCOD9343384
Probable space group: P M N 21
;
_chemical_formula_sum "Si O2"
_cell_formula_units_Z 24
_cell_length_a 7.992031
_cell_length_b 10.317747
_cell_length_c 14.476017
_cell_angle_alpha 90.000000
_cell_angle_beta 90.000000
_cell_angle_gamma 90.000000
_cell_volume 1193.688799
_symmetry_space_group_name_H-M "P M N 21"
_symmetry_group_IT_number 31
_symmetry_cell_setting 'orthorhombic'
loop_
_space_group_symop_operation_xyz
x,y,z
1/2-x,-y,1/2+z
-x,y,z
1/2+x,-y,1/2+z
loop_
_atom_site_type_symbol
_atom_site_label
_atom_site_fract_x
_atom_site_fract_y
_atom_site_fract_z
Si Si1 0.204480 0.879662 0.729940
Si Si2 0.804225 0.131183 0.840311
Si Si3 0.806236 0.611615 0.251232
Si Si4 0.301164 0.355877 0.355456
Si Si5 0.703105 0.275083 0.556822
Si Si6 0.799782 0.973654 0.535783
O O1 0.266223 0.759670 0.790533
O O2 0.254115 0.887979 0.623573
O O3 0.000000 0.877781 0.732073
O O4 0.257789 0.013923 0.776474
O O5 0.710582 0.262194 0.815487
O O6 0.000000 0.153442 0.820667
O O7 0.782936 0.080705 0.943795
O O8 0.726359 0.490960 0.304052
O O9 0.736755 0.653491 0.150282
O O10 0.000000 0.578251 0.238089
O O11 0.500000 0.335152 0.362514
O O12 0.238668 0.341867 0.460955
O O13 0.500000 0.276732 0.560033
O O14 0.756075 0.124385 0.553289
O O15 0.000000 0.964773 0.525974
#
# Coordination Sequence:
#
# PCOD9343384 Si02
#       6
#     4   4   4   4   4   4
#     4   9  19  36  60  87 117 152 199 243 289 355
#     4  11  21  39  62  87 119 161 201 240 297 361
#     4  11  24  40  59  91 125 154 199 257 303 354
#     4  10  21  41  63  84 117 163 202 240 298 368
#     4  10  21  39  62  86 118 159 203 248 303 365
#     4  11  21  35  60  95 124 153 200 254 298 349
#
# _framework density 20.105743
#
# number of rings (size 3 to 8) (size 9 to 14) (size 15 to 20)
#    0.000    1.667    3.333    1.500    0.000    2.667 
#    0.000    5.000    0.000    0.000    0.000    0.000 
#    0.000    0.000    0.000    0.000    0.000    0.000 
#
# Total GULP energy -134022.092653 kJ/mol
# GULP energy per Si atom -5584.253861 kJ/mol
# Density = 2.005998 g / cm^3
# Si number density = 20.105743 Si / 1000 Ang^3
#
#
#
# Elastic Constant Matrix: (Units=GPa)
#
#
# Indices 1 2 3 4 5 6 
#
# 1 17.9001 -10.3121 -3.6291 0.0000 0.0000 0.0000
# 2 -10.3121 88.0372 29.4579 0.0000 0.0000 0.0000
# 3 -3.6291 29.4579 115.1571 0.0000 0.0000 0.0000
# 4 0.0000 0.0000 0.0000 30.4322 0.0000 0.0000
# 5 0.0000 0.0000 0.0000 0.0000 12.0964 0.0000
# 6 0.0000 0.0000 0.0000 0.0000 0.0000 13.4754
#
#
#
# Elastic Compliance Matrix: (Units=1/GPa)
#
#
# Indices 1 2 3 4 5 6 
#
# 1 0.059909 0.006983 0.000102 0.000000 0.000000 0.000000
# 2 0.006983 0.013236 -0.003166 0.000000 0.000000 0.000000
# 3 0.000102 -0.003166 0.009497 0.000000 0.000000 0.000000
# 4 0.000000 0.000000 0.000000 0.032860 0.000000 0.000000
# 5 0.000000 0.000000 0.000000 0.000000 0.082669 0.000000
# 6 0.000000 0.000000 0.000000 0.000000 0.000000 0.074209
#
#
# Mechanical properties :
#
#
# Convention : Reuss Voigt Hill
#
# Bulk Modulus (GPa) = 11.05209 28.01419 19.53314
# Shear Modulus (GPa) = 16.96624 24.90596 20.93610
#
# Velocity S-wave (km/s) = 2.90806 3.52340 3.23042
# Velocity P-wave (km/s) = 4.09691 5.52414 4.86317
#
# Compressibility (1/GPa) = 0.09048062
#
# Stress axis : x y z
#
# Youngs Moduli (GPa) = 16.69190 75.55085 105.29832
#
# Poissons Ratio (x) = -0.52760 -0.01070
# Poissons Ratio (y) = -0.11657 0.33335
# Poissons Ratio (z) = -0.00170 0.23918
#
# Static dielectric constant tensor:
#      x y z
#    x 1.723570 0.000000 0.000000 
#    y 0.000000 1.658540 0.000000 
#    z 0.000000 0.000000 1.728340 
# 
# From -- ./inp_files/4725.got.cif
#   From: 2010.05.17/outbox.cif.g08.bks.cpg/sg31_3_cif.got.tgz:4725.got - 2010.06.03 17:08:30.
