data_PCOD9343821
_publ_section_title
;
Structure prediction by ZEFSAII (Michael W. Deem and Ramdas Pophale) SiO2 
 PCOD9343821
Probable space group: P B A 2
;
_chemical_formula_sum "Si O2"
_cell_formula_units_Z 24
_cell_length_a 8.736595
_cell_length_b 12.932479
_cell_length_c 9.329735
_cell_angle_alpha 90.000000
_cell_angle_beta 90.000000
_cell_angle_gamma 90.000000
_cell_volume 1054.127865
_symmetry_space_group_name_H-M "P B A 2"
_symmetry_group_IT_number 32
_symmetry_cell_setting 'orthorhombic'
loop_
_space_group_symop_operation_xyz
x,y,z
-x,-y,z
1/2-x,1/2+y,z
1/2+x,1/2-y,z
loop_
_atom_site_type_symbol
_atom_site_label
_atom_site_fract_x
_atom_site_fract_y
_atom_site_fract_z
Si Si1 0.331707 0.703449 0.752120
Si Si2 0.189530 0.392136 0.912110
Si Si3 0.691363 0.891928 0.397553
Si Si4 0.000000 0.500000 0.654274
Si Si5 0.090035 0.787504 0.560866
Si Si6 0.000000 0.000000 0.850911
Si Si7 0.000000 0.500000 0.155809
Si Si8 0.500000 0.500000 0.460473
O O1 0.348115 0.771001 0.894075
O O2 0.164176 0.740379 0.705043
O O3 0.415325 0.735328 0.603118
O O4 0.390477 0.587843 0.777387
O O5 0.108792 0.438080 0.766575
O O6 0.366509 0.428565 0.920158
O O7 0.106571 0.435048 0.050695
O O8 0.611281 0.939968 0.542144
O O9 0.654965 0.771238 0.423878
O O10 0.866053 0.932282 0.386513
O O11 0.601839 0.930488 0.259922
O O12 0.096231 0.910880 0.543250
#
# Coordination Sequence:
#
# PCOD9343821 Si02
#       8
#     4   4   4   2   4   2   2   2
#     4  12  24  41  72 115 149 188 244 313 381 441
#     4  11  24  45  70 105 148 195 249 306 380 436
#     4  11  24  45  70 105 148 195 249 306 380 436
#     4  10  20  36  68 104 136 176 244 302 356 434
#     4  12  24  41  72 115 149 188 244 313 381 441
#     4  12  27  43  72 112 152 190 250 318 374 448
#     4  10  28  48  76 108 148 208 260 310 376 466
#     4  12  27  43  72 112 152 190 250 318 374 448
#
# _framework density 22.767638000000002
#
# number of rings (size 3 to 8) (size 9 to 14) (size 15 to 20)
#    0.000    0.667    5.000    2.500    4.667    0.667 
#    0.000    6.667    0.000    0.000    0.000    0.000 
#    0.000    0.000    0.000    0.000    0.000    0.000 
#
# Total GULP energy -133622.542572 kJ/mol
# GULP energy per Si atom -5567.605941 kJ/mol
# Density = 2.271582 g / cm^3
# Si number density = 22.767638 Si / 1000 Ang^3
#
#
#
# Elastic Constant Matrix: (Units=GPa)
#
#
# Indices 1 2 3 4 5 6 
#
# 1 108.0020 47.1590 28.8009 0.0000 0.0000 0.0000
# 2 47.1590 162.4216 53.7400 0.0000 0.0000 0.0000
# 3 28.8009 53.7400 106.2211 0.0000 0.0000 0.0000
# 4 0.0000 0.0000 0.0000 22.4518 0.0000 0.0000
# 5 0.0000 0.0000 0.0000 0.0000 22.7587 0.0000
# 6 0.0000 0.0000 0.0000 0.0000 0.0000 31.5519
#
#
#
# Elastic Compliance Matrix: (Units=1/GPa)
#
#
# Indices 1 2 3 4 5 6 
#
# 1 0.010830 -0.002610 -0.001616 0.000000 0.000000 0.000000
# 2 -0.002610 0.008023 -0.003352 0.000000 0.000000 0.000000
# 3 -0.001616 -0.003352 0.011548 0.000000 0.000000 0.000000
# 4 0.000000 0.000000 0.000000 0.044540 0.000000 0.000000
# 5 0.000000 0.000000 0.000000 0.000000 0.043939 0.000000
# 6 0.000000 0.000000 0.000000 0.000000 0.000000 0.031694
#
#
# Mechanical properties :
#
#
# Convention : Reuss Voigt Hill
#
# Bulk Modulus (GPa) = 65.58908 70.67161 68.13035
# Shear Modulus (GPa) = 29.27210 31.81547 30.54378
#
# Velocity S-wave (km/s) = 3.58954 3.74223 3.66668
# Velocity P-wave (km/s) = 6.78604 7.05551 6.92208
#
# Compressibility (1/GPa) = 0.01524644
#
# Stress axis : x y z
#
# Youngs Moduli (GPa) = 92.34002 124.63394 86.59349
#
# Poissons Ratio (x) = 0.32525 0.13994
# Poissons Ratio (y) = 0.24098 0.29024
# Poissons Ratio (z) = 0.14923 0.41774
#
# Static dielectric constant tensor:
#      x y z
#    x 1.916460 0.000000 0.000000 
#    y 0.000000 2.022220 0.000000 
#    z 0.000000 0.000000 1.838430 
# 
# From -- ./inp_files/2360.got.cif
#   From: 2010.05.17/outbox.cif.g08.bks.cpg/sg32_2_cif.got.tgz:2360.got - 2010.06.03 17:12:27.
