data_PCOD9343865
_publ_section_title
;
Structure prediction by ZEFSAII (Michael W. Deem and Ramdas Pophale) SiO2 
 PCOD9343865
Probable space group: P B A 2
;
_chemical_formula_sum "Si O2"
_cell_formula_units_Z 24
_cell_length_a 18.030723
_cell_length_b 10.577890
_cell_length_c 5.188661
_cell_angle_alpha 90.000000
_cell_angle_beta 90.000000
_cell_angle_gamma 90.000000
_cell_volume 989.617770
_symmetry_space_group_name_H-M "P B A 2"
_symmetry_group_IT_number 32
_symmetry_cell_setting 'orthorhombic'
loop_
_space_group_symop_operation_xyz
x,y,z
-x,-y,z
1/2-x,1/2+y,z
1/2+x,1/2-y,z
loop_
_atom_site_type_symbol
_atom_site_label
_atom_site_fract_x
_atom_site_fract_y
_atom_site_fract_z
Si Si1 0.127662 0.588262 0.888010
Si Si2 0.000000 0.500000 0.190540
Si Si3 0.841771 0.978875 0.083156
Si Si4 0.959265 0.250773 0.520312
Si Si5 0.000000 0.000000 0.292271
Si Si6 0.694949 0.720577 0.253292
Si Si7 0.728394 0.377214 0.598705
O O1 0.067481 0.694106 0.794057
O O2 0.188644 0.567635 0.664768
O O3 0.179503 0.648942 0.105496
O O4 0.073749 0.485358 0.013385
O O5 0.987917 0.374900 0.365704
O O6 0.799280 0.112236 0.040958
O O7 0.929027 0.998034 0.105042
O O8 0.813810 0.947294 0.370209
O O9 0.819293 0.884666 0.857124
O O10 0.881668 0.202671 0.402238
O O11 0.007292 0.126070 0.470232
O O12 0.756950 0.741080 0.467112
#
# Coordination Sequence:
#
# PCOD9343865 Si02
#       7
#     4   2   4   4   2   4   4
#     4  10  20  42  70  96 141 185 234 289 362 424
#     4  10  20  40  66 104 136 192 236 294 354 424
#     4  11  25  43  71  98 143 187 235 299 365 431
#     4   9  20  40  70  96 142 184 236 294 359 425
#     4  10  24  48  66 110 144 190 246 302 370 434
#     4   9  21  42  67  94 132 188 229 289 365 430
#     4  11  23  43  66 100 132 187 236 285 355 432
#
# _framework density 24.251787
#
# number of rings (size 3 to 8) (size 9 to 14) (size 15 to 20)
#    0.000    2.000    1.667    0.500    7.000    0.667 
#   12.000    0.000    0.000    0.000    0.000    0.000 
#    0.000    0.000    0.000    0.000    0.000    0.000 
#
# Total GULP energy -133769.873652 kJ/mol
# GULP energy per Si atom -5573.744736 kJ/mol
# Density = 2.419659 g / cm^3
# Si number density = 24.251787 Si / 1000 Ang^3
#
#
#
# Elastic Constant Matrix: (Units=GPa)
#
#
# Indices 1 2 3 4 5 6 
#
# 1 97.2524 29.4467 44.8342 0.0000 0.0000 0.0000
# 2 29.4467 83.2412 20.1197 0.0000 0.0000 0.0000
# 3 44.8342 20.1197 118.5969 0.0000 0.0000 0.0000
# 4 0.0000 0.0000 0.0000 13.8180 0.0000 0.0000
# 5 0.0000 0.0000 0.0000 0.0000 37.6295 0.0000
# 6 0.0000 0.0000 0.0000 0.0000 0.0000 23.5218
#
#
#
# Elastic Compliance Matrix: (Units=1/GPa)
#
#
# Indices 1 2 3 4 5 6 
#
# 1 0.013454 -0.003681 -0.004462 0.000000 0.000000 0.000000
# 2 -0.003681 0.013534 -0.000904 0.000000 0.000000 0.000000
# 3 -0.004462 -0.000904 0.010272 0.000000 0.000000 0.000000
# 4 0.000000 0.000000 0.000000 0.072369 0.000000 0.000000
# 5 0.000000 0.000000 0.000000 0.000000 0.026575 0.000000
# 6 0.000000 0.000000 0.000000 0.000000 0.000000 0.042514
#
#
# Mechanical properties :
#
#
# Convention : Reuss Voigt Hill
#
# Bulk Modulus (GPa) = 52.17610 54.21019 53.19314
# Shear Modulus (GPa) = 24.60622 28.63984 26.62303
#
# Velocity S-wave (km/s) = 3.18876 3.44020 3.31686
# Velocity P-wave (km/s) = 5.92610 6.17913 6.05393
#
# Compressibility (1/GPa) = 0.01916586
#
# Stress axis : x y z
#
# Youngs Moduli (GPa) = 74.32775 73.88773 97.35165
#
# Poissons Ratio (x) = 0.27198 0.43435
# Poissons Ratio (y) = 0.27360 0.08805
# Poissons Ratio (z) = 0.33162 0.06683
#
# Static dielectric constant tensor:
#      x y z
#    x 1.973350 0.000000 0.000000 
#    y 0.000000 2.118620 0.000000 
#    z 0.000000 0.000000 1.955920 
# 
# From -- ./inp_files/970.got.cif
#   From: 2010.05.17/outbox.cif.g08.bks.cpg/sg32_1_cif.got.tgz:970.got - 2010.06.03 17:12:27.
