data_PCOD9343506
_publ_section_title
;
Structure prediction by ZEFSAII (Michael W. Deem and Ramdas Pophale) SiO2 
 PCOD9343506
Probable space group: P M N 21
;
_chemical_formula_sum "Si O2"
_cell_formula_units_Z 24
_cell_length_a 24.324990
_cell_length_b 5.950152
_cell_length_c 7.892005
_cell_angle_alpha 90.000000
_cell_angle_beta 90.000000
_cell_angle_gamma 90.000000
_cell_volume 1142.268189
_symmetry_space_group_name_H-M "P M N 21"
_symmetry_group_IT_number 31
_symmetry_cell_setting 'orthorhombic'
loop_
_space_group_symop_operation_xyz
x,y,z
1/2-x,-y,1/2+z
-x,y,z
1/2+x,-y,1/2+z
loop_
_atom_site_type_symbol
_atom_site_label
_atom_site_fract_x
_atom_site_fract_y
_atom_site_fract_z
Si Si1 0.619901 0.990187 0.005140
Si Si2 0.725458 0.234976 0.861833
Si Si3 0.158793 0.990946 0.868203
Si Si4 0.796636 0.596357 0.008212
Si Si5 0.000000 0.393521 0.227221
Si Si6 0.114986 0.261729 0.156922
Si Si7 0.500000 0.113308 0.911456
O O1 0.633963 0.913891 0.195013
O O2 0.670184 0.151494 0.949627
O O3 0.559169 0.100366 0.004145
O O4 0.619591 0.807385 0.853478
O O5 0.718259 0.238925 0.660630
O O6 0.779494 0.085246 0.891117
O O7 0.743909 0.478226 0.929251
O O8 0.168472 0.724404 0.866072
O O9 0.121273 0.051846 0.029536
O O10 0.835443 0.417985 0.100082
O O11 0.057320 0.384488 0.129098
O O12 0.000000 0.637324 0.323102
O O13 0.000000 0.136168 0.314142
#
# Coordination Sequence:
#
# PCOD9343506 Si02
#       7
#     4   4   4   4   2   4   2
#     4  11  23  44  71  91 142 179 229 292 348 422
#     4  11  23  37  65  96 136 179 226 283 357 417
#     4  11  24  42  62 104 137 174 228 285 354 427
#     4  11  23  40  63  99 135 176 230 282 355 425
#     4  10  22  45  77  98 135 185 237 292 347 417
#     4  10  24  43  67  96 132 178 230 284 348 420
#     4  10  24  47  69 108 131 189 243 284 359 423
#
# _framework density 21.010829000000001
#
# number of rings (size 3 to 8) (size 9 to 14) (size 15 to 20)
#    0.000    1.333    1.667    3.000    9.333    0.667 
#   12.000    0.833    0.000    0.000    0.000    0.000 
#    0.000    0.000    0.000    0.000    0.000    0.000 
#
# Total GULP energy -133752.548692 kJ/mol
# GULP energy per Si atom -5573.022862 kJ/mol
# Density = 2.096301 g / cm^3
# Si number density = 21.010829 Si / 1000 Ang^3
#
#
#
# Elastic Constant Matrix: (Units=GPa)
#
#
# Indices 1 2 3 4 5 6 
#
# 1 140.8094 20.2470 24.5647 0.0000 0.0000 0.0000
# 2 20.2470 58.3697 13.6648 0.0000 0.0000 0.0000
# 3 24.5647 13.6648 83.9576 0.0000 0.0000 0.0000
# 4 0.0000 0.0000 0.0000 23.6578 0.0000 0.0000
# 5 0.0000 0.0000 0.0000 0.0000 2.8386 0.0000
# 6 0.0000 0.0000 0.0000 0.0000 0.0000 22.1061
#
#
#
# Elastic Compliance Matrix: (Units=1/GPa)
#
#
# Indices 1 2 3 4 5 6 
#
# 1 0.007757 -0.002245 -0.001904 0.000000 0.000000 0.000000
# 2 -0.002245 0.018461 -0.002348 0.000000 0.000000 0.000000
# 3 -0.001904 -0.002348 0.012850 0.000000 0.000000 0.000000
# 4 0.000000 0.000000 0.000000 0.042269 0.000000 0.000000
# 5 0.000000 0.000000 0.000000 0.000000 0.352283 0.000000
# 6 0.000000 0.000000 0.000000 0.000000 0.000000 0.045236
#
#
# Mechanical properties :
#
#
# Convention : Reuss Voigt Hill
#
# Bulk Modulus (GPa) = 38.35283 44.45444 41.40363
# Shear Modulus (GPa) = 9.98918 24.69784 17.34351
#
# Velocity S-wave (km/s) = 2.18280 3.43225 2.87619
# Velocity P-wave (km/s) = 4.96450 6.07544 5.54785
#
# Compressibility (1/GPa) = 0.02607369
#
# Stress axis : x y z
#
# Youngs Moduli (GPa) = 128.91962 54.16971 77.82087
#
# Poissons Ratio (x) = 0.12160 0.14818
# Poissons Ratio (y) = 0.28941 0.18271
# Poissons Ratio (z) = 0.24548 0.12718
#
# Static dielectric constant tensor:
#      x y z
#    x 1.733420 0.000000 0.000000 
#    y 0.000000 1.934980 0.000000 
#    z 0.000000 0.000000 1.775940 
# 
# From -- ./inp_files/3058.got.cif
#   From: 2010.05.17/outbox.cif.g08.bks.cpg/sg31_2_cif.got.tgz:3058.got - 2010.06.03 17:08:30.
