data_PCOD9343448
_publ_section_title
;
Structure prediction by ZEFSAII (Michael W. Deem and Ramdas Pophale) SiO2 
 PCOD9343448
Probable space group: P M N 21
;
_chemical_formula_sum "Si O2"
_cell_formula_units_Z 32
_cell_length_a 8.559671
_cell_length_b 11.764241
_cell_length_c 16.863777
_cell_angle_alpha 90.000000
_cell_angle_beta 90.000000
_cell_angle_gamma 90.000000
_cell_volume 1698.149165
_symmetry_space_group_name_H-M "P M N 21"
_symmetry_group_IT_number 31
_symmetry_cell_setting 'orthorhombic'
loop_
_space_group_symop_operation_xyz
x,y,z
1/2-x,-y,1/2+z
-x,y,z
1/2+x,-y,1/2+z
loop_
_atom_site_type_symbol
_atom_site_label
_atom_site_fract_x
_atom_site_fract_y
_atom_site_fract_z
Si Si1 0.180587 0.361552 0.105960
Si Si2 0.685329 0.286412 0.801371
Si Si3 0.313691 0.305489 0.390698
Si Si4 0.689728 0.813660 0.731926
Si Si5 0.811811 0.930691 0.206108
Si Si6 0.182979 0.550362 0.442366
Si Si7 0.820682 0.430385 0.665687
Si Si8 0.189165 0.769388 0.062045
O O1 0.241199 0.251583 0.151899
O O2 0.205414 0.463437 0.168020
O O3 0.000000 0.345428 0.085981
O O4 0.265593 0.409704 0.029034
O O5 0.500000 0.302473 0.781045
O O6 0.721902 0.156954 0.777770
O O7 0.708961 0.339078 0.887252
O O8 0.793711 0.360481 0.744909
O O9 0.500000 0.303828 0.383053
O O10 0.243453 0.252174 0.310809
O O11 0.265062 0.436066 0.409763
O O12 0.271123 0.229951 0.468899
O O13 0.500000 0.811873 0.732318
O O14 0.746502 0.943571 0.725303
O O15 0.762862 0.870755 0.122636
O O16 0.000000 0.939357 0.200433
O O17 0.000000 0.523997 0.442119
O O18 0.767607 0.344172 0.596873
O O19 0.000000 0.465642 0.656352
O O20 0.000000 0.758286 0.068238
#
# Coordination Sequence:
#
# PCOD9343448 Si02
#       8
#     4   4   4   4   4   4   4   4
#     4  11  22  36  53  78 114 151 183 226 283 337
#     4   9  19  36  58  81 109 146 184 227 283 338
#     4  11  22  36  58  87 118 149 185 237 293 342
#     4  10  22  39  59  81 111 154 198 235 278 339
#     4   8  16  37  62  79 103 147 197 230 269 338
#     4  11  22  36  57  86 115 145 185 232 283 343
#     4  11  20  31  54  84 111 142 182 227 277 331
#     4   9  18  35  59  82 109 148 188 230 284 338
#
# _framework density 18.844045999999999
#
# number of rings (size 3 to 8) (size 9 to 14) (size 15 to 20)
#    0.000    2.000    1.250    3.750    0.000    5.500 
#    2.250    2.500    0.000    0.000    0.000    0.000 
#    0.000    0.000    0.000    0.000    0.000    0.000 
#
# Total GULP energy -178365.647314 kJ/mol
# GULP energy per Si atom -5573.926479 kJ/mol
# Density = 1.880116 g / cm^3
# Si number density = 18.844046 Si / 1000 Ang^3
#
#
#
# Elastic Constant Matrix: (Units=GPa)
#
#
# Indices 1 2 3 4 5 6 
#
# 1 13.9991 13.8856 22.4624 0.0000 0.0000 0.0000
# 2 13.8856 134.8939 65.0011 0.0000 0.0000 0.0000
# 3 22.4624 65.0011 87.3793 0.0000 0.0000 0.0000
# 4 0.0000 0.0000 0.0000 20.9017 0.0000 0.0000
# 5 0.0000 0.0000 0.0000 0.0000 25.0163 0.0000
# 6 0.0000 0.0000 0.0000 0.0000 0.0000 12.0696
#
#
#
# Elastic Compliance Matrix: (Units=1/GPa)
#
#
# Indices 1 2 3 4 5 6 
#
# 1 0.122963 0.004013 -0.034595 0.000000 0.000000 0.000000
# 2 0.004013 0.011686 -0.009725 0.000000 0.000000 0.000000
# 3 -0.034595 -0.009725 0.027572 0.000000 0.000000 0.000000
# 4 0.000000 0.000000 0.000000 0.047843 0.000000 0.000000
# 5 0.000000 0.000000 0.000000 0.000000 0.039974 0.000000
# 6 0.000000 0.000000 0.000000 0.000000 0.000000 0.082853
#
#
# Mechanical properties :
#
#
# Convention : Reuss Voigt Hill
#
# Bulk Modulus (GPa) = 12.25383 48.77451 30.51417
# Shear Modulus (GPa) = 11.34537 20.59239 15.96888
#
# Velocity S-wave (km/s) = 2.45637 3.30931 2.91421
# Velocity P-wave (km/s) = 3.81600 6.36722 5.24897
#
# Compressibility (1/GPa) = 0.08160716
#
# Stress axis : x y z
#
# Youngs Moduli (GPa) = 8.13251 85.57002 36.26864
#
# Poissons Ratio (x) = -0.34338 1.25472
# Poissons Ratio (y) = -0.03263 0.35271
# Poissons Ratio (z) = 0.28134 0.83217
#
# Static dielectric constant tensor:
#      x y z
#    x 1.639990 0.000000 0.000000 
#    y 0.000000 1.674670 0.000000 
#    z 0.000000 0.000000 1.697270 
# 
# From -- ./inp_files/5888.got.cif
#   From: 2010.05.17/outbox.cif.g08.bks.cpg/sg31_3_cif.got.tgz:5888.got - 2010.06.03 17:08:30.
