data_PCOD9343705
_publ_section_title
;
Structure prediction by ZEFSAII (Michael W. Deem and Ramdas Pophale) SiO2 
 PCOD9343705
Probable space group: P B A 2
;
_chemical_formula_sum "Si O2"
_cell_formula_units_Z 28
_cell_length_a 17.599624
_cell_length_b 5.265026
_cell_length_c 13.316252
_cell_angle_alpha 90.000000
_cell_angle_beta 90.000000
_cell_angle_gamma 90.000000
_cell_volume 1233.916907
_symmetry_space_group_name_H-M "P B A 2"
_symmetry_group_IT_number 32
_symmetry_cell_setting 'orthorhombic'
loop_
_space_group_symop_operation_xyz
x,y,z
-x,-y,z
1/2-x,1/2+y,z
1/2+x,1/2-y,z
loop_
_atom_site_type_symbol
_atom_site_label
_atom_site_fract_x
_atom_site_fract_y
_atom_site_fract_z
Si Si1 0.196660 0.405441 0.627550
Si Si2 0.157884 0.507207 0.405350
Si Si3 0.410100 0.022802 0.813705
Si Si4 0.418025 0.870089 0.038563
Si Si5 0.294650 0.390296 0.879425
Si Si6 0.828453 0.990910 0.322372
Si Si7 0.844456 0.129891 0.100310
O O1 0.255997 0.642702 0.629153
O O2 0.153366 0.435603 0.521357
O O3 0.244252 0.148612 0.846425
O O4 0.129970 0.275496 0.337343
O O5 0.247944 0.539257 0.379024
O O6 0.126124 0.778799 0.373211
O O7 0.363921 0.927006 0.717479
O O8 0.500000 0.000000 0.796884
O O9 0.377639 0.307458 0.838711
O O10 0.394576 0.880540 0.920520
O O11 0.408865 0.586127 0.079344
O O12 0.500000 0.000000 0.041051
O O13 0.368738 0.076640 0.098993
O O14 0.294963 0.397852 0.000168
O O15 0.811387 0.057840 0.207456
#
# Coordination Sequence:
#
# PCOD9343705 Si02
#       7
#     4   4   4   4   4   4   4
#     4  12  22  42  68  98 124 168 216 273 334 386
#     4  10  19  35  56  90 122 158 197 261 322 395
#     4  10  24  44  67  92 131 178 221 265 330 403
#     4  10  22  42  60  87 126 175 221 262 314 394
#     4  11  23  39  59  96 135 167 208 273 326 386
#     4  10  19  33  57  89 123 160 196 249 329 386
#     4  11  22  35  62  94 128 168 213 265 324 388
#
# _framework density 22.691967999999999
#
# number of rings (size 3 to 8) (size 9 to 14) (size 15 to 20)
#    0.000    1.429    2.857    3.857    4.000    2.286 
#    0.000    7.143    0.000    5.143    0.000    0.000 
#    0.000    0.000    0.000    0.000    0.000    0.000 
#
# Total GULP energy -156415.448849 kJ/mol
# GULP energy per Si atom -5586.266030 kJ/mol
# Density = 2.264032 g / cm^3
# Si number density = 22.691968 Si / 1000 Ang^3
#
#
#
# Elastic Constant Matrix: (Units=GPa)
#
#
# Indices 1 2 3 4 5 6 
#
# 1 73.1493 30.5765 15.8628 0.0000 0.0000 0.0000
# 2 30.5765 97.1170 -17.7350 0.0000 0.0000 0.0000
# 3 15.8628 -17.7350 121.2346 0.0000 0.0000 0.0000
# 4 0.0000 0.0000 0.0000 20.9265 0.0000 0.0000
# 5 0.0000 0.0000 0.0000 0.0000 9.4707 0.0000
# 6 0.0000 0.0000 0.0000 0.0000 0.0000 24.9364
#
#
#
# Elastic Compliance Matrix: (Units=1/GPa)
#
#
# Indices 1 2 3 4 5 6 
#
# 1 0.016772 -0.005837 -0.003048 0.000000 0.000000 0.000000
# 2 -0.005837 0.012611 0.002609 0.000000 0.000000 0.000000
# 3 -0.003048 0.002609 0.009029 0.000000 0.000000 0.000000
# 4 0.000000 0.000000 0.000000 0.047786 0.000000 0.000000
# 5 0.000000 0.000000 0.000000 0.000000 0.105589 0.000000
# 6 0.000000 0.000000 0.000000 0.000000 0.000000 0.040102
#
#
# Mechanical properties :
#
#
# Convention : Reuss Voigt Hill
#
# Bulk Modulus (GPa) = 38.67307 38.76773 38.72040
# Shear Modulus (GPa) = 19.75803 28.58649 24.17226
#
# Velocity S-wave (km/s) = 2.95397 3.55316 3.26733
# Velocity P-wave (km/s) = 5.35857 5.82707 5.59772
#
# Compressibility (1/GPa) = 0.02585778
#
# Stress axis : x y z
#
# Youngs Moduli (GPa) = 59.62445 79.29599 110.75513
#
# Poissons Ratio (x) = 0.46286 0.33762
# Poissons Ratio (y) = 0.34803 -0.28891
# Poissons Ratio (z) = 0.18176 -0.20685
#
# Static dielectric constant tensor:
#      x y z
#    x 1.934030 0.000000 0.000000 
#    y 0.000000 1.958410 0.000000 
#    z 0.000000 0.000000 1.833670 
# 
# From -- ./inp_files/4020.got.cif
#   From: 2010.05.17/outbox.cif.g08.bks.cpg/sg32_3_cif.got.tgz:4020.got - 2010.06.03 17:12:27.
