data_PCOD9343662
_publ_section_title
;
Structure prediction by ZEFSAII (Michael W. Deem and Ramdas Pophale) SiO2 
 PCOD9343662
Probable space group: P B A 2
;
_chemical_formula_sum "Si O2"
_cell_formula_units_Z 32
_cell_length_a 8.732362
_cell_length_b 23.009825
_cell_length_c 8.583798
_cell_angle_alpha 90.000000
_cell_angle_beta 90.000000
_cell_angle_gamma 90.000000
_cell_volume 1724.743575
_symmetry_space_group_name_H-M "P B A 2"
_symmetry_group_IT_number 32
_symmetry_cell_setting 'orthorhombic'
loop_
_space_group_symop_operation_xyz
x,y,z
-x,-y,z
1/2-x,1/2+y,z
1/2+x,1/2-y,z
loop_
_atom_site_type_symbol
_atom_site_label
_atom_site_fract_x
_atom_site_fract_y
_atom_site_fract_z
Si Si1 0.825829 0.425499 0.371870
Si Si2 0.448918 0.819435 0.815771
Si Si3 0.813650 0.750513 0.327222
Si Si4 0.844853 0.033956 0.444910
Si Si5 0.025133 0.142685 0.449252
Si Si6 0.553208 0.824097 0.170401
Si Si7 0.935381 0.558293 0.650174
Si Si8 0.345911 0.277422 0.657674
O O1 0.752015 0.488895 0.338812
O O2 0.689054 0.389384 0.456451
O O3 0.884302 0.386400 0.229376
O O4 0.962211 0.433132 0.494514
O O5 0.450753 0.884365 0.749913
O O6 0.557530 0.777330 0.714735
O O7 0.277602 0.795653 0.786408
O O8 0.507213 0.820009 0.991612
O O9 0.685653 0.777794 0.215254
O O10 0.743435 0.738738 0.497927
O O11 0.940365 0.801357 0.344797
O O12 0.902591 0.694262 0.267743
O O13 0.904557 0.095890 0.382725
O O14 0.736387 0.047142 0.591111
O O15 0.000000 0.000000 0.489427
O O16 0.957304 0.169405 0.608286
O O17 0.000000 0.500000 0.728551
#
# Coordination Sequence:
#
# PCOD9343662 Si02
#       8
#     4   4   4   4   4   4   4   4
#     4   9  20  36  58  85 113 157 205 254 305 363
#     4  12  24  37  57  90 127 158 201 253 324 376
#     4  11  20  37  58  84 118 161 204 247 302 370
#     4   9  18  34  58  92 113 143 203 270 301 349
#     4  10  18  32  58  87 114 146 204 260 296 350
#     4  11  23  37  55  86 128 160 194 254 323 373
#     4  10  20  37  61  85 114 158 212 261 299 365
#     4  12  21  36  61  88 118 161 209 251 301 375
#
# _framework density 18.553481000000001
#
# number of rings (size 3 to 8) (size 9 to 14) (size 15 to 20)
#    0.000    1.500    3.750    3.000    0.000    0.000 
#    0.000    1.875    0.000    0.000    0.000    7.000 
#    0.000    0.000    0.000    0.000    0.000    0.000 
#
# Total GULP energy -178444.578676 kJ/mol
# GULP energy per Si atom -5576.393084 kJ/mol
# Density = 1.851125 g / cm^3
# Si number density = 18.553481 Si / 1000 Ang^3
#
#
#
# Elastic Constant Matrix: (Units=GPa)
#
#
# Indices 1 2 3 4 5 6 
#
# 1 88.0923 38.9016 44.5275 0.0000 0.0000 0.0000
# 2 38.9016 101.0492 28.7460 0.0000 0.0000 0.0000
# 3 44.5275 28.7460 74.8283 0.0000 0.0000 0.0000
# 4 0.0000 0.0000 0.0000 15.1129 0.0000 0.0000
# 5 0.0000 0.0000 0.0000 0.0000 29.2138 0.0000
# 6 0.0000 0.0000 0.0000 0.0000 0.0000 30.7336
#
#
#
# Elastic Compliance Matrix: (Units=1/GPa)
#
#
# Indices 1 2 3 4 5 6 
#
# 1 0.017756 -0.004300 -0.008914 0.000000 0.000000 0.000000
# 2 -0.004300 0.012152 -0.002109 0.000000 0.000000 0.000000
# 3 -0.008914 -0.002109 0.019479 0.000000 0.000000 0.000000
# 4 0.000000 0.000000 0.000000 0.066169 0.000000 0.000000
# 5 0.000000 0.000000 0.000000 0.000000 0.034230 0.000000
# 6 0.000000 0.000000 0.000000 0.000000 0.000000 0.032538
#
#
# Mechanical properties :
#
#
# Convention : Reuss Voigt Hill
#
# Bulk Modulus (GPa) = 53.36305 54.25776 53.81041
# Shear Modulus (GPa) = 22.80840 25.13172 23.97006
#
# Velocity S-wave (km/s) = 3.50999 3.68442 3.59826
# Velocity P-wave (km/s) = 6.72688 6.88530 6.80655
#
# Compressibility (1/GPa) = 0.01873956
#
# Stress axis : x y z
#
# Youngs Moduli (GPa) = 56.31761 82.29353 51.33768
#
# Poissons Ratio (x) = 0.35386 0.45764
# Poissons Ratio (y) = 0.24216 0.10829
# Poissons Ratio (z) = 0.50203 0.17359
#
# Static dielectric constant tensor:
#      x y z
#    x 1.690250 0.000000 0.000000 
#    y 0.000000 1.689150 0.000000 
#    z 0.000000 0.000000 1.590120 
# 
# From -- ./inp_files/2611.got.cif
#   From: 2010.05.17/outbox.cif.g08.bks.cpg/sg32_2_cif.got.tgz:2611.got - 2010.06.03 17:12:27.
