data_PCOD9343891
_publ_section_title
;
Structure prediction by ZEFSAII (Michael W. Deem and Ramdas Pophale) SiO2 
 PCOD9343891
Probable space group: P B A 2
;
_chemical_formula_sum "Si O2"
_cell_formula_units_Z 28
_cell_length_a 28.033554
_cell_length_b 5.166014
_cell_length_c 8.199829
_cell_angle_alpha 90.000000
_cell_angle_beta 90.000000
_cell_angle_gamma 90.000000
_cell_volume 1187.513441
_symmetry_space_group_name_H-M "P B A 2"
_symmetry_group_IT_number 32
_symmetry_cell_setting 'orthorhombic'
loop_
_space_group_symop_operation_xyz
x,y,z
-x,-y,z
1/2-x,1/2+y,z
1/2+x,1/2-y,z
loop_
_atom_site_type_symbol
_atom_site_label
_atom_site_fract_x
_atom_site_fract_y
_atom_site_fract_z
Si Si1 0.774477 0.790342 0.138870
Si Si2 0.875741 0.761835 0.304108
Si Si3 0.919055 0.522976 0.757896
Si Si4 0.864801 0.992852 0.673656
Si Si5 0.000000 0.500000 0.523374
Si Si6 0.500000 0.000000 0.017598
Si Si7 0.765141 0.242688 0.764667
Si Si8 0.940708 0.240557 0.270552
O O1 0.742558 0.561306 0.209765
O O2 0.828975 0.746415 0.189215
O O3 0.757810 0.792720 0.946099
O O4 0.903439 0.485264 0.292739
O O5 0.863000 0.879407 0.486660
O O6 0.911535 0.982851 0.243179
O O7 0.900898 0.235876 0.707601
O O8 0.956385 0.619973 0.622091
O O9 0.953060 0.541802 0.912269
O O10 0.878339 0.735552 0.773050
O O11 0.816289 0.112311 0.744409
O O12 0.974407 0.272910 0.425994
O O13 0.519997 0.778312 0.132013
O O14 0.767813 0.524117 0.684618
#
# Coordination Sequence:
#
# PCOD9343891 Si02
#       8
#     4   4   4   4   2   2   4   4
#     4  10  23  42  65  95 133 182 222 284 348 407
#     4  12  24  43  70 102 132 180 238 284 344 411
#     4  11  25  43  70  99 139 178 227 288 342 412
#     4  12  24  43  70 102 132 180 238 284 344 411
#     4  10  20  44  68  96 132 176 216 272 352 392
#     4  10  28  44  64 104 136 184 224 280 348 424
#     4  10  23  42  65  95 133 182 222 284 348 407
#     4  11  25  43  70  99 139 178 227 288 342 412
#
# _framework density 23.578681
#
# number of rings (size 3 to 8) (size 9 to 14) (size 15 to 20)
#    0.000    1.143    2.857    1.714    0.000   16.000 
#    0.000    0.000    0.000    0.000    0.000    0.000 
#    0.000    0.000    0.000    0.000    0.000    0.000 
#
# Total GULP energy -156058.821102 kJ/mol
# GULP energy per Si atom -5573.529325 kJ/mol
# Density = 2.352501 g / cm^3
# Si number density = 23.578681 Si / 1000 Ang^3
#
#
#
# Elastic Constant Matrix: (Units=GPa)
#
#
# Indices 1 2 3 4 5 6 
#
# 1 97.5612 6.2238 28.1997 0.0000 0.0000 0.0000
# 2 6.2238 87.5777 -1.9863 0.0000 0.0000 0.0000
# 3 28.1997 -1.9863 69.9248 0.0000 0.0000 0.0000
# 4 0.0000 0.0000 0.0000 80.2807 0.0000 0.0000
# 5 0.0000 0.0000 0.0000 0.0000 98.6072 0.0000
# 6 0.0000 0.0000 0.0000 0.0000 0.0000 45.1300
#
#
#
# Elastic Compliance Matrix: (Units=1/GPa)
#
#
# Indices 1 2 3 4 5 6 
#
# 1 0.011679 -0.000937 -0.004737 0.000000 0.000000 0.000000
# 2 -0.000937 0.011501 0.000705 0.000000 0.000000 0.000000
# 3 -0.004737 0.000705 0.016231 0.000000 0.000000 0.000000
# 4 0.000000 0.000000 0.000000 0.012456 0.000000 0.000000
# 5 0.000000 0.000000 0.000000 0.000000 0.010141 0.000000
# 6 0.000000 0.000000 0.000000 0.000000 0.000000 0.022158
#
#
# Mechanical properties :
#
#
# Convention : Reuss Voigt Hill
#
# Bulk Modulus (GPa) = 33.92963 35.54867 34.73915
# Shear Modulus (GPa) = 48.10949 59.64535 53.87742
#
# Velocity S-wave (km/s) = 4.52196 5.03500 4.78536
# Velocity P-wave (km/s) = 6.45642 6.99364 6.73039
#
# Compressibility (1/GPa) = 0.02947276
#
# Stress axis : x y z
#
# Youngs Moduli (GPa) = 85.62478 86.94874 61.60944
#
# Poissons Ratio (x) = 0.08150 0.29182
# Poissons Ratio (y) = 0.08026 -0.04342
# Poissons Ratio (z) = 0.40557 -0.06128
#
# Static dielectric constant tensor:
#      x y z
#    x 1.881810 0.000000 0.000000 
#    y 0.000000 1.959440 0.000000 
#    z 0.000000 0.000000 2.155560 
# 
# From -- ./inp_files/3391.got.cif
#   From: 2010.05.17/outbox.cif.g08.bks.cpg/sg32_2_cif.got.tgz:3391.got - 2010.06.03 17:12:27.
