data_PCOD9343370
_publ_section_title
;
Structure prediction by ZEFSAII (Michael W. Deem and Ramdas Pophale) SiO2 
 PCOD9343370
Probable space group: P M N 21
;
_chemical_formula_sum "Si O2"
_cell_formula_units_Z 24
_cell_length_a 8.497430
_cell_length_b 25.445467
_cell_length_c 4.888395
_cell_angle_alpha 90.000000
_cell_angle_beta 90.000000
_cell_angle_gamma 90.000000
_cell_volume 1056.974020
_symmetry_space_group_name_H-M "P M N 21"
_symmetry_group_IT_number 31
_symmetry_cell_setting 'orthorhombic'
loop_
_space_group_symop_operation_xyz
x,y,z
1/2-x,-y,1/2+z
-x,y,z
1/2+x,-y,1/2+z
loop_
_atom_site_type_symbol
_atom_site_label
_atom_site_fract_x
_atom_site_fract_y
_atom_site_fract_z
Si Si1 0.687391 0.299215 0.654020
Si Si2 0.812679 0.632468 0.654212
Si Si3 0.180958 0.472566 0.408819
Si Si4 0.685762 0.028950 0.106883
Si Si5 0.818240 0.193736 0.904835
Si Si6 0.815196 0.862649 0.898482
O O1 0.500000 0.288261 0.675772
O O2 0.723026 0.317705 0.348560
O O3 0.778116 0.249069 0.764573
O O4 0.722312 0.349085 0.848459
O O5 0.722309 0.582229 0.764657
O O6 0.000000 0.621819 0.677235
O O7 0.284355 0.484011 0.675913
O O8 0.000000 0.474784 0.492777
O O9 0.500000 0.031459 0.045975
O O10 0.733398 0.083401 0.251000
O O11 0.722753 0.984393 0.331131
O O12 0.776994 0.150905 0.672852
O O13 0.000000 0.190931 0.983541
O O14 0.714863 0.182288 0.172471
O O15 0.000000 0.865922 0.965798
#
# Coordination Sequence:
#
# PCOD9343370 Si02
#       6
#     4   4   4   4   4   4
#     4  10  21  38  61  87 121 163 200 243 304 371
#     4  10  21  38  61  89 120 158 204 249 300 362
#     4  12  25  42  65  93 127 165 206 255 308 363
#     4  11  24  41  64  92 123 161 204 253 306 365
#     4  12  25  40  63  95 126 158 204 261 308 352
#     4  11  24  43  64  88 123 167 208 245 302 375
#
# _framework density 22.706330000000001
#
# number of rings (size 3 to 8) (size 9 to 14) (size 15 to 20)
#    0.000    1.000    0.000    7.000    0.000   10.667 
#    0.000    0.000    0.000    0.000    0.000    0.000 
#    0.000    0.000    0.000    0.000    0.000    0.000 
#
# Total GULP energy -134467.317917 kJ/mol
# GULP energy per Si atom -5602.804913 kJ/mol
# Density = 2.265465 g / cm^3
# Si number density = 22.706330 Si / 1000 Ang^3
#
#
#
# Elastic Constant Matrix: (Units=GPa)
#
#
# Indices 1 2 3 4 5 6 
#
# 1 31.1618 7.9351 -9.3384 0.0000 0.0000 0.0000
# 2 7.9351 67.1337 -14.0364 0.0000 0.0000 0.0000
# 3 -9.3384 -14.0364 65.7082 0.0000 0.0000 0.0000
# 4 0.0000 0.0000 0.0000 31.6227 0.0000 0.0000
# 5 0.0000 0.0000 0.0000 0.0000 69.2161 0.0000
# 6 0.0000 0.0000 0.0000 0.0000 0.0000 205.3237
#
#
#
# Elastic Compliance Matrix: (Units=1/GPa)
#
#
# Indices 1 2 3 4 5 6 
#
# 1 0.034148 -0.003163 0.004177 0.000000 0.000000 0.000000
# 2 -0.003163 0.015885 0.002944 0.000000 0.000000 0.000000
# 3 0.004177 0.002944 0.016441 0.000000 0.000000 0.000000
# 4 0.000000 0.000000 0.000000 0.031623 0.000000 0.000000
# 5 0.000000 0.000000 0.000000 0.000000 0.014448 0.000000
# 6 0.000000 0.000000 0.000000 0.000000 0.000000 0.004870
#
#
# Mechanical properties :
#
#
# Convention : Reuss Voigt Hill
#
# Bulk Modulus (GPa) = 13.44248 14.79159 14.11703
# Shear Modulus (GPa) = 37.23146 73.19539 55.21343
#
# Velocity S-wave (km/s) = 4.05371 5.68381 4.93651
# Velocity P-wave (km/s) = 5.27665 7.04292 6.22277
#
# Compressibility (1/GPa) = 0.07439105
#
# Stress axis : x y z
#
# Youngs Moduli (GPa) = 29.28442 62.95253 60.82226
#
# Poissons Ratio (x) = 0.19911 -0.25408
# Poissons Ratio (y) = 0.09262 -0.17905
# Poissons Ratio (z) = -0.12233 -0.18532
#
# Static dielectric constant tensor:
#      x y z
#    x 1.770820 0.000000 0.000000 
#    y 0.000000 1.868480 0.000000 
#    z 0.000000 0.000000 1.794020 
# 
# From -- ./inp_files/154.got.cif
#   From: 2010.05.17/outbox.cif.g08.bks.cpg/sg31_1_cif.got.tgz:154.got - 2010.06.03 17:08:30.
