data_PCOD9343249
_publ_section_title
;
Structure prediction by ZEFSAII (Michael W. Deem and Ramdas Pophale) SiO2 
 PCOD9343249
Probable space group: P M N 21
;
_chemical_formula_sum "Si O2"
_cell_formula_units_Z 32
_cell_length_a 8.324513
_cell_length_b 16.478475
_cell_length_c 11.250502
_cell_angle_alpha 90.000000
_cell_angle_beta 90.000000
_cell_angle_gamma 90.000000
_cell_volume 1543.290755
_symmetry_space_group_name_H-M "P M N 21"
_symmetry_group_IT_number 31
_symmetry_cell_setting 'orthorhombic'
loop_
_space_group_symop_operation_xyz
x,y,z
1/2-x,-y,1/2+z
-x,y,z
1/2+x,-y,1/2+z
loop_
_atom_site_type_symbol
_atom_site_label
_atom_site_fract_x
_atom_site_fract_y
_atom_site_fract_z
Si Si1 0.683208 0.029315 0.611390
Si Si2 0.811157 0.281574 0.600703
Si Si3 0.685103 0.139630 0.168851
Si Si4 0.187969 0.141477 0.799455
Si Si5 0.305375 0.559102 0.448856
Si Si6 0.306477 0.742530 0.501015
Si Si7 0.694926 0.542299 0.178937
Si Si8 0.311068 0.849267 0.924191
O O1 0.500000 0.046301 0.580096
O O2 0.716379 0.934335 0.611721
O O3 0.720407 0.066483 0.741669
O O4 0.793007 0.079128 0.520406
O O5 0.803489 0.215438 0.705144
O O6 0.744897 0.367368 0.642773
O O7 0.748515 0.233588 0.486255
O O8 0.000000 0.295664 0.577384
O O9 0.500000 0.130839 0.137793
O O10 0.711299 0.131625 0.308622
O O11 0.749894 0.227424 0.128793
O O12 0.253536 0.184783 0.916314
O O13 0.000000 0.119198 0.814451
O O14 0.500000 0.556830 0.450051
O O15 0.254259 0.653600 0.460459
O O16 0.253992 0.526446 0.317200
O O17 0.247069 0.514332 0.568767
O O18 0.500000 0.742894 0.493757
O O19 0.500000 0.542252 0.182181
O O20 0.500000 0.840738 0.894635
#
# Coordination Sequence:
#
# PCOD9343249 Si02
#       8
#     4   4   4   4   4   4   4   4
#     4  11  23  39  60  88 121 158 198 246 303 362
#     4   8  15  33  62  87 108 146 194 244 299 360
#     4  12  26  41  58  85 124 162 201 251 311 372
#     4   9  17  35  63  87 110 147 199 251 295 353
#     4  10  22  40  63  92 127 167 214 263 320 387
#     4  10  21  40  64  86 116 159 208 256 308 369
#     4  10  20  38  63  92 126 165 209 261 317 382
#     4  10  21  40  63  87 116 154 205 254 305 367
#
# _framework density 20.734912999999999
#
# number of rings (size 3 to 8) (size 9 to 14) (size 15 to 20)
#    0.000    2.000    1.250    3.375    1.750    2.500 
#    0.000    6.875    0.000    0.000    0.000    0.000 
#    0.000    0.000    0.000    0.000    0.000    0.000 
#
# Total GULP energy -178495.231409 kJ/mol
# GULP energy per Si atom -5577.975982 kJ/mol
# Density = 2.068772 g / cm^3
# Si number density = 20.734913 Si / 1000 Ang^3
#
#
#
# Elastic Constant Matrix: (Units=GPa)
#
#
# Indices 1 2 3 4 5 6 
#
# 1 33.4337 10.3054 2.4124 0.0000 0.0000 0.0000
# 2 10.3054 78.7054 52.2013 0.0000 0.0000 0.0000
# 3 2.4124 52.2013 99.1492 0.0000 0.0000 0.0000
# 4 0.0000 0.0000 0.0000 27.1478 0.0000 0.0000
# 5 0.0000 0.0000 0.0000 0.0000 31.5455 0.0000
# 6 0.0000 0.0000 0.0000 0.0000 0.0000 11.8929
#
#
#
# Elastic Compliance Matrix: (Units=1/GPa)
#
#
# Indices 1 2 3 4 5 6 
#
# 1 0.031465 -0.005550 0.002157 0.000000 0.000000 0.000000
# 2 -0.005550 0.020502 -0.010659 0.000000 0.000000 0.000000
# 3 0.002157 -0.010659 0.015645 0.000000 0.000000 0.000000
# 4 0.000000 0.000000 0.000000 0.036835 0.000000 0.000000
# 5 0.000000 0.000000 0.000000 0.000000 0.031700 0.000000
# 6 0.000000 0.000000 0.000000 0.000000 0.000000 0.084083
#
#
# Mechanical properties :
#
#
# Convention : Reuss Voigt Hill
#
# Bulk Modulus (GPa) = 25.31209 37.90294 31.60752
# Shear Modulus (GPa) = 19.12003 23.87520 21.49761
#
# Velocity S-wave (km/s) = 3.03993 3.39698 3.22341
# Velocity P-wave (km/s) = 4.95536 5.80564 5.39727
#
# Compressibility (1/GPa) = 0.03950681
#
# Stress axis : x y z
#
# Youngs Moduli (GPa) = 31.78123 48.77587 63.91718
#
# Poissons Ratio (x) = 0.27072 -0.13784
# Poissons Ratio (y) = 0.17639 0.68130
# Poissons Ratio (z) = -0.06854 0.51990
#
# Static dielectric constant tensor:
#      x y z
#    x 1.702210 0.000000 0.000000 
#    y 0.000000 1.726160 0.000000 
#    z 0.000000 0.000000 1.789050 
# 
# From -- ./inp_files/3703.got.cif
#   From: 2010.05.17/outbox.cif.g08.bks.cpg/sg31_2_cif.got.tgz:3703.got - 2010.06.03 17:08:30.
