data_PCOD9343243
_publ_section_title
;
Structure prediction by ZEFSAII (Michael W. Deem and Ramdas Pophale) SiO2 
 PCOD9343243
Probable space group: P M N 21
;
_chemical_formula_sum "Si O2"
_cell_formula_units_Z 32
_cell_length_a 8.127374
_cell_length_b 11.906096
_cell_length_c 16.590133
_cell_angle_alpha 90.000000
_cell_angle_beta 90.000000
_cell_angle_gamma 90.000000
_cell_volume 1605.349115
_symmetry_space_group_name_H-M "P M N 21"
_symmetry_group_IT_number 31
_symmetry_cell_setting 'orthorhombic'
loop_
_space_group_symop_operation_xyz
x,y,z
1/2-x,-y,1/2+z
-x,y,z
1/2+x,-y,1/2+z
loop_
_atom_site_type_symbol
_atom_site_label
_atom_site_fract_x
_atom_site_fract_y
_atom_site_fract_z
Si Si1 0.305997 0.434492 0.242290
Si Si2 0.193612 0.318516 0.774732
Si Si3 0.190449 0.246560 0.360706
Si Si4 0.800683 0.181316 0.930185
Si Si5 0.194078 0.857541 0.162063
Si Si6 0.198476 0.275309 0.099149
Si Si7 0.198525 0.068390 0.486515
Si Si8 0.307964 0.917543 0.710881
O O1 0.500000 0.445389 0.230461
O O2 0.235032 0.556711 0.263909
O O3 0.274978 0.351817 0.318045
O O4 0.241779 0.377003 0.159553
O O5 0.260293 0.240662 0.847827
O O6 0.215702 0.253489 0.690623
O O7 0.000000 0.331542 0.792302
O O8 0.258312 0.177805 0.436222
O O9 0.193951 0.151245 0.292092
O O10 0.000000 0.277465 0.375974
O O11 0.000000 0.176519 0.928144
O O12 0.745043 0.053081 0.948997
O O13 0.751704 0.261418 0.006207
O O14 0.000000 0.835634 0.171418
O O15 0.259047 0.958381 0.219286
O O16 0.230456 0.909972 0.075044
O O17 0.267030 0.163415 0.143566
O O18 0.000000 0.270618 0.100351
O O19 0.000000 0.072509 0.488308
O O20 0.500000 0.933836 0.688236
#
# Coordination Sequence:
#
# PCOD9343243 Si02
#       8
#     4   4   4   4   4   4   4   4
#     4  10  21  38  58  82 115 150 195 244 287 339
#     4  10  23  41  58  82 119 156 193 247 300 338
#     4   9  19  36  57  80 110 149 186 228 283 341
#     4  10  20  38  62  86 115 152 193 240 294 353
#     4  11  21  36  58  83 116 155 192 231 283 354
#     4   9  17  34  59  83 111 147 190 236 284 341
#     4  11  22  36  57  89 124 150 183 237 295 347
#     4   8  14  29  53  79 106 137 176 223 274 329
#
# _framework density 19.93336
#
# number of rings (size 3 to 8) (size 9 to 14) (size 15 to 20)
#    0.000    2.250    1.250    2.625    0.000    4.000 
#    2.250    1.875    0.000    0.000    0.000    0.000 
#    0.000    0.000    0.000    0.000    0.000    0.000 
#
# Total GULP energy -178217.266676 kJ/mol
# GULP energy per Si atom -5569.289584 kJ/mol
# Density = 1.988799 g / cm^3
# Si number density = 19.933360 Si / 1000 Ang^3
#
#
#
# Elastic Constant Matrix: (Units=GPa)
#
#
# Indices 1 2 3 4 5 6 
#
# 1 17.6858 3.3483 0.3396 0.0000 0.0000 0.0000
# 2 3.3483 139.6497 44.6503 0.0000 0.0000 0.0000
# 3 0.3396 44.6503 62.6049 0.0000 0.0000 0.0000
# 4 0.0000 0.0000 0.0000 21.6909 0.0000 0.0000
# 5 0.0000 0.0000 0.0000 0.0000 21.1325 0.0000
# 6 0.0000 0.0000 0.0000 0.0000 0.0000 22.5293
#
#
#
# Elastic Compliance Matrix: (Units=1/GPa)
#
#
# Indices 1 2 3 4 5 6 
#
# 1 0.056836 -0.001638 0.000860 0.000000 0.000000 0.000000
# 2 -0.001638 0.009323 -0.006641 0.000000 0.000000 0.000000
# 3 0.000860 -0.006641 0.020705 0.000000 0.000000 0.000000
# 4 0.000000 0.000000 0.000000 0.046102 0.000000 0.000000
# 5 0.000000 0.000000 0.000000 0.000000 0.047321 0.000000
# 6 0.000000 0.000000 0.000000 0.000000 0.000000 0.044387
#
#
# Mechanical properties :
#
#
# Convention : Reuss Voigt Hill
#
# Bulk Modulus (GPa) = 13.88369 35.17967 24.53168
# Shear Modulus (GPa) = 18.97394 24.51068 21.74231
#
# Velocity S-wave (km/s) = 3.08858 3.51041 3.30623
# Velocity P-wave (km/s) = 4.43839 5.84103 5.18734
#
# Compressibility (1/GPa) = 0.07202697
#
# Stress axis : x y z
#
# Youngs Moduli (GPa) = 17.59444 107.25918 48.29850
#
# Poissons Ratio (x) = 0.17565 -0.04152
# Poissons Ratio (y) = 0.02881 0.32073
# Poissons Ratio (z) = -0.01512 0.71225
#
# Static dielectric constant tensor:
#      x y z
#    x 1.707500 0.000000 0.000000 
#    y 0.000000 1.727910 0.000000 
#    z 0.000000 0.000000 1.767200 
# 
# From -- ./inp_files/5899.got.cif
#   From: 2010.05.17/outbox.cif.g08.bks.cpg/sg31_3_cif.got.tgz:5899.got - 2010.06.03 17:08:30.
