data_PCOD9343511
_publ_section_title
;
Structure prediction by ZEFSAII (Michael W. Deem and Ramdas Pophale) SiO2 
 PCOD9343511
Probable space group: P M N 21
;
_chemical_formula_sum "Si O2"
_cell_formula_units_Z 32
_cell_length_a 8.116564
_cell_length_b 10.994428
_cell_length_c 14.531523
_cell_angle_alpha 90.000000
_cell_angle_beta 90.000000
_cell_angle_gamma 90.000000
_cell_volume 1296.749206
_symmetry_space_group_name_H-M "P M N 21"
_symmetry_group_IT_number 31
_symmetry_cell_setting 'orthorhombic'
loop_
_space_group_symop_operation_xyz
x,y,z
1/2-x,-y,1/2+z
-x,y,z
1/2+x,-y,1/2+z
loop_
_atom_site_type_symbol
_atom_site_label
_atom_site_fract_x
_atom_site_fract_y
_atom_site_fract_z
Si Si1 0.695894 0.068215 0.212760
Si Si2 0.197635 0.831827 0.424898
Si Si3 0.806949 0.215219 0.374615
Si Si4 0.808860 0.572408 0.083314
Si Si5 0.305641 0.466730 0.379597
Si Si6 0.304572 0.691523 0.260397
Si Si7 0.298196 0.931858 0.039614
Si Si8 0.695798 0.315639 0.095466
O O1 0.500000 0.052090 0.228704
O O2 0.782657 0.099615 0.308038
O O3 0.754878 0.962355 0.143308
O O4 0.718820 0.193516 0.154493
O O5 0.251528 0.806441 0.321318
O O6 0.253400 0.952720 0.477086
O O7 0.253104 0.722119 0.492439
O O8 0.000000 0.833386 0.427551
O O9 0.714227 0.332835 0.336576
O O10 0.000000 0.242410 0.378412
O O11 0.744582 0.180728 0.476944
O O12 0.740680 0.670641 0.154631
O O13 0.784871 0.437590 0.126531
O O14 0.000000 0.598711 0.071677
O O15 0.731563 0.553035 0.981798
O O16 0.500000 0.492320 0.389299
O O17 0.235417 0.574597 0.317382
O O18 0.500000 0.689875 0.262677
O O19 0.500000 0.929256 0.042104
O O20 0.500000 0.340697 0.094897
#
# Coordination Sequence:
#
# PCOD9343511 Si02
#       8
#     4   4   4   4   4   4   4   4
#     4   9  18  36  60  83 111 151 190 229 286 344
#     4   9  17  34  59  80 104 141 183 227 280 337
#     4  11  22  37  59  87 116 148 192 240 278 328
#     4  11  22  36  54  80 114 153 189 226 279 339
#     4  10  23  41  57  79 118 158 187 226 284 342
#     4  11  22  37  56  83 116 148 186 233 283 337
#     4   8  18  38  60  82 112 148 186 233 286 335
#     4   9  17  31  55  82 107 141 185 232 278 330
#
# _framework density 24.677094
#
# number of rings (size 3 to 8) (size 9 to 14) (size 15 to 20)
#    0.000    2.250    1.250    3.375    0.000    5.500 
#    2.250    4.375    0.000    0.000    0.000    0.000 
#    0.000    0.000    0.000    0.000    0.000    0.000 
#
# Total GULP energy -178833.326264 kJ/mol
# GULP energy per Si atom -5588.541446 kJ/mol
# Density = 2.462093 g / cm^3
# Si number density = 24.677094 Si / 1000 Ang^3
#
#
#
# Elastic Constant Matrix: (Units=GPa)
#
#
# Indices 1 2 3 4 5 6 
#
# 1 24.7900 -4.8863 9.4245 0.0000 0.0000 0.0000
# 2 -4.8863 61.3715 15.1167 0.0000 0.0000 0.0000
# 3 9.4245 15.1167 127.3207 0.0000 0.0000 0.0000
# 4 0.0000 0.0000 0.0000 45.1917 0.0000 0.0000
# 5 0.0000 0.0000 0.0000 0.0000 29.6814 0.0000
# 6 0.0000 0.0000 0.0000 0.0000 0.0000 8.8268
#
#
#
# Elastic Compliance Matrix: (Units=1/GPa)
#
#
# Indices 1 2 3 4 5 6 
#
# 1 0.042577 0.004292 -0.003661 0.000000 0.000000 0.000000
# 2 0.004292 0.017218 -0.002362 0.000000 0.000000 0.000000
# 3 -0.003661 -0.002362 0.008406 0.000000 0.000000 0.000000
# 4 0.000000 0.000000 0.000000 0.022128 0.000000 0.000000
# 5 0.000000 0.000000 0.000000 0.000000 0.033691 0.000000
# 6 0.000000 0.000000 0.000000 0.000000 0.000000 0.113292
#
#
# Mechanical properties :
#
#
# Convention : Reuss Voigt Hill
#
# Bulk Modulus (GPa) = 15.44707 28.08799 21.76753
# Shear Modulus (GPa) = 19.05833 29.66179 24.36006
#
# Velocity S-wave (km/s) = 2.78206 3.47074 3.14531
# Velocity P-wave (km/s) = 4.07346 5.24102 4.69369
#
# Compressibility (1/GPa) = 0.06473720
#
# Stress axis : x y z
#
# Youngs Moduli (GPa) = 23.48705 58.07979 118.96802
#
# Poissons Ratio (x) = -0.24926 0.43556
# Poissons Ratio (y) = -0.10080 0.28099
# Poissons Ratio (z) = 0.08599 0.13718
#
# Static dielectric constant tensor:
#      x y z
#    x 1.852580 0.000000 0.000000 
#    y 0.000000 2.015730 0.000000 
#    z 0.000000 0.000000 2.041250 
# 
# From -- ./inp_files/5093.got.cif
#   From: 2010.05.17/outbox.cif.g08.bks.cpg/sg31_3_cif.got.tgz:5093.got - 2010.06.03 17:08:30.
