data_PCOD9343959
_publ_section_title
;
Structure prediction by ZEFSAII (Michael W. Deem and Ramdas Pophale) SiO2 
 PCOD9343959
Probable space group: P B A 2
;
_chemical_formula_sum "Si O2"
_cell_formula_units_Z 30
_cell_length_a 19.979320
_cell_length_b 10.091749
_cell_length_c 6.150394
_cell_angle_alpha 90.000000
_cell_angle_beta 90.000000
_cell_angle_gamma 90.000000
_cell_volume 1240.081079
_symmetry_space_group_name_H-M "P B A 2"
_symmetry_group_IT_number 32
_symmetry_cell_setting 'orthorhombic'
loop_
_space_group_symop_operation_xyz
x,y,z
-x,-y,z
1/2-x,1/2+y,z
1/2+x,1/2-y,z
loop_
_atom_site_type_symbol
_atom_site_label
_atom_site_fract_x
_atom_site_fract_y
_atom_site_fract_z
Si Si1 0.225128 0.938097 0.266600
Si Si2 0.000000 0.500000 0.787173
Si Si3 0.915901 0.412757 0.396476
Si Si4 0.613099 0.589400 0.898098
Si Si5 0.868350 0.674714 0.256043
Si Si6 0.495741 0.743320 0.084732
Si Si7 0.828887 0.865080 0.598801
Si Si8 0.195220 0.724148 0.620523
O O1 0.296115 0.880820 0.178036
O O2 0.218418 0.850718 0.484717
O O3 0.204903 0.079043 0.374242
O O4 0.167393 0.920296 0.090005
O O5 0.059940 0.528408 0.622406
O O6 0.994828 0.635912 0.916613
O O7 0.912082 0.540285 0.244413
O O8 0.962486 0.298847 0.295128
O O9 0.841115 0.366062 0.442452
O O10 0.624092 0.467031 0.728979
O O11 0.637631 0.722935 0.776070
O O12 0.539989 0.623856 0.989442
O O13 0.862717 0.732982 0.502384
O O14 0.917345 0.780563 0.138376
O O15 0.760846 0.835702 0.733768
#
# Coordination Sequence:
#
# PCOD9343959 Si02
#       8
#     4   2   4   4   4   4   4   4
#     4  10  22  42  68  95 133 176 221 289 337 406
#     4  12  22  38  66 102 132 166 224 284 346 404
#     4  12  21  40  70 100 135 166 221 299 345 398
#     4  11  24  42  73  97 136 182 229 276 346 422
#     4  11  23  44  69  99 140 177 229 290 347 417
#     4  12  24  42  68 104 134 184 230 284 360 415
#     4  10  24  43  66 102 136 183 229 277 351 419
#     4  10  21  40  70  98 129 168 224 284 343 396
#
# _framework density 24.191966000000001
#
# number of rings (size 3 to 8) (size 9 to 14) (size 15 to 20)
#    0.000    1.067    6.667    0.000    0.000    4.267 
#    2.400    0.667    2.933    0.000    0.000    0.000 
#    0.000    0.000    0.000    0.000    0.000    0.000 
#
# Total GULP energy -167213.898534 kJ/mol
# GULP energy per Si atom -5573.796618 kJ/mol
# Density = 2.413690 g / cm^3
# Si number density = 24.191966 Si / 1000 Ang^3
#
#
#
# Elastic Constant Matrix: (Units=GPa)
#
#
# Indices 1 2 3 4 5 6 
#
# 1 121.0212 39.3055 29.8213 0.0000 0.0000 0.0000
# 2 39.3055 77.6189 15.7816 0.0000 0.0000 0.0000
# 3 29.8213 15.7816 51.1774 0.0000 0.0000 0.0000
# 4 0.0000 0.0000 0.0000 34.2800 0.0000 0.0000
# 5 0.0000 0.0000 0.0000 0.0000 34.7802 0.0000
# 6 0.0000 0.0000 0.0000 0.0000 0.0000 27.1345
#
#
#
# Elastic Compliance Matrix: (Units=1/GPa)
#
#
# Indices 1 2 3 4 5 6 
#
# 1 0.010967 -0.004539 -0.004991 0.000000 0.000000 0.000000
# 2 -0.004539 0.015624 -0.002173 0.000000 0.000000 0.000000
# 3 -0.004991 -0.002173 0.023118 0.000000 0.000000 0.000000
# 4 0.000000 0.000000 0.000000 0.029172 0.000000 0.000000
# 5 0.000000 0.000000 0.000000 0.000000 0.028752 0.000000
# 6 0.000000 0.000000 0.000000 0.000000 0.000000 0.036853
#
#
# Mechanical properties :
#
#
# Convention : Reuss Voigt Hill
#
# Bulk Modulus (GPa) = 38.01804 46.62602 42.32203
# Shear Modulus (GPa) = 28.30309 30.23287 29.26798
#
# Velocity S-wave (km/s) = 3.42415 3.53895 3.48202
# Velocity P-wave (km/s) = 5.60199 6.00118 5.80502
#
# Compressibility (1/GPa) = 0.02630330
#
# Stress axis : x y z
#
# Youngs Moduli (GPa) = 91.18303 64.00528 43.25602
#
# Poissons Ratio (x) = 0.29051 0.21588
# Poissons Ratio (y) = 0.41386 0.09400
# Poissons Ratio (z) = 0.45508 0.13909
#
# Static dielectric constant tensor:
#      x y z
#    x 1.889540 0.000000 0.000000 
#    y 0.000000 2.005500 0.000000 
#    z 0.000000 0.000000 1.967510 
# 
# From -- ./inp_files/1581.got.cif
#   From: 2010.05.17/outbox.cif.g08.bks.cpg/sg32_1_cif.got.tgz:1581.got - 2010.06.03 17:12:27.
