data_PCOD9343917
_publ_section_title
;
Structure prediction by ZEFSAII (Michael W. Deem and Ramdas Pophale) SiO2 
 PCOD9343917
Probable space group: P B A 2
;
_chemical_formula_sum "Si O2"
_cell_formula_units_Z 30
_cell_length_a 13.132075
_cell_length_b 19.311215
_cell_length_c 6.530952
_cell_angle_alpha 90.000000
_cell_angle_beta 90.000000
_cell_angle_gamma 90.000000
_cell_volume 1656.225418
_symmetry_space_group_name_H-M "P B A 2"
_symmetry_group_IT_number 32
_symmetry_cell_setting 'orthorhombic'
loop_
_space_group_symop_operation_xyz
x,y,z
-x,-y,z
1/2-x,1/2+y,z
1/2+x,1/2-y,z
loop_
_atom_site_type_symbol
_atom_site_label
_atom_site_fract_x
_atom_site_fract_y
_atom_site_fract_z
Si Si1 0.527558 0.597633 0.110520
Si Si2 0.000000 0.000000 0.479280
Si Si3 0.723379 0.691422 0.493582
Si Si4 0.846497 0.940509 0.815697
Si Si5 0.871367 0.675055 0.121052
Si Si6 0.266010 0.417360 0.850573
Si Si7 0.928531 0.252134 0.159863
Si Si8 0.241536 0.211685 0.865074
O O1 0.539058 0.560770 0.329183
O O2 0.514265 0.680041 0.112721
O O3 0.430970 0.563307 0.997259
O O4 0.633445 0.590643 0.990274
O O5 0.914889 0.963495 0.620663
O O6 0.806571 0.669135 0.327614
O O7 0.707894 0.625935 0.645073
O O8 0.633298 0.727639 0.362462
O O9 0.759862 0.750662 0.647405
O O10 0.791987 0.866617 0.827097
O O11 0.761986 0.000502 0.826233
O O12 0.989011 0.686790 0.174877
O O13 0.830854 0.615730 0.966200
O O14 0.834493 0.744930 0.007945
O O15 0.848898 0.274465 0.982169
#
# Coordination Sequence:
#
# PCOD9343917 Si02
#       8
#     4   2   4   4   4   4   4   4
#     4  12  21  36  59  91 124 150 192 248 308 361
#     4  12  24  32  58  98 128 154 192 246 318 364
#     4  10  21  37  60  87 119 155 201 249 295 354
#     4  12  24  37  60  92 122 162 194 244 307 367
#     4  10  22  37  62  86 114 162 200 248 295 349
#     4  11  21  41  56  87 125 159 192 243 309 359
#     4  11  22  39  61  86 123 153 202 250 296 350
#     4  10  23  39  58  87 122 157 199 245 298 355
#
# _framework density 18.113475999999999
#
# number of rings (size 3 to 8) (size 9 to 14) (size 15 to 20)
#    0.000    1.067    8.000    0.800    1.867    2.133 
#    0.000    0.667    0.000    0.000    0.000    0.000 
#    0.000    0.000    0.000    0.000    0.000    0.000 
#
# Total GULP energy -167084.816626 kJ/mol
# GULP energy per Si atom -5569.493888 kJ/mol
# Density = 1.807225 g / cm^3
# Si number density = 18.113476 Si / 1000 Ang^3
#
#
#
# Elastic Constant Matrix: (Units=GPa)
#
#
# Indices 1 2 3 4 5 6 
#
# 1 32.6708 8.6059 21.1864 0.0000 0.0000 0.0000
# 2 8.6059 130.9593 36.5763 0.0000 0.0000 0.0000
# 3 21.1864 36.5763 103.5799 0.0000 0.0000 0.0000
# 4 0.0000 0.0000 0.0000 50.2099 0.0000 0.0000
# 5 0.0000 0.0000 0.0000 0.0000 -1.4661 0.0000
# 6 0.0000 0.0000 0.0000 0.0000 0.0000 30.4698
#
#
#
# Elastic Compliance Matrix: (Units=1/GPa)
#
#
# Indices 1 2 3 4 5 6 
#
# 1 0.035302 -0.000336 -0.007102 0.000000 0.000000 0.000000
# 2 -0.000336 0.008475 -0.002924 0.000000 0.000000 0.000000
# 3 -0.007102 -0.002924 0.012139 0.000000 0.000000 0.000000
# 4 0.000000 0.000000 0.000000 0.019916 0.000000 0.000000
# 5 0.000000 0.000000 0.000000 0.000000 -0.682101 0.000000
# 6 0.000000 0.000000 0.000000 0.000000 0.000000 0.032819
#
#
# Mechanical properties :
#
#
# Convention : Reuss Voigt Hill
#
# Bulk Modulus (GPa) = 28.41529 44.43858 36.42694
# Shear Modulus (GPa) = -9.24225 29.23215 9.99495
#
# Velocity S-wave (km/s) = -2.26130 4.02161 2.35158
# Velocity P-wave (km/s) = 2.98386 6.79347 5.24665
#
# Compressibility (1/GPa) = 0.03519232
#
# Stress axis : x y z
#
# Youngs Moduli (GPa) = 28.32662 117.99880 82.37573
#
# Poissons Ratio (x) = 0.03968 0.58504
# Poissons Ratio (y) = 0.00953 0.24085
# Poissons Ratio (z) = 0.20118 0.34500
#
# Static dielectric constant tensor:
#      x y z
#    x 1.636890 0.000000 0.000000 
#    y 0.000000 1.639240 0.000000 
#    z 0.000000 0.000000 1.638640 
# 
# From -- ./inp_files/1273.got.cif
#   From: 2010.05.17/outbox.cif.g08.bks.cpg/sg32_1_cif.got.tgz:1273.got - 2010.06.03 17:12:27.
