data_PCOD9343190
_publ_section_title
;
Structure prediction by ZEFSAII (Michael W. Deem and Ramdas Pophale) SiO2 
 PCOD9343190
Probable space group: P M N 21
;
_chemical_formula_sum "Si O2"
_cell_formula_units_Z 30
_cell_length_a 21.282498
_cell_length_b 11.249113
_cell_length_c 6.188911
_cell_angle_alpha 90.000000
_cell_angle_beta 90.000000
_cell_angle_gamma 90.000000
_cell_volume 1481.682386
_symmetry_space_group_name_H-M "P M N 21"
_symmetry_group_IT_number 31
_symmetry_cell_setting 'orthorhombic'
loop_
_space_group_symop_operation_xyz
x,y,z
1/2-x,-y,1/2+z
-x,y,z
1/2+x,-y,1/2+z
loop_
_atom_site_type_symbol
_atom_site_label
_atom_site_fract_x
_atom_site_fract_y
_atom_site_fract_z
Si Si1 0.845066 0.667389 0.546870
Si Si2 0.871154 0.446795 0.266825
Si Si3 0.569664 0.390615 0.432065
Si Si4 0.294234 0.743717 0.501969
Si Si5 0.927944 0.826641 0.262497
Si Si6 0.612668 0.746191 0.124774
Si Si7 0.500000 0.797217 0.457813
Si Si8 0.614948 0.912384 0.733064
O O1 0.839129 0.559557 0.378042
O O2 0.872541 0.612158 0.766689
O O3 0.779581 0.735591 0.539806
O O4 0.898498 0.756704 0.462749
O O5 0.823722 0.367639 0.130188
O O6 0.896306 0.361659 0.455962
O O7 0.922042 0.501911 0.102803
O O8 0.500000 0.399766 0.330468
O O9 0.572939 0.267698 0.566465
O O10 0.322419 0.735086 0.260005
O O11 0.324380 0.859869 0.612142
O O12 0.000000 0.859387 0.305681
O O13 0.890717 0.946686 0.216671
O O14 0.555624 0.751349 0.291234
O O15 0.614798 0.864912 0.978703
O O16 0.555171 0.852521 0.616813
#
# Coordination Sequence:
#
# PCOD9343190 Si02
#       8
#     4   4   4   4   4   4   2   4
#     4  11  24  42  66  96 126 178 221 274 329 391
#     4  10  23  39  65  92 134 171 212 274 325 401
#     4  10  23  43  65  99 133 169 220 270 328 391
#     4  10  24  42  62  95 132 170 227 268 330 390
#     4  10  22  43  67  94 133 169 220 271 325 397
#     4  10  22  40  63  99 128 173 211 267 330 389
#     4  10  20  36  64  94 130 166 214 262 322 382
#     4  10  21  42  63  97 132 170 215 269 321 397
#
# _framework density 20.247254999999999
#
# number of rings (size 3 to 8) (size 9 to 14) (size 15 to 20)
#    0.000    1.867    0.667    1.600    4.667    5.867 
#   16.800    0.000    0.000    0.000    0.000    0.000 
#    0.000    0.000    0.000    0.000    0.000    0.000 
#
# Total GULP energy -167022.455826 kJ/mol
# GULP energy per Si atom -5567.415194 kJ/mol
# Density = 2.020117 g / cm^3
# Si number density = 20.247255 Si / 1000 Ang^3
#
#
#
# Elastic Constant Matrix: (Units=GPa)
#
#
# Indices 1 2 3 4 5 6 
#
# 1 34.2044 2.2123 23.3629 0.0000 0.0000 0.0000
# 2 2.2123 74.7606 16.6841 0.0000 0.0000 0.0000
# 3 23.3629 16.6841 81.5431 0.0000 0.0000 0.0000
# 4 0.0000 0.0000 0.0000 11.3027 0.0000 0.0000
# 5 0.0000 0.0000 0.0000 0.0000 9.1527 0.0000
# 6 0.0000 0.0000 0.0000 0.0000 0.0000 -1.9431
#
#
#
# Elastic Compliance Matrix: (Units=1/GPa)
#
#
# Indices 1 2 3 4 5 6 
#
# 1 0.036472 0.001313 -0.010718 0.000000 0.000000 0.000000
# 2 0.001313 0.014063 -0.003253 0.000000 0.000000 0.000000
# 3 -0.010718 -0.003253 0.016000 0.000000 0.000000 0.000000
# 4 0.000000 0.000000 0.000000 0.088474 0.000000 0.000000
# 5 0.000000 0.000000 0.000000 0.000000 0.109257 0.000000
# 6 0.000000 0.000000 0.000000 0.000000 0.000000 -0.514637
#
#
# Mechanical properties :
#
#
# Convention : Reuss Voigt Hill
#
# Bulk Modulus (GPa) = 24.26167 30.55852 27.41009
# Shear Modulus (GPa) = -23.66157 13.58572 -5.03793
#
# Velocity S-wave (km/s) = -3.42223 2.59316 -1.57911
# Velocity P-wave (km/s) = 1.89917 4.90830 3.20035
#
# Compressibility (1/GPa) = 0.04121729
#
# Stress axis : x y z
#
# Youngs Moduli (GPa) = 27.41826 71.10725 62.50007
#
# Poissons Ratio (x) = -0.09334 0.66989
# Poissons Ratio (y) = -0.03599 0.20334
# Poissons Ratio (z) = 0.29387 0.23135
#
# Static dielectric constant tensor:
#      x y z
#    x 1.710540 0.000000 0.000000 
#    y 0.000000 1.720880 0.000000 
#    z 0.000000 0.000000 1.744870 
# 
# From -- ./inp_files/997.got.cif
#   From: 2010.05.17/outbox.cif.g08.bks.cpg/sg31_1_cif.got.tgz:997.got - 2010.06.03 17:08:30.
