data_PCOD9343623
_publ_section_title
;
Structure prediction by ZEFSAII (Michael W. Deem and Ramdas Pophale) SiO2 
 PCOD9343623
Probable space group: P M N 21
;
_chemical_formula_sum "Si O2"
_cell_formula_units_Z 32
_cell_length_a 30.000000
_cell_length_b 9.000000
_cell_length_c 6.000000
_cell_angle_alpha 90.000000
_cell_angle_beta 90.000000
_cell_angle_gamma 90.000000
_cell_volume 1620.000000
_symmetry_space_group_name_H-M "P M N 21"
_symmetry_group_IT_number 31
_symmetry_cell_setting 'orthorhombic'
loop_
_space_group_symop_operation_xyz
x,y,z
1/2-x,-y,1/2+z
-x,y,z
1/2+x,-y,1/2+z
loop_
_atom_site_type_symbol
_atom_site_label
_atom_site_fract_x
_atom_site_fract_y
_atom_site_fract_z
Si Si1 0.615275 0.505286 0.071790
Si Si2 0.446900 0.200057 0.490319
Si Si3 0.637146 0.702039 0.680714
Si Si4 0.598079 0.170694 0.978940
Si Si5 0.682932 0.985993 0.837417
Si Si6 0.052098 0.445678 0.945175
Si Si7 0.747795 0.233860 0.603356
Si Si8 0.300006 0.515132 0.388248
O O1 0.568671 0.544049 0.190745
O O2 0.657172 0.482959 0.234751
O O3 0.627448 0.648859 0.929187
O O4 0.609786 0.345769 0.956627
O O5 0.500000 0.163986 0.476742
O O6 0.443205 0.380407 0.515162
O O7 0.427400 0.139525 0.734202
O O8 0.424922 0.160984 0.236893
O O9 0.656531 0.869109 0.674836
O O10 0.590385 0.659420 0.556268
O O11 0.676428 0.591040 0.600658
O O12 0.643093 0.070143 0.972111
O O13 0.787498 0.883158 0.217265
O O14 0.716062 0.875689 0.980343
O O15 0.000000 0.402446 0.973729
O O16 0.724415 0.358184 0.440894
O O17 0.770626 0.351318 0.778092
#
# Coordination Sequence:
#
# PCOD9343623 Si02
#       8
#     4   4   4   4   4   4   4   4
#     4  10  21  40  68  96 133 182 231 284 354 426
#     4  10  21  42  72 104 135 182 244 299 353 434
#     4  11  21  45  66  99 138 181 227 292 359 435
#     4  11  24  41  69 103 143 185 234 299 365 435
#     4  12  28  42  67 102 147 183 237 294 381 421
#     4   9  20  37  67 103 133 175 235 293 342 421
#     4  12  27  45  69 102 139 188 241 309 350 446
#     4  11  25  44  72  95 134 180 249 288 357 416
#
# _framework density 19.753086
#
# number of rings (size 3 to 8) (size 9 to 14) (size 15 to 20)
#    0.000    1.250    2.500    2.625    7.000    2.000 
#    0.000    1.250    0.000    0.000    0.000    0.000 
#    0.000    0.000    0.000    0.000    0.000    0.000 
#
# Total GULP energy -178142.739199 kJ/mol
# GULP energy per Si atom -5566.960600 kJ/mol
# Density = 1.970813 g / cm^3
# Si number density = 19.753086 Si / 1000 Ang^3
#
#
#
# Elastic Constant Matrix: (Units=GPa)
#
#
# Indices 1 2 3 4 5 6 
#
# 1 153.7099 63.3848 53.5887 0.0000 0.0000 0.0000
# 2 63.3848 113.8744 33.6170 0.0000 0.0000 0.0000
# 3 53.5887 33.6170 85.1615 0.0000 0.0000 0.0000
# 4 0.0000 0.0000 0.0000 38.0902 0.0000 0.0000
# 5 0.0000 0.0000 0.0000 0.0000 38.0184 0.0000
# 6 0.0000 0.0000 0.0000 0.0000 0.0000 41.3822
#
#
#
# Elastic Compliance Matrix: (Units=1/GPa)
#
#
# Indices 1 2 3 4 5 6 
#
# 1 0.009779 -0.004105 -0.004533 0.000000 0.000000 0.000000
# 2 -0.004105 0.011663 -0.002021 0.000000 0.000000 0.000000
# 3 -0.004533 -0.002021 0.015393 0.000000 0.000000 0.000000
# 4 0.000000 0.000000 0.000000 0.026253 0.000000 0.000000
# 5 0.000000 0.000000 0.000000 0.000000 0.026303 0.000000
# 6 0.000000 0.000000 0.000000 0.000000 0.000000 0.024165
#
#
# Mechanical properties :
#
#
# Convention : Reuss Voigt Hill
#
# Bulk Modulus (GPa) = 64.44607 72.65853 68.55230
# Shear Modulus (GPa) = 35.70256 36.97519 36.33887
#
# Velocity S-wave (km/s) = 4.25601 4.33120 4.29377
# Velocity P-wave (km/s) = 7.53977 7.86611 7.70467
#
# Compressibility (1/GPa) = 0.01551685
#
# Stress axis : x y z
#
# Youngs Moduli (GPa) = 102.26121 85.74069 64.96632
#
# Poissons Ratio (x) = 0.35196 0.29450
# Poissons Ratio (y) = 0.41977 0.13129
# Poissons Ratio (z) = 0.46356 0.17327
#
# Static dielectric constant tensor:
#      x y z
#    x 1.716910 0.000000 0.000000 
#    y 0.000000 1.678240 0.000000 
#    z 0.000000 0.000000 1.804860 
# 
# From -- ./inp_files/1352.got.cif
#   From: 2010.05.17/outbox.ucp.g08.bks.cvg/sg31_1_cif.got.tgz:1352.got - 2010.06.11 10:34:26.
