data_PCOD9343297
_publ_section_title
;
Structure prediction by ZEFSAII (Michael W. Deem and Ramdas Pophale) SiO2 
 PCOD9343297
Probable space group: P M N 21
;
_chemical_formula_sum "Si O2"
_cell_formula_units_Z 32
_cell_length_a 8.655497
_cell_length_b 14.778441
_cell_length_c 12.520979
_cell_angle_alpha 90.000000
_cell_angle_beta 90.000000
_cell_angle_gamma 90.000000
_cell_volume 1601.617920
_symmetry_space_group_name_H-M "P M N 21"
_symmetry_group_IT_number 31
_symmetry_cell_setting 'orthorhombic'
loop_
_space_group_symop_operation_xyz
x,y,z
1/2-x,-y,1/2+z
-x,y,z
1/2+x,-y,1/2+z
loop_
_atom_site_type_symbol
_atom_site_label
_atom_site_fract_x
_atom_site_fract_y
_atom_site_fract_z
Si Si1 0.819996 0.948039 0.919600
Si Si2 0.678042 0.665808 0.824074
Si Si3 0.186618 0.226625 0.527569
Si Si4 0.327842 0.862271 0.726111
Si Si5 0.317255 0.339664 0.938785
Si Si6 0.814902 0.360166 0.705072
Si Si7 0.318175 0.856964 0.475385
Si Si8 0.313334 0.543754 0.635045
O O1 0.794325 0.910467 0.800910
O O2 0.000000 0.953080 0.947145
O O3 0.758997 0.050344 0.923573
O O4 0.744392 0.873106 0.997062
O O5 0.500000 0.639335 0.847005
O O6 0.677095 0.755569 0.750626
O O7 0.744546 0.589211 0.746892
O O8 0.745060 0.703155 0.935387
O O9 0.228225 0.267884 0.642154
O O10 0.000000 0.225208 0.519205
O O11 0.500000 0.893196 0.759541
O O12 0.309439 0.875606 0.601674
O O13 0.500000 0.352107 0.946190
O O14 0.258470 0.367548 0.821748
O O15 0.272209 0.234331 0.951098
O O16 0.239056 0.397059 0.033865
O O17 0.755852 0.443786 0.634202
O O18 0.000000 0.362883 0.713580
O O19 0.500000 0.842071 0.447436
O O20 0.500000 0.542071 0.637386
#
# Coordination Sequence:
#
# PCOD9343297 Si02
#       8
#     4   4   4   4   4   4   4   4
#     4  10  21  35  58  92 125 157 205 261 314 374
#     4   8  15  32  60  85 109 149 195 247 303 360
#     4   9  20  40  62  85 121 165 206 250 307 373
#     4   9  17  35  58  80 113 158 202 246 306 370
#     4  12  26  43  64  93 128 165 212 262 312 376
#     4  11  25  43  64  93 130 170 210 256 315 379
#     4  10  21  40  62  86 121 164 206 259 318 369
#     4  11  22  40  66  94 125 160 204 259 315 375
#
# _framework density 19.979796
#
# number of rings (size 3 to 8) (size 9 to 14) (size 15 to 20)
#    0.000    2.000    1.250    3.000    1.750    3.500 
#    0.000    3.125    0.000    0.000    0.000    0.000 
#    0.000    0.000    0.000    0.000    0.000    0.000 
#
# Total GULP energy -178550.370406 kJ/mol
# GULP energy per Si atom -5579.699075 kJ/mol
# Density = 1.993432 g / cm^3
# Si number density = 19.979796 Si / 1000 Ang^3
#
#
#
# Elastic Constant Matrix: (Units=GPa)
#
#
# Indices 1 2 3 4 5 6 
#
# 1 40.8736 15.4767 6.7928 0.0000 0.0000 0.0000
# 2 15.4767 90.7668 17.9403 0.0000 0.0000 0.0000
# 3 6.7928 17.9403 38.1443 0.0000 0.0000 0.0000
# 4 0.0000 0.0000 0.0000 23.3381 0.0000 0.0000
# 5 0.0000 0.0000 0.0000 0.0000 128.7048 0.0000
# 6 0.0000 0.0000 0.0000 0.0000 0.0000 28.4996
#
#
#
# Elastic Compliance Matrix: (Units=1/GPa)
#
#
# Indices 1 2 3 4 5 6 
#
# 1 0.026433 -0.003943 -0.002853 0.000000 0.000000 0.000000
# 2 -0.003943 0.012735 -0.005287 0.000000 0.000000 0.000000
# 3 -0.002853 -0.005287 0.029211 0.000000 0.000000 0.000000
# 4 0.000000 0.000000 0.000000 0.042848 0.000000 0.000000
# 5 0.000000 0.000000 0.000000 0.000000 0.007770 0.000000
# 6 0.000000 0.000000 0.000000 0.000000 0.000000 0.035088
#
#
# Mechanical properties :
#
#
# Convention : Reuss Voigt Hill
#
# Bulk Modulus (GPa) = 22.61813 27.80048 25.20930
# Shear Modulus (GPa) = 25.90830 44.74682 35.32756
#
# Velocity S-wave (km/s) = 3.60491 4.73758 4.20952
# Velocity P-wave (km/s) = 5.35465 6.62350 6.02258
#
# Compressibility (1/GPa) = 0.04421232
#
# Stress axis : x y z
#
# Youngs Moduli (GPa) = 37.83175 78.52598 34.23371
#
# Poissons Ratio (x) = 0.30965 0.09765
# Poissons Ratio (y) = 0.14918 0.18100
# Poissons Ratio (z) = 0.10792 0.41518
#
# Static dielectric constant tensor:
#      x y z
#    x 1.687360 0.000000 0.000000 
#    y 0.000000 1.703200 0.000000 
#    z 0.000000 0.000000 1.712330 
# 
# From -- ./inp_files/3601.got.cif
#   From: 2010.05.17/outbox.cif.g08.bks.cpg/sg31_2_cif.got.tgz:3601.got - 2010.06.03 17:08:30.
