data_PCOD9343698
_publ_section_title
;
Structure prediction by ZEFSAII (Michael W. Deem and Ramdas Pophale) SiO2 
 PCOD9343698
Probable space group: P B A 2
;
_chemical_formula_sum "Si O2"
_cell_formula_units_Z 32
_cell_length_a 16.223334
_cell_length_b 5.114167
_cell_length_c 20.359595
_cell_angle_alpha 90.000000
_cell_angle_beta 90.000000
_cell_angle_gamma 90.000000
_cell_volume 1689.211967
_symmetry_space_group_name_H-M "P B A 2"
_symmetry_group_IT_number 32
_symmetry_cell_setting 'orthorhombic'
loop_
_space_group_symop_operation_xyz
x,y,z
-x,-y,z
1/2-x,1/2+y,z
1/2+x,1/2-y,z
loop_
_atom_site_type_symbol
_atom_site_label
_atom_site_fract_x
_atom_site_fract_y
_atom_site_fract_z
Si Si1 0.400586 0.505729 0.152260
Si Si2 0.808660 0.273544 0.655410
Si Si3 0.058079 0.748914 0.391822
Si Si4 0.805072 0.398520 0.935013
Si Si5 0.693751 0.942508 0.790233
Si Si6 0.305292 0.422448 0.287840
Si Si7 0.058125 0.745245 0.541670
Si Si8 0.098380 0.510365 0.066402
O O1 0.500000 0.500000 0.164806
O O2 0.352079 0.434544 0.218103
O O3 0.378315 0.778637 0.116944
O O4 0.379951 0.282263 0.100305
O O5 0.739699 0.500202 0.653156
O O6 0.853182 0.347127 0.724862
O O7 0.870136 0.266230 0.594742
O O8 0.129759 0.818936 0.341350
O O9 0.090048 0.718963 0.466572
O O10 0.000000 0.500000 0.374996
O O11 0.000000 0.000000 0.392359
O O12 0.728844 0.603042 0.938628
O O13 0.844869 0.418338 0.862377
O O14 0.638664 0.986478 0.995123
O O15 0.771017 0.737253 0.787996
O O16 0.269083 0.714595 0.293912
O O17 0.000000 0.500000 0.553285
O O18 0.000000 0.000000 0.546928
O O19 0.000000 0.500000 0.059279
#
# Coordination Sequence:
#
# PCOD9343698 Si02
#       8
#     4   4   4   4   4   4   4   4
#     4  10  22  39  56  74 105 147 178 208 269 342
#     4  10  19  33  56  81 109 146 185 226 271 324
#     4  10  22  41  61  79 110 155 187 213 272 349
#     4  10  19  32  53  76 102 138 177 219 265 316
#     4   8  16  30  48  74 104 137 177 214 261 324
#     4  12  25  38  58  88 114 135 178 240 276 308
#     4  10  21  37  57  83 113 145 185 229 273 327
#     4  10  21  36  54  77 104 137 179 221 263 320
#
# _framework density 18.943746000000001
#
# number of rings (size 3 to 8) (size 9 to 14) (size 15 to 20)
#    0.000    2.000    0.000    3.375    0.000    5.500 
#    0.000    0.625    0.000    2.250    0.000    0.000 
#    0.000    0.000    0.000    0.000    0.000    0.000 
#
# Total GULP energy -178392.094586 kJ/mol
# GULP energy per Si atom -5574.752956 kJ/mol
# Density = 1.890063 g / cm^3
# Si number density = 18.943746 Si / 1000 Ang^3
#
#
#
# Elastic Constant Matrix: (Units=GPa)
#
#
# Indices 1 2 3 4 5 6 
#
# 1 29.0968 8.3262 57.2321 0.0000 0.0000 0.0000
# 2 8.3262 103.1456 5.5097 0.0000 0.0000 0.0000
# 3 57.2321 5.5097 130.9226 0.0000 0.0000 0.0000
# 4 0.0000 0.0000 0.0000 27.5059 0.0000 0.0000
# 5 0.0000 0.0000 0.0000 0.0000 58.3980 0.0000
# 6 0.0000 0.0000 0.0000 0.0000 0.0000 14.4174
#
#
#
# Elastic Compliance Matrix: (Units=1/GPa)
#
#
# Indices 1 2 3 4 5 6 
#
# 1 0.267532 -0.015383 -0.116303 0.000000 0.000000 0.000000
# 2 -0.015383 0.010601 0.006279 0.000000 0.000000 0.000000
# 3 -0.116303 0.006279 0.058215 0.000000 0.000000 0.000000
# 4 0.000000 0.000000 0.000000 0.036356 0.000000 0.000000
# 5 0.000000 0.000000 0.000000 0.000000 0.017124 0.000000
# 6 0.000000 0.000000 0.000000 0.000000 0.000000 0.069361
#
#
# Mechanical properties :
#
#
# Convention : Reuss Voigt Hill
#
# Bulk Modulus (GPa) = 11.69133 45.03343 28.36238
# Shear Modulus (GPa) = 6.77034 32.87074 19.82054
#
# Velocity S-wave (km/s) = 1.89253 4.17006 3.23814
# Velocity P-wave (km/s) = 3.31067 6.85636 5.38378
#
# Compressibility (1/GPa) = 0.08553346
#
# Stress axis : x y z
#
# Youngs Moduli (GPa) = 3.73786 94.32672 17.17769
#
# Poissons Ratio (x) = 1.45107 1.99782
# Poissons Ratio (y) = 0.05750 -0.10785
# Poissons Ratio (z) = 0.43472 -0.59224
#
# Static dielectric constant tensor:
#      x y z
#    x 1.624140 0.000000 0.000000 
#    y 0.000000 1.642730 0.000000 
#    z 0.000000 0.000000 1.726090 
# 
# From -- ./inp_files/4245.got.cif
#   From: 2010.05.17/outbox.cif.g08.bks.cpg/sg32_3_cif.got.tgz:4245.got - 2010.06.03 17:12:27.
