data_PCOD9343427
_publ_section_title
;
Structure prediction by ZEFSAII (Michael W. Deem and Ramdas Pophale) SiO2 
 PCOD9343427
Probable space group: P M N 21
;
_chemical_formula_sum "Si O2"
_cell_formula_units_Z 32
_cell_length_a 29.550389
_cell_length_b 9.350975
_cell_length_c 4.858748
_cell_angle_alpha 90.000000
_cell_angle_beta 90.000000
_cell_angle_gamma 90.000000
_cell_volume 1342.593292
_symmetry_space_group_name_H-M "P M N 21"
_symmetry_group_IT_number 31
_symmetry_cell_setting 'orthorhombic'
loop_
_space_group_symop_operation_xyz
x,y,z
1/2-x,-y,1/2+z
-x,y,z
1/2+x,-y,1/2+z
loop_
_atom_site_type_symbol
_atom_site_label
_atom_site_fract_x
_atom_site_fract_y
_atom_site_fract_z
Si Si1 0.234703 0.822519 0.619030
Si Si2 0.354974 0.195645 0.748723
Si Si3 0.858357 0.473225 0.174203
Si Si4 0.763606 0.423055 0.471539
Si Si5 0.053557 0.930964 0.489221
Si Si6 0.681779 0.937461 0.358923
Si Si7 0.050968 0.121580 0.993703
Si Si8 0.880659 0.300010 0.655761
O O1 0.190757 0.785951 0.432992
O O2 0.236881 0.717176 0.879437
O O3 0.287181 0.830737 0.533130
O O4 0.220674 0.981953 0.694837
O O5 0.363411 0.356589 0.641983
O O6 0.401717 0.160578 0.914641
O O7 0.344000 0.061234 0.538376
O O8 0.813192 0.434403 0.346304
O O9 0.892009 0.382926 0.375204
O O10 0.859007 0.410642 0.871195
O O11 0.760330 0.451819 0.792849
O O12 0.000000 0.886290 0.432171
O O13 0.054747 0.977887 0.806432
O O14 0.061884 0.072046 0.300979
O O15 0.651363 0.842265 0.155138
O O16 0.078421 0.239326 0.834517
O O17 0.000000 0.169404 0.994620
#
# Coordination Sequence:
#
# PCOD9343427 Si02
#       8
#     4   4   4   4   4   4   4   4
#     4  12  26  38  66  94 130 177 233 284 338 393
#     4  12  26  46  65  99 138 184 225 286 345 410
#     4  12  28  43  68  96 141 187 228 274 350 410
#     4  12  25  45  64  90 134 186 233 273 335 416
#     4  10  22  42  73 107 133 172 225 284 346 407
#     4  12  26  40  67  96 134 173 236 291 340 391
#     4  10  21  42  73 104 134 170 221 285 349 405
#     4  12  26  46  67 102 134 179 230 287 337 416
#
# _framework density 23.834472000000002
#
# number of rings (size 3 to 8) (size 9 to 14) (size 15 to 20)
#    0.000    0.500    5.000    3.000    5.250    0.000 
#    0.000    1.250    0.000    0.000    0.000    0.000 
#    0.000    0.000    0.000    0.000    0.000    0.000 
#
# Total GULP energy -178642.489135 kJ/mol
# GULP energy per Si atom -5582.577785 kJ/mol
# Density = 2.378022 g / cm^3
# Si number density = 23.834472 Si / 1000 Ang^3
#
#
#
# Elastic Constant Matrix: (Units=GPa)
#
#
# Indices 1 2 3 4 5 6 
#
# 1 102.0643 22.8902 13.8944 0.0000 0.0000 0.0000
# 2 22.8902 127.6535 23.5111 0.0000 0.0000 0.0000
# 3 13.8944 23.5111 91.5995 0.0000 0.0000 0.0000
# 4 0.0000 0.0000 0.0000 31.1766 0.0000 0.0000
# 5 0.0000 0.0000 0.0000 0.0000 31.2948 0.0000
# 6 0.0000 0.0000 0.0000 0.0000 0.0000 23.4059
#
#
#
# Elastic Compliance Matrix: (Units=1/GPa)
#
#
# Indices 1 2 3 4 5 6 
#
# 1 0.010321 -0.001640 -0.001145 0.000000 0.000000 0.000000
# 2 -0.001640 0.008483 -0.001929 0.000000 0.000000 0.000000
# 3 -0.001145 -0.001929 0.011586 0.000000 0.000000 0.000000
# 4 0.000000 0.000000 0.000000 0.032075 0.000000 0.000000
# 5 0.000000 0.000000 0.000000 0.000000 0.031954 0.000000
# 6 0.000000 0.000000 0.000000 0.000000 0.000000 0.042724
#
#
# Mechanical properties :
#
#
# Convention : Reuss Voigt Hill
#
# Bulk Modulus (GPa) = 47.70165 49.10099 48.40132
# Shear Modulus (GPa) = 32.56092 34.57689 33.56890
#
# Velocity S-wave (km/s) = 3.70013 3.81295 3.75696
# Velocity P-wave (km/s) = 6.18965 6.32695 6.25868
#
# Compressibility (1/GPa) = 0.02096363
#
# Stress axis : x y z
#
# Youngs Moduli (GPa) = 96.88637 117.88305 86.31302
#
# Poissons Ratio (x) = 0.19332 0.09880
# Poissons Ratio (y) = 0.15889 0.16646
# Poissons Ratio (z) = 0.11090 0.22735
#
# Static dielectric constant tensor:
#      x y z
#    x 2.003070 0.000000 0.000000 
#    y 0.000000 1.954980 0.000000 
#    z 0.000000 0.000000 1.970450 
# 
# From -- ./inp_files/1354.got.cif
#   From: 2010.05.17/outbox.cif.g08.bks.cpg/sg31_1_cif.got.tgz:1354.got - 2010.06.03 17:08:30.
