data_PCOD9343374
_publ_section_title
;
Structure prediction by ZEFSAII (Michael W. Deem and Ramdas Pophale) SiO2 
 PCOD9343374
Probable space group: P M N 21
;
_chemical_formula_sum "Si O2"
_cell_formula_units_Z 32
_cell_length_a 8.626537
_cell_length_b 12.221672
_cell_length_c 15.451756
_cell_angle_alpha 90.000000
_cell_angle_beta 90.000000
_cell_angle_gamma 90.000000
_cell_volume 1629.089540
_symmetry_space_group_name_H-M "P M N 21"
_symmetry_group_IT_number 31
_symmetry_cell_setting 'orthorhombic'
loop_
_space_group_symop_operation_xyz
x,y,z
1/2-x,-y,1/2+z
-x,y,z
1/2+x,-y,1/2+z
loop_
_atom_site_type_symbol
_atom_site_label
_atom_site_fract_x
_atom_site_fract_y
_atom_site_fract_z
Si Si1 0.320077 0.542522 0.605040
Si Si2 0.179679 0.472233 0.780757
Si Si3 0.819676 0.241314 0.998306
Si Si4 0.185037 0.405834 0.445872
Si Si5 0.811006 0.997722 0.279149
Si Si6 0.319373 0.250088 0.818416
Si Si7 0.687110 0.848154 0.937335
Si Si8 0.313951 0.992653 0.580826
O O1 0.500000 0.519679 0.625925
O O2 0.219230 0.527682 0.690181
O O3 0.308414 0.666246 0.570715
O O4 0.265854 0.463938 0.527298
O O5 0.273431 0.528450 0.858697
O O6 0.227149 0.345366 0.771169
O O7 0.000000 0.480339 0.802897
O O8 0.781170 0.122008 0.033892
O O9 0.000000 0.241321 0.967883
O O10 0.708612 0.270776 0.919688
O O11 0.234798 0.278858 0.436556
O O12 0.000000 0.408520 0.458754
O O13 0.765180 0.873661 0.302201
O O14 0.000000 0.001906 0.280424
O O15 0.757979 0.083401 0.352554
O O16 0.760803 0.016638 0.180334
O O17 0.500000 0.257461 0.795713
O O18 0.500000 0.850390 0.936030
O O19 0.742701 0.910667 0.023475
O O20 0.500000 0.007644 0.582320
#
# Coordination Sequence:
#
# PCOD9343374 Si02
#       8
#     4   4   4   4   4   4   4   4
#     4  11  24  42  65  92 125 166 209 255 313 371
#     4  12  26  43  63  91 127 163 208 260 312 371
#     4  10  21  38  63  91 121 158 204 260 312 362
#     4  11  24  42  65  92 125 166 209 257 314 371
#     4   9  20  38  61  89 119 158 199 245 302 362
#     4  11  21  38  65  90 120 159 206 255 309 370
#     4  10  22  41  62  87 123 161 202 252 304 363
#     4  10  21  38  62  90 122 161 205 248 302 366
#
# _framework density 19.642873999999999
#
# number of rings (size 3 to 8) (size 9 to 14) (size 15 to 20)
#    0.000    1.500    2.500    2.250    3.500    1.500 
#    0.000    1.250    0.000    0.000    0.000    0.000 
#    0.000    0.000    0.000    0.000    0.000    0.000 
#
# Total GULP energy -178783.388575 kJ/mol
# GULP energy per Si atom -5586.980893 kJ/mol
# Density = 1.959817 g / cm^3
# Si number density = 19.642874 Si / 1000 Ang^3
#
#
#
# Elastic Constant Matrix: (Units=GPa)
#
#
# Indices 1 2 3 4 5 6 
#
# 1 17.4176 11.8825 -13.4152 0.0000 0.0000 0.0000
# 2 11.8825 94.9825 -3.2360 0.0000 0.0000 0.0000
# 3 -13.4152 -3.2360 53.4220 0.0000 0.0000 0.0000
# 4 0.0000 0.0000 0.0000 22.8483 0.0000 0.0000
# 5 0.0000 0.0000 0.0000 0.0000 29.3383 0.0000
# 6 0.0000 0.0000 0.0000 0.0000 0.0000 18.8254
#
#
#
# Elastic Compliance Matrix: (Units=1/GPa)
#
#
# Indices 1 2 3 4 5 6 
#
# 1 0.078394 -0.009155 0.019132 0.000000 0.000000 0.000000
# 2 -0.009155 0.011619 -0.001595 0.000000 0.000000 0.000000
# 3 0.019132 -0.001595 0.023427 0.000000 0.000000 0.000000
# 4 0.000000 0.000000 0.000000 0.043767 0.000000 0.000000
# 5 0.000000 0.000000 0.000000 0.000000 0.034085 0.000000
# 6 0.000000 0.000000 0.000000 0.000000 0.000000 0.053120
#
#
# Mechanical properties :
#
#
# Convention : Reuss Voigt Hill
#
# Bulk Modulus (GPa) = 7.68039 17.36498 12.52269
# Shear Modulus (GPa) = 18.44673 25.57514 22.01093
#
# Velocity S-wave (km/s) = 3.06781 3.61225 3.35110
# Velocity P-wave (km/s) = 4.05797 5.12419 4.62193
#
# Compressibility (1/GPa) = 0.13020176
#
# Stress axis : x y z
#
# Youngs Moduli (GPa) = 12.75602 86.06389 42.68669
#
# Poissons Ratio (x) = 0.78796 -0.81666
# Poissons Ratio (y) = 0.11679 0.06810
# Poissons Ratio (z) = -0.24404 0.13730
#
# Static dielectric constant tensor:
#      x y z
#    x 1.674550 0.000000 0.000000 
#    y 0.000000 1.688300 0.000000 
#    z 0.000000 0.000000 1.669560 
# 
# From -- ./inp_files/4952.got.cif
#   From: 2010.05.17/outbox.cif.g08.bks.cpg/sg31_3_cif.got.tgz:4952.got - 2010.06.03 17:08:30.
