data_PCOD9343428
_publ_section_title
;
Structure prediction by ZEFSAII (Michael W. Deem and Ramdas Pophale) SiO2 
 PCOD9343428
Probable space group: P M N 21
;
_chemical_formula_sum "Si O2"
_cell_formula_units_Z 20
_cell_length_a 30.556071
_cell_length_b 4.872131
_cell_length_c 5.387264
_cell_angle_alpha 90.000000
_cell_angle_beta 90.000000
_cell_angle_gamma 90.000000
_cell_volume 802.019127
_symmetry_space_group_name_H-M "P M N 21"
_symmetry_group_IT_number 31
_symmetry_cell_setting 'orthorhombic'
loop_
_space_group_symop_operation_xyz
x,y,z
1/2-x,-y,1/2+z
-x,y,z
1/2+x,-y,1/2+z
loop_
_atom_site_type_symbol
_atom_site_label
_atom_site_fract_x
_atom_site_fract_y
_atom_site_fract_z
Si Si1 0.906817 0.846425 0.136330
Si Si2 0.224101 0.003266 0.829929
Si Si3 0.164014 0.501941 0.829590
Si Si4 0.000000 0.712080 0.969703
Si Si5 0.594703 0.666896 0.945062
Si Si6 0.000000 0.367391 0.476657
O O1 0.912834 0.649953 0.375268
O O2 0.891729 0.145487 0.214628
O O3 0.870286 0.679110 0.990121
O O4 0.954145 0.865110 0.008798
O O5 0.196125 0.264882 0.924632
O O6 0.250637 0.090001 0.581217
O O7 0.195171 0.746389 0.733155
O O8 0.132914 0.337126 0.640513
O O9 0.000000 0.584517 0.698746
O O10 0.000000 0.485506 0.194577
O O11 0.546511 0.781049 0.011672
#
# Coordination Sequence:
#
# PCOD9343428 Si02
#       6
#     4   4   4   2   4   2
#     4  11  24  43  71 108 152 200 251 308 368 449
#     4  12  30  52  78 107 146 189 244 318 400 472
#     4  12  26  47  78 108 144 194 250 315 382 468
#     4  10  21  44  66 105 155 205 250 304 368 435
#     4  11  24  43  71 108 152 200 251 308 368 449
#     4  10  21  44  66 105 155 205 250 304 368 435
#
# _framework density 24.937063999999999
#
# number of rings (size 3 to 8) (size 9 to 14) (size 15 to 20)
#    0.000    0.800    2.000    4.200    8.400    0.000 
#    0.000    4.000    0.000    0.000    0.000    0.000 
#    0.000    0.000    0.000    0.000    0.000    0.000 
#
# Total GULP energy -111794.015095 kJ/mol
# GULP energy per Si atom -5589.700755 kJ/mol
# Density = 2.488031 g / cm^3
# Si number density = 24.937064 Si / 1000 Ang^3
#
#
#
# Elastic Constant Matrix: (Units=GPa)
#
#
# Indices 1 2 3 4 5 6 
#
# 1 122.9142 34.2070 43.8330 0.0000 0.0000 0.0000
# 2 34.2070 121.4833 23.7462 0.0000 0.0000 0.0000
# 3 43.8330 23.7462 101.9145 0.0000 0.0000 0.0000
# 4 0.0000 0.0000 0.0000 47.5654 0.0000 0.0000
# 5 0.0000 0.0000 0.0000 0.0000 37.8758 0.0000
# 6 0.0000 0.0000 0.0000 0.0000 0.0000 128.9498
#
#
#
# Elastic Compliance Matrix: (Units=1/GPa)
#
#
# Indices 1 2 3 4 5 6 
#
# 1 0.010091 -0.002088 -0.003854 0.000000 0.000000 0.000000
# 2 -0.002088 0.009056 -0.001212 0.000000 0.000000 0.000000
# 3 -0.003854 -0.001212 0.011752 0.000000 0.000000 0.000000
# 4 0.000000 0.000000 0.000000 0.021024 0.000000 0.000000
# 5 0.000000 0.000000 0.000000 0.000000 0.026402 0.000000
# 6 0.000000 0.000000 0.000000 0.000000 0.000000 0.007755
#
#
# Mechanical properties :
#
#
# Convention : Reuss Voigt Hill
#
# Bulk Modulus (GPa) = 60.27030 61.09827 60.68428
# Shear Modulus (GPa) = 47.20602 59.17992 53.19297
#
# Velocity S-wave (km/s) = 4.35559 4.87681 4.62355
# Velocity P-wave (km/s) = 7.03678 7.50101 7.27260
#
# Compressibility (1/GPa) = 0.01659192
#
# Stress axis : x y z
#
# Youngs Moduli (GPa) = 99.09675 110.41806 85.09201
#
# Poissons Ratio (x) = 0.23057 0.32791
# Poissons Ratio (y) = 0.20693 0.10314
# Poissons Ratio (z) = 0.38188 0.13383
#
# Static dielectric constant tensor:
#      x y z
#    x 2.024380 0.000000 0.000000 
#    y 0.000000 1.996670 0.000000 
#    z 0.000000 0.000000 2.044630 
# 
# From -- ./inp_files/1294.got.cif
#   From: 2010.05.17/outbox.cif.g08.bks.cpg/sg31_1_cif.got.tgz:1294.got - 2010.06.03 17:08:30.
