data_PCOD9343473
_publ_section_title
;
Structure prediction by ZEFSAII (Michael W. Deem and Ramdas Pophale) SiO2 
 PCOD9343473
Probable space group: P M N 21
;
_chemical_formula_sum "Si O2"
_cell_formula_units_Z 32
_cell_length_a 15.259015
_cell_length_b 9.417581
_cell_length_c 11.391988
_cell_angle_alpha 90.000000
_cell_angle_beta 90.000000
_cell_angle_gamma 90.000000
_cell_volume 1637.062963
_symmetry_space_group_name_H-M "P M N 21"
_symmetry_group_IT_number 31
_symmetry_cell_setting 'orthorhombic'
loop_
_space_group_symop_operation_xyz
x,y,z
1/2-x,-y,1/2+z
-x,y,z
1/2+x,-y,1/2+z
loop_
_atom_site_type_symbol
_atom_site_label
_atom_site_fract_x
_atom_site_fract_y
_atom_site_fract_z
Si Si1 0.337981 0.877619 0.373570
Si Si2 0.329876 0.324099 0.857597
Si Si3 0.099592 0.036354 0.623037
Si Si4 0.602854 0.304309 0.118381
Si Si5 0.733318 0.621425 0.763915
Si Si6 0.900951 0.183102 0.128104
Si Si7 0.598658 0.141649 0.659914
Si Si8 0.244021 0.836679 0.972331
O O1 0.259846 0.765067 0.365483
O O2 0.388314 0.895609 0.251730
O O3 0.393665 0.835942 0.487866
O O4 0.295358 0.030514 0.401122
O O5 0.307272 0.469623 0.792524
O O6 0.393813 0.228176 0.779171
O O7 0.370064 0.345396 0.986206
O O8 0.169426 0.108503 0.537672
O O9 0.000000 0.055144 0.581857
O O10 0.116751 0.866661 0.629730
O O11 0.500000 0.332850 0.140165
O O12 0.670088 0.380443 0.206530
O O13 0.670250 0.708112 0.675919
O O14 0.738388 0.709276 0.884576
O O15 0.000000 0.223415 0.160881
O O16 0.881660 0.025396 0.178755
O O17 0.500000 0.149539 0.611278
O O18 0.671054 0.199118 0.570122
#
# Coordination Sequence:
#
# PCOD9343473 Si02
#       8
#     4   4   4   4   4   4   4   4
#     4  11  20  41  66  93 128 165 216 269 325 377
#     4  12  24  40  67  90 130 176 215 261 321 389
#     4  11  22  39  70 103 128 166 219 275 328 380
#     4  11  24  44  67  96 130 170 217 272 329 388
#     4  12  26  42  64  94 132 178 212 256 326 387
#     4  10  22  41  67  95 129 165 212 271 321 375
#     4  10  22  40  67  97 122 161 215 267 319 378
#     4  11  22  39  64  94 131 165 210 269 319 384
#
# _framework density 19.547201999999999
#
# number of rings (size 3 to 8) (size 9 to 14) (size 15 to 20)
#    0.000    1.000    5.000    2.250    1.750    2.500 
#    0.000    2.500    0.000    0.000    0.000    0.000 
#    0.000    0.000    0.000    0.000    0.000    0.000 
#
# Total GULP energy -178926.133796 kJ/mol
# GULP energy per Si atom -5591.441681 kJ/mol
# Density = 1.950271 g / cm^3
# Si number density = 19.547202 Si / 1000 Ang^3
#
#
#
# Elastic Constant Matrix: (Units=GPa)
#
#
# Indices 1 2 3 4 5 6 
#
# 1 101.0287 21.2854 31.0678 0.0000 0.0000 0.0000
# 2 21.2854 48.8623 18.7536 0.0000 0.0000 0.0000
# 3 31.0678 18.7536 61.9081 0.0000 0.0000 0.0000
# 4 0.0000 0.0000 0.0000 0.7473 0.0000 0.0000
# 5 0.0000 0.0000 0.0000 0.0000 3.2165 0.0000
# 6 0.0000 0.0000 0.0000 0.0000 0.0000 -11.0957
#
#
#
# Elastic Compliance Matrix: (Units=1/GPa)
#
#
# Indices 1 2 3 4 5 6 
#
# 1 0.012170 -0.003346 -0.005093 0.000000 0.000000 0.000000
# 2 -0.003346 0.024078 -0.005615 0.000000 0.000000 0.000000
# 3 -0.005093 -0.005615 0.020410 0.000000 0.000000 0.000000
# 4 0.000000 0.000000 0.000000 1.338104 0.000000 0.000000
# 5 0.000000 0.000000 0.000000 0.000000 0.310895 0.000000
# 6 0.000000 0.000000 0.000000 0.000000 0.000000 -0.090125
#
#
# Mechanical properties :
#
#
# Convention : Reuss Voigt Hill
#
# Bulk Modulus (GPa) = 35.02770 39.33478 37.18124
# Shear Modulus (GPa) = 3.02452 7.95311 5.48881
#
# Velocity S-wave (km/s) = 1.24525 2.01928 1.67752
# Velocity P-wave (km/s) = 4.47504 5.05997 4.77647
#
# Compressibility (1/GPa) = 0.02854884
#
# Stress axis : x y z
#
# Youngs Moduli (GPa) = 82.17252 41.53108 48.99593
#
# Poissons Ratio (x) = 0.13898 0.24956
# Poissons Ratio (y) = 0.27498 0.27509
# Poissons Ratio (z) = 0.41854 0.23318
#
# Static dielectric constant tensor:
#      x y z
#    x 1.686060 0.000000 0.000000 
#    y 0.000000 1.656150 0.000000 
#    z 0.000000 0.000000 1.687320 
# 
# From -- ./inp_files/4263.got.cif
#   From: 2010.05.17/outbox.cif.g08.bks.cpg/sg31_3_cif.got.tgz:4263.got - 2010.06.03 17:08:30.
