data_PCOD9343402
_publ_section_title
;
Structure prediction by ZEFSAII (Michael W. Deem and Ramdas Pophale) SiO2 
 PCOD9343402
Probable space group: P M N 21
;
_chemical_formula_sum "Si O2"
_cell_formula_units_Z 32
_cell_length_a 27.208573
_cell_length_b 9.100976
_cell_length_c 5.994173
_cell_angle_alpha 90.000000
_cell_angle_beta 90.000000
_cell_angle_gamma 90.000000
_cell_volume 1484.304511
_symmetry_space_group_name_H-M "P M N 21"
_symmetry_group_IT_number 31
_symmetry_cell_setting 'orthorhombic'
loop_
_space_group_symop_operation_xyz
x,y,z
1/2-x,-y,1/2+z
-x,y,z
1/2+x,-y,1/2+z
loop_
_atom_site_type_symbol
_atom_site_label
_atom_site_fract_x
_atom_site_fract_y
_atom_site_fract_z
Si Si1 0.231187 0.943267 0.575770
Si Si2 0.633715 0.312124 0.648524
Si Si3 0.883961 0.230491 0.002321
Si Si4 0.776900 0.622401 0.428852
Si Si5 0.942917 0.175379 0.607416
Si Si6 0.172610 0.484275 0.794839
Si Si7 0.441387 0.548058 0.822163
Si Si8 0.633439 0.996426 0.829553
O O1 0.235371 0.765905 0.575026
O O2 0.173903 0.977748 0.520272
O O3 0.255056 0.996737 0.328719
O O4 0.638916 0.391289 0.409045
O O5 0.592886 0.404979 0.788359
O O6 0.622781 0.142369 0.689100
O O7 0.691268 0.319696 0.723236
O O8 0.849955 0.327853 0.845828
O O9 0.918775 0.341032 0.138738
O O10 0.850309 0.130754 0.158745
O O11 0.919761 0.140122 0.845301
O O12 0.728430 0.530686 0.384169
O O13 0.817711 0.519249 0.541013
O O14 0.935945 0.349313 0.543193
O O15 0.000000 0.148176 0.600989
O O16 0.915084 0.072965 0.433720
O O17 0.500000 0.519866 0.792631
#
# Coordination Sequence:
#
# PCOD9343402 Si02
#       8
#     4   4   4   4   4   4   4   4
#     4  11  27  44  67  98 137 184 229 279 344 410
#     4  10  22  40  58  89 123 170 206 275 333 399
#     4  10  21  39  64  93 123 171 218 275 336 409
#     4  11  23  38  62  87 128 169 219 275 327 409
#     4  10  21  39  65  92 125 166 221 283 344 411
#     4  11  22  38  61  86 124 166 219 269 337 395
#     4   9  19  38  62  90 120 161 217 271 334 402
#     4  10  24  40  62  93 135 169 222 279 339 413
#
# _framework density 21.558917999999998
#
# number of rings (size 3 to 8) (size 9 to 14) (size 15 to 20)
#    0.000    1.750    1.250    1.875    7.000    2.000 
#    0.000    0.000    0.000    0.000    0.000    0.000 
#    0.000    0.000    0.000    0.000    0.000    0.000 
#
# Total GULP energy -178249.820497 kJ/mol
# GULP energy per Si atom -5570.306891 kJ/mol
# Density = 2.150985 g / cm^3
# Si number density = 21.558918 Si / 1000 Ang^3
#
#
#
# Elastic Constant Matrix: (Units=GPa)
#
#
# Indices 1 2 3 4 5 6 
#
# 1 85.8872 19.9933 9.6458 0.0000 0.0000 0.0000
# 2 19.9933 70.8280 8.5412 0.0000 0.0000 0.0000
# 3 9.6458 8.5412 27.6187 0.0000 0.0000 0.0000
# 4 0.0000 0.0000 0.0000 15.5173 0.0000 0.0000
# 5 0.0000 0.0000 0.0000 0.0000 2.5552 0.0000
# 6 0.0000 0.0000 0.0000 0.0000 0.0000 24.7452
#
#
#
# Elastic Compliance Matrix: (Units=1/GPa)
#
#
# Indices 1 2 3 4 5 6 
#
# 1 0.012775 -0.003187 -0.003476 0.000000 0.000000 0.000000
# 2 -0.003187 0.015461 -0.003668 0.000000 0.000000 0.000000
# 3 -0.003476 -0.003668 0.038556 0.000000 0.000000 0.000000
# 4 0.000000 0.000000 0.000000 0.064444 0.000000 0.000000
# 5 0.000000 0.000000 0.000000 0.000000 0.391359 0.000000
# 6 0.000000 0.000000 0.000000 0.000000 0.000000 0.040412
#
#
# Mechanical properties :
#
#
# Convention : Reuss Voigt Hill
#
# Bulk Modulus (GPa) = 21.67833 28.96606 25.32219
# Shear Modulus (GPa) = 8.34660 18.30713 13.32686
#
# Velocity S-wave (km/s) = 1.96975 2.91721 2.48898
# Velocity P-wave (km/s) = 3.90518 4.98114 4.47561
#
# Compressibility (1/GPa) = 0.04612902
#
# Stress axis : x y z
#
# Youngs Moduli (GPa) = 78.27494 64.68017 25.93645
#
# Poissons Ratio (x) = 0.20614 0.09016
# Poissons Ratio (y) = 0.24947 0.09514
# Poissons Ratio (z) = 0.27210 0.23726
#
# Static dielectric constant tensor:
#      x y z
#    x 1.782680 0.000000 0.000000 
#    y 0.000000 1.819750 0.000000 
#    z 0.000000 0.000000 1.882720 
# 
# From -- ./inp_files/1364.got.cif
#   From: 2010.05.17/outbox.cif.g08.bks.cpg/sg31_1_cif.got.tgz:1364.got - 2010.06.03 17:08:30.
