data_PCOD9343669
_publ_section_title
;
Structure prediction by ZEFSAII (Michael W. Deem and Ramdas Pophale) SiO2 
 PCOD9343669
Probable space group: P B A 2
;
_chemical_formula_sum "Si O2"
_cell_formula_units_Z 24
_cell_length_a 32.805249
_cell_length_b 4.985329
_cell_length_c 7.731590
_cell_angle_alpha 90.000000
_cell_angle_beta 90.000000
_cell_angle_gamma 90.000000
_cell_volume 1264.462571
_symmetry_space_group_name_H-M "P B A 2"
_symmetry_group_IT_number 32
_symmetry_cell_setting 'orthorhombic'
loop_
_space_group_symop_operation_xyz
x,y,z
-x,-y,z
1/2-x,1/2+y,z
1/2+x,1/2-y,z
loop_
_atom_site_type_symbol
_atom_site_label
_atom_site_fract_x
_atom_site_fract_y
_atom_site_fract_z
Si Si1 0.074543 0.936092 0.811520
Si Si2 0.720103 0.740908 0.422657
Si Si3 0.574992 0.068236 0.045031
Si Si4 0.000000 0.500000 0.296858
Si Si5 0.642918 0.525146 0.548541
Si Si6 0.000000 0.000000 0.548436
Si Si7 0.642443 0.985587 0.319752
O O1 0.066666 0.138709 0.968985
O O2 0.116690 0.016664 0.718170
O O3 0.076926 0.638108 0.886480
O O4 0.038806 0.961889 0.672128
O O5 0.747375 0.477367 0.418877
O O6 0.687014 0.669111 0.573864
O O7 0.685975 0.840146 0.283279
O O8 0.539083 0.979941 0.173219
O O9 0.616652 0.060009 0.153629
O O10 0.994240 0.749903 0.422843
O O11 0.620185 0.751066 0.430863
O O12 0.648141 0.250748 0.439028
#
# Coordination Sequence:
#
# PCOD9343669 Si02
#       7
#     4   4   4   2   4   2   4
#     4  12  24  39  60  89 125 159 195 242 303 352
#     4  10  18  34  62  90 112 148 204 254 290 346
#     4  12  24  39  60  89 125 159 195 242 303 352
#     4  12  24  42  64  86 122 158 208 246 280 346
#     4  10  20  36  60  87 116 152 205 238 295 344
#     4  12  24  42  64  86 122 158 208 246 280 346
#     4  10  20  36  60  87 116 152 205 238 295 344
#
# _framework density 18.980397
#
# number of rings (size 3 to 8) (size 9 to 14) (size 15 to 20)
#    1.000    0.000    1.667    7.000    0.000    0.000 
#    0.000    0.000    0.000    6.000    0.000    0.000 
#    0.000    0.000    0.000    0.000    0.000    0.000 
#
# Total GULP energy -133687.556686 kJ/mol
# GULP energy per Si atom -5570.314862 kJ/mol
# Density = 1.893720 g / cm^3
# Si number density = 18.980397 Si / 1000 Ang^3
#
#
#
# Elastic Constant Matrix: (Units=GPa)
#
#
# Indices 1 2 3 4 5 6 
#
# 1 93.9586 -10.2230 27.9423 0.0000 0.0000 0.0000
# 2 -10.2230 96.1985 3.4894 0.0000 0.0000 0.0000
# 3 27.9423 3.4894 51.4785 0.0000 0.0000 0.0000
# 4 0.0000 0.0000 0.0000 38.9793 0.0000 0.0000
# 5 0.0000 0.0000 0.0000 0.0000 8.6423 0.0000
# 6 0.0000 0.0000 0.0000 0.0000 0.0000 23.5600
#
#
#
# Elastic Compliance Matrix: (Units=1/GPa)
#
#
# Indices 1 2 3 4 5 6 
#
# 1 0.012943 0.001634 -0.007136 0.000000 0.000000 0.000000
# 2 0.001634 0.010627 -0.001607 0.000000 0.000000 0.000000
# 3 -0.007136 -0.001607 0.023408 0.000000 0.000000 0.000000
# 4 0.000000 0.000000 0.000000 0.025655 0.000000 0.000000
# 5 0.000000 0.000000 0.000000 0.000000 0.115710 0.000000
# 6 0.000000 0.000000 0.000000 0.000000 0.000000 0.042445
#
#
# Mechanical properties :
#
#
# Convention : Reuss Voigt Hill
#
# Bulk Modulus (GPa) = 30.52543 31.56144 31.04343
# Shear Modulus (GPa) = 19.53689 28.93145 24.23417
#
# Velocity S-wave (km/s) = 3.21178 3.90844 3.57711
# Velocity P-wave (km/s) = 5.46549 6.08543 5.78377
#
# Compressibility (1/GPa) = 0.03275957
#
# Stress axis : x y z
#
# Youngs Moduli (GPa) = 77.26170 94.09856 42.72042
#
# Poissons Ratio (x) = -0.15378 0.30486
# Poissons Ratio (y) = -0.12627 0.06867
# Poissons Ratio (z) = 0.55135 0.15126
#
# Static dielectric constant tensor:
#      x y z
#    x 1.692200 0.000000 0.000000 
#    y 0.000000 1.711680 0.000000 
#    z 0.000000 0.000000 1.655380 
# 
# From -- ./inp_files/1792.got.cif
#   From: 2010.05.17/outbox.cif.g08.bks.cpg/sg32_1_cif.got.tgz:1792.got - 2010.06.03 17:12:27.
