data_PCOD9343558
_publ_section_title
;
Structure prediction by ZEFSAII (Michael W. Deem and Ramdas Pophale) SiO2 
 PCOD9343558
Probable space group: P M N 21
;
_chemical_formula_sum "Si O2"
_cell_formula_units_Z 24
_cell_length_a 17.395911
_cell_length_b 5.022247
_cell_length_c 12.722323
_cell_angle_alpha 90.000000
_cell_angle_beta 90.000000
_cell_angle_gamma 90.000000
_cell_volume 1111.505619
_symmetry_space_group_name_H-M "P M N 21"
_symmetry_group_IT_number 31
_symmetry_cell_setting 'orthorhombic'
loop_
_space_group_symop_operation_xyz
x,y,z
1/2-x,-y,1/2+z
-x,y,z
1/2+x,-y,1/2+z
loop_
_atom_site_type_symbol
_atom_site_label
_atom_site_fract_x
_atom_site_fract_y
_atom_site_fract_z
Si Si1 0.340676 0.180165 0.356840
Si Si2 0.145273 0.714229 0.367702
Si Si3 0.258647 0.035523 0.699285
Si Si4 0.811869 0.232668 0.482872
Si Si5 0.912256 0.336428 0.189145
Si Si6 0.413994 0.658808 0.449853
O O1 0.313983 0.133626 0.238752
O O2 0.262774 0.273926 0.411141
O O3 0.401616 0.409135 0.374859
O O4 0.363205 0.908129 0.415864
O O5 0.146604 0.511147 0.465272
O O6 0.094116 0.564276 0.278576
O O7 0.221011 0.761547 0.293992
O O8 0.138154 0.000065 0.426139
O O9 0.339225 0.867744 0.694558
O O10 0.226851 0.165700 0.593776
O O11 0.000000 0.221482 0.196435
O O12 0.902812 0.441685 0.069732
O O13 0.500000 0.761392 0.443237
#
# Coordination Sequence:
#
# PCOD9343558 Si02
#       6
#     4   4   4   4   4   4
#     4  11  21  39  63  93 122 165 204 261 310 374
#     4  11  23  40  59  94 128 167 203 271 312 371
#     4  11  24  39  70  94 128 167 225 258 322 378
#     4  11  23  38  64  91 130 158 219 263 307 374
#     4  11  24  40  64  96 134 169 205 261 331 390
#     4  11  24  40  62  94 129 160 200 260 327 381
#
# _framework density 21.592334999999999
#
# number of rings (size 3 to 8) (size 9 to 14) (size 15 to 20)
#    0.000    1.000    5.000    3.500    2.333    0.667 
#    0.000    0.000    0.000    6.000    0.000    0.000 
#    0.000    0.000    0.000    0.000    0.000    0.000 
#
# Total GULP energy -133603.964234 kJ/mol
# GULP energy per Si atom -5566.831843 kJ/mol
# Density = 2.154319 g / cm^3
# Si number density = 21.592335 Si / 1000 Ang^3
#
#
#
# Elastic Constant Matrix: (Units=GPa)
#
#
# Indices 1 2 3 4 5 6 
#
# 1 69.4713 20.8445 21.5102 0.0000 0.0000 0.0000
# 2 20.8445 92.6124 32.0174 0.0000 0.0000 0.0000
# 3 21.5102 32.0174 58.3338 0.0000 0.0000 0.0000
# 4 0.0000 0.0000 0.0000 21.3038 0.0000 0.0000
# 5 0.0000 0.0000 0.0000 0.0000 24.9815 0.0000
# 6 0.0000 0.0000 0.0000 0.0000 0.0000 18.9449
#
#
#
# Elastic Compliance Matrix: (Units=1/GPa)
#
#
# Indices 1 2 3 4 5 6 
#
# 1 0.016542 -0.001992 -0.005006 0.000000 0.000000 0.000000
# 2 -0.001992 0.013566 -0.006711 0.000000 0.000000 0.000000
# 3 -0.005006 -0.006711 0.022672 0.000000 0.000000 0.000000
# 4 0.000000 0.000000 0.000000 0.046940 0.000000 0.000000
# 5 0.000000 0.000000 0.000000 0.000000 0.040030 0.000000
# 6 0.000000 0.000000 0.000000 0.000000 0.000000 0.052785
#
#
# Mechanical properties :
#
#
# Convention : Reuss Voigt Hill
#
# Bulk Modulus (GPa) = 39.43093 41.01798 40.22445
# Shear Modulus (GPa) = 21.89053 22.78241 22.33647
#
# Velocity S-wave (km/s) = 3.18749 3.25178 3.21980
# Velocity P-wave (km/s) = 5.64340 5.75643 5.70020
#
# Compressibility (1/GPa) = 0.02536080
#
# Stress axis : x y z
#
# Youngs Moduli (GPa) = 60.45090 73.71166 44.10643
#
# Poissons Ratio (x) = 0.14687 0.22081
# Poissons Ratio (y) = 0.12045 0.29602
# Poissons Ratio (z) = 0.30263 0.49471
#
# Static dielectric constant tensor:
#      x y z
#    x 1.839510 0.000000 0.000000 
#    y 0.000000 1.928490 0.000000 
#    z 0.000000 0.000000 1.842610 
# 
# From -- ./inp_files/4344.got.cif
#   From: 2010.05.17/outbox.cif.g08.bks.cpg/sg31_3_cif.got.tgz:4344.got - 2010.06.03 17:08:30.
