data_PCOD9343064
_publ_section_title
;
Structure prediction by ZEFSAII (Michael W. Deem and Ramdas Pophale) SiO2 
 PCOD9343064
Probable space group: P M N 21
;
_chemical_formula_sum "Si O2"
_cell_formula_units_Z 32
_cell_length_a 9.458029
_cell_length_b 5.253083
_cell_length_c 28.924793
_cell_angle_alpha 90.000000
_cell_angle_beta 90.000000
_cell_angle_gamma 90.000000
_cell_volume 1437.093959
_symmetry_space_group_name_H-M "P M N 21"
_symmetry_group_IT_number 31
_symmetry_cell_setting 'orthorhombic'
loop_
_space_group_symop_operation_xyz
x,y,z
1/2-x,-y,1/2+z
-x,y,z
1/2+x,-y,1/2+z
loop_
_atom_site_type_symbol
_atom_site_label
_atom_site_fract_x
_atom_site_fract_y
_atom_site_fract_z
Si Si1 0.656325 0.515013 0.529340
Si Si2 0.668085 0.872634 0.801001
Si Si3 0.826839 0.366912 0.762715
Si Si4 0.350209 0.544029 0.886330
Si Si5 0.330032 0.360035 0.666162
Si Si6 0.332493 0.871857 0.608215
Si Si7 0.848431 0.222219 0.931345
Si Si8 0.847045 0.176906 0.480064
O O1 0.500000 0.441104 0.547546
O O2 0.717336 0.742512 0.560306
O O3 0.762599 0.283812 0.523551
O O4 0.634621 0.601454 0.476644
O O5 0.500000 0.884500 0.786618
O O6 0.752783 0.632222 0.778876
O O7 0.666758 0.792318 0.855032
O O8 0.752160 0.129862 0.789396
O O9 0.000000 0.369818 0.766152
O O10 0.769808 0.332323 0.710384
O O11 0.500000 0.421270 0.871039
O O12 0.364916 0.608465 0.940398
O O13 0.212940 0.369700 0.887470
O O14 0.500000 0.327213 0.676840
O O15 0.286561 0.139809 0.629619
O O16 0.313063 0.641766 0.644874
O O17 0.500000 0.904481 0.600712
O O18 0.740334 0.022392 0.951034
O O19 0.000000 0.103607 0.920786
O O20 0.000000 0.078394 0.493316
#
# Coordination Sequence:
#
# PCOD9343064 Si02
#       8
#     4   4   4   4   4   4   4   4
#     4   9  19  35  54  82 115 152 198 249 298 348
#     4  11  24  44  70  96 125 170 222 263 309 387
#     4  12  26  44  66  98 135 166 202 266 335 384
#     4   9  21  39  58  82 114 155 204 253 299 355
#     4  10  20  38  63  90 118 160 208 252 305 377
#     4   9  19  34  61  91 117 152 207 260 297 354
#     4  10  20  33  55  83 117 156 195 245 304 361
#     4  10  20  35  55  80 115 157 200 246 297 360
#
# _framework density 22.267158999999999
#
# number of rings (size 3 to 8) (size 9 to 14) (size 15 to 20)
#    0.000    2.000    0.000    3.000    3.500    3.000 
#    0.000    1.250    0.000    0.000    0.000    0.000 
#    0.000    0.000    0.000    0.000    0.000    0.000 
#
# Total GULP energy -178372.857834 kJ/mol
# GULP energy per Si atom -5574.151807 kJ/mol
# Density = 2.221648 g / cm^3
# Si number density = 22.267159 Si / 1000 Ang^3
#
#
#
# Elastic Constant Matrix: (Units=GPa)
#
#
# Indices 1 2 3 4 5 6 
#
# 1 151.7294 46.3171 21.6519 0.0000 0.0000 0.0000
# 2 46.3171 95.7173 16.4234 0.0000 0.0000 0.0000
# 3 21.6519 16.4234 75.6314 0.0000 0.0000 0.0000
# 4 0.0000 0.0000 0.0000 33.1263 0.0000 0.0000
# 5 0.0000 0.0000 0.0000 0.0000 116.0054 0.0000
# 6 0.0000 0.0000 0.0000 0.0000 0.0000 -14.9780
#
#
#
# Elastic Compliance Matrix: (Units=1/GPa)
#
#
# Indices 1 2 3 4 5 6 
#
# 1 0.007890 -0.003563 -0.001485 0.000000 0.000000 0.000000
# 2 -0.003563 0.012461 -0.001686 0.000000 0.000000 0.000000
# 3 -0.001485 -0.001686 0.014013 0.000000 0.000000 0.000000
# 4 0.000000 0.000000 0.000000 0.030188 0.000000 0.000000
# 5 0.000000 0.000000 0.000000 0.000000 0.008620 0.000000
# 6 0.000000 0.000000 0.000000 0.000000 0.000000 -0.066764
#
#
# Mechanical properties :
#
#
# Convention : Reuss Voigt Hill
#
# Bulk Modulus (GPa) = 47.85563 54.65143 51.25353
# Shear Modulus (GPa) = 186.27800 42.74310 114.51055
#
# Velocity S-wave (km/s) = 9.15628 4.38603 7.17896
# Velocity P-wave (km/s) = 11.54650 7.08847 9.58040
#
# Compressibility (1/GPa) = 0.02089618
#
# Stress axis : x y z
#
# Youngs Moduli (GPa) = 126.73733 80.25080 71.36108
#
# Poissons Ratio (x) = 0.28596 0.10598
# Poissons Ratio (y) = 0.45160 0.12030
# Poissons Ratio (z) = 0.18822 0.13529
#
# Static dielectric constant tensor:
#      x y z
#    x -1.570010 0.000000 0.000000 
#    y 0.000000 1.880770 0.000000 
#    z 0.000000 0.000000 1.860960 
# 
# From -- ./inp_files/6611.got.cif
#   From: 2010.05.17/outbox.cif.g08.bks.cpg/sg31_4_cif.got.tgz:6611.got - 2010.06.03 17:08:30.
