data_PCOD9343992
_publ_section_title
;
Structure prediction by ZEFSAII (Michael W. Deem and Ramdas Pophale) SiO2 
 PCOD9343992
Probable space group: P B A 2
;
_chemical_formula_sum "Si O2"
_cell_formula_units_Z 30
_cell_length_a 26.218189
_cell_length_b 5.708438
_cell_length_c 8.577399
_cell_angle_alpha 90.000000
_cell_angle_beta 90.000000
_cell_angle_gamma 90.000000
_cell_volume 1283.735618
_symmetry_space_group_name_H-M "P B A 2"
_symmetry_group_IT_number 32
_symmetry_cell_setting 'orthorhombic'
loop_
_space_group_symop_operation_xyz
x,y,z
-x,-y,z
1/2-x,1/2+y,z
1/2+x,1/2-y,z
loop_
_atom_site_type_symbol
_atom_site_label
_atom_site_fract_x
_atom_site_fract_y
_atom_site_fract_z
Si Si1 0.409059 0.858440 0.510220
Si Si2 0.776714 0.217836 0.619730
Si Si3 0.641476 0.068551 0.027965
Si Si4 0.000000 0.500000 0.733472
Si Si5 0.560528 0.683134 0.938093
Si Si6 0.643285 0.416948 0.770138
Si Si7 0.082073 0.068852 0.229199
Si Si8 0.335559 0.200522 0.316043
O O1 0.451084 0.964801 0.624120
O O2 0.366880 0.722986 0.611830
O O3 0.436284 0.675862 0.391640
O O4 0.377608 0.050309 0.413017
O O5 0.756344 0.480437 0.650505
O O6 0.791923 0.230767 0.437071
O O7 0.825292 0.147394 0.724653
O O8 0.599984 0.215697 0.125180
O O9 0.676852 0.944819 0.158600
O O10 0.666151 0.245046 0.902598
O O11 0.605528 0.876416 0.948120
O O12 0.012852 0.713243 0.848763
O O13 0.588163 0.485586 0.836737
O O14 0.550915 0.601666 0.115487
O O15 0.134399 0.930756 0.264057
#
# Coordination Sequence:
#
# PCOD9343992 Si02
#       8
#     4   4   4   2   4   4   4   4
#     4  11  22  40  69  96 133 182 234 291 342 424
#     4  12  27  42  70 110 142 177 232 304 360 428
#     4   9  20  40  70  92 124 184 231 268 345 440
#     4  12  24  38  64 102 140 172 244 306 346 404
#     4  10  22  41  66  93 134 185 228 286 348 424
#     4  11  22  43  71  93 132 186 225 283 366 434
#     4   9  20  41  68  91 120 188 224 273 348 425
#     4  10  21  44  68  95 134 182 228 274 356 432
#
# _framework density 23.369297
#
# number of rings (size 3 to 8) (size 9 to 14) (size 15 to 20)
#    0.000    1.600    2.667    1.600    3.733    0.533 
#    0.000    8.667    0.000    0.000    0.000    0.000 
#    0.000    0.000    0.000    0.000    0.000    0.000 
#
# Total GULP energy -167539.676620 kJ/mol
# GULP energy per Si atom -5584.655887 kJ/mol
# Density = 2.331611 g / cm^3
# Si number density = 23.369297 Si / 1000 Ang^3
#
#
#
# Elastic Constant Matrix: (Units=GPa)
#
#
# Indices 1 2 3 4 5 6 
#
# 1 49.8144 32.2301 26.5294 0.0000 0.0000 0.0000
# 2 32.2301 90.8008 42.7143 0.0000 0.0000 0.0000
# 3 26.5294 42.7143 125.5513 0.0000 0.0000 0.0000
# 4 0.0000 0.0000 0.0000 45.5721 0.0000 0.0000
# 5 0.0000 0.0000 0.0000 0.0000 13.9947 0.0000
# 6 0.0000 0.0000 0.0000 0.0000 0.0000 36.9319
#
#
#
# Elastic Compliance Matrix: (Units=1/GPa)
#
#
# Indices 1 2 3 4 5 6 
#
# 1 0.026919 -0.008190 -0.002902 0.000000 0.000000 0.000000
# 2 -0.008190 0.015603 -0.003578 0.000000 0.000000 0.000000
# 3 -0.002902 -0.003578 0.009795 0.000000 0.000000 0.000000
# 4 0.000000 0.000000 0.000000 0.021943 0.000000 0.000000
# 5 0.000000 0.000000 0.000000 0.000000 0.071456 0.000000
# 6 0.000000 0.000000 0.000000 0.000000 0.000000 0.027077
#
#
# Mechanical properties :
#
#
# Convention : Reuss Voigt Hill
#
# Bulk Modulus (GPa) = 43.51938 52.12380 47.82159
# Shear Modulus (GPa) = 23.83320 30.27926 27.05623
#
# Velocity S-wave (km/s) = 3.19697 3.60347 3.40629
# Velocity P-wave (km/s) = 5.68247 6.29811 5.99819
#
# Compressibility (1/GPa) = 0.02297827
#
# Stress axis : x y z
#
# Youngs Moduli (GPa) = 37.14878 64.08910 102.09020
#
# Poissons Ratio (x) = 0.52489 0.29624
# Poissons Ratio (y) = 0.30425 0.36527
# Poissons Ratio (z) = 0.10779 0.22930
#
# Static dielectric constant tensor:
#      x y z
#    x 1.885180 0.000000 0.000000 
#    y 0.000000 1.907050 0.000000 
#    z 0.000000 0.000000 1.880780 
# 
# From -- ./inp_files/3426.got.cif
#   From: 2010.05.17/outbox.cif.g08.bks.cpg/sg32_2_cif.got.tgz:3426.got - 2010.06.03 17:12:27.
