data_PCOD9343544
_publ_section_title
;
Structure prediction by ZEFSAII (Michael W. Deem and Ramdas Pophale) SiO2 
 PCOD9343544
Probable space group: P M N 21
;
_chemical_formula_sum "Si O2"
_cell_formula_units_Z 22
_cell_length_a 13.437144
_cell_length_b 9.205990
_cell_length_c 9.018256
_cell_angle_alpha 90.000000
_cell_angle_beta 90.000000
_cell_angle_gamma 90.000000
_cell_volume 1115.578227
_symmetry_space_group_name_H-M "P M N 21"
_symmetry_group_IT_number 31
_symmetry_cell_setting 'orthorhombic'
loop_
_space_group_symop_operation_xyz
x,y,z
1/2-x,-y,1/2+z
-x,y,z
1/2+x,-y,1/2+z
loop_
_atom_site_type_symbol
_atom_site_label
_atom_site_fract_x
_atom_site_fract_y
_atom_site_fract_z
Si Si1 0.000000 0.794926 0.745780
Si Si2 0.692571 0.856044 0.356507
Si Si3 0.500000 0.854891 0.206860
Si Si4 0.609740 0.293695 0.976331
Si Si5 0.000000 0.149893 0.351336
Si Si6 0.500000 0.515410 0.819297
Si Si7 0.000000 0.731316 0.084979
Si Si8 0.346013 0.022564 0.657385
O O1 0.094615 0.736462 0.650094
O O2 0.000000 0.971096 0.747221
O O3 0.000000 0.729435 0.908120
O O4 0.597049 0.783705 0.281503
O O5 0.788745 0.767225 0.412982
O O6 0.737382 0.953463 0.224069
O O7 0.656379 0.943247 0.500198
O O8 0.500000 0.849768 0.029218
O O9 0.500000 0.226731 0.923656
O O10 0.592921 0.457150 0.918508
O O11 0.000000 0.315573 0.298070
O O12 0.094055 0.069030 0.279450
O O13 0.500000 0.422308 0.668213
O O14 0.096351 0.826086 0.131799
#
# Coordination Sequence:
#
# PCOD9343544 Si02
#       8
#     2   4   2   4   2   2   2   4
#     4   9  17  35  57  96 121 151 218 257 317 367
#     4  12  21  38  63  98 127 164 211 272 323 384
#     4  12  23  36  60  98 133 157 213 272 330 375
#     4   8  19  37  62  83 119 169 202 255 314 377
#     4  11  24  44  60  96 131 170 210 278 319 382
#     4   9  20  42  66  83 131 173 216 251 317 401
#     4  11  18  37  63  93 124 167 209 258 321 387
#     4  11  22  35  64  96 126 164 212 266 330 366
#
# _framework density 19.720715999999999
#
# number of rings (size 3 to 8) (size 9 to 14) (size 15 to 20)
#    1.091    0.364    3.636    3.818    3.818    0.000 
#    0.000    5.455    0.000    0.000    0.000    0.000 
#    0.000    0.000    0.000    0.000    0.000    0.000 
#
# Total GULP energy -122518.970628 kJ/mol
# GULP energy per Si atom -5569.044119 kJ/mol
# Density = 1.967583 g / cm^3
# Si number density = 19.720716 Si / 1000 Ang^3
#
#
#
# Elastic Constant Matrix: (Units=GPa)
#
#
# Indices 1 2 3 4 5 6 
#
# 1 121.5304 17.6646 44.3456 0.0000 0.0000 0.0000
# 2 17.6646 57.0284 13.5518 0.0000 0.0000 0.0000
# 3 44.3456 13.5518 139.0106 0.0000 0.0000 0.0000
# 4 0.0000 0.0000 0.0000 13.9108 0.0000 0.0000
# 5 0.0000 0.0000 0.0000 0.0000 32.2501 0.0000
# 6 0.0000 0.0000 0.0000 0.0000 0.0000 -4.7923
#
#
#
# Elastic Compliance Matrix: (Units=1/GPa)
#
#
# Indices 1 2 3 4 5 6 
#
# 1 0.009598 -0.002299 -0.002838 0.000000 0.000000 0.000000
# 2 -0.002299 0.018501 -0.001070 0.000000 0.000000 0.000000
# 3 -0.002838 -0.001070 0.008203 0.000000 0.000000 0.000000
# 4 0.000000 0.000000 0.000000 0.071886 0.000000 0.000000
# 5 0.000000 0.000000 0.000000 0.000000 0.031008 0.000000
# 6 0.000000 0.000000 0.000000 0.000000 0.000000 -0.208668
#
#
# Mechanical properties :
#
#
# Convention : Reuss Voigt Hill
#
# Bulk Modulus (GPa) = 41.85986 52.07705 46.96846
# Shear Modulus (GPa) = -101.84519 24.40755 -38.71882
#
# Velocity S-wave (km/s) = -7.19416 3.52186 -4.43579
# Velocity P-wave (km/s) = 6.90908 6.55763 1.53832
#
# Compressibility (1/GPa) = 0.02388923
#
# Stress axis : x y z
#
# Youngs Moduli (GPa) = 104.18854 54.04969 121.90203
#
# Poissons Ratio (x) = 0.12424 0.34593
# Poissons Ratio (y) = 0.23949 0.13048
# Poissons Ratio (z) = 0.29566 0.05785
#
# Static dielectric constant tensor:
#      x y z
#    x 1.771650 0.000000 0.000000 
#    y 0.000000 1.705220 0.000000 
#    z 0.000000 0.000000 1.739040 
# 
# From -- ./inp_files/2490.got.cif
#   From: 2010.05.17/outbox.cif.g08.bks.cpg/sg31_2_cif.got.tgz:2490.got - 2010.06.03 17:08:30.
