data_PCOD9343080
_publ_section_title
;
Structure prediction by ZEFSAII (Michael W. Deem and Ramdas Pophale) SiO2 
 PCOD9343080
Probable space group: P M N 21
;
_chemical_formula_sum "Si O2"
_cell_formula_units_Z 24
_cell_length_a 7.579064
_cell_length_b 7.748385
_cell_length_c 19.326555
_cell_angle_alpha 90.000000
_cell_angle_beta 90.000000
_cell_angle_gamma 90.000000
_cell_volume 1134.961718
_symmetry_space_group_name_H-M "P M N 21"
_symmetry_group_IT_number 31
_symmetry_cell_setting 'orthorhombic'
loop_
_space_group_symop_operation_xyz
x,y,z
1/2-x,-y,1/2+z
-x,y,z
1/2+x,-y,1/2+z
loop_
_atom_site_type_symbol
_atom_site_label
_atom_site_fract_x
_atom_site_fract_y
_atom_site_fract_z
Si Si1 0.206953 0.278108 0.810160
Si Si2 0.282745 0.018417 0.574842
Si Si3 0.207958 0.001186 0.919561
Si Si4 0.784097 0.275663 0.181035
Si Si5 0.711459 0.669540 0.836284
Si Si6 0.204430 0.654726 0.154366
O O1 0.227505 0.471269 0.840979
O O2 0.289685 0.279070 0.733715
O O3 0.000000 0.245010 0.799294
O O4 0.280941 0.134221 0.862383
O O5 0.500000 0.020200 0.574729
O O6 0.221945 0.980891 0.497192
O O7 0.220150 0.202974 0.603248
O O8 0.228093 0.874724 0.630123
O O9 0.228430 0.805416 0.893338
O O10 0.000000 0.040785 0.923660
O O11 0.729188 0.259608 0.260968
O O12 0.719623 0.462659 0.155454
O O13 0.000000 0.277545 0.181613
O O14 0.500000 0.665415 0.836655
O O15 0.000000 0.634856 0.134793
#
# Coordination Sequence:
#
# PCOD9343080 Si02
#       6
#     4   4   4   4   4   4
#     4  10  20  34  53  78 109 139 170 214 265 315
#     4   9  17  30  49  73 100 130 168 212 255 305
#     4  10  21  34  51  78 108 138 170 210 264 316
#     4   8  15  28  48  73  94 120 164 212 252 290
#     4  10  20  35  56  78 102 136 179 221 257 303
#     4   9  17  31  53  76  97 129 175 219 255 299
#
# _framework density 21.146086
#
# number of rings (size 3 to 8) (size 9 to 14) (size 15 to 20)
#    0.000    2.667    0.000    3.000    0.000    4.000 
#    0.000    5.833    0.000    5.000    0.000    0.000 
#    0.000    0.000    0.000    0.000    0.000    0.000 
#
# Total GULP energy -133967.423483 kJ/mol
# GULP energy per Si atom -5581.975978 kJ/mol
# Density = 2.109796 g / cm^3
# Si number density = 21.146086 Si / 1000 Ang^3
#
#
#
# Elastic Constant Matrix: (Units=GPa)
#
#
# Indices 1 2 3 4 5 6 
#
# 1 47.3841 -12.4613 -8.8293 0.0000 0.0000 0.0000
# 2 -12.4613 44.0490 20.5279 0.0000 0.0000 0.0000
# 3 -8.8293 20.5279 33.2864 0.0000 0.0000 0.0000
# 4 0.0000 0.0000 0.0000 -3.4556 0.0000 0.0000
# 5 0.0000 0.0000 0.0000 0.0000 4.8439 0.0000
# 6 0.0000 0.0000 0.0000 0.0000 0.0000 12.5270
#
#
#
# Elastic Compliance Matrix: (Units=1/GPa)
#
#
# Indices 1 2 3 4 5 6 
#
# 1 0.023002 0.005142 0.002931 0.000000 0.000000 0.000000
# 2 0.005142 0.033007 -0.018992 0.000000 0.000000 0.000000
# 3 0.002931 -0.018992 0.042532 0.000000 0.000000 0.000000
# 4 0.000000 0.000000 0.000000 -0.289382 0.000000 0.000000
# 5 0.000000 0.000000 0.000000 0.000000 0.206447 0.000000
# 6 0.000000 0.000000 0.000000 0.000000 0.000000 0.079828
#
#
# Mechanical properties :
#
#
# Convention : Reuss Voigt Hill
#
# Bulk Modulus (GPa) = 13.03744 13.68823 13.36284
# Shear Modulus (GPa) = 35.00379 11.14852 23.07615
#
# Velocity S-wave (km/s) = 4.07299 2.29861 3.30703
# Velocity P-wave (km/s) = 5.31957 3.67859 4.57328
#
# Compressibility (1/GPa) = 0.07670215
#
# Stress axis : x y z
#
# Youngs Moduli (GPa) = 43.47383 30.29641 23.51162
#
# Poissons Ratio (x) = -0.15577 -0.06890
# Poissons Ratio (y) = -0.22352 0.44653
# Poissons Ratio (z) = -0.12741 0.57539
#
# Static dielectric constant tensor:
#      x y z
#    x 1.813540 0.000000 0.000000 
#    y 0.000000 1.752550 0.000000 
#    z 0.000000 0.000000 1.738710 
# 
# From -- ./inp_files/5710.got.cif
#   From: 2010.05.17/outbox.cif.g08.bks.cpg/sg31_3_cif.got.tgz:5710.got - 2010.06.03 17:08:30.
