data_PCOD9343918
_publ_section_title
;
Structure prediction by ZEFSAII (Michael W. Deem and Ramdas Pophale) SiO2 
 PCOD9343918
Probable space group: P B A 2
;
_chemical_formula_sum "Si O2"
_cell_formula_units_Z 24
_cell_length_a 8.982080
_cell_length_b 12.522510
_cell_length_c 9.414300
_cell_angle_alpha 90.000000
_cell_angle_beta 90.000000
_cell_angle_gamma 90.000000
_cell_volume 1058.903392
_symmetry_space_group_name_H-M "P B A 2"
_symmetry_group_IT_number 32
_symmetry_cell_setting 'orthorhombic'
loop_
_space_group_symop_operation_xyz
x,y,z
-x,-y,z
1/2-x,1/2+y,z
1/2+x,1/2-y,z
loop_
_atom_site_type_symbol
_atom_site_label
_atom_site_fract_x
_atom_site_fract_y
_atom_site_fract_z
Si Si1 0.655541 0.558718 0.097860
Si Si2 0.153200 0.559381 0.279521
Si Si3 0.399020 0.392145 0.784948
Si Si4 0.104498 0.197076 0.572419
Si Si5 0.820463 0.493499 0.586006
Si Si6 0.168962 0.803423 0.374729
O O1 0.500000 0.500000 0.118621
O O2 0.767048 0.461069 0.130504
O O3 0.689385 0.639751 0.224436
O O4 0.651667 0.616862 0.947082
O O5 0.226945 0.502892 0.419212
O O6 0.136760 0.680476 0.327473
O O7 0.000000 0.500000 0.265908
O O8 0.500000 0.500000 0.778325
O O9 0.499068 0.298933 0.713086
O O10 0.256269 0.423002 0.691145
O O11 0.240785 0.120226 0.620001
O O12 0.187759 0.287361 0.478925
O O13 0.977670 0.156074 0.460293
O O14 0.000000 0.500000 0.594356
#
# Coordination Sequence:
#
# PCOD9343918 Si02
#       6
#     4   4   4   4   4   4
#     4  11  22  39  64  93 132 177 222 282 349 416
#     4  10  21  37  60  92 127 165 217 281 338 401
#     4   9  20  39  62  91 129 174 219 272 346 418
#     4  10  21  38  60  89 129 171 219 279 335 410
#     4   9  18  36  64  93 120 162 219 273 332 405
#     4  11  22  39  64  96 129 173 232 285 346 418
#
# _framework density 22.664957999999999
#
# number of rings (size 3 to 8) (size 9 to 14) (size 15 to 20)
#    0.000    2.000    0.000    4.000    0.000    6.000 
#    0.000   10.000    0.000    0.000    0.000    0.000 
#    0.000    0.000    0.000    0.000    0.000    0.000 
#
# Total GULP energy -133656.429985 kJ/mol
# GULP energy per Si atom -5569.017916 kJ/mol
# Density = 2.261337 g / cm^3
# Si number density = 22.664958 Si / 1000 Ang^3
#
#
#
# Elastic Constant Matrix: (Units=GPa)
#
#
# Indices 1 2 3 4 5 6 
#
# 1 122.0177 18.5014 68.1332 0.0000 0.0000 0.0000
# 2 18.5014 52.8835 47.7138 0.0000 0.0000 0.0000
# 3 68.1332 47.7138 155.7311 0.0000 0.0000 0.0000
# 4 0.0000 0.0000 0.0000 30.2682 0.0000 0.0000
# 5 0.0000 0.0000 0.0000 0.0000 -71.4216 0.0000
# 6 0.0000 0.0000 0.0000 0.0000 0.0000 27.1465
#
#
#
# Elastic Compliance Matrix: (Units=1/GPa)
#
#
# Indices 1 2 3 4 5 6 
#
# 1 0.010862 0.000674 -0.004959 0.000000 0.000000 0.000000
# 2 0.000674 0.026176 -0.008315 0.000000 0.000000 0.000000
# 3 -0.004959 -0.008315 0.011138 0.000000 0.000000 0.000000
# 4 0.000000 0.000000 0.000000 0.033038 0.000000 0.000000
# 5 0.000000 0.000000 0.000000 0.000000 -0.014001 0.000000
# 6 0.000000 0.000000 0.000000 0.000000 0.000000 0.036837
#
#
# Mechanical properties :
#
#
# Convention : Reuss Voigt Hill
#
# Bulk Modulus (GPa) = 43.52175 66.59212 55.05693
# Shear Modulus (GPa) = 36.52088 10.28422 23.40255
#
# Velocity S-wave (km/s) = 4.01850 2.13245 3.21681
# Velocity P-wave (km/s) = 6.38553 5.95886 6.17588
#
# Compressibility (1/GPa) = 0.02297702
#
# Stress axis : x y z
#
# Youngs Moduli (GPa) = 92.06182 38.20356 89.78047
#
# Poissons Ratio (x) = -0.02574 0.44520
# Poissons Ratio (y) = -0.06203 0.74649
# Poissons Ratio (z) = 0.45651 0.31765
#
# Static dielectric constant tensor:
#      x y z
#    x 2.138050 0.000000 0.000000 
#    y 0.000000 2.049700 0.000000 
#    z 0.000000 0.000000 1.841190 
# 
# From -- ./inp_files/2311.got.cif
#   From: 2010.05.17/outbox.cif.g08.bks.cpg/sg32_2_cif.got.tgz:2311.got - 2010.06.03 17:12:27.
