data_PCOD9343983
_publ_section_title
;
Structure prediction by ZEFSAII (Michael W. Deem and Ramdas Pophale) SiO2 
 PCOD9343983
Probable space group: P B A 2
;
_chemical_formula_sum "Si O2"
_cell_formula_units_Z 32
_cell_length_a 14.328042
_cell_length_b 8.804150
_cell_length_c 10.960641
_cell_angle_alpha 90.000000
_cell_angle_beta 90.000000
_cell_angle_gamma 90.000000
_cell_volume 1382.643551
_symmetry_space_group_name_H-M "P B A 2"
_symmetry_group_IT_number 32
_symmetry_cell_setting 'orthorhombic'
loop_
_space_group_symop_operation_xyz
x,y,z
-x,-y,z
1/2-x,1/2+y,z
1/2+x,1/2-y,z
loop_
_atom_site_type_symbol
_atom_site_label
_atom_site_fract_x
_atom_site_fract_y
_atom_site_fract_z
Si Si1 0.044171 0.152744 0.416050
Si Si2 0.209720 0.635947 0.887788
Si Si3 0.581167 0.398249 0.790899
Si Si4 0.764841 0.611930 0.055812
Si Si5 0.870475 0.352911 0.434586
Si Si6 0.615707 0.140899 0.615753
Si Si7 0.822860 0.168366 0.664713
Si Si8 0.202345 0.134674 0.236491
O O1 0.112818 0.231771 0.511579
O O2 0.108469 0.101810 0.306724
O O3 0.965376 0.277626 0.384000
O O4 0.000000 0.000000 0.466378
O O5 0.322468 0.623778 0.865976
O O6 0.164144 0.697031 0.763509
O O7 0.177471 0.480628 0.952532
O O8 0.198906 0.772450 0.983776
O O9 0.500000 0.500000 0.854735
O O10 0.558067 0.236431 0.722095
O O11 0.614379 0.524911 0.693110
O O12 0.809388 0.705244 0.167045
O O13 0.712343 0.482050 0.127605
O O14 0.896687 0.490645 0.529486
O O15 0.833176 0.227141 0.528795
O O16 0.791830 0.376706 0.329768
O O17 0.715632 0.118996 0.677197
#
# Coordination Sequence:
#
# PCOD9343983 Si02
#       8
#     4   4   4   4   4   4   4   4
#     4  12  25  42  66 102 142 185 233 287 358 433
#     4  10  21  42  71  99 127 185 243 288 352 430
#     4  11  23  40  65 100 143 182 227 287 359 429
#     4  10  22  43  72  94 130 184 241 294 340 414
#     4  12  25  40  71 106 144 183 230 289 369 435
#     4  11  22  38  61 100 143 179 227 278 345 440
#     4  11  22  40  69 102 139 190 227 286 365 440
#     4  11  24  45  70 100 138 184 239 293 360 419
#
# _framework density 23.144072000000001
#
# number of rings (size 3 to 8) (size 9 to 14) (size 15 to 20)
#    0.000    1.000    2.500    5.250    3.500    0.000 
#    0.000    5.000    2.750    0.000    0.000    0.000 
#    0.000    0.000    0.000    0.000    0.000    0.000 
#
# Total GULP energy -178295.550631 kJ/mol
# GULP energy per Si atom -5571.735957 kJ/mol
# Density = 2.309139 g / cm^3
# Si number density = 23.144072 Si / 1000 Ang^3
#
#
#
# Elastic Constant Matrix: (Units=GPa)
#
#
# Indices 1 2 3 4 5 6 
#
# 1 84.1563 16.2359 23.4454 0.0000 0.0000 0.0000
# 2 16.2359 117.3237 20.9943 0.0000 0.0000 0.0000
# 3 23.4454 20.9943 101.6622 0.0000 0.0000 0.0000
# 4 0.0000 0.0000 0.0000 45.6509 0.0000 0.0000
# 5 0.0000 0.0000 0.0000 0.0000 11.3048 0.0000
# 6 0.0000 0.0000 0.0000 0.0000 0.0000 13.2228
#
#
#
# Elastic Compliance Matrix: (Units=1/GPa)
#
#
# Indices 1 2 3 4 5 6 
#
# 1 0.012887 -0.001300 -0.002704 0.000000 0.000000 0.000000
# 2 -0.001300 0.008982 -0.001555 0.000000 0.000000 0.000000
# 3 -0.002704 -0.001555 0.010781 0.000000 0.000000 0.000000
# 4 0.000000 0.000000 0.000000 0.021905 0.000000 0.000000
# 5 0.000000 0.000000 0.000000 0.000000 0.088458 0.000000
# 6 0.000000 0.000000 0.000000 0.000000 0.000000 0.075627
#
#
# Mechanical properties :
#
#
# Convention : Reuss Voigt Hill
#
# Bulk Modulus (GPa) = 46.44053 47.16594 46.80324
# Shear Modulus (GPa) = 21.10296 30.20015 25.65156
#
# Velocity S-wave (km/s) = 3.02289 3.61623 3.33279
# Velocity P-wave (km/s) = 5.68271 6.15302 5.92254
#
# Compressibility (1/GPa) = 0.02153291
#
# Stress axis : x y z
#
# Youngs Moduli (GPa) = 77.60031 111.33959 92.75463
#
# Poissons Ratio (x) = 0.14469 0.25077
# Poissons Ratio (y) = 0.10084 0.14424
# Poissons Ratio (z) = 0.20980 0.17314
#
# Static dielectric constant tensor:
#      x y z
#    x 1.914030 0.000000 0.000000 
#    y 0.000000 1.983060 0.000000 
#    z 0.000000 0.000000 1.932410 
# 
# From -- ./inp_files/3973.got.cif
#   From: 2010.05.17/outbox.cif.g08.bks.cpg/sg32_2_cif.got.tgz:3973.got - 2010.06.03 17:12:27.
