data_PCOD9343941
_publ_section_title
;
Structure prediction by ZEFSAII (Michael W. Deem and Ramdas Pophale) SiO2 
 PCOD9343941
Probable space group: P B A 2
;
_chemical_formula_sum "Si O2"
_cell_formula_units_Z 32
_cell_length_a 8.059505
_cell_length_b 14.311558
_cell_length_c 12.635715
_cell_angle_alpha 90.000000
_cell_angle_beta 90.000000
_cell_angle_gamma 90.000000
_cell_volume 1457.454837
_symmetry_space_group_name_H-M "P B A 2"
_symmetry_group_IT_number 32
_symmetry_cell_setting 'orthorhombic'
loop_
_space_group_symop_operation_xyz
x,y,z
-x,-y,z
1/2-x,1/2+y,z
1/2+x,1/2-y,z
loop_
_atom_site_type_symbol
_atom_site_label
_atom_site_fract_x
_atom_site_fract_y
_atom_site_fract_z
Si Si1 0.181461 0.893560 0.109510
Si Si2 0.645688 0.815692 0.892879
Si Si3 0.732602 0.111640 0.883596
Si Si4 0.204260 0.671675 0.663482
Si Si5 0.185294 0.031852 0.494478
Si Si6 0.184018 0.192446 0.113781
Si Si7 0.182095 0.381620 0.652056
Si Si8 0.681191 0.955982 0.262450
O O1 0.305294 0.804793 0.121502
O O2 0.001507 0.846537 0.115658
O O3 0.204057 0.969665 0.200009
O O4 0.217949 0.937809 0.993053
O O5 0.458818 0.853854 0.894519
O O6 0.649727 0.703073 0.883314
O O7 0.740899 0.848076 0.787169
O O8 0.736187 0.835566 0.001755
O O9 0.733915 0.071560 0.764834
O O10 0.311140 0.616757 0.577827
O O11 0.226681 0.782025 0.646553
O O12 0.013350 0.640526 0.651270
O O13 0.275079 0.053754 0.385116
O O14 0.274733 0.947895 0.555980
O O15 0.000000 0.000000 0.470677
O O16 0.289263 0.142383 0.205022
O O17 0.500000 0.000000 0.249937
#
# Coordination Sequence:
#
# PCOD9343941 Si02
#       8
#     4   4   4   4   4   4   4   4
#     4  11  22  39  63  92 124 158 197 242 297 355
#     4   9  17  32  57  89 123 157 195 239 291 351
#     4   9  17  32  57  89 123 157 195 239 291 351
#     4  10  21  39  63  91 123 159 198 243 296 352
#     4  12  26  43  62  87 118 155 203 251 297 352
#     4  11  22  39  63  92 124 158 197 242 297 355
#     4  10  21  39  63  91 123 159 198 243 296 352
#     4  12  26  45  64  85 116 155 203 253 299 350
#
# _framework density 21.956081999999999
#
# number of rings (size 3 to 8) (size 9 to 14) (size 15 to 20)
#    0.000    1.500    0.000    7.500    0.000    5.000 
#    0.000    6.250    0.000    0.000    0.000    0.000 
#    0.000    0.000    0.000    0.000    0.000    0.000 
#
# Total GULP energy -178991.510754 kJ/mol
# GULP energy per Si atom -5593.484711 kJ/mol
# Density = 2.190611 g / cm^3
# Si number density = 21.956082 Si / 1000 Ang^3
#
#
#
# Elastic Constant Matrix: (Units=GPa)
#
#
# Indices 1 2 3 4 5 6 
#
# 1 55.7872 -16.0638 4.7390 0.0000 0.0000 0.0000
# 2 -16.0638 69.0067 21.3550 0.0000 0.0000 0.0000
# 3 4.7390 21.3550 111.5722 0.0000 0.0000 0.0000
# 4 0.0000 0.0000 0.0000 28.3538 0.0000 0.0000
# 5 0.0000 0.0000 0.0000 0.0000 26.7961 0.0000
# 6 0.0000 0.0000 0.0000 0.0000 0.0000 26.0625
#
#
#
# Elastic Compliance Matrix: (Units=1/GPa)
#
#
# Indices 1 2 3 4 5 6 
#
# 1 0.019551 0.005111 -0.001809 0.000000 0.000000 0.000000
# 2 0.005111 0.016740 -0.003421 0.000000 0.000000 0.000000
# 3 -0.001809 -0.003421 0.009694 0.000000 0.000000 0.000000
# 4 0.000000 0.000000 0.000000 0.035269 0.000000 0.000000
# 5 0.000000 0.000000 0.000000 0.000000 0.037319 0.000000
# 6 0.000000 0.000000 0.000000 0.000000 0.000000 0.038369
#
#
# Mechanical properties :
#
#
# Convention : Reuss Voigt Hill
#
# Bulk Modulus (GPa) = 21.85939 28.49183 25.17561
# Shear Modulus (GPa) = 28.99756 31.33154 30.16455
#
# Velocity S-wave (km/s) = 3.63810 3.78168 3.71058
# Velocity P-wave (km/s) = 5.25597 5.66330 5.46343
#
# Compressibility (1/GPa) = 0.04574693
#
# Stress axis : x y z
#
# Youngs Moduli (GPa) = 51.14946 59.73799 103.15204
#
# Poissons Ratio (x) = -0.30531 0.18656
# Poissons Ratio (y) = -0.26141 0.35289
# Poissons Ratio (z) = 0.09251 0.20437
#
# Static dielectric constant tensor:
#      x y z
#    x 1.807370 0.000000 0.000000 
#    y 0.000000 1.837570 0.000000 
#    z 0.000000 0.000000 1.811710 
# 
# From -- ./inp_files/3778.got.cif
#   From: 2010.05.17/outbox.cif.g08.bks.cpg/sg32_2_cif.got.tgz:3778.got - 2010.06.03 17:12:27.
