data_PCOD9343220
_publ_section_title
;
Structure prediction by ZEFSAII (Michael W. Deem and Ramdas Pophale) SiO2 
 PCOD9343220
Probable space group: P M N 21
;
_chemical_formula_sum "Si O2"
_cell_formula_units_Z 32
_cell_length_a 9.300785
_cell_length_b 11.515458
_cell_length_c 16.381773
_cell_angle_alpha 90.000000
_cell_angle_beta 90.000000
_cell_angle_gamma 90.000000
_cell_volume 1754.533741
_symmetry_space_group_name_H-M "P M N 21"
_symmetry_group_IT_number 31
_symmetry_cell_setting 'orthorhombic'
loop_
_space_group_symop_operation_xyz
x,y,z
1/2-x,-y,1/2+z
-x,y,z
1/2+x,-y,1/2+z
loop_
_atom_site_type_symbol
_atom_site_label
_atom_site_fract_x
_atom_site_fract_y
_atom_site_fract_z
Si Si1 0.166303 0.697020 0.985300
Si Si2 0.331718 0.334735 0.780772
Si Si3 0.170421 0.435101 0.625458
Si Si4 0.161349 0.426170 0.352294
Si Si5 0.325203 0.927408 0.657385
Si Si6 0.330037 0.026174 0.481402
Si Si7 0.665640 0.658799 0.664913
Si Si8 0.327483 0.067083 0.820673
O O1 0.216868 0.638644 0.901720
O O2 0.183922 0.834948 0.981151
O O3 0.000000 0.671708 0.004042
O O4 0.267860 0.641654 0.052852
O O5 0.500000 0.339039 0.753510
O O6 0.231064 0.375310 0.707381
O O7 0.317875 0.434911 0.848983
O O8 0.300860 0.204285 0.808131
O O9 0.236908 0.564358 0.620144
O O10 0.000000 0.440100 0.626117
O O11 0.164089 0.380798 0.259445
O O12 0.000000 0.401658 0.384755
O O13 0.500000 0.932931 0.658626
O O14 0.284870 0.791821 0.660413
O O15 0.279383 0.980597 0.570299
O O16 0.278876 0.997373 0.738814
O O17 0.500000 0.997528 0.474060
O O18 0.247449 0.975979 0.403256
O O19 0.500000 0.652317 0.635402
O O20 0.500000 0.050595 0.827966
#
# Coordination Sequence:
#
# PCOD9343220 Si02
#       8
#     4   4   4   4   4   4   4   4
#     4  11  22  36  54  76 108 147 183 224 277 330
#     4   9  19  37  58  80 110 145 179 219 274 335
#     4  11  22  35  55  81 108 139 180 230 274 321
#     4   9  18  33  54  80 108 137 176 226 272 324
#     4   9  18  35  59  82 108 147 186 221 269 333
#     4  10  22  38  56  82 113 144 186 234 276 328
#     4   9  18  35  57  79 106 140 177 218 272 334
#     4  10  20  37  61  84 111 149 187 224 274 333
#
# _framework density 18.238465000000001
#
# number of rings (size 3 to 8) (size 9 to 14) (size 15 to 20)
#    0.000    2.250    0.000    3.750    0.000    7.500 
#    0.000    4.375    0.000    0.000    0.000    0.000 
#    0.000    0.000    0.000    0.000    0.000    0.000 
#
# Total GULP energy -178523.500132 kJ/mol
# GULP energy per Si atom -5578.859379 kJ/mol
# Density = 1.819695 g / cm^3
# Si number density = 18.238465 Si / 1000 Ang^3
#
#
#
# Elastic Constant Matrix: (Units=GPa)
#
#
# Indices 1 2 3 4 5 6 
#
# 1 68.8131 61.4804 36.0533 0.0000 0.0000 0.0000
# 2 61.4804 130.3808 56.3129 0.0000 0.0000 0.0000
# 3 36.0533 56.3129 90.0290 0.0000 0.0000 0.0000
# 4 0.0000 0.0000 0.0000 24.1456 0.0000 0.0000
# 5 0.0000 0.0000 0.0000 0.0000 33.9193 0.0000
# 6 0.0000 0.0000 0.0000 0.0000 0.0000 24.5772
#
#
#
# Elastic Compliance Matrix: (Units=1/GPa)
#
#
# Indices 1 2 3 4 5 6 
#
# 1 0.026008 -0.010640 -0.003760 0.000000 0.000000 0.000000
# 2 -0.010640 0.014862 -0.005035 0.000000 0.000000 0.000000
# 3 -0.003760 -0.005035 0.015763 0.000000 0.000000 0.000000
# 4 0.000000 0.000000 0.000000 0.041415 0.000000 0.000000
# 5 0.000000 0.000000 0.000000 0.000000 0.029482 0.000000
# 6 0.000000 0.000000 0.000000 0.000000 0.000000 0.040688
#
#
# Mechanical properties :
#
#
# Convention : Reuss Voigt Hill
#
# Bulk Modulus (GPa) = 56.29834 66.32402 61.31118
# Shear Modulus (GPa) = 23.47311 25.55350 24.51331
#
# Velocity S-wave (km/s) = 3.59139 3.74716 3.67010
# Velocity P-wave (km/s) = 6.93775 7.42734 7.18672
#
# Compressibility (1/GPa) = 0.01776251
#
# Stress axis : x y z
#
# Youngs Moduli (GPa) = 38.44902 67.28639 63.44088
#
# Poissons Ratio (x) = 0.71594 0.23854
# Poissons Ratio (y) = 0.40910 0.31943
# Poissons Ratio (z) = 0.14457 0.33879
#
# Static dielectric constant tensor:
#      x y z
#    x 1.621620 0.000000 0.000000 
#    y 0.000000 1.620910 0.000000 
#    z 0.000000 0.000000 1.633190 
# 
# From -- ./inp_files/5023.got.cif
#   From: 2010.05.17/outbox.cif.g08.bks.cpg/sg31_3_cif.got.tgz:5023.got - 2010.06.03 17:08:30.
