data_PCOD9343124
_publ_section_title
;
Structure prediction by ZEFSAII (Michael W. Deem and Ramdas Pophale) SiO2 
 PCOD9343124
Probable space group: P M N 21
;
_chemical_formula_sum "Si O2"
_cell_formula_units_Z 32
_cell_length_a 7.835176
_cell_length_b 11.676542
_cell_length_c 16.702796
_cell_angle_alpha 90.000000
_cell_angle_beta 90.000000
_cell_angle_gamma 90.000000
_cell_volume 1528.101419
_symmetry_space_group_name_H-M "P M N 21"
_symmetry_group_IT_number 31
_symmetry_cell_setting 'orthorhombic'
loop_
_space_group_symop_operation_xyz
x,y,z
1/2-x,-y,1/2+z
-x,y,z
1/2+x,-y,1/2+z
loop_
_atom_site_type_symbol
_atom_site_label
_atom_site_fract_x
_atom_site_fract_y
_atom_site_fract_z
Si Si1 0.194736 0.771199 0.929730
Si Si2 0.205944 0.569221 0.261425
Si Si3 0.200992 0.828754 0.231216
Si Si4 0.293490 0.054908 0.296339
Si Si5 0.708112 0.160250 0.126011
Si Si6 0.803893 0.072800 0.564494
Si Si7 0.197626 0.483556 0.433696
Si Si8 0.706292 0.420851 0.103578
O O1 0.265061 0.861790 0.866251
O O2 0.293705 0.653363 0.934823
O O3 0.000000 0.742204 0.907168
O O4 0.198667 0.839214 0.012352
O O5 0.261049 0.701117 0.250515
O O6 0.270957 0.523821 0.347758
O O7 0.250930 0.493687 0.183274
O O8 0.000000 0.567949 0.264961
O O9 0.297277 0.880797 0.154974
O O10 0.000000 0.823074 0.212241
O O11 0.226671 0.925379 0.298816
O O12 0.500000 0.049528 0.298412
O O13 0.240275 0.115930 0.213664
O O14 0.500000 0.160400 0.124549
O O15 0.765915 0.289139 0.110912
O O16 0.760912 0.058181 0.066142
O O17 0.000000 0.074185 0.536909
O O18 0.270686 0.527684 0.518775
O O19 0.000000 0.521378 0.433500
O O20 0.500000 0.419926 0.100554
#
# Coordination Sequence:
#
# PCOD9343124 Si02
#       8
#     4   4   4   4   4   4   4   4
#     4  11  22  36  55  80 110 141 180 229 276 324
#     4  10  22  38  55  80 115 149 182 227 280 330
#     4  10  20  35  56  81 109 141 180 226 275 327
#     4   9  19  35  54  77 106 139 176 223 276 331
#     4   8  16  33  55  77 101 134 178 222 268 324
#     4  10  20  35  56  80 109 145 181 221 272 330
#     4  10  22  38  56  81 111 145 188 232 277 337
#     4  10  20  36  59  82 107 146 191 230 272 327
#
# _framework density 20.941018
#
# number of rings (size 3 to 8) (size 9 to 14) (size 15 to 20)
#    0.000    2.250    0.000    3.375    0.000    7.000 
#    0.000    6.875    0.000    0.000    0.000    0.000 
#    0.000    0.000    0.000    0.000    0.000    0.000 
#
# Total GULP energy -178525.260108 kJ/mol
# GULP energy per Si atom -5578.914378 kJ/mol
# Density = 2.089336 g / cm^3
# Si number density = 20.941018 Si / 1000 Ang^3
#
#
#
# Elastic Constant Matrix: (Units=GPa)
#
#
# Indices 1 2 3 4 5 6 
#
# 1 33.9419 5.0212 3.7612 0.0000 0.0000 0.0000
# 2 5.0212 191.0173 79.0510 0.0000 0.0000 0.0000
# 3 3.7612 79.0510 116.1584 0.0000 0.0000 0.0000
# 4 0.0000 0.0000 0.0000 34.0521 0.0000 0.0000
# 5 0.0000 0.0000 0.0000 0.0000 14.1539 0.0000
# 6 0.0000 0.0000 0.0000 0.0000 0.0000 16.1413
#
#
#
# Elastic Compliance Matrix: (Units=1/GPa)
#
#
# Indices 1 2 3 4 5 6 
#
# 1 0.029607 -0.000531 -0.000597 0.000000 0.000000 0.000000
# 2 -0.000531 0.007297 -0.004949 0.000000 0.000000 0.000000
# 3 -0.000597 -0.004949 0.011996 0.000000 0.000000 0.000000
# 4 0.000000 0.000000 0.000000 0.029367 0.000000 0.000000
# 5 0.000000 0.000000 0.000000 0.000000 0.070652 0.000000
# 6 0.000000 0.000000 0.000000 0.000000 0.000000 0.061953
#
#
# Mechanical properties :
#
#
# Convention : Reuss Voigt Hill
#
# Bulk Modulus (GPa) = 27.21394 57.42050 42.31722
# Shear Modulus (GPa) = 21.25174 29.75506 25.50340
#
# Velocity S-wave (km/s) = 3.18911 3.77357 3.49358
# Velocity P-wave (km/s) = 5.15599 6.81660 6.04361
#
# Compressibility (1/GPa) = 0.03674587
#
# Stress axis : x y z
#
# Youngs Moduli (GPa) = 33.77591 137.04047 83.36002
#
# Poissons Ratio (x) = 0.07278 0.04978
# Poissons Ratio (y) = 0.01794 0.41253
# Poissons Ratio (z) = 0.02017 0.67819
#
# Static dielectric constant tensor:
#      x y z
#    x 1.835990 0.000000 0.000000 
#    y 0.000000 1.734260 0.000000 
#    z 0.000000 0.000000 1.763850 
# 
# From -- ./inp_files/4917.got.cif
#   From: 2010.05.17/outbox.cif.g08.bks.cpg/sg31_3_cif.got.tgz:4917.got - 2010.06.03 17:08:30.
