data_PCOD9343356
_publ_section_title
;
Structure prediction by ZEFSAII (Michael W. Deem and Ramdas Pophale) SiO2 
 PCOD9343356
Probable space group: P M N 21
;
_chemical_formula_sum "Si O2"
_cell_formula_units_Z 32
_cell_length_a 7.909211
_cell_length_b 16.838969
_cell_length_c 10.807120
_cell_angle_alpha 90.000000
_cell_angle_beta 90.000000
_cell_angle_gamma 90.000000
_cell_volume 1439.324218
_symmetry_space_group_name_H-M "P M N 21"
_symmetry_group_IT_number 31
_symmetry_cell_setting 'orthorhombic'
loop_
_space_group_symop_operation_xyz
x,y,z
1/2-x,-y,1/2+z
-x,y,z
1/2+x,-y,1/2+z
loop_
_atom_site_type_symbol
_atom_site_label
_atom_site_fract_x
_atom_site_fract_y
_atom_site_fract_z
Si Si1 0.701473 0.758456 0.761400
Si Si2 0.292620 0.744298 0.035759
Si Si3 0.696783 0.580108 0.142026
Si Si4 0.296402 0.828614 0.286096
Si Si5 0.693124 0.661854 0.407774
Si Si6 0.191077 0.987925 0.410574
Si Si7 0.689072 0.406004 0.149608
Si Si8 0.296070 0.921459 0.672518
O O1 0.500000 0.766327 0.765307
O O2 0.736723 0.668405 0.722769
O O3 0.761592 0.829057 0.670835
O O4 0.763979 0.771236 0.901237
O O5 0.500000 0.741869 0.040048
O O6 0.233067 0.653899 0.062940
O O7 0.244204 0.802290 0.147992
O O8 0.500000 0.570539 0.100967
O O9 0.696684 0.612827 0.281296
O O10 0.775274 0.492537 0.144815
O O11 0.500000 0.843981 0.286660
O O12 0.267283 0.751669 0.371047
O O13 0.202431 0.902951 0.342596
O O14 0.500000 0.660274 0.456754
O O15 0.810802 0.624355 0.509329
O O16 0.253748 0.971823 0.549994
O O17 0.000000 0.016811 0.426476
O O18 0.270173 0.043842 0.303744
O O19 0.500000 0.418151 0.199227
O O20 0.500000 0.923237 0.677055
#
# Coordination Sequence:
#
# PCOD9343356 Si02
#       8
#     4   4   4   4   4   4   4   4
#     4  10  21  38  60  82 111 152 200 239 278 348
#     4   8  16  33  59  84 107 148 199 238 276 338
#     4   8  17  33  51  77 110 141 181 232 282 332
#     4   9  18  35  62  86 109 147 193 238 287 342
#     4   9  18  35  55  75 102 142 188 226 268 339
#     4  11  24  40  63  93 123 155 195 245 302 358
#     4  11  22  33  51  80 113 144 178 232 293 338
#     4  10  24  43  61  89 123 157 202 248 292 355
#
# _framework density 22.232657
#
# number of rings (size 3 to 8) (size 9 to 14) (size 15 to 20)
#    0.000    2.500    0.000    3.000    3.500    5.000 
#    0.000    1.250    0.000    2.250    0.000    0.000 
#    0.000    0.000    0.000    0.000    0.000    0.000 
#
# Total GULP energy -178465.590248 kJ/mol
# GULP energy per Si atom -5577.049695 kJ/mol
# Density = 2.218205 g / cm^3
# Si number density = 22.232657 Si / 1000 Ang^3
#
#
#
# Elastic Constant Matrix: (Units=GPa)
#
#
# Indices 1 2 3 4 5 6 
#
# 1 13.8683 7.3383 7.7870 0.0000 0.0000 0.0000
# 2 7.3383 57.3770 30.6889 0.0000 0.0000 0.0000
# 3 7.7870 30.6889 101.4280 0.0000 0.0000 0.0000
# 4 0.0000 0.0000 0.0000 4.9593 0.0000 0.0000
# 5 0.0000 0.0000 0.0000 0.0000 21.4522 0.0000
# 6 0.0000 0.0000 0.0000 0.0000 0.0000 14.7740
#
#
#
# Elastic Compliance Matrix: (Units=1/GPa)
#
#
# Indices 1 2 3 4 5 6 
#
# 1 0.078405 -0.008123 -0.003562 0.000000 0.000000 0.000000
# 2 -0.008123 0.021635 -0.005923 0.000000 0.000000 0.000000
# 3 -0.003562 -0.005923 0.011925 0.000000 0.000000 0.000000
# 4 0.000000 0.000000 0.000000 0.201641 0.000000 0.000000
# 5 0.000000 0.000000 0.000000 0.000000 0.046615 0.000000
# 6 0.000000 0.000000 0.000000 0.000000 0.000000 0.067686
#
#
# Mechanical properties :
#
#
# Convention : Reuss Voigt Hill
#
# Bulk Modulus (GPa) = 13.02919 29.36685 21.19802
# Shear Modulus (GPa) = 10.23113 16.69439 13.46276
#
# Velocity S-wave (km/s) = 2.14752 2.74322 2.46344
# Velocity P-wave (km/s) = 3.46731 4.82403 4.20080
#
# Compressibility (1/GPa) = 0.07675077
#
# Stress axis : x y z
#
# Youngs Moduli (GPa) = 12.75433 46.22103 83.86010
#
# Poissons Ratio (x) = 0.37543 0.29869
# Poissons Ratio (y) = 0.10360 0.49666
# Poissons Ratio (z) = 0.04543 0.27374
#
# Static dielectric constant tensor:
#      x y z
#    x 1.829360 0.000000 0.000000 
#    y 0.000000 1.854710 0.000000 
#    z 0.000000 0.000000 1.817070 
# 
# From -- ./inp_files/3718.got.cif
#   From: 2010.05.17/outbox.cif.g08.bks.cpg/sg31_2_cif.got.tgz:3718.got - 2010.06.03 17:08:30.
