data_PCOD9343585
_publ_section_title
;
Structure prediction by ZEFSAII (Michael W. Deem and Ramdas Pophale) SiO2 
 PCOD9343585
Probable space group: P M N 21
;
_chemical_formula_sum "Si O2"
_cell_formula_units_Z 20
_cell_length_a 16.256466
_cell_length_b 5.137660
_cell_length_c 8.938853
_cell_angle_alpha 90.000000
_cell_angle_beta 90.000000
_cell_angle_gamma 90.000000
_cell_volume 746.574747
_symmetry_space_group_name_H-M "P M N 21"
_symmetry_group_IT_number 31
_symmetry_cell_setting 'orthorhombic'
loop_
_space_group_symop_operation_xyz
x,y,z
1/2-x,-y,1/2+z
-x,y,z
1/2+x,-y,1/2+z
loop_
_atom_site_type_symbol
_atom_site_label
_atom_site_fract_x
_atom_site_fract_y
_atom_site_fract_z
Si Si1 0.354358 1.000000 0.562260
Si Si2 0.000000 0.279331 0.216218
Si Si3 0.250000 0.687889 0.312260
Si Si4 0.500000 0.279331 0.408302
Si Si5 0.000000 0.784298 0.423473
Si Si6 0.140857 0.500000 0.562260
Si Si7 0.000000 0.215702 0.701047
O O1 0.417177 0.779500 0.623533
O O2 0.300515 0.870107 0.429280
O O3 0.300515 0.129893 0.695240
O O4 0.417177 0.220500 0.500987
O O5 0.000000 0.552120 0.300523
O O6 0.000000 0.952266 0.788864
O O7 0.196078 0.497834 0.415841
O O8 0.303922 0.497834 0.208678
O O9 0.500000 0.952266 0.835656
O O10 0.500000 0.552120 0.323997
O O11 0.079530 0.733310 0.524287
O O12 0.079530 0.266690 0.600233
#
# Coordination Sequence:
#
# PCOD9343585 Si02
#       7
#     4   2   4   2   2   4   2
#     4  11  28  48  78 113 160 202 268 317 406 458
#     4  11  26  52  79 112 154 213 262 321 388 485
#     4  12  28  46  76 124 154 216 250 352 382 484
#     4  11  26  52  79 112 154 213 262 321 388 485
#     4  11  26  52  79 112 154 213 262 321 388 485
#     4  11  28  48  78 113 160 202 268 317 406 458
#     4  11  26  52  79 112 154 213 262 321 388 485
#
# _framework density 26.789010000000001
#
# number of rings (size 3 to 8) (size 9 to 14) (size 15 to 20)
#    0.000    0.800    4.000    0.000   11.200    6.400 
#    0.000    0.000    0.000    0.000    0.000    0.000 
#    0.000    0.000    0.000    0.000    0.000    0.000 
#
# Total GULP energy -112241.058127 kJ/mol
# GULP energy per Si atom -5612.052906 kJ/mol
# Density = 2.672804 g / cm^3
# Si number density = 26.789010 Si / 1000 Ang^3
#
#
#
# Elastic Constant Matrix: (Units=GPa)
#
#
# Indices 1 2 3 4 5 6 
#
# 1 170.3813 25.2490 132.2237 0.0000 0.0000 0.0000
# 2 25.2490 130.3181 99.7722 0.0000 0.0000 0.0000
# 3 132.2237 99.7722 243.4814 0.0000 0.0000 0.0000
# 4 0.0000 0.0000 0.0000 77.6238 0.0000 0.0000
# 5 0.0000 0.0000 0.0000 0.0000 102.0027 0.0000
# 6 0.0000 0.0000 0.0000 0.0000 0.0000 -32.2040
#
#
#
# Elastic Compliance Matrix: (Units=1/GPa)
#
#
# Indices 1 2 3 4 5 6 
#
# 1 0.011209 0.003626 -0.007573 0.000000 0.000000 0.000000
# 2 0.003626 0.012354 -0.007032 0.000000 0.000000 0.000000
# 3 -0.007573 -0.007032 0.011101 0.000000 0.000000 0.000000
# 4 0.000000 0.000000 0.000000 0.012883 0.000000 0.000000
# 5 0.000000 0.000000 0.000000 0.000000 0.009804 0.000000
# 6 0.000000 0.000000 0.000000 0.000000 0.000000 -0.031052
#
#
# Mechanical properties :
#
#
# Convention : Reuss Voigt Hill
#
# Bulk Modulus (GPa) = 78.69501 117.63009 98.16255
# Shear Modulus (GPa) = 95.25448 48.61356 71.93402
#
# Velocity S-wave (km/s) = 5.96946 4.26453 5.18752
# Velocity P-wave (km/s) = 8.77224 8.26156 8.52073
#
# Compressibility (1/GPa) = 0.01270729
#
# Stress axis : x y z
#
# Youngs Moduli (GPa) = 89.21659 80.94217 90.08234
#
# Poissons Ratio (x) = -0.29351 0.68218
# Poissons Ratio (y) = -0.32351 0.63343
# Poissons Ratio (z) = 0.67562 0.56916
#
# Static dielectric constant tensor:
#      x y z
#    x 2.156830 0.000000 0.000000 
#    y 0.000000 2.048220 0.000000 
#    z 0.000000 0.000000 2.137330 
# 
# From -- ./inp_files/2411.got.cif
#   From: 2010.05.17/outbox.cif.g08.bks.cpg/sg31_2_cif.got.tgz:2411.got - 2010.06.03 17:08:30.
