data_PCOD9343331
_publ_section_title
;
Structure prediction by ZEFSAII (Michael W. Deem and Ramdas Pophale) SiO2 
 PCOD9343331
Probable space group: P M N 21
;
_chemical_formula_sum "Si O2"
_cell_formula_units_Z 32
_cell_length_a 7.955665
_cell_length_b 12.224582
_cell_length_c 15.854560
_cell_angle_alpha 90.000000
_cell_angle_beta 90.000000
_cell_angle_gamma 90.000000
_cell_volume 1541.930146
_symmetry_space_group_name_H-M "P M N 21"
_symmetry_group_IT_number 31
_symmetry_cell_setting 'orthorhombic'
loop_
_space_group_symop_operation_xyz
x,y,z
1/2-x,-y,1/2+z
-x,y,z
1/2+x,-y,1/2+z
loop_
_atom_site_type_symbol
_atom_site_label
_atom_site_fract_x
_atom_site_fract_y
_atom_site_fract_z
Si Si1 0.705779 0.283604 0.564530
Si Si2 0.800109 0.739929 0.249119
Si Si3 0.695979 0.515507 0.504356
Si Si4 0.799399 0.506265 0.315983
Si Si5 0.705947 0.149723 0.400783
Si Si6 0.203612 0.715893 0.735664
Si Si7 0.303363 0.901405 0.395235
Si Si8 0.695754 0.244354 0.049705
O O1 0.500000 0.283437 0.561165
O O2 0.762283 0.237346 0.654610
O O3 0.757298 0.410511 0.556246
O O4 0.763131 0.215211 0.483643
O O5 0.735454 0.622941 0.282327
O O6 0.769748 0.832172 0.318079
O O7 0.000000 0.726073 0.241433
O O8 0.500000 0.533641 0.523936
O O9 0.715000 0.484021 0.406156
O O10 0.787744 0.629363 0.520940
O O11 0.762628 0.407600 0.252580
O O12 0.000000 0.512919 0.329563
O O13 0.500000 0.150498 0.402086
O O14 0.757768 0.211193 0.315250
O O15 0.764438 0.024392 0.402198
O O16 0.262780 0.760168 0.645239
O O17 0.000000 0.714806 0.733680
O O18 0.500000 0.910951 0.377938
O O19 0.280145 0.833320 0.481107
O O20 0.500000 0.214474 0.050430
#
# Coordination Sequence:
#
# PCOD9343331 Si02
#       8
#     4   4   4   4   4   4   4   4
#     4   9  18  35  61  86 111 148 188 230 283 342
#     4  10  21  37  58  84 116 150 184 232 289 341
#     4  11  20  35  62  88 114 152 193 231 285 351
#     4  11  21  34  56  88 124 152 183 234 288 343
#     4   9  19  38  60  83 110 147 199 243 282 338
#     4  10  21  39  62  85 115 156 194 233 288 350
#     4  11  23  38  59  82 110 152 198 244 287 340
#     4  11  23  38  58  86 120 153 189 239 292 343
#
# _framework density 20.753209999999999
#
# number of rings (size 3 to 8) (size 9 to 14) (size 15 to 20)
#    0.000    1.750    2.500    2.250    0.000    3.500 
#    0.000    2.500    0.000    0.000    0.000    0.000 
#    0.000    0.000    0.000    0.000    0.000    0.000 
#
# Total GULP energy -178802.718152 kJ/mol
# GULP energy per Si atom -5587.584942 kJ/mol
# Density = 2.070598 g / cm^3
# Si number density = 20.753210 Si / 1000 Ang^3
#
#
#
# Elastic Constant Matrix: (Units=GPa)
#
#
# Indices 1 2 3 4 5 6 
#
# 1 13.1547 -3.4087 -1.7650 0.0000 0.0000 0.0000
# 2 -3.4087 116.2922 31.3366 0.0000 0.0000 0.0000
# 3 -1.7650 31.3366 108.6222 0.0000 0.0000 0.0000
# 4 0.0000 0.0000 0.0000 3.9710 0.0000 0.0000
# 5 0.0000 0.0000 0.0000 0.0000 116.2504 0.0000
# 6 0.0000 0.0000 0.0000 0.0000 0.0000 -1.3576
#
#
#
# Elastic Compliance Matrix: (Units=1/GPa)
#
#
# Indices 1 2 3 4 5 6 
#
# 1 0.076642 0.002072 0.000648 0.000000 0.000000 0.000000
# 2 0.002072 0.009380 -0.002672 0.000000 0.000000 0.000000
# 3 0.000648 -0.002672 0.009988 0.000000 0.000000 0.000000
# 4 0.000000 0.000000 0.000000 0.251825 0.000000 0.000000
# 5 0.000000 0.000000 0.000000 0.000000 0.008602 0.000000
# 6 0.000000 0.000000 0.000000 0.000000 0.000000 -0.736567
#
#
# Mechanical properties :
#
#
# Convention : Reuss Voigt Hill
#
# Bulk Modulus (GPa) = 10.40535 32.26611 21.33573
# Shear Modulus (GPa) = -14.36001 37.89984 11.76992
#
# Velocity S-wave (km/s) = -2.63333 4.27806 2.38405
# Velocity P-wave (km/s) = 2.05455 6.32327 4.22862
#
# Compressibility (1/GPa) = 0.09610445
#
# Stress axis : x y z
#
# Youngs Moduli (GPa) = 13.04761 106.61143 100.12325
#
# Poissons Ratio (x) = -0.22090 -0.06484
# Poissons Ratio (y) = -0.02703 0.26756
# Poissons Ratio (z) = -0.00845 0.28490
#
# Static dielectric constant tensor:
#      x y z
#    x 1.505340 0.000000 0.000000 
#    y 0.000000 1.723040 0.000000 
#    z 0.000000 0.000000 1.740060 
# 
# From -- ./inp_files/4975.got.cif
#   From: 2010.05.17/outbox.cif.g08.bks.cpg/sg31_3_cif.got.tgz:4975.got - 2010.06.03 17:08:30.
