data_PCOD9343555
_publ_section_title
;
Structure prediction by ZEFSAII (Michael W. Deem and Ramdas Pophale) SiO2 
 PCOD9343555
Probable space group: P M N 21
;
_chemical_formula_sum "Si O2"
_cell_formula_units_Z 16
_cell_length_a 20.221564
_cell_length_b 4.960757
_cell_length_c 7.880778
_cell_angle_alpha 90.000000
_cell_angle_beta 90.000000
_cell_angle_gamma 90.000000
_cell_volume 790.554454
_symmetry_space_group_name_H-M "P M N 21"
_symmetry_group_IT_number 31
_symmetry_cell_setting 'orthorhombic'
loop_
_space_group_symop_operation_xyz
x,y,z
1/2-x,-y,1/2+z
-x,y,z
1/2+x,-y,1/2+z
loop_
_atom_site_type_symbol
_atom_site_label
_atom_site_fract_x
_atom_site_fract_y
_atom_site_fract_z
Si Si1 0.427228 0.438495 0.166000
Si Si2 0.211197 0.874666 0.357850
Si Si3 0.927253 0.062630 0.424341
Si Si4 0.713925 0.376180 0.234394
O O1 0.500000 0.495322 0.241181
O O2 0.418312 0.643932 0.007570
O O3 0.361519 0.458288 0.277800
O O4 0.428894 0.141785 0.084270
O O5 0.240246 0.638230 0.242294
O O6 0.212270 0.747490 0.545594
O O7 0.136579 0.972697 0.319005
O O8 0.256937 0.137519 0.347830
O O9 0.000000 0.048101 0.341801
#
# Coordination Sequence:
#
# PCOD9343555 Si02
#       4
#     4   4   4   4
#     4   9  17  31  52  77 102 133 179 224 255 297
#     4  11  21  35  55  80 109 140 176 219 268 318
#     4   9  17  31  52  77 102 133 179 224 255 297
#     4  11  21  35  55  80 109 140 176 219 268 318
#
# _framework density 20.238959000000001
#
# number of rings (size 3 to 8) (size 9 to 14) (size 15 to 20)
#    0.000    2.000    0.000    7.500    0.000    0.000 
#    0.000    0.000    0.000    9.000    0.000    0.000 
#    0.000    0.000    0.000    0.000    0.000    0.000 
#
# Total GULP energy -89211.140952 kJ/mol
# GULP energy per Si atom -5575.696309 kJ/mol
# Density = 2.019289 g / cm^3
# Si number density = 20.238959 Si / 1000 Ang^3
#
#
#
# Elastic Constant Matrix: (Units=GPa)
#
#
# Indices 1 2 3 4 5 6 
#
# 1 228.4668 49.8476 27.3123 0.0000 0.0000 0.0000
# 2 49.8476 82.6885 11.8386 0.0000 0.0000 0.0000
# 3 27.3123 11.8386 22.5023 0.0000 0.0000 0.0000
# 4 0.0000 0.0000 0.0000 27.1900 0.0000 0.0000
# 5 0.0000 0.0000 0.0000 0.0000 24.4622 0.0000
# 6 0.0000 0.0000 0.0000 0.0000 0.0000 41.5942
#
#
#
# Elastic Compliance Matrix: (Units=1/GPa)
#
#
# Indices 1 2 3 4 5 6 
#
# 1 0.005591 -0.002594 -0.005421 0.000000 0.000000 0.000000
# 2 -0.002594 0.014283 -0.004365 0.000000 0.000000 0.000000
# 3 -0.005421 -0.004365 0.053317 0.000000 0.000000 0.000000
# 4 0.000000 0.000000 0.000000 0.036778 0.000000 0.000000
# 5 0.000000 0.000000 0.000000 0.000000 0.040879 0.000000
# 6 0.000000 0.000000 0.000000 0.000000 0.000000 0.024042
#
#
# Mechanical properties :
#
#
# Convention : Reuss Voigt Hill
#
# Bulk Modulus (GPa) = 20.64901 56.85053 38.74977
# Shear Modulus (GPa) = 23.17020 34.95988 29.06504
#
# Velocity S-wave (km/s) = 3.38721 4.16066 3.79369
# Velocity P-wave (km/s) = 5.05196 7.15766 6.19493
#
# Compressibility (1/GPa) = 0.04842846
#
# Stress axis : x y z
#
# Youngs Moduli (GPa) = 178.85380 70.01565 18.75587
#
# Poissons Ratio (x) = 0.18165 0.10168
# Poissons Ratio (y) = 0.46401 0.08187
# Poissons Ratio (z) = 0.96964 0.30563
#
# Static dielectric constant tensor:
#      x y z
#    x 1.812040 0.000000 0.000000 
#    y 0.000000 1.700870 0.000000 
#    z 0.000000 0.000000 1.723500 
# 
# From -- ./inp_files/724.got.cif
#   From: 2010.05.17/outbox.cif.g08.bks.cpg/sg31_1_cif.got.tgz:724.got - 2010.06.03 17:08:30.
