data_PCOD9343560
_publ_section_title
;
Structure prediction by ZEFSAII (Michael W. Deem and Ramdas Pophale) SiO2 
 PCOD9343560
Probable space group: P M N 21
;
_chemical_formula_sum "Si O2"
_cell_formula_units_Z 24
_cell_length_a 7.683524
_cell_length_b 7.879872
_cell_length_c 19.700101
_cell_angle_alpha 90.000000
_cell_angle_beta 90.000000
_cell_angle_gamma 90.000000
_cell_volume 1192.746272
_symmetry_space_group_name_H-M "P M N 21"
_symmetry_group_IT_number 31
_symmetry_cell_setting 'orthorhombic'
loop_
_space_group_symop_operation_xyz
x,y,z
1/2-x,-y,1/2+z
-x,y,z
1/2+x,-y,1/2+z
loop_
_atom_site_type_symbol
_atom_site_label
_atom_site_fract_x
_atom_site_fract_y
_atom_site_fract_z
Si Si1 0.291147 0.309593 0.855820
Si Si2 0.286048 1.000000 0.606754
Si Si3 0.205046 0.999997 0.953278
Si Si4 0.787633 0.306616 0.201928
Si Si5 0.708853 0.690402 0.855820
Si Si6 0.787633 0.693383 0.201927
O O1 0.500000 0.317876 0.852145
O O2 0.249500 0.166397 0.909971
O O3 0.227676 0.499998 0.872844
O O4 0.231243 0.266372 0.779198
O O5 0.500000 0.999999 0.606815
O O6 0.230255 0.166585 0.648324
O O7 0.221546 0.000000 0.529480
O O8 0.230254 0.833415 0.648325
O O9 0.000000 0.999992 0.961627
O O10 0.249507 0.833598 0.909971
O O11 0.731242 0.266373 0.279199
O O12 0.734535 0.500000 0.186321
O O13 0.000000 0.304482 0.201827
O O14 0.500000 0.682115 0.852143
O O15 0.000000 0.695517 0.201827
#
# Coordination Sequence:
#
# PCOD9343560 Si02
#       6
#     4   4   4   4   4   4
#     4   9  18  34  56  76  93 123 169 212 244 279
#     4   9  17  27  41  67 100 127 152 190 242 291
#     4  11  22  31  45  75 110 137 156 186 244 307
#     4   8  14  27  49  72  89 113 159 212 246 269
#     4   9  18  34  56  76  93 123 169 212 244 279
#     4   8  14  27  49  72  89 113 159 212 246 269
#
# _framework density 20.121628999999999
#
# number of rings (size 3 to 8) (size 9 to 14) (size 15 to 20)
#    0.000    3.000    0.000    3.500    0.000    4.667 
#    0.000    3.333    0.000    8.000    0.000    0.000 
#    0.000    0.000    0.000    0.000    0.000    0.000 
#
# Total GULP energy -133881.840316 kJ/mol
# GULP energy per Si atom -5578.410013 kJ/mol
# Density = 2.007583 g / cm^3
# Si number density = 20.121629 Si / 1000 Ang^3
#
#
#
# Elastic Constant Matrix: (Units=GPa)
#
#
# Indices 1 2 3 4 5 6 
#
# 1 31.6323 5.9814 9.1056 0.0000 0.0000 0.0000
# 2 5.9814 189.6413 166.7337 0.0000 0.0000 0.0000
# 3 9.1056 166.7337 210.0565 0.0000 0.0000 0.0000
# 4 0.0000 0.0000 0.0000 -7.1207 0.0000 0.0000
# 5 0.0000 0.0000 0.0000 0.0000 19.0160 0.0000
# 6 0.0000 0.0000 0.0000 0.0000 0.0000 2.9608
#
#
#
# Elastic Compliance Matrix: (Units=1/GPa)
#
#
# Indices 1 2 3 4 5 6 
#
# 1 0.032041 0.000697 -0.001942 0.000000 0.000000 0.000000
# 2 0.000697 0.017469 -0.013896 0.000000 0.000000 0.000000
# 3 -0.001942 -0.013896 0.015875 0.000000 0.000000 0.000000
# 4 0.000000 0.000000 0.000000 -0.140435 0.000000 0.000000
# 5 0.000000 0.000000 0.000000 0.000000 0.052587 0.000000
# 6 0.000000 0.000000 0.000000 0.000000 0.000000 0.337752
#
#
# Mechanical properties :
#
#
# Convention : Reuss Voigt Hill
#
# Bulk Modulus (GPa) = 28.48871 88.33015 58.40943
# Shear Modulus (GPa) = 13.99497 19.60517 16.80007
#
# Velocity S-wave (km/s) = 2.64013 3.12482 2.89264
# Velocity P-wave (km/s) = 4.84590 7.55068 6.34411
#
# Compressibility (1/GPa) = 0.03510163
#
# Stress axis : x y z
#
# Youngs Moduli (GPa) = 31.21045 57.24564 62.99271
#
# Poissons Ratio (x) = -0.03989 0.12234
# Poissons Ratio (y) = -0.02175 0.87535
# Poissons Ratio (z) = 0.06061 0.79549
#
# Static dielectric constant tensor:
#      x y z
#    x 1.773350 0.000000 0.000000 
#    y 0.000000 1.625440 0.000000 
#    z 0.000000 0.000000 1.702760 
# 
# From -- ./inp_files/5707.got.cif
#   From: 2010.05.17/outbox.cif.g08.bks.cpg/sg31_3_cif.got.tgz:5707.got - 2010.06.03 17:08:30.
