data_PCOD9343493
_publ_section_title
;
Structure prediction by ZEFSAII (Michael W. Deem and Ramdas Pophale) SiO2 
 PCOD9343493
Probable space group: P M N 21
;
_chemical_formula_sum "Si O2"
_cell_formula_units_Z 32
_cell_length_a 15.460268
_cell_length_b 9.390979
_cell_length_c 11.299979
_cell_angle_alpha 90.000000
_cell_angle_beta 90.000000
_cell_angle_gamma 90.000000
_cell_volume 1640.610640
_symmetry_space_group_name_H-M "P M N 21"
_symmetry_group_IT_number 31
_symmetry_cell_setting 'orthorhombic'
loop_
_space_group_symop_operation_xyz
x,y,z
1/2-x,-y,1/2+z
-x,y,z
1/2+x,-y,1/2+z
loop_
_atom_site_type_symbol
_atom_site_label
_atom_site_fract_x
_atom_site_fract_y
_atom_site_fract_z
Si Si1 0.901710 0.540958 0.961930
Si Si2 0.669544 0.861385 0.733912
Si Si3 0.260245 0.157895 0.820486
Si Si4 0.400725 0.801896 0.472549
Si Si5 0.836064 0.665557 0.717504
Si Si6 0.737045 0.621695 0.113571
Si Si7 0.402924 0.141184 0.016940
Si Si8 0.596956 0.814032 0.985739
O O1 0.883368 0.609603 0.834198
O O2 0.000000 0.573118 0.999967
O O3 0.893487 0.369219 0.956424
O O4 0.828203 0.598410 0.049197
O O5 0.625797 0.838880 0.606971
O O6 0.749718 0.753959 0.747241
O O7 0.706006 0.020704 0.749586
O O8 0.606825 0.832420 0.844567
O O9 0.250949 0.290502 0.733736
O O10 0.168699 0.129116 0.884180
O O11 0.329763 0.187114 0.923980
O O12 0.500000 0.843184 0.449685
O O13 0.805609 0.529080 0.643075
O O14 0.892361 0.768088 0.635009
O O15 0.670517 0.711254 0.033986
O O16 0.500000 0.157820 0.968171
O O17 0.389877 0.972587 0.038385
O O18 0.500000 0.765090 0.015856
#
# Coordination Sequence:
#
# PCOD9343493 Si02
#       8
#     4   4   4   4   4   4   4   4
#     4  11  24  42  65  98 133 171 221 272 324 388
#     4  11  22  40  70  92 126 170 216 267 327 385
#     4  11  24  41  66  97 130 169 212 265 327 392
#     4  11  23  44  68  95 130 174 219 271 329 387
#     4  12  22  41  67  91 129 171 214 264 326 383
#     4  12  24  40  64  94 132 173 209 263 328 386
#     4  10  22  42  67  93 127 167 213 268 322 378
#     4  10  23  42  65  96 127 165 218 270 321 387
#
# _framework density 19.504933000000001
#
# number of rings (size 3 to 8) (size 9 to 14) (size 15 to 20)
#    0.000    1.000    5.000    1.500    1.750    2.500 
#    0.000    2.500    0.000    0.000    0.000    0.000 
#    0.000    0.000    0.000    0.000    0.000    0.000 
#
# Total GULP energy -178914.726517 kJ/mol
# GULP energy per Si atom -5591.085204 kJ/mol
# Density = 1.946054 g / cm^3
# Si number density = 19.504933 Si / 1000 Ang^3
#
#
#
# Elastic Constant Matrix: (Units=GPa)
#
#
# Indices 1 2 3 4 5 6 
#
# 1 125.6587 15.8731 20.4461 0.0000 0.0000 0.0000
# 2 15.8731 57.4767 18.2773 0.0000 0.0000 0.0000
# 3 20.4461 18.2773 56.3550 0.0000 0.0000 0.0000
# 4 0.0000 0.0000 0.0000 34.5925 0.0000 0.0000
# 5 0.0000 0.0000 0.0000 0.0000 -14.9123 0.0000
# 6 0.0000 0.0000 0.0000 0.0000 0.0000 12.8312
#
#
#
# Elastic Compliance Matrix: (Units=1/GPa)
#
#
# Indices 1 2 3 4 5 6 
#
# 1 0.008578 -0.001538 -0.002613 0.000000 0.000000 0.000000
# 2 -0.001538 0.019675 -0.005823 0.000000 0.000000 0.000000
# 3 -0.002613 -0.005823 0.020581 0.000000 0.000000 0.000000
# 4 0.000000 0.000000 0.000000 0.028908 0.000000 0.000000
# 5 0.000000 0.000000 0.000000 0.000000 -0.067059 0.000000
# 6 0.000000 0.000000 0.000000 0.000000 0.000000 0.077935
#
#
# Mechanical properties :
#
#
# Convention : Reuss Voigt Hill
#
# Bulk Modulus (GPa) = 34.61964 38.74260 36.68112
# Shear Modulus (GPa) = 42.30323 18.82856 30.56589
#
# Velocity S-wave (km/s) = 4.66214 3.11034 3.96294
# Velocity P-wave (km/s) = 6.83875 5.72757 6.30767
#
# Compressibility (1/GPa) = 0.02888533
#
# Stress axis : x y z
#
# Youngs Moduli (GPa) = 116.58368 50.82662 48.58775
#
# Poissons Ratio (x) = 0.07816 0.12697
# Poissons Ratio (y) = 0.17928 0.28293
# Poissons Ratio (z) = 0.30466 0.29597
#
# Static dielectric constant tensor:
#      x y z
#    x 1.681070 0.000000 0.000000 
#    y 0.000000 1.662260 0.000000 
#    z 0.000000 0.000000 1.669970 
# 
# From -- ./inp_files/4284.got.cif
#   From: 2010.05.17/outbox.cif.g08.bks.cpg/sg31_3_cif.got.tgz:4284.got - 2010.06.03 17:08:30.
