data_PCOD9343090
_publ_section_title
;
Structure prediction by ZEFSAII (Michael W. Deem and Ramdas Pophale) SiO2 
 PCOD9343090
Probable space group: P M N 21
;
_chemical_formula_sum "Si O2"
_cell_formula_units_Z 32
_cell_length_a 7.629510
_cell_length_b 14.595959
_cell_length_c 12.697830
_cell_angle_alpha 90.000000
_cell_angle_beta 90.000000
_cell_angle_gamma 90.000000
_cell_volume 1414.030541
_symmetry_space_group_name_H-M "P M N 21"
_symmetry_group_IT_number 31
_symmetry_cell_setting 'orthorhombic'
loop_
_space_group_symop_operation_xyz
x,y,z
1/2-x,-y,1/2+z
-x,y,z
1/2+x,-y,1/2+z
loop_
_atom_site_type_symbol
_atom_site_label
_atom_site_fract_x
_atom_site_fract_y
_atom_site_fract_z
Si Si1 0.702539 0.654080 0.477050
Si Si2 0.298547 0.799896 0.283970
Si Si3 0.797745 0.129446 0.340716
Si Si4 0.286915 0.643878 0.136244
Si Si5 0.699797 0.051335 0.937737
Si Si6 0.297647 0.323343 0.403191
Si Si7 0.715410 0.507048 0.319611
Si Si8 0.705108 0.810258 0.618226
O O1 0.500000 0.633701 0.504504
O O2 0.699646 0.725116 0.378535
O O3 0.778780 0.563323 0.423175
O O4 0.782308 0.715437 0.570653
O O5 0.500000 0.826148 0.262991
O O6 0.229212 0.741500 0.186119
O O7 0.204161 0.887688 0.331188
O O8 0.795836 0.226335 0.399056
O O9 0.718002 0.150976 0.226205
O O10 0.000000 0.100395 0.322963
O O11 0.719804 0.046718 0.408561
O O12 0.500000 0.644855 0.134707
O O13 0.232813 0.562946 0.215734
O O14 0.216667 0.635522 0.019705
O O15 0.500000 0.039814 0.973982
O O16 0.787790 0.112523 0.027824
O O17 0.500000 0.306084 0.377573
O O18 0.227774 0.402098 0.325728
O O19 0.500000 0.508332 0.323125
O O20 0.500000 0.790623 0.638693
#
# Coordination Sequence:
#
# PCOD9343090 Si02
#       8
#     4   4   4   4   4   4   4   4
#     4   7  11  25  51  77  98 126 168 213 254 302
#     4   8  15  30  54  79 101 134 178 216 258 318
#     4  10  23  40  54  74 108 148 184 216 263 329
#     4   9  18  36  59  79 107 147 182 216 267 328
#     4  10  20  34  54  81 110 138 176 227 275 320
#     4  11  23  36  53  81 113 142 179 227 270 310
#     4   8  16  32  53  78 107 139 177 218 261 313
#     4   9  18  35  58  79 102 140 184 219 260 318
#
# _framework density 22.630347
#
# number of rings (size 3 to 8) (size 9 to 14) (size 15 to 20)
#    0.000    3.000    0.000    3.000    0.000    4.000 
#    0.000    5.000    0.000    7.500    0.000    0.000 
#    0.000    0.000    0.000    0.000    0.000    0.000 
#
# Total GULP energy -178439.644342 kJ/mol
# GULP energy per Si atom -5576.238886 kJ/mol
# Density = 2.257884 g / cm^3
# Si number density = 22.630347 Si / 1000 Ang^3
#
#
#
# Elastic Constant Matrix: (Units=GPa)
#
#
# Indices 1 2 3 4 5 6 
#
# 1 46.4510 -1.4342 -6.9001 0.0000 0.0000 0.0000
# 2 -1.4342 108.9870 17.2137 0.0000 0.0000 0.0000
# 3 -6.9001 17.2137 65.7311 0.0000 0.0000 0.0000
# 4 0.0000 0.0000 0.0000 19.6432 0.0000 0.0000
# 5 0.0000 0.0000 0.0000 0.0000 14.8651 0.0000
# 6 0.0000 0.0000 0.0000 0.0000 0.0000 30.6527
#
#
#
# Elastic Compliance Matrix: (Units=1/GPa)
#
#
# Indices 1 2 3 4 5 6 
#
# 1 0.021870 -0.000078 0.002316 0.000000 0.000000 0.000000
# 2 -0.000078 0.009572 -0.002515 0.000000 0.000000 0.000000
# 3 0.002316 -0.002515 0.016115 0.000000 0.000000 0.000000
# 4 0.000000 0.000000 0.000000 0.050908 0.000000 0.000000
# 5 0.000000 0.000000 0.000000 0.000000 0.067271 0.000000
# 6 0.000000 0.000000 0.000000 0.000000 0.000000 0.032624
#
#
# Mechanical properties :
#
#
# Convention : Reuss Voigt Hill
#
# Bulk Modulus (GPa) = 21.27516 26.54756 23.91136
# Shear Modulus (GPa) = 23.30124 27.18484 25.24304
#
# Velocity S-wave (km/s) = 3.21229 3.46967 3.34346
# Velocity P-wave (km/s) = 4.81456 5.27332 5.04915
#
# Compressibility (1/GPa) = 0.04700318
#
# Stress axis : x y z
#
# Youngs Moduli (GPa) = 45.72537 104.47598 62.05320
#
# Poissons Ratio (x) = 0.00815 -0.14373
# Poissons Ratio (y) = 0.00357 0.15605
# Poissons Ratio (z) = -0.10591 0.26274
#
# Static dielectric constant tensor:
#      x y z
#    x 1.873830 0.000000 0.000000 
#    y 0.000000 1.864670 0.000000 
#    z 0.000000 0.000000 1.865790 
# 
# From -- ./inp_files/3648.got.cif
#   From: 2010.05.17/outbox.cif.g08.bks.cpg/sg31_2_cif.got.tgz:3648.got - 2010.06.03 17:08:30.
