data_PCOD9343673
_publ_section_title
;
Structure prediction by ZEFSAII (Michael W. Deem and Ramdas Pophale) SiO2 
 PCOD9343673
Probable space group: P B A 2
;
_chemical_formula_sum "Si O2"
_cell_formula_units_Z 22
_cell_length_a 17.269791
_cell_length_b 8.084129
_cell_length_c 8.143092
_cell_angle_alpha 90.000000
_cell_angle_beta 90.000000
_cell_angle_gamma 90.000000
_cell_volume 1136.866994
_symmetry_space_group_name_H-M "P B A 2"
_symmetry_group_IT_number 32
_symmetry_cell_setting 'orthorhombic'
loop_
_space_group_symop_operation_xyz
x,y,z
-x,-y,z
1/2-x,1/2+y,z
1/2+x,1/2-y,z
loop_
_atom_site_type_symbol
_atom_site_label
_atom_site_fract_x
_atom_site_fract_y
_atom_site_fract_z
Si Si1 0.665306 0.859735 0.491120
Si Si2 0.754460 0.131466 0.060313
Si Si3 0.156186 0.592001 0.872431
Si Si4 0.500000 0.000000 0.049294
Si Si5 0.330212 0.510465 0.358383
Si Si6 0.895821 0.665336 0.295109
O O1 0.655873 0.852492 0.685992
O O2 0.652348 0.675354 0.420027
O O3 0.752517 0.919307 0.445733
O O4 0.611835 0.004907 0.412895
O O5 0.683301 0.159617 0.185960
O O6 0.810548 0.013213 0.165102
O O7 0.805990 0.282799 0.002760
O O8 0.713333 0.063464 0.896913
O O9 0.070978 0.554630 0.937280
O O10 0.466493 0.859968 0.171014
O O11 0.393142 0.655539 0.379796
#
# Coordination Sequence:
#
# PCOD9343673 Si02
#       6
#     4   4   4   2   4   4
#     4  11  21  34  62  96 127 153 211 268 316 363
#     4  10  18  36  62  87 119 164 216 251 297 381
#     4  11  22  38  61  95 130 161 207 272 322 369
#     4  10  24  42  62  86 128 176 206 260 336 382
#     4  11  18  36  62  94 119 162 214 263 296 374
#     4  10  21  40  63  88 121 169 214 250 313 389
#
# _framework density 19.351430000000001
#
# number of rings (size 3 to 8) (size 9 to 14) (size 15 to 20)
#    0.000    1.455    5.455    3.273    0.000    0.727 
#    0.000    3.636    0.000    2.182    0.000    0.000 
#    0.000    0.000    0.000    0.000    0.000    0.000 
#
# Total GULP energy -122639.191414 kJ/mol
# GULP energy per Si atom -5574.508701 kJ/mol
# Density = 1.930738 g / cm^3
# Si number density = 19.351430 Si / 1000 Ang^3
#
#
#
# Elastic Constant Matrix: (Units=GPa)
#
#
# Indices 1 2 3 4 5 6 
#
# 1 62.1793 26.2674 21.5512 0.0000 0.0000 0.0000
# 2 26.2674 126.8531 37.2319 0.0000 0.0000 0.0000
# 3 21.5512 37.2319 95.5480 0.0000 0.0000 0.0000
# 4 0.0000 0.0000 0.0000 21.6647 0.0000 0.0000
# 5 0.0000 0.0000 0.0000 0.0000 16.7533 0.0000
# 6 0.0000 0.0000 0.0000 0.0000 0.0000 20.3528
#
#
#
# Elastic Compliance Matrix: (Units=1/GPa)
#
#
# Indices 1 2 3 4 5 6 
#
# 1 0.018357 -0.002920 -0.003003 0.000000 0.000000 0.000000
# 2 -0.002920 0.009366 -0.002991 0.000000 0.000000 0.000000
# 3 -0.003003 -0.002991 0.012309 0.000000 0.000000 0.000000
# 4 0.000000 0.000000 0.000000 0.046158 0.000000 0.000000
# 5 0.000000 0.000000 0.000000 0.000000 0.059690 0.000000
# 6 0.000000 0.000000 0.000000 0.000000 0.000000 0.049133
#
#
# Mechanical properties :
#
#
# Convention : Reuss Voigt Hill
#
# Bulk Modulus (GPa) = 45.03652 50.52016 47.77834
# Shear Modulus (GPa) = 22.70252 25.05618 23.87935
#
# Velocity S-wave (km/s) = 3.42887 3.60223 3.51662
# Velocity P-wave (km/s) = 6.24498 6.59278 6.42123
#
# Compressibility (1/GPa) = 0.02220420
#
# Stress axis : x y z
#
# Youngs Moduli (GPa) = 54.47598 106.77408 81.24364
#
# Poissons Ratio (x) = 0.31176 0.24395
# Poissons Ratio (y) = 0.15906 0.24299
# Poissons Ratio (z) = 0.16357 0.31935
#
# Static dielectric constant tensor:
#      x y z
#    x 1.665910 0.000000 0.000000 
#    y 0.000000 1.794100 0.000000 
#    z 0.000000 0.000000 1.655250 
# 
# From -- ./inp_files/2278.got.cif
#   From: 2010.05.17/outbox.cif.g08.bks.cpg/sg32_2_cif.got.tgz:2278.got - 2010.06.03 17:12:27.
