data_PCOD9343035
_publ_section_title
;
Structure prediction by ZEFSAII (Michael W. Deem and Ramdas Pophale) SiO2 
 PCOD9343035
Probable space group: P M N 21
;
_chemical_formula_sum "Si O2"
_cell_formula_units_Z 32
_cell_length_a 8.108666
_cell_length_b 15.751979
_cell_length_c 12.366918
_cell_angle_alpha 90.000000
_cell_angle_beta 90.000000
_cell_angle_gamma 90.000000
_cell_volume 1579.595971
_symmetry_space_group_name_H-M "P M N 21"
_symmetry_group_IT_number 31
_symmetry_cell_setting 'orthorhombic'
loop_
_space_group_symop_operation_xyz
x,y,z
1/2-x,-y,1/2+z
-x,y,z
1/2+x,-y,1/2+z
loop_
_atom_site_type_symbol
_atom_site_label
_atom_site_fract_x
_atom_site_fract_y
_atom_site_fract_z
Si Si1 0.697851 0.578222 0.879050
Si Si2 0.305317 0.610026 0.422798
Si Si3 0.699072 0.845845 0.664614
Si Si4 0.195087 0.751424 0.258376
Si Si5 0.198999 0.104162 0.925057
Si Si6 0.804498 0.915655 0.883027
Si Si7 0.700635 0.253111 0.509536
Si Si8 0.799340 0.344740 0.160124
O O1 0.500000 0.569786 0.880339
O O2 0.774659 0.489982 0.916046
O O3 0.754412 0.593749 0.755435
O O4 0.743131 0.660800 0.949786
O O5 0.500000 0.627897 0.421426
O O6 0.232831 0.665718 0.325470
O O7 0.237859 0.638575 0.539671
O O8 0.500000 0.853374 0.668510
O O9 0.752903 0.862076 0.542179
O O10 0.773952 0.904763 0.755809
O O11 0.745591 0.750021 0.694135
O O12 0.255416 0.831128 0.329703
O O13 0.258149 0.748702 0.134770
O O14 0.000000 0.759971 0.250122
O O15 0.000000 0.101544 0.926472
O O16 0.262967 0.008057 0.913977
O O17 0.000000 0.917258 0.904358
O O18 0.740792 0.832346 0.946915
O O19 0.500000 0.253538 0.507725
O O20 0.000000 0.348838 0.155965
#
# Coordination Sequence:
#
# PCOD9343035 Si02
#       8
#     4   4   4   4   4   4   4   4
#     4  11  23  40  62  92 121 153 201 249 293 355
#     4  11  23  42  64  88 121 161 197 241 305 361
#     4  10  19  38  64  86 114 156 198 244 301 354
#     4  11  24  41  62  88 121 160 204 250 296 355
#     4  10  22  40  62  87 121 160 199 245 302 359
#     4  10  22  39  60  89 120 155 200 248 296 356
#     4  10  23  42  60  84 122 164 199 243 304 357
#     4   9  19  38  62  84 114 153 194 242 295 349
#
# _framework density 20.258344999999998
#
# number of rings (size 3 to 8) (size 9 to 14) (size 15 to 20)
#    0.000    1.750    2.500    1.125    3.500    2.000 
#    0.000    1.875    0.000    0.000    0.000    0.000 
#    0.000    0.000    0.000    0.000    0.000    0.000 
#
# Total GULP energy -178652.980187 kJ/mol
# GULP energy per Si atom -5582.905631 kJ/mol
# Density = 2.021224 g / cm^3
# Si number density = 20.258345 Si / 1000 Ang^3
#
#
#
# Elastic Constant Matrix: (Units=GPa)
#
#
# Indices 1 2 3 4 5 6 
#
# 1 10.5739 -8.6875 -1.3223 0.0000 0.0000 0.0000
# 2 -8.6875 95.2561 26.3516 0.0000 0.0000 0.0000
# 3 -1.3223 26.3516 115.4398 0.0000 0.0000 0.0000
# 4 0.0000 0.0000 0.0000 29.9789 0.0000 0.0000
# 5 0.0000 0.0000 0.0000 0.0000 15.5333 0.0000
# 6 0.0000 0.0000 0.0000 0.0000 0.0000 19.7989
#
#
#
# Elastic Compliance Matrix: (Units=1/GPa)
#
#
# Indices 1 2 3 4 5 6 
#
# 1 0.102346 0.009617 -0.001023 0.000000 0.000000 0.000000
# 2 0.009617 0.012109 -0.002654 0.000000 0.000000 0.000000
# 3 -0.001023 -0.002654 0.009257 0.000000 0.000000 0.000000
# 4 0.000000 0.000000 0.000000 0.033357 0.000000 0.000000
# 5 0.000000 0.000000 0.000000 0.000000 0.064378 0.000000
# 6 0.000000 0.000000 0.000000 0.000000 0.000000 0.050508
#
#
# Mechanical properties :
#
#
# Convention : Reuss Voigt Hill
#
# Bulk Modulus (GPa) = 7.37508 28.21705 17.79606
# Shear Modulus (GPa) = 16.37888 26.72409 21.55149
#
# Velocity S-wave (km/s) = 2.84650 3.63597 3.26518
# Velocity P-wave (km/s) = 3.80156 5.62013 4.79780
#
# Compressibility (1/GPa) = 0.13559182
#
# Stress axis : x y z
#
# Youngs Moduli (GPa) = 9.77080 82.58103 108.03041
#
# Poissons Ratio (x) = -0.79419 0.11051
# Poissons Ratio (y) = -0.09397 0.28672
# Poissons Ratio (z) = 0.01000 0.21917
#
# Static dielectric constant tensor:
#      x y z
#    x 1.723780 0.000000 0.000000 
#    y 0.000000 1.698450 0.000000 
#    z 0.000000 0.000000 1.705350 
# 
# From -- ./inp_files/3642.got.cif
#   From: 2010.05.17/outbox.cif.g08.bks.cpg/sg31_2_cif.got.tgz:3642.got - 2010.06.03 17:08:30.
