data_PCOD9343266
_publ_section_title
;
Structure prediction by ZEFSAII (Michael W. Deem and Ramdas Pophale) SiO2 
 PCOD9343266
Probable space group: P M N 21
;
_chemical_formula_sum "Si O2"
_cell_formula_units_Z 32
_cell_length_a 8.101553
_cell_length_b 12.469553
_cell_length_c 15.653367
_cell_angle_alpha 90.000000
_cell_angle_beta 90.000000
_cell_angle_gamma 90.000000
_cell_volume 1581.346095
_symmetry_space_group_name_H-M "P M N 21"
_symmetry_group_IT_number 31
_symmetry_cell_setting 'orthorhombic'
loop_
_space_group_symop_operation_xyz
x,y,z
1/2-x,-y,1/2+z
-x,y,z
1/2+x,-y,1/2+z
loop_
_atom_site_type_symbol
_atom_site_label
_atom_site_fract_x
_atom_site_fract_y
_atom_site_fract_z
Si Si1 0.693174 0.996096 0.652300
Si Si2 0.804104 0.603205 0.008635
Si Si3 0.193099 0.763348 0.395009
Si Si4 0.799231 0.998495 0.346724
Si Si5 0.803464 0.543306 0.666365
Si Si6 0.193062 0.768645 0.596081
Si Si7 0.800560 0.849823 0.001555
Si Si8 0.194898 0.535885 0.348321
O O1 0.500000 0.023138 0.661068
O O2 0.712815 0.877592 0.614705
O O3 0.759626 0.990717 0.748923
O O4 0.762316 0.081140 0.583336
O O5 0.730045 0.535739 0.087117
O O6 0.000000 0.607021 0.022700
O O7 0.742746 0.726370 0.003971
O O8 0.770534 0.540950 0.920260
O O9 0.261129 0.880893 0.376167
O O10 0.199876 0.744576 0.495843
O O11 0.265670 0.656913 0.353027
O O12 0.000000 0.769288 0.368371
O O13 0.000000 0.001371 0.348425
O O14 0.744328 0.088198 0.414321
O O15 0.744792 0.663279 0.643774
O O16 0.721151 0.505705 0.753361
O O17 0.000000 0.548447 0.679180
O O18 0.000000 0.786445 0.618096
O O19 0.000000 0.848423 0.005646
O O20 0.000000 0.541811 0.368218
#
# Coordination Sequence:
#
# PCOD9343266 Si02
#       8
#     4   4   4   4   4   4   4   4
#     4  10  22  38  59  89 118 150 197 248 293 352
#     4  11  24  42  63  88 123 166 204 248 304 361
#     4   9  18  37  63  86 112 152 198 245 299 352
#     4  10  21  38  62  87 115 153 199 242 290 356
#     4  11  24  42  62  91 125 159 203 253 302 363
#     4  10  20  39  63  84 115 155 195 245 301 352
#     4  10  23  41  59  84 122 159 195 245 303 354
#     4  11  23  41  65  91 122 162 203 250 306 362
#
# _framework density 20.235923
#
# number of rings (size 3 to 8) (size 9 to 14) (size 15 to 20)
#    0.000    1.750    2.500    1.125    3.500    2.500 
#    0.000    1.250    0.000    0.000    0.000    0.000 
#    0.000    0.000    0.000    0.000    0.000    0.000 
#
# Total GULP energy -178641.404686 kJ/mol
# GULP energy per Si atom -5582.543896 kJ/mol
# Density = 2.018987 g / cm^3
# Si number density = 20.235923 Si / 1000 Ang^3
#
#
#
# Elastic Constant Matrix: (Units=GPa)
#
#
# Indices 1 2 3 4 5 6 
#
# 1 15.9605 -6.7261 -7.6388 0.0000 0.0000 0.0000
# 2 -6.7261 97.3915 10.9685 0.0000 0.0000 0.0000
# 3 -7.6388 10.9685 72.0475 0.0000 0.0000 0.0000
# 4 0.0000 0.0000 0.0000 35.4340 0.0000 0.0000
# 5 0.0000 0.0000 0.0000 0.0000 33.3017 0.0000
# 6 0.0000 0.0000 0.0000 0.0000 0.0000 153.2328
#
#
#
# Elastic Compliance Matrix: (Units=1/GPa)
#
#
# Indices 1 2 3 4 5 6 
#
# 1 0.067443 0.003920 0.006554 0.000000 0.000000 0.000000
# 2 0.003920 0.010675 -0.001210 0.000000 0.000000 0.000000
# 3 0.006554 -0.001210 0.014759 0.000000 0.000000 0.000000
# 4 0.000000 0.000000 0.000000 0.028222 0.000000 0.000000
# 5 0.000000 0.000000 0.000000 0.000000 0.030029 0.000000
# 6 0.000000 0.000000 0.000000 0.000000 0.000000 0.006526
#
#
# Mechanical properties :
#
#
# Convention : Reuss Voigt Hill
#
# Bulk Modulus (GPa) = 8.97627 19.84518 14.41072
# Shear Modulus (GPa) = 28.36725 56.98009 42.67367
#
# Velocity S-wave (km/s) = 3.74816 5.31216 4.59716
# Velocity P-wave (km/s) = 4.81425 6.88865 5.94267
#
# Compressibility (1/GPa) = 0.11140488
#
# Stress axis : x y z
#
# Youngs Moduli (GPa) = 14.82729 93.67886 67.75637
#
# Poissons Ratio (x) = -0.36719 -0.44407
# Poissons Ratio (y) = -0.05812 0.08195
# Poissons Ratio (z) = -0.09718 0.11331
#
# Static dielectric constant tensor:
#      x y z
#    x 1.735190 0.000000 0.000000 
#    y 0.000000 1.735430 0.000000 
#    z 0.000000 0.000000 1.692930 
# 
# From -- ./inp_files/4926.got.cif
#   From: 2010.05.17/outbox.cif.g08.bks.cpg/sg31_3_cif.got.tgz:4926.got - 2010.06.03 17:08:30.
