data_PCOD9343310
_publ_section_title
;
Structure prediction by ZEFSAII (Michael W. Deem and Ramdas Pophale) SiO2 
 PCOD9343310
Probable space group: P M N 21
;
_chemical_formula_sum "Si O2"
_cell_formula_units_Z 32
_cell_length_a 24.854577
_cell_length_b 7.757986
_cell_length_c 8.738809
_cell_angle_alpha 90.000000
_cell_angle_beta 90.000000
_cell_angle_gamma 90.000000
_cell_volume 1685.029914
_symmetry_space_group_name_H-M "P M N 21"
_symmetry_group_IT_number 31
_symmetry_cell_setting 'orthorhombic'
loop_
_space_group_symop_operation_xyz
x,y,z
1/2-x,-y,1/2+z
-x,y,z
1/2+x,-y,1/2+z
loop_
_atom_site_type_symbol
_atom_site_label
_atom_site_fract_x
_atom_site_fract_y
_atom_site_fract_z
Si Si1 0.613271 0.433764 0.300060
Si Si2 0.324454 0.950980 0.203682
Si Si3 0.782365 0.995356 0.051025
Si Si4 0.328755 0.598941 0.052787
Si Si5 0.652781 0.709907 0.722708
Si Si6 0.938131 0.927017 0.777341
Si Si7 0.294062 0.401930 0.545166
Si Si8 0.061472 0.257739 0.986293
O O1 0.631858 0.458269 0.124771
O O2 0.575366 0.268597 0.323755
O O3 0.668469 0.409580 0.395354
O O4 0.584083 0.602960 0.365552
O O5 0.302242 0.987116 0.375454
O O6 0.324814 0.745641 0.182756
O O7 0.384910 0.020444 0.180660
O O8 0.281172 0.021325 0.081519
O O9 0.812338 0.131417 0.158633
O O10 0.793821 0.797169 0.096503
O O11 0.267688 0.543428 0.017337
O O12 0.350611 0.694190 0.903408
O O13 0.680459 0.534015 0.664137
O O14 0.596403 0.726634 0.637732
O O15 0.000000 0.939028 0.717641
O O16 0.934652 0.066522 0.914564
O O17 0.000000 0.296879 0.016561
#
# Coordination Sequence:
#
# PCOD9343310 Si02
#       8
#     4   4   4   4   4   4   4   4
#     4  11  20  39  61  89 121 157 212 250 305 361
#     4  11  21  40  61  95 123 162 200 256 307 374
#     4  11  21  38  60  90 126 157 204 248 315 365
#     4  11  23  37  57  95 128 162 199 243 319 371
#     4  11  22  39  59  91 125 162 199 251 307 369
#     4  11  22  40  65  90 116 160 214 258 299 361
#     4  10  21  36  58  87 124 163 201 248 299 372
#     4  10  21  41  65  87 115 159 212 256 303 363
#
# _framework density 18.990760000000002
#
# number of rings (size 3 to 8) (size 9 to 14) (size 15 to 20)
#    0.000    1.250    3.750    3.375    1.750    1.000 
#    2.250    1.875    0.000    0.000    0.000    0.000 
#    0.000    0.000    0.000    0.000    0.000    0.000 
#
# Total GULP energy -178539.210601 kJ/mol
# GULP energy per Si atom -5579.350331 kJ/mol
# Density = 1.894754 g / cm^3
# Si number density = 18.990760 Si / 1000 Ang^3
#
#
#
# Elastic Constant Matrix: (Units=GPa)
#
#
# Indices 1 2 3 4 5 6 
#
# 1 170.3251 39.0410 41.9202 0.0000 0.0000 0.0000
# 2 39.0410 97.2261 45.8599 0.0000 0.0000 0.0000
# 3 41.9202 45.8599 49.8347 0.0000 0.0000 0.0000
# 4 0.0000 0.0000 0.0000 10.0687 0.0000 0.0000
# 5 0.0000 0.0000 0.0000 0.0000 11.5584 0.0000
# 6 0.0000 0.0000 0.0000 0.0000 0.0000 21.7363
#
#
#
# Elastic Compliance Matrix: (Units=1/GPa)
#
#
# Indices 1 2 3 4 5 6 
#
# 1 0.007404 -0.000062 -0.006171 0.000000 0.000000 0.000000
# 2 -0.000062 0.018174 -0.016672 0.000000 0.000000 0.000000
# 3 -0.006171 -0.016672 0.040600 0.000000 0.000000 0.000000
# 4 0.000000 0.000000 0.000000 0.099318 0.000000 0.000000
# 5 0.000000 0.000000 0.000000 0.000000 0.086517 0.000000
# 6 0.000000 0.000000 0.000000 0.000000 0.000000 0.046006
#
#
# Mechanical properties :
#
#
# Convention : Reuss Voigt Hill
#
# Bulk Modulus (GPa) = 49.09877 63.44759 56.27318
# Shear Modulus (GPa) = 14.26047 21.37698 17.81873
#
# Velocity S-wave (km/s) = 2.74326 3.35871 3.06647
# Velocity P-wave (km/s) = 5.99534 6.96588 6.49875
#
# Compressibility (1/GPa) = 0.02036711
#
# Stress axis : x y z
#
# Youngs Moduli (GPa) = 135.05856 55.02245 24.63083
#
# Poissons Ratio (x) = 0.00344 0.15199
# Poissons Ratio (y) = 0.00844 0.41065
# Poissons Ratio (z) = 0.83342 0.91735
#
# Static dielectric constant tensor:
#      x y z
#    x 1.683840 0.000000 0.000000 
#    y 0.000000 1.699030 0.000000 
#    z 0.000000 0.000000 1.656990 
# 
# From -- ./inp_files/3096.got.cif
#   From: 2010.05.17/outbox.cif.g08.bks.cpg/sg31_2_cif.got.tgz:3096.got - 2010.06.03 17:08:30.
