data_PCOD9343721
_publ_section_title
;
Structure prediction by ZEFSAII (Michael W. Deem and Ramdas Pophale) SiO2 
 PCOD9343721
Probable space group: P B A 2
;
_chemical_formula_sum "Si O2"
_cell_formula_units_Z 28
_cell_length_a 26.429790
_cell_length_b 5.611963
_cell_length_c 9.225097
_cell_angle_alpha 90.000000
_cell_angle_beta 90.000000
_cell_angle_gamma 90.000000
_cell_volume 1368.294095
_symmetry_space_group_name_H-M "P B A 2"
_symmetry_group_IT_number 32
_symmetry_cell_setting 'orthorhombic'
loop_
_space_group_symop_operation_xyz
x,y,z
-x,-y,z
1/2-x,1/2+y,z
1/2+x,1/2-y,z
loop_
_atom_site_type_symbol
_atom_site_label
_atom_site_fract_x
_atom_site_fract_y
_atom_site_fract_z
Si Si1 0.469215 0.751343 0.707810
Si Si2 0.619755 0.577543 0.199337
Si Si3 0.050018 0.169579 0.381472
Si Si4 0.274961 0.224430 0.154444
Si Si5 0.376798 0.766577 0.925528
Si Si6 0.553142 0.958713 0.114401
Si Si7 0.263355 0.759750 0.823344
O O1 0.500000 0.500000 0.719617
O O2 0.451235 0.776944 0.541321
O O3 0.420725 0.710048 0.811271
O O4 0.500000 0.000000 0.735532
O O5 0.604414 0.453736 0.349281
O O6 0.667350 0.751222 0.206139
O O7 0.565696 0.696981 0.164691
O O8 0.630582 0.411933 0.061204
O O9 0.049657 0.365957 0.252688
O O10 0.000000 0.000000 0.377579
O O11 0.247728 0.470715 0.203039
O O12 0.266700 0.233639 0.978606
O O13 0.322519 0.794256 0.855292
O O14 0.400651 0.991383 0.007419
O O15 0.500000 0.000000 0.039041
O O16 0.255905 0.502293 0.750471
#
# Coordination Sequence:
#
# PCOD9343721 Si02
#       7
#     4   4   4   4   4   4   4
#     4  11  27  45  63  85 128 170 209 248 304 372
#     4  11  22  35  63  93 119 159 206 257 310 364
#     4  10  22  41  59  85 120 171 206 245 298 375
#     4  10  19  35  54  87 121 156 192 247 307 368
#     4  11  24  35  60  95 121 157 206 255 310 364
#     4  11  21  34  59  88 127 153 202 255 310 359
#     4  10  19  35  57  84 120 157 192 245 306 369
#
# _framework density 20.463436999999999
#
# number of rings (size 3 to 8) (size 9 to 14) (size 15 to 20)
#    0.000    1.429    4.286    2.571    8.000    0.000 
#    0.000    0.000    0.000    1.714    0.000    0.000 
#    0.000    0.000    0.000    0.000    0.000    0.000 
#
# Total GULP energy -155891.074288 kJ/mol
# GULP energy per Si atom -5567.538367 kJ/mol
# Density = 2.041686 g / cm^3
# Si number density = 20.463437 Si / 1000 Ang^3
#
#
#
# Elastic Constant Matrix: (Units=GPa)
#
#
# Indices 1 2 3 4 5 6 
#
# 1 94.6561 22.4862 12.4383 0.0000 0.0000 0.0000
# 2 22.4862 95.1442 -0.2172 0.0000 0.0000 0.0000
# 3 12.4383 -0.2172 67.5284 0.0000 0.0000 0.0000
# 4 0.0000 0.0000 0.0000 -4.1858 0.0000 0.0000
# 5 0.0000 0.0000 0.0000 0.0000 10.9624 0.0000
# 6 0.0000 0.0000 0.0000 0.0000 0.0000 34.7193
#
#
#
# Elastic Compliance Matrix: (Units=1/GPa)
#
#
# Indices 1 2 3 4 5 6 
#
# 1 0.011490 -0.002720 -0.002125 0.000000 0.000000 0.000000
# 2 -0.002720 0.011155 0.000537 0.000000 0.000000 0.000000
# 3 -0.002125 0.000537 0.015202 0.000000 0.000000 0.000000
# 4 0.000000 0.000000 0.000000 -0.238906 0.000000 0.000000
# 5 0.000000 0.000000 0.000000 0.000000 0.091221 0.000000
# 6 0.000000 0.000000 0.000000 0.000000 0.000000 0.028802
#
#
# Mechanical properties :
#
#
# Convention : Reuss Voigt Hill
#
# Bulk Modulus (GPa) = 34.21238 36.30480 35.25859
# Shear Modulus (GPa) = -79.77595 23.14060 -28.31768
#
# Velocity S-wave (km/s) = -6.25054 3.36642 -3.72401
# Velocity P-wave (km/s) = 5.94452 5.73500 1.10613
#
# Compressibility (1/GPa) = 0.02922918
#
# Stress axis : x y z
#
# Youngs Moduli (GPa) = 87.03176 89.64970 65.78189
#
# Poissons Ratio (x) = 0.24388 0.13980
# Poissons Ratio (y) = 0.23676 -0.03532
# Poissons Ratio (z) = 0.18495 -0.04814
#
# Static dielectric constant tensor:
#      x y z
#    x 1.809530 0.000000 0.000000 
#    y 0.000000 1.843620 0.000000 
#    z 0.000000 0.000000 1.723580 
# 
# From -- ./inp_files/2019.got.cif
#   From: 2010.05.17/outbox.cif.g08.bks.cpg/sg32_2_cif.got.tgz:2019.got - 2010.06.03 17:12:27.
