data_PCOD9343399
_publ_section_title
;
Structure prediction by ZEFSAII (Michael W. Deem and Ramdas Pophale) SiO2 
 PCOD9343399
Probable space group: P M N 21
;
_chemical_formula_sum "Si O2"
_cell_formula_units_Z 26
_cell_length_a 7.239276
_cell_length_b 16.794612
_cell_length_c 7.966141
_cell_angle_alpha 90.000000
_cell_angle_beta 90.000000
_cell_angle_gamma 90.000000
_cell_volume 968.530047
_symmetry_space_group_name_H-M "P M N 21"
_symmetry_group_IT_number 31
_symmetry_cell_setting 'orthorhombic'
loop_
_space_group_symop_operation_xyz
x,y,z
1/2-x,-y,1/2+z
-x,y,z
1/2+x,-y,1/2+z
loop_
_atom_site_type_symbol
_atom_site_label
_atom_site_fract_x
_atom_site_fract_y
_atom_site_fract_z
Si Si1 0.722935 0.425631 0.920920
Si Si2 0.775620 0.733136 0.257697
Si Si3 0.208794 0.874831 0.059507
Si Si4 0.221403 0.820718 0.606408
Si Si5 0.279043 0.019469 0.258635
Si Si6 0.500000 0.727367 0.855681
Si Si7 0.790662 0.602612 0.804297
O O1 0.500000 0.427162 0.919847
O O2 0.782379 0.357154 0.791111
O O3 0.788171 0.512935 0.873399
O O4 0.776837 0.401591 0.110259
O O5 0.698272 0.792251 0.113801
O O6 0.732388 0.778376 0.431971
O O7 0.000000 0.733194 0.239189
O O8 0.000000 0.857385 0.004216
O O9 0.200401 0.933464 0.218995
O O10 0.291933 0.932948 0.920924
O O11 0.260592 0.915178 0.613669
O O12 0.337899 0.779619 0.753431
O O13 0.000000 0.811294 0.629530
O O14 0.500000 0.009708 0.272932
O O15 0.659439 0.660315 0.903962
O O16 0.000000 0.632052 0.806267
#
# Coordination Sequence:
#
# PCOD9343399 Si02
#       7
#     4   4   4   4   4   2   4
#     4  10  21  41  62  92 125 166 217 262 318 381
#     4   9  18  37  62  88 122 162 207 260 310 370
#     4  10  21  39  64  91 126 167 207 253 314 375
#     4  10  21  39  65  91 124 164 211 263 317 377
#     4  10  22  40  60  92 128 164 206 255 314 373
#     4  12  22  40  66  94 120 170 208 266 318 394
#     4  11  24  41  65  93 129 165 215 265 318 381
#
# _framework density 26.844804
#
# number of rings (size 3 to 8) (size 9 to 14) (size 15 to 20)
#    0.000    1.846    2.308    1.385    2.154    1.846 
#    4.154    0.000    0.000    0.000    0.000    0.000 
#    0.000    0.000    0.000    0.000    0.000    0.000 
#
# Total GULP energy -145186.199518 kJ/mol
# GULP energy per Si atom -5584.084597 kJ/mol
# Density = 2.678370 g / cm^3
# Si number density = 26.844804 Si / 1000 Ang^3
#
#
#
# Elastic Constant Matrix: (Units=GPa)
#
#
# Indices 1 2 3 4 5 6 
#
# 1 139.6398 2.9150 -16.1276 0.0000 0.0000 0.0000
# 2 2.9150 185.5087 23.0203 0.0000 0.0000 0.0000
# 3 -16.1276 23.0203 89.1187 0.0000 0.0000 0.0000
# 4 0.0000 0.0000 0.0000 52.4298 0.0000 0.0000
# 5 0.0000 0.0000 0.0000 0.0000 -46.4387 0.0000
# 6 0.0000 0.0000 0.0000 0.0000 0.0000 6.9933
#
#
#
# Elastic Compliance Matrix: (Units=1/GPa)
#
#
# Indices 1 2 3 4 5 6 
#
# 1 0.007329 -0.000289 0.001401 0.000000 0.000000 0.000000
# 2 -0.000289 0.005580 -0.001494 0.000000 0.000000 0.000000
# 3 0.001401 -0.001494 0.011860 0.000000 0.000000 0.000000
# 4 0.000000 0.000000 0.000000 0.019073 0.000000 0.000000
# 5 0.000000 0.000000 0.000000 0.000000 -0.021534 0.000000
# 6 0.000000 0.000000 0.000000 0.000000 0.000000 0.142993
#
#
# Mechanical properties :
#
#
# Convention : Reuss Voigt Hill
#
# Bulk Modulus (GPa) = 41.65564 48.20916 44.93240
# Shear Modulus (GPa) = 28.72434 29.56086 29.14260
#
# Velocity S-wave (km/s) = 3.27466 3.32200 3.29841
# Velocity P-wave (km/s) = 5.46340 5.71941 5.59287
#
# Compressibility (1/GPa) = 0.02400635
#
# Stress axis : x y z
#
# Youngs Moduli (GPa) = 136.44200 179.19558 84.31425
#
# Poissons Ratio (x) = 0.05179 -0.11812
# Poissons Ratio (y) = 0.03943 0.12595
# Poissons Ratio (z) = -0.19115 0.26768
#
# Static dielectric constant tensor:
#      x y z
#    x 2.083400 0.000000 0.000000 
#    y 0.000000 2.059800 0.000000 
#    z 0.000000 0.000000 2.242960 
# 
# From -- ./inp_files/1802.got.cif
#   From: 2010.05.17/outbox.cif.g08.bks.cpg/sg31_1_cif.got.tgz:1802.got - 2010.06.03 17:08:30.
