data_PCOD9343417
_publ_section_title
;
Structure prediction by ZEFSAII (Michael W. Deem and Ramdas Pophale) SiO2 
 PCOD9343417
Probable space group: P M N 21
;
_chemical_formula_sum "Si O2"
_cell_formula_units_Z 32
_cell_length_a 14.816835
_cell_length_b 9.329093
_cell_length_c 11.347979
_cell_angle_alpha 90.000000
_cell_angle_beta 90.000000
_cell_angle_gamma 90.000000
_cell_volume 1568.604262
_symmetry_space_group_name_H-M "P M N 21"
_symmetry_group_IT_number 31
_symmetry_cell_setting 'orthorhombic'
loop_
_space_group_symop_operation_xyz
x,y,z
1/2-x,-y,1/2+z
-x,y,z
1/2+x,-y,1/2+z
loop_
_atom_site_type_symbol
_atom_site_label
_atom_site_fract_x
_atom_site_fract_y
_atom_site_fract_z
Si Si1 0.732465 0.301209 0.275030
Si Si2 0.842408 0.921474 0.963820
Si Si3 0.275051 0.382072 0.839462
Si Si4 0.899634 0.802155 0.200215
Si Si5 0.103881 0.716474 0.558534
Si Si6 0.897653 0.114050 0.296956
Si Si7 0.102939 0.189359 0.808936
Si Si8 0.643401 0.950483 0.055405
O O1 0.684151 0.194952 0.366252
O O2 0.761988 0.449178 0.333368
O O3 0.663221 0.330959 0.170070
O O4 0.823258 0.215369 0.238426
O O5 0.885519 0.055801 0.898020
O O6 0.900617 0.849243 0.065161
O O7 0.749873 0.965819 0.029842
O O8 0.326662 0.319109 0.725113
O O9 0.178417 0.304513 0.844066
O O10 0.340945 0.335444 0.944919
O O11 0.000000 0.758436 0.239004
O O12 0.874589 0.947497 0.271235
O O13 0.000000 0.666866 0.560100
O O14 0.103841 0.889894 0.560837
O O15 0.892994 0.129548 0.438683
O O16 0.000000 0.138360 0.255663
O O17 0.123929 0.130950 0.676871
O O18 0.000000 0.241886 0.812796
#
# Coordination Sequence:
#
# PCOD9343417 Si02
#       8
#     4   4   4   4   4   4   4   4
#     4  11  27  42  65  94 137 174 210 266 324 389
#     4  11  22  41  63  96 131 169 211 275 334 380
#     4  12  26  44  64  95 138 171 214 260 327 387
#     4  11  22  40  67  95 126 167 217 273 327 384
#     4  12  24  43  72  98 125 171 224 267 318 387
#     4  10  21  40  66  97 129 169 222 275 325 382
#     4  12  24  41  68  97 129 170 218 271 327 387
#     4  11  20  39  69  98 127 165 220 283 324 374
#
# _framework density 20.400302
#
# number of rings (size 3 to 8) (size 9 to 14) (size 15 to 20)
#    0.000    0.750    5.000    3.375    1.750    2.000 
#    0.000    0.000    0.000    0.000    0.000    0.000 
#    0.000    0.000    0.000    0.000    0.000    0.000 
#
# Total GULP energy -178944.668341 kJ/mol
# GULP energy per Si atom -5592.020886 kJ/mol
# Density = 2.035387 g / cm^3
# Si number density = 20.400302 Si / 1000 Ang^3
#
#
#
# Elastic Constant Matrix: (Units=GPa)
#
#
# Indices 1 2 3 4 5 6 
#
# 1 133.0443 19.7379 11.7407 0.0000 0.0000 0.0000
# 2 19.7379 51.9885 -22.7942 0.0000 0.0000 0.0000
# 3 11.7407 -22.7942 47.7619 0.0000 0.0000 0.0000
# 4 0.0000 0.0000 0.0000 5.5473 0.0000 0.0000
# 5 0.0000 0.0000 0.0000 0.0000 22.6213 0.0000
# 6 0.0000 0.0000 0.0000 0.0000 0.0000 0.6822
#
#
#
# Elastic Compliance Matrix: (Units=1/GPa)
#
#
# Indices 1 2 3 4 5 6 
#
# 1 0.008731 -0.005382 -0.004715 0.000000 0.000000 0.000000
# 2 -0.005382 0.027642 0.014515 0.000000 0.000000 0.000000
# 3 -0.004715 0.014515 0.029023 0.000000 0.000000 0.000000
# 4 0.000000 0.000000 0.000000 0.180269 0.000000 0.000000
# 5 0.000000 0.000000 0.000000 0.000000 0.044206 0.000000
# 6 0.000000 0.000000 0.000000 0.000000 0.000000 1.465935
#
#
# Mechanical properties :
#
#
# Convention : Reuss Voigt Hill
#
# Bulk Modulus (GPa) = 13.47091 27.79595 20.63343
# Shear Modulus (GPa) = 2.82213 20.71085 11.76649
#
# Velocity S-wave (km/s) = 1.17745 3.18971 2.40423
# Velocity P-wave (km/s) = 2.90966 5.21733 4.22414
#
# Compressibility (1/GPa) = 0.07423402
#
# Stress axis : x y z
#
# Youngs Moduli (GPa) = 114.53754 36.17631 34.45495
#
# Poissons Ratio (x) = 0.19469 0.16244
# Poissons Ratio (y) = 0.61642 -0.50012
# Poissons Ratio (z) = 0.54000 -0.52510
#
# Static dielectric constant tensor:
#      x y z
#    x 1.765620 0.000000 0.000000 
#    y 0.000000 1.676030 0.000000 
#    z 0.000000 0.000000 1.755830 
# 
# From -- ./inp_files/4277.got.cif
#   From: 2010.05.17/outbox.cif.g08.bks.cpg/sg31_3_cif.got.tgz:4277.got - 2010.06.03 17:08:30.
