data_PCOD9343369
_publ_section_title
;
Structure prediction by ZEFSAII (Michael W. Deem and Ramdas Pophale) SiO2 
 PCOD9343369
Probable space group: P M N 21
;
_chemical_formula_sum "Si O2"
_cell_formula_units_Z 32
_cell_length_a 7.717482
_cell_length_b 11.935479
_cell_length_c 15.910139
_cell_angle_alpha 90.000000
_cell_angle_beta 90.000000
_cell_angle_gamma 90.000000
_cell_volume 1465.512247
_symmetry_space_group_name_H-M "P M N 21"
_symmetry_group_IT_number 31
_symmetry_cell_setting 'orthorhombic'
loop_
_space_group_symop_operation_xyz
x,y,z
1/2-x,-y,1/2+z
-x,y,z
1/2+x,-y,1/2+z
loop_
_atom_site_type_symbol
_atom_site_label
_atom_site_fract_x
_atom_site_fract_y
_atom_site_fract_z
Si Si1 0.700243 0.083273 0.230390
Si Si2 0.787507 0.751614 0.585507
Si Si3 0.799095 0.232935 0.384591
Si Si4 0.202840 0.280561 0.563329
Si Si5 0.300652 0.167468 0.733233
Si Si6 0.793668 0.719739 0.401346
Si Si7 0.711572 0.495111 0.144668
Si Si8 0.707949 0.483863 0.337566
O O1 0.500000 0.056457 0.212449
O O2 0.770282 0.155970 0.152305
O O3 0.708898 0.160666 0.312814
O O4 0.792625 0.965608 0.242762
O O5 0.728594 0.767446 0.489765
O O6 0.733818 0.627691 0.615283
O O7 0.000000 0.752169 0.587045
O O8 0.724778 0.224478 0.479052
O O9 0.784826 0.364454 0.362473
O O10 0.000000 0.197435 0.382819
O O11 0.215422 0.206460 0.646678
O O12 0.275759 0.402780 0.587339
O O13 0.000000 0.298026 0.543823
O O14 0.500000 0.204244 0.726573
O O15 0.221692 0.224874 0.816409
O O16 0.763193 0.586691 0.395985
O O17 0.000000 0.739655 0.400872
O O18 0.500000 0.497419 0.142594
O O19 0.761648 0.512311 0.241809
O O20 0.500000 0.473663 0.339333
#
# Coordination Sequence:
#
# PCOD9343369 Si02
#       8
#     4   4   4   4   4   4   4   4
#     4  11  23  41  64  86 114 159 206 247 297 358
#     4   9  18  36  61  86 112 150 196 235 283 353
#     4  11  23  39  62  90 121 156 199 248 298 352
#     4  10  21  39  63  87 116 160 201 238 294 364
#     4  11  24  40  59  88 122 154 197 256 303 345
#     4  10  21  38  61  87 117 153 194 241 294 350
#     4   9  16  31  58  87 114 146 190 236 282 348
#     4  11  20  34  60  91 122 154 193 239 293 358
#
# _framework density 21.835367999999999
#
# number of rings (size 3 to 8) (size 9 to 14) (size 15 to 20)
#    0.000    1.750    2.500    2.250    0.000    4.500 
#    0.000    3.750    0.000    0.000    0.000    0.000 
#    0.000    0.000    0.000    0.000    0.000    0.000 
#
# Total GULP energy -178849.512096 kJ/mol
# GULP energy per Si atom -5589.047253 kJ/mol
# Density = 2.178567 g / cm^3
# Si number density = 21.835368 Si / 1000 Ang^3
#
#
#
# Elastic Constant Matrix: (Units=GPa)
#
#
# Indices 1 2 3 4 5 6 
#
# 1 38.9487 -16.2965 -1.5949 0.0000 0.0000 0.0000
# 2 -16.2965 91.8943 26.0591 0.0000 0.0000 0.0000
# 3 -1.5949 26.0591 117.9606 0.0000 0.0000 0.0000
# 4 0.0000 0.0000 0.0000 2.8724 0.0000 0.0000
# 5 0.0000 0.0000 0.0000 0.0000 9.9791 0.0000
# 6 0.0000 0.0000 0.0000 0.0000 0.0000 23.9484
#
#
#
# Elastic Compliance Matrix: (Units=1/GPa)
#
#
# Indices 1 2 3 4 5 6 
#
# 1 0.027796 0.005145 -0.000761 0.000000 0.000000 0.000000
# 2 0.005145 0.012562 -0.002705 0.000000 0.000000 0.000000
# 3 -0.000761 -0.002705 0.009065 0.000000 0.000000 0.000000
# 4 0.000000 0.000000 0.000000 0.348142 0.000000 0.000000
# 5 0.000000 0.000000 0.000000 0.000000 0.100209 0.000000
# 6 0.000000 0.000000 0.000000 0.000000 0.000000 0.041756
#
#
# Mechanical properties :
#
#
# Convention : Reuss Voigt Hill
#
# Bulk Modulus (GPa) = 18.94633 29.45990 24.20311
# Shear Modulus (GPa) = 9.02907 23.40236 16.21571
#
# Velocity S-wave (km/s) = 2.03569 3.27733 2.72809
# Velocity P-wave (km/s) = 3.77109 5.27658 4.58604
#
# Compressibility (1/GPa) = 0.05278066
#
# Stress axis : x y z
#
# Youngs Moduli (GPa) = 35.97581 79.60692 110.31677
#
# Poissons Ratio (x) = -0.40959 0.08393
# Poissons Ratio (y) = -0.18510 0.29846
# Poissons Ratio (z) = 0.02737 0.21538
#
# Static dielectric constant tensor:
#      x y z
#    x 1.802710 0.000000 0.000000 
#    y 0.000000 1.746000 0.000000 
#    z 0.000000 0.000000 1.818770 
# 
# From -- ./inp_files/4945.got.cif
#   From: 2010.05.17/outbox.cif.g08.bks.cpg/sg31_3_cif.got.tgz:4945.got - 2010.06.03 17:08:30.
