data_PCOD9343278
_publ_section_title
;
Structure prediction by ZEFSAII (Michael W. Deem and Ramdas Pophale) SiO2 
 PCOD9343278
Probable space group: P M N 21
;
_chemical_formula_sum "Si O2"
_cell_formula_units_Z 32
_cell_length_a 8.463669
_cell_length_b 12.371400
_cell_length_c 15.499108
_cell_angle_alpha 90.000000
_cell_angle_beta 90.000000
_cell_angle_gamma 90.000000
_cell_volume 1622.871838
_symmetry_space_group_name_H-M "P M N 21"
_symmetry_group_IT_number 31
_symmetry_cell_setting 'orthorhombic'
loop_
_space_group_symop_operation_xyz
x,y,z
1/2-x,-y,1/2+z
-x,y,z
1/2+x,-y,1/2+z
loop_
_atom_site_type_symbol
_atom_site_label
_atom_site_fract_x
_atom_site_fract_y
_atom_site_fract_z
Si Si1 0.812460 0.392157 0.508660
Si Si2 0.188622 0.851945 0.995273
Si Si3 0.310917 0.523292 0.343143
Si Si4 0.684947 0.012419 0.137935
Si Si5 0.818281 0.231729 0.075434
Si Si6 0.193327 0.002250 0.835490
Si Si7 0.189160 0.457419 0.160332
Si Si8 0.317780 0.758123 0.371033
O O1 0.760889 0.267371 0.500627
O O2 0.759245 0.457906 0.423519
O O3 0.738029 0.450571 0.592148
O O4 0.000000 0.397752 0.516675
O O5 0.000000 0.840913 0.988785
O O6 0.229123 0.922737 0.079856
O O7 0.245156 0.919825 0.910677
O O8 0.500000 0.528539 0.356484
O O9 0.270612 0.470413 0.252293
O O10 0.246644 0.646507 0.337630
O O11 0.500000 0.984513 0.138731
O O12 0.713825 0.128362 0.095200
O O13 0.737802 0.024093 0.237383
O O14 0.766256 0.340829 0.121671
O O15 0.820193 0.253032 0.973835
O O16 0.000000 0.206584 0.101092
O O17 0.000000 0.002908 0.841280
O O18 0.251707 0.124641 0.851304
O O19 0.000000 0.459799 0.170272
O O20 0.500000 0.762120 0.338978
#
# Coordination Sequence:
#
# PCOD9343278 Si02
#       8
#     4   4   4   4   4   4   4   4
#     4  12  26  44  64  92 130 171 213 269 324 380
#     4  11  23  43  66  89 123 170 212 257 317 383
#     4  11  23  41  67  96 127 169 212 262 324 385
#     4  11  23  38  61  96 127 158 206 262 312 371
#     4  10  20  40  66  87 118 163 209 259 312 367
#     4   9  20  38  62  89 121 161 204 248 306 374
#     4  11  24  43  65  95 129 167 215 268 319 382
#     4   9  17  37  65  88 115 159 209 255 308 368
#
# _framework density 19.718129999999999
#
# number of rings (size 3 to 8) (size 9 to 14) (size 15 to 20)
#    0.000    1.500    2.500    2.625    3.500    1.000 
#    0.000    1.875    0.000    0.000    0.000    0.000 
#    0.000    0.000    0.000    0.000    0.000    0.000 
#
# Total GULP energy -178713.161892 kJ/mol
# GULP energy per Si atom -5584.786309 kJ/mol
# Density = 1.967325 g / cm^3
# Si number density = 19.718130 Si / 1000 Ang^3
#
#
#
# Elastic Constant Matrix: (Units=GPa)
#
#
# Indices 1 2 3 4 5 6 
#
# 1 27.5248 7.4564 -1.7183 0.0000 0.0000 0.0000
# 2 7.4564 69.0524 -20.8422 0.0000 0.0000 0.0000
# 3 -1.7183 -20.8422 41.6849 0.0000 0.0000 0.0000
# 4 0.0000 0.0000 0.0000 24.6889 0.0000 0.0000
# 5 0.0000 0.0000 0.0000 0.0000 24.6539 0.0000
# 6 0.0000 0.0000 0.0000 0.0000 0.0000 8.0313
#
#
#
# Elastic Compliance Matrix: (Units=1/GPa)
#
#
# Indices 1 2 3 4 5 6 
#
# 1 0.037437 -0.004212 -0.000563 0.000000 0.000000 0.000000
# 2 -0.004212 0.017530 0.008591 0.000000 0.000000 0.000000
# 3 -0.000563 0.008591 0.028262 0.000000 0.000000 0.000000
# 4 0.000000 0.000000 0.000000 0.040504 0.000000 0.000000
# 5 0.000000 0.000000 0.000000 0.000000 0.040562 0.000000
# 6 0.000000 0.000000 0.000000 0.000000 0.000000 0.124512
#
#
# Mechanical properties :
#
#
# Convention : Reuss Voigt Hill
#
# Bulk Modulus (GPa) = 11.00598 12.00599 11.50598
# Shear Modulus (GPa) = 16.05337 21.69926 18.87632
#
# Velocity S-wave (km/s) = 2.85641 3.32094 3.09740
# Velocity P-wave (km/s) = 4.05864 4.56145 4.31737
#
# Compressibility (1/GPa) = 0.09085971
#
# Stress axis : x y z
#
# Youngs Moduli (GPa) = 26.71166 57.04606 35.38349
#
# Poissons Ratio (x) = 0.24030 0.01992
# Poissons Ratio (y) = 0.11252 -0.30398
# Poissons Ratio (z) = 0.01504 -0.49009
#
# Static dielectric constant tensor:
#      x y z
#    x 1.689910 0.000000 0.000000 
#    y 0.000000 1.732040 0.000000 
#    z 0.000000 0.000000 1.665850 
# 
# From -- ./inp_files/5053.got.cif
#   From: 2010.05.17/outbox.cif.g08.bks.cpg/sg31_3_cif.got.tgz:5053.got - 2010.06.03 17:08:30.
