data_PCOD9343031
_publ_section_title
;
Structure prediction by ZEFSAII (Michael W. Deem and Ramdas Pophale) SiO2 
 PCOD9343031
Probable space group: P M N 21
;
_chemical_formula_sum "Si O2"
_cell_formula_units_Z 32
_cell_length_a 8.896667
_cell_length_b 12.043212
_cell_length_c 15.651507
_cell_angle_alpha 90.000000
_cell_angle_beta 90.000000
_cell_angle_gamma 90.000000
_cell_volume 1676.972059
_symmetry_space_group_name_H-M "P M N 21"
_symmetry_group_IT_number 31
_symmetry_cell_setting 'orthorhombic'
loop_
_space_group_symop_operation_xyz
x,y,z
1/2-x,-y,1/2+z
-x,y,z
1/2+x,-y,1/2+z
loop_
_atom_site_type_symbol
_atom_site_label
_atom_site_fract_x
_atom_site_fract_y
_atom_site_fract_z
Si Si1 0.321647 0.772521 0.941550
Si Si2 0.319969 0.394344 0.782729
Si Si3 0.820990 0.010974 0.679867
Si Si4 0.822039 0.995210 0.882583
Si Si5 0.179030 0.759117 0.120969
Si Si6 0.319652 0.229210 0.111468
Si Si7 0.680155 0.361926 0.284456
Si Si8 0.179159 0.248627 0.932755
O O1 0.500000 0.763399 0.938958
O O2 0.271586 0.900522 0.929416
O O3 0.249097 0.704583 0.863868
O O4 0.258966 0.731464 0.032125
O O5 0.500000 0.404657 0.787629
O O6 0.282023 0.325911 0.696826
O O7 0.244732 0.514522 0.781905
O O8 0.259878 0.324587 0.863068
O O9 0.795974 0.989807 0.780651
O O10 0.779519 0.899414 0.629388
O O11 0.000000 0.030914 0.668694
O O12 0.732249 0.118627 0.649667
O O13 0.000000 0.974738 0.897354
O O14 0.785946 0.119409 0.912736
O O15 0.000000 0.758464 0.109079
O O16 0.500000 0.234407 0.098938
O O17 0.282771 0.298355 0.196398
O O18 0.236391 0.272372 0.027871
O O19 0.500000 0.363233 0.292879
O O20 0.000000 0.262825 0.925942
#
# Coordination Sequence:
#
# PCOD9343031 Si02
#       8
#     4   4   4   4   4   4   4   4
#     4  12  25  40  64  95 128 166 208 255 309 372
#     4  11  25  44  65  91 122 160 209 262 309 367
#     4  10  19  37  64  93 127 163 203 252 312 373
#     4  10  20  38  63  93 129 166 205 251 311 372
#     4  11  24  41  63  92 128 166 207 257 310 368
#     4  10  22  40  63  91 125 163 202 254 312 369
#     4  11  24  45  68  89 120 164 209 260 314 365
#     4  11  23  39  64  94 127 166 205 253 307 368
#
# _framework density 19.082011000000001
#
# number of rings (size 3 to 8) (size 9 to 14) (size 15 to 20)
#    0.000    1.250    2.500    3.375    0.000    7.500 
#    0.000    2.500    0.000    0.000    0.000    0.000 
#    0.000    0.000    0.000    0.000    0.000    0.000 
#
# Total GULP energy -179016.056550 kJ/mol
# GULP energy per Si atom -5594.251767 kJ/mol
# Density = 1.903858 g / cm^3
# Si number density = 19.082011 Si / 1000 Ang^3
#
#
#
# Elastic Constant Matrix: (Units=GPa)
#
#
# Indices 1 2 3 4 5 6 
#
# 1 64.6653 49.0109 50.8353 0.0000 0.0000 0.0000
# 2 49.0109 104.1740 40.6761 0.0000 0.0000 0.0000
# 3 50.8353 40.6761 108.6901 0.0000 0.0000 0.0000
# 4 0.0000 0.0000 0.0000 -2.2569 0.0000 0.0000
# 5 0.0000 0.0000 0.0000 0.0000 28.4763 0.0000
# 6 0.0000 0.0000 0.0000 0.0000 0.0000 22.4097
#
#
#
# Elastic Compliance Matrix: (Units=1/GPa)
#
#
# Indices 1 2 3 4 5 6 
#
# 1 0.032488 -0.010952 -0.011096 0.000000 0.000000 0.000000
# 2 -0.010952 0.014934 -0.000467 0.000000 0.000000 0.000000
# 3 -0.011096 -0.000467 0.014565 0.000000 0.000000 0.000000
# 4 0.000000 0.000000 0.000000 -0.443079 0.000000 0.000000
# 5 0.000000 0.000000 0.000000 0.000000 0.035117 0.000000
# 6 0.000000 0.000000 0.000000 0.000000 0.000000 0.044624
#
#
# Mechanical properties :
#
#
# Convention : Reuss Voigt Hill
#
# Bulk Modulus (GPa) = 58.97151 62.06378 60.51764
# Shear Modulus (GPa) = -19.94660 18.85960 -0.54350
#
# Velocity S-wave (km/s) = -3.23663 3.14721 -0.53427
# Velocity P-wave (km/s) = 4.12354 6.76771 5.60382
#
# Compressibility (1/GPa) = 0.01695734
#
# Stress axis : x y z
#
# Youngs Moduli (GPa) = 30.78055 66.96078 68.65815
#
# Poissons Ratio (x) = 0.73335 0.76185
# Poissons Ratio (y) = 0.33711 0.03203
# Poissons Ratio (z) = 0.34155 0.03124
#
# Static dielectric constant tensor:
#      x y z
#    x 1.638850 0.000000 0.000000 
#    y 0.000000 1.635960 0.000000 
#    z 0.000000 0.000000 1.649870 
# 
# From -- ./inp_files/5040.got.cif
#   From: 2010.05.17/outbox.cif.g08.bks.cpg/sg31_3_cif.got.tgz:5040.got - 2010.06.03 17:08:30.
