data_PCOD9343542
_publ_section_title
;
Structure prediction by ZEFSAII (Michael W. Deem and Ramdas Pophale) SiO2 
 PCOD9343542
Probable space group: P M N 21
;
_chemical_formula_sum "Si O2"
_cell_formula_units_Z 24
_cell_length_a 17.740958
_cell_length_b 5.141250
_cell_length_c 9.459350
_cell_angle_alpha 90.000000
_cell_angle_beta 90.000000
_cell_angle_gamma 90.000000
_cell_volume 862.793938
_symmetry_space_group_name_H-M "P M N 21"
_symmetry_group_IT_number 31
_symmetry_cell_setting 'orthorhombic'
loop_
_space_group_symop_operation_xyz
x,y,z
1/2-x,-y,1/2+z
-x,y,z
1/2+x,-y,1/2+z
loop_
_atom_site_type_symbol
_atom_site_label
_atom_site_fract_x
_atom_site_fract_y
_atom_site_fract_z
Si Si1 0.418352 0.409797 0.399540
Si Si2 0.747131 0.038531 0.708997
Si Si3 0.856321 0.261873 0.424385
Si Si4 0.000000 0.957271 0.084558
Si Si5 0.914212 0.933197 0.666278
Si Si6 0.260529 0.653413 0.459216
Si Si7 0.500000 0.536767 0.783367
O O1 0.500000 0.543166 0.422167
O O2 0.430774 0.133136 0.482526
O O3 0.414783 0.356667 0.231771
O O4 0.344244 0.539686 0.457461
O O5 0.691489 0.846423 0.793898
O O6 0.797594 0.435435 0.515865
O O7 0.730520 0.298103 0.798953
O O8 0.836942 0.024081 0.742022
O O9 0.895475 0.024218 0.508879
O O10 0.741309 0.916835 0.551797
O O11 0.925490 0.435946 0.375247
O O12 0.000000 0.732828 0.202749
O O13 0.000000 0.219994 0.173181
O O14 0.000000 0.025073 0.695041
#
# Coordination Sequence:
#
# PCOD9343542 Si02
#       7
#     4   4   4   2   4   4   2
#     4   9  23  52  82 113 162 220 291 356 437 516
#     4  12  28  50  83 118 169 218 290 355 438 522
#     4  12  28  50  83 119 168 231 278 367 439 540
#     4  10  26  49  84 120 164 237 281 374 422 542
#     4  11  24  52  81 118 162 216 279 352 432 524
#     4  12  28  53  81 123 167 228 285 370 437 534
#     4  12  28  51  82 126 182 225 301 354 464 520
#
# _framework density 27.816607000000001
#
# number of rings (size 3 to 8) (size 9 to 14) (size 15 to 20)
#    0.500    0.333    4.167    1.000    4.667    4.667 
#    1.500    1.667    0.000    0.000    0.000    0.000 
#    0.000    0.000    0.000    0.000    0.000    0.000 
#
# Total GULP energy -133999.404503 kJ/mol
# GULP energy per Si atom -5583.308521 kJ/mol
# Density = 2.775330 g / cm^3
# Si number density = 27.816607 Si / 1000 Ang^3
#
#
#
# Elastic Constant Matrix: (Units=GPa)
#
#
# Indices 1 2 3 4 5 6 
#
# 1 224.9219 48.5242 41.1975 0.0000 0.0000 0.0000
# 2 48.5242 103.9113 39.0452 0.0000 0.0000 0.0000
# 3 41.1975 39.0452 135.2427 0.0000 0.0000 0.0000
# 4 0.0000 0.0000 0.0000 48.7155 0.0000 0.0000
# 5 0.0000 0.0000 0.0000 0.0000 48.2231 0.0000
# 6 0.0000 0.0000 0.0000 0.0000 0.0000 26.5472
#
#
#
# Elastic Compliance Matrix: (Units=1/GPa)
#
#
# Indices 1 2 3 4 5 6 
#
# 1 0.005053 -0.001998 -0.000962 0.000000 0.000000 0.000000
# 2 -0.001998 0.011585 -0.002736 0.000000 0.000000 0.000000
# 3 -0.000962 -0.002736 0.008477 0.000000 0.000000 0.000000
# 4 0.000000 0.000000 0.000000 0.020527 0.000000 0.000000
# 5 0.000000 0.000000 0.000000 0.000000 0.020737 0.000000
# 6 0.000000 0.000000 0.000000 0.000000 0.000000 0.037669
#
#
# Mechanical properties :
#
#
# Convention : Reuss Voigt Hill
#
# Bulk Modulus (GPa) = 72.87455 80.17886 76.52671
# Shear Modulus (GPa) = 41.66131 47.05107 44.35619
#
# Velocity S-wave (km/s) = 3.87423 4.11722 3.99757
# Velocity P-wave (km/s) = 6.80206 7.17556 6.99130
#
# Compressibility (1/GPa) = 0.01372221
#
# Stress axis : x y z
#
# Youngs Moduli (GPa) = 197.88841 86.32070 117.96393
#
# Poissons Ratio (x) = 0.17248 0.11354
# Poissons Ratio (y) = 0.39541 0.32274
# Poissons Ratio (z) = 0.19046 0.23616
#
# Static dielectric constant tensor:
#      x y z
#    x 2.102860 0.000000 0.000000 
#    y 0.000000 2.187800 0.000000 
#    z 0.000000 0.000000 2.226660 
# 
# From -- ./inp_files/4349.got.cif
#   From: 2010.05.17/outbox.cif.g08.bks.cpg/sg31_3_cif.got.tgz:4349.got - 2010.06.03 17:08:30.
