data_PCOD9343435
_publ_section_title
;
Structure prediction by ZEFSAII (Michael W. Deem and Ramdas Pophale) SiO2 
 PCOD9343435
Probable space group: P M N 21
;
_chemical_formula_sum "Si O2"
_cell_formula_units_Z 28
_cell_length_a 13.798211
_cell_length_b 7.275781
_cell_length_c 13.844888
_cell_angle_alpha 90.000000
_cell_angle_beta 90.000000
_cell_angle_gamma 90.000000
_cell_volume 1389.926538
_symmetry_space_group_name_H-M "P M N 21"
_symmetry_group_IT_number 31
_symmetry_cell_setting 'orthorhombic'
loop_
_space_group_symop_operation_xyz
x,y,z
1/2-x,-y,1/2+z
-x,y,z
1/2+x,-y,1/2+z
loop_
_atom_site_type_symbol
_atom_site_label
_atom_site_fract_x
_atom_site_fract_y
_atom_site_fract_z
Si Si1 0.110001 0.894960 0.300140
Si Si2 0.307732 0.934578 0.210351
Si Si3 0.613785 0.651792 0.370647
Si Si4 0.290544 0.353658 0.240559
Si Si5 0.889927 0.458694 0.356237
Si Si6 0.782305 0.599379 0.524892
Si Si7 0.615461 0.007181 0.011234
O O1 0.112056 0.677359 0.328679
O O2 0.135749 0.013768 0.396478
O O3 0.000000 0.938138 0.271217
O O4 0.191790 0.918932 0.220485
O O5 0.329743 0.148223 0.230870
O O6 0.341949 0.893756 0.101314
O O7 0.353239 0.812576 0.296215
O O8 0.500000 0.665797 0.392954
O O9 0.639688 0.470223 0.309213
O O10 0.683368 0.640693 0.465135
O O11 0.183763 0.357662 0.286498
O O12 0.275246 0.449057 0.136662
O O13 0.844198 0.455545 0.462741
O O14 0.000000 0.395348 0.353405
O O15 0.842405 0.788626 0.526664
O O16 0.500000 0.005334 0.020190
#
# Coordination Sequence:
#
# PCOD9343435 Si02
#       7
#     4   4   4   4   4   4   4
#     4   9  17  35  61  82 114 154 192 242 296 345
#     4  11  20  37  62  86 119 155 197 247 301 348
#     4  11  23  41  60  87 123 159 196 243 303 358
#     4  10  22  37  59  88 116 153 198 244 288 354
#     4   9  17  35  59  82 111 152 193 236 291 343
#     4   9  18  37  59  84 116 155 188 244 293 347
#     4   9  17  32  58  85 109 150 196 236 288 347
#
# _framework density 20.144950999999999
#
# number of rings (size 3 to 8) (size 9 to 14) (size 15 to 20)
#    0.000    2.286    4.286    1.714    0.000    4.571 
#    5.143    2.143    0.000    0.000    0.000    0.000 
#    0.000    0.000    0.000    0.000    0.000    0.000 
#
# Total GULP energy -156143.784039 kJ/mol
# GULP energy per Si atom -5576.563716 kJ/mol
# Density = 2.009910 g / cm^3
# Si number density = 20.144951 Si / 1000 Ang^3
#
#
#
# Elastic Constant Matrix: (Units=GPa)
#
#
# Indices 1 2 3 4 5 6 
#
# 1 78.7010 -12.3615 17.5255 0.0000 0.0000 0.0000
# 2 -12.3615 54.3408 -5.3881 0.0000 0.0000 0.0000
# 3 17.5255 -5.3881 55.4304 0.0000 0.0000 0.0000
# 4 0.0000 0.0000 0.0000 20.1891 0.0000 0.0000
# 5 0.0000 0.0000 0.0000 0.0000 22.5252 0.0000
# 6 0.0000 0.0000 0.0000 0.0000 0.0000 8.1949
#
#
#
# Elastic Compliance Matrix: (Units=1/GPa)
#
#
# Indices 1 2 3 4 5 6 
#
# 1 0.014075 0.002787 -0.004179 0.000000 0.000000 0.000000
# 2 0.002787 0.019133 0.000979 0.000000 0.000000 0.000000
# 3 -0.004179 0.000979 0.019457 0.000000 0.000000 0.000000
# 4 0.000000 0.000000 0.000000 0.049532 0.000000 0.000000
# 5 0.000000 0.000000 0.000000 0.000000 0.044395 0.000000
# 6 0.000000 0.000000 0.000000 0.000000 0.000000 0.122027
#
#
# Mechanical properties :
#
#
# Convention : Reuss Voigt Hill
#
# Bulk Modulus (GPa) = 19.29048 20.89155 20.09101
# Shear Modulus (GPa) = 17.43835 22.76159 20.09997
#
# Velocity S-wave (km/s) = 2.94537 3.36503 3.16217
# Velocity P-wave (km/s) = 4.60039 5.04887 4.82984
#
# Compressibility (1/GPa) = 0.05183904
#
# Stress axis : x y z
#
# Youngs Moduli (GPa) = 71.04923 52.26443 51.39520
#
# Poissons Ratio (x) = -0.14568 0.21478
# Poissons Ratio (y) = -0.19804 -0.05030
# Poissons Ratio (z) = 0.29692 -0.05115
#
# Static dielectric constant tensor:
#      x y z
#    x 1.687030 0.000000 0.000000 
#    y 0.000000 1.803650 0.000000 
#    z 0.000000 0.000000 1.745620 
# 
# From -- ./inp_files/5428.got.cif
#   From: 2010.05.17/outbox.cif.g08.bks.cpg/sg31_3_cif.got.tgz:5428.got - 2010.06.03 17:08:30.
