data_PCOD9343553
_publ_section_title
;
Structure prediction by ZEFSAII (Michael W. Deem and Ramdas Pophale) SiO2 
 PCOD9343553
Probable space group: P M N 21
;
_chemical_formula_sum "Si O2"
_cell_formula_units_Z 32
_cell_length_a 7.494903
_cell_length_b 10.954253
_cell_length_c 14.524836
_cell_angle_alpha 90.000000
_cell_angle_beta 90.000000
_cell_angle_gamma 90.000000
_cell_volume 1192.504485
_symmetry_space_group_name_H-M "P M N 21"
_symmetry_group_IT_number 31
_symmetry_cell_setting 'orthorhombic'
loop_
_space_group_symop_operation_xyz
x,y,z
1/2-x,-y,1/2+z
-x,y,z
1/2+x,-y,1/2+z
loop_
_atom_site_type_symbol
_atom_site_label
_atom_site_fract_x
_atom_site_fract_y
_atom_site_fract_z
Si Si1 0.705098 0.979273 0.118310
Si Si2 0.215765 0.555264 0.278310
Si Si3 0.280352 0.937605 0.909113
Si Si4 0.285391 0.576975 0.950702
Si Si5 0.284560 0.202149 0.894576
Si Si6 0.711317 0.285954 0.621227
Si Si7 0.711538 0.345521 0.064784
Si Si8 0.299146 0.793500 0.741611
O O1 0.500000 0.021195 0.109912
O O2 0.711353 0.841316 0.156520
O O3 0.795423 0.081538 0.180792
O O4 0.777082 0.955223 0.014932
O O5 0.279884 0.448555 0.346947
O O6 0.258077 0.679825 0.334599
O O7 0.282292 0.596161 0.177971
O O8 0.000000 0.541851 0.271268
O O9 0.500000 0.928342 0.911614
O O10 0.214120 0.833801 0.838726
O O11 0.225991 0.068496 0.865817
O O12 0.500000 0.569929 0.945854
O O13 0.246542 0.693283 0.013306
O O14 0.214246 0.465421 0.014485
O O15 0.500000 0.196617 0.893631
O O16 0.227516 0.234543 0.998866
O O17 0.500000 0.278600 0.635448
O O18 0.500000 0.354051 0.054237
O O19 0.742333 0.311726 0.170421
O O20 0.500000 0.759805 0.765191
#
# Coordination Sequence:
#
# PCOD9343553 Si02
#       8
#     4   4   4   4   4   4   4   4
#     4  11  22  39  60  82 115 158 195 227 277 348
#     4   8  16  32  58  84 106 144 192 230 275 341
#     4   9  18  32  53  79 110 152 190 218 266 345
#     4   9  19  38  62  83 107 149 197 232 275 344
#     4   8  12  26  53  77  98 134 186 226 253 313
#     4  11  22  38  59  86 118 148 187 243 294 330
#     4   9  17  33  57  79 104 141 186 230 275 329
#     4  11  21  34  56  86 116 146 187 236 283 330
#
# _framework density 26.834278999999999
#
# number of rings (size 3 to 8) (size 9 to 14) (size 15 to 20)
#    0.000    2.500    1.250    3.375    0.000    2.500 
#    2.250    3.750    0.000    0.750    0.000    0.000 
#    0.000    0.000    0.000    0.000    0.000    0.000 
#
# Total GULP energy -178783.674438 kJ/mol
# GULP energy per Si atom -5586.989826 kJ/mol
# Density = 2.677320 g / cm^3
# Si number density = 26.834279 Si / 1000 Ang^3
#
#
#
# Elastic Constant Matrix: (Units=GPa)
#
#
# Indices 1 2 3 4 5 6 
#
# 1 75.7901 -9.3075 -7.7897 0.0000 0.0000 0.0000
# 2 -9.3075 97.3046 31.9533 0.0000 0.0000 0.0000
# 3 -7.7897 31.9533 174.4941 0.0000 0.0000 0.0000
# 4 0.0000 0.0000 0.0000 58.5210 0.0000 0.0000
# 5 0.0000 0.0000 0.0000 0.0000 -92.8773 0.0000
# 6 0.0000 0.0000 0.0000 0.0000 0.0000 18.2498
#
#
#
# Elastic Compliance Matrix: (Units=1/GPa)
#
#
# Indices 1 2 3 4 5 6 
#
# 1 0.013376 0.001153 0.000386 0.000000 0.000000 0.000000
# 2 0.001153 0.011034 -0.001969 0.000000 0.000000 0.000000
# 3 0.000386 -0.001969 0.006109 0.000000 0.000000 0.000000
# 4 0.000000 0.000000 0.000000 0.017088 0.000000 0.000000
# 5 0.000000 0.000000 0.000000 0.000000 -0.010767 0.000000
# 6 0.000000 0.000000 0.000000 0.000000 0.000000 0.054795
#
#
# Mechanical properties :
#
#
# Convention : Reuss Voigt Hill
#
# Bulk Modulus (GPa) = 33.71846 41.92234 37.82040
# Shear Modulus (GPa) = 48.83735 18.96088 33.89911
#
# Velocity S-wave (km/s) = 4.27073 2.66106 3.55812
# Velocity P-wave (km/s) = 6.07549 5.00982 5.56821
#
# Compressibility (1/GPa) = 0.02965734
#
# Stress axis : x y z
#
# Youngs Moduli (GPa) = 74.76316 90.63002 163.70200
#
# Poissons Ratio (x) = -0.10446 -0.06319
# Poissons Ratio (y) = -0.08618 0.32234
# Poissons Ratio (z) = -0.02886 0.17846
#
# Static dielectric constant tensor:
#      x y z
#    x 2.017270 0.000000 0.000000 
#    y 0.000000 2.130890 0.000000 
#    z 0.000000 0.000000 2.153110 
# 
# From -- ./inp_files/5063.got.cif
#   From: 2010.05.17/outbox.cif.g08.bks.cpg/sg31_3_cif.got.tgz:5063.got - 2010.06.03 17:08:30.
