data_PCOD9343660
_publ_section_title
;
Structure prediction by ZEFSAII (Michael W. Deem and Ramdas Pophale) SiO2 
 PCOD9343660
Probable space group: P B A 2
;
_chemical_formula_sum "Si O2"
_cell_formula_units_Z 20
_cell_length_a 16.035454
_cell_length_b 8.951549
_cell_length_c 5.568604
_cell_angle_alpha 90.000000
_cell_angle_beta 90.000000
_cell_angle_gamma 90.000000
_cell_volume 799.329403
_symmetry_space_group_name_H-M "P B A 2"
_symmetry_group_IT_number 32
_symmetry_cell_setting 'orthorhombic'
loop_
_space_group_symop_operation_xyz
x,y,z
-x,-y,z
1/2-x,1/2+y,z
1/2+x,1/2-y,z
loop_
_atom_site_type_symbol
_atom_site_label
_atom_site_fract_x
_atom_site_fract_y
_atom_site_fract_z
Si Si1 0.839245 0.877701 0.641550
Si Si2 0.939365 0.354427 0.049392
Si Si3 0.000869 0.316273 0.552016
Si Si4 0.763630 0.503161 0.995771
Si Si5 0.228666 0.852136 0.495930
O O1 0.909549 0.762846 0.564584
O O2 0.852175 0.043451 0.534628
O O3 0.750539 0.821621 0.523945
O O4 0.818411 0.906973 0.922217
O O5 0.844394 0.403594 0.034002
O O6 0.000000 0.500000 0.049534
O O7 0.957481 0.276699 0.301350
O O8 0.958730 0.270711 0.802836
O O9 0.000000 0.500000 0.554092
O O10 0.756016 0.604175 0.229318
O O11 0.775059 0.596028 0.747041
#
# Coordination Sequence:
#
# PCOD9343660 Si02
#       5
#     4   4   4   4   4
#     4  10  24  37  62  93 126 164 208 264 320 389
#     4  10  18  32  55  84 117 153 202 253 307 358
#     4  10  20  32  57  85 122 150 209 251 308 356
#     4  10  22  36  60  89 127 161 206 262 320 380
#     4  10  22  35  60  85 128 156 212 248 321 369
#
# _framework density 25.020975
#
# number of rings (size 3 to 8) (size 9 to 14) (size 15 to 20)
#    1.200    0.800    0.000    6.000    5.600    0.000 
#    0.000    0.000    0.000    1.200    0.000    0.000 
#    0.000    0.000    0.000    0.000    0.000    0.000 
#
# Total GULP energy -111386.999737 kJ/mol
# GULP energy per Si atom -5569.349987 kJ/mol
# Density = 2.496403 g / cm^3
# Si number density = 25.020975 Si / 1000 Ang^3
#
#
#
# Elastic Constant Matrix: (Units=GPa)
#
#
# Indices 1 2 3 4 5 6 
#
# 1 44.0666 42.0274 36.6602 0.0000 0.0000 0.0000
# 2 42.0274 93.4116 51.4135 0.0000 0.0000 0.0000
# 3 36.6602 51.4135 250.9326 0.0000 0.0000 0.0000
# 4 0.0000 0.0000 0.0000 33.0079 0.0000 0.0000
# 5 0.0000 0.0000 0.0000 0.0000 -11.5479 0.0000
# 6 0.0000 0.0000 0.0000 0.0000 0.0000 40.7848
#
#
#
# Elastic Compliance Matrix: (Units=1/GPa)
#
#
# Indices 1 2 3 4 5 6 
#
# 1 0.041092 -0.017114 -0.002497 0.000000 0.000000 0.000000
# 2 -0.017114 0.019193 -0.001432 0.000000 0.000000 0.000000
# 3 -0.002497 -0.001432 0.004643 0.000000 0.000000 0.000000
# 4 0.000000 0.000000 0.000000 0.030296 0.000000 0.000000
# 5 0.000000 0.000000 0.000000 0.000000 -0.086596 0.000000
# 6 0.000000 0.000000 0.000000 0.000000 0.000000 0.024519
#
#
# Mechanical properties :
#
#
# Convention : Reuss Voigt Hill
#
# Bulk Modulus (GPa) = 43.77729 72.06813 57.92271
# Shear Modulus (GPa) = 60.35194 29.66962 45.01078
#
# Velocity S-wave (km/s) = 4.91659 3.44727 4.24597
# Velocity P-wave (km/s) = 7.05441 6.68659 6.87296
#
# Compressibility (1/GPa) = 0.02284289
#
# Stress axis : x y z
#
# Youngs Moduli (GPa) = 24.33573 52.10143 215.35997
#
# Poissons Ratio (x) = 0.89164 0.53774
# Poissons Ratio (y) = 0.41647 0.30846
# Poissons Ratio (z) = 0.06077 0.07462
#
# Static dielectric constant tensor:
#      x y z
#    x 2.112650 0.000000 0.000000 
#    y 0.000000 2.648810 0.000000 
#    z 0.000000 0.000000 1.992810 
# 
# From -- ./inp_files/868.got.cif
#   From: 2010.05.17/outbox.cif.g08.bks.cpg/sg32_1_cif.got.tgz:868.got - 2010.06.03 17:12:27.
