data_PCOD9343495
_publ_section_title
;
Structure prediction by ZEFSAII (Michael W. Deem and Ramdas Pophale) SiO2 
 PCOD9343495
Probable space group: P M N 21
;
_chemical_formula_sum "Si O2"
_cell_formula_units_Z 32
_cell_length_a 28.063672
_cell_length_b 8.812357
_cell_length_c 6.120008
_cell_angle_alpha 90.000000
_cell_angle_beta 90.000000
_cell_angle_gamma 90.000000
_cell_volume 1513.521408
_symmetry_space_group_name_H-M "P M N 21"
_symmetry_group_IT_number 31
_symmetry_cell_setting 'orthorhombic'
loop_
_space_group_symop_operation_xyz
x,y,z
1/2-x,-y,1/2+z
-x,y,z
1/2+x,-y,1/2+z
loop_
_atom_site_type_symbol
_atom_site_label
_atom_site_fract_x
_atom_site_fract_y
_atom_site_fract_z
Si Si1 0.358937 0.312133 0.837300
Si Si2 0.175446 0.434611 0.002709
Si Si3 0.242628 0.070690 0.385000
Si Si4 0.055551 0.485588 0.470423
Si Si5 0.633676 0.963679 0.910382
Si Si6 0.777461 0.648419 0.684054
Si Si7 0.599293 0.775565 0.280732
Si Si8 0.449590 0.783089 0.684909
O O1 0.349186 0.428432 0.637746
O O2 0.406063 0.380076 0.956393
O O3 0.367926 0.133207 0.816825
O O4 0.310055 0.311414 0.978455
O O5 0.197583 0.501810 0.781754
O O6 0.139636 0.302428 0.932352
O O7 0.222450 0.379762 0.129234
O O8 0.276072 0.217581 0.362243
O O9 0.250056 0.004132 0.635578
O O10 0.186405 0.100978 0.382309
O O11 0.079717 0.357690 0.623868
O O12 0.053664 0.395618 0.239050
O O13 0.000000 0.521153 0.528046
O O14 0.593950 0.869346 0.788126
O O15 0.620200 0.923438 0.161259
O O16 0.554887 0.814646 0.431288
O O17 0.500000 0.834644 0.779319
#
# Coordination Sequence:
#
# PCOD9343495 Si02
#       8
#     4   4   4   4   4   4   4   4
#     4  12  24  46  64 101 135 185 225 302 352 437
#     4  12  25  40  68  98 137 179 243 290 355 426
#     4  12  28  47  70 103 150 198 238 292 367 442
#     4  10  22  42  68  98 130 172 230 294 362 428
#     4  11  27  42  71  99 147 181 239 291 375 433
#     4  12  26  39  67  97 138 181 238 286 351 425
#     4  11  23  42  70  98 131 181 232 295 354 443
#     4  10  22  44  71  98 131 181 238 294 362 442
#
# _framework density 21.142745000000001
#
# number of rings (size 3 to 8) (size 9 to 14) (size 15 to 20)
#    0.000    0.750    5.000    1.875    7.000    2.000 
#    0.000    0.000    0.000    0.000    0.000    0.000 
#    0.000    0.000    0.000    0.000    0.000    0.000 
#
# Total GULP energy -178268.837060 kJ/mol
# GULP energy per Si atom -5570.901158 kJ/mol
# Density = 2.109462 g / cm^3
# Si number density = 21.142745 Si / 1000 Ang^3
#
#
#
# Elastic Constant Matrix: (Units=GPa)
#
#
# Indices 1 2 3 4 5 6 
#
# 1 140.6500 26.3006 20.2438 0.0000 0.0000 0.0000
# 2 26.3006 46.6857 1.0164 0.0000 0.0000 0.0000
# 3 20.2438 1.0164 55.2826 0.0000 0.0000 0.0000
# 4 0.0000 0.0000 0.0000 33.1359 0.0000 0.0000
# 5 0.0000 0.0000 0.0000 0.0000 45.7823 0.0000
# 6 0.0000 0.0000 0.0000 0.0000 0.0000 22.6204
#
#
#
# Elastic Compliance Matrix: (Units=1/GPa)
#
#
# Indices 1 2 3 4 5 6 
#
# 1 0.008415 -0.004676 -0.002996 0.000000 0.000000 0.000000
# 2 -0.004676 0.024026 0.001270 0.000000 0.000000 0.000000
# 3 -0.002996 0.001270 0.019162 0.000000 0.000000 0.000000
# 4 0.000000 0.000000 0.000000 0.030179 0.000000 0.000000
# 5 0.000000 0.000000 0.000000 0.000000 0.021843 0.000000
# 6 0.000000 0.000000 0.000000 0.000000 0.000000 0.044208
#
#
# Mechanical properties :
#
#
# Convention : Reuss Voigt Hill
#
# Bulk Modulus (GPa) = 25.77163 37.52667 31.64915
# Shear Modulus (GPa) = 28.80700 33.31153 31.05926
#
# Velocity S-wave (km/s) = 3.69521 3.97363 3.83695
# Velocity P-wave (km/s) = 5.51561 6.23223 5.88484
#
# Compressibility (1/GPa) = 0.03880235
#
# Stress axis : x y z
#
# Youngs Moduli (GPa) = 118.83097 41.62127 52.18535
#
# Poissons Ratio (x) = 0.19460 0.15633
# Poissons Ratio (y) = 0.55560 -0.06630
# Poissons Ratio (z) = 0.35597 -0.05288
#
# Static dielectric constant tensor:
#      x y z
#    x 1.745760 0.000000 0.000000 
#    y 0.000000 1.768250 0.000000 
#    z 0.000000 0.000000 1.893950 
# 
# From -- ./inp_files/1368.got.cif
#   From: 2010.05.17/outbox.cif.g08.bks.cpg/sg31_1_cif.got.tgz:1368.got - 2010.06.03 17:08:30.
