data_PCOD9343104
_publ_section_title
;
Structure prediction by ZEFSAII (Michael W. Deem and Ramdas Pophale) SiO2 
 PCOD9343104
Probable space group: P M N 21
;
_chemical_formula_sum "Si O2"
_cell_formula_units_Z 32
_cell_length_a 9.736287
_cell_length_b 5.372239
_cell_length_c 28.926654
_cell_angle_alpha 90.000000
_cell_angle_beta 90.000000
_cell_angle_gamma 90.000000
_cell_volume 1513.027750
_symmetry_space_group_name_H-M "P M N 21"
_symmetry_group_IT_number 31
_symmetry_cell_setting 'orthorhombic'
loop_
_space_group_symop_operation_xyz
x,y,z
1/2-x,-y,1/2+z
-x,y,z
1/2+x,-y,1/2+z
loop_
_atom_site_type_symbol
_atom_site_label
_atom_site_fract_x
_atom_site_fract_y
_atom_site_fract_z
Si Si1 0.340007 0.705030 0.603420
Si Si2 0.166726 0.672298 0.695776
Si Si3 0.847696 0.494259 0.832013
Si Si4 0.348174 0.819135 0.877971
Si Si5 0.846676 0.456529 0.473677
Si Si6 0.660104 0.202252 0.543439
Si Si7 0.164939 0.167283 0.748056
Si Si8 0.152802 0.212595 0.926090
O O1 0.500000 0.714476 0.618523
O O2 0.238308 0.710478 0.646670
O O3 0.321299 0.445952 0.575923
O O4 0.317544 0.947383 0.571343
O O5 0.207281 0.403397 0.716570
O O6 0.000000 0.675757 0.691735
O O7 0.211681 0.901042 0.729083
O O8 0.726777 0.693105 0.834623
O O9 0.806995 0.261277 0.800125
O O10 0.864455 0.414642 0.885164
O O11 0.000000 0.585855 0.816011
O O12 0.500000 0.919393 0.867353
O O13 0.364950 0.626979 0.920604
O O14 0.244963 0.012891 0.900446
O O15 0.770160 0.244624 0.502865
O O16 0.736314 0.677706 0.469121
O O17 0.000000 0.516715 0.491502
O O18 0.500000 0.208176 0.527681
O O19 0.000000 0.154287 0.745499
O O20 0.000000 0.126670 0.938697
#
# Coordination Sequence:
#
# PCOD9343104 Si02
#       8
#     4   4   4   4   4   4   4   4
#     4  10  22  40  60  84 116 150 187 237 291 347
#     4  10  20  36  59  86 114 148 187 235 291 347
#     4   9  19  35  55  81 109 149 197 239 283 335
#     4  10  21  36  54  79 116 153 188 238 293 344
#     4  10  22  38  55  81 115 150 190 241 293 341
#     4  10  22  39  60  86 114 150 194 239 286 346
#     4   9  19  34  58  87 116 146 190 242 284 336
#     4  10  20  34  57  82 110 152 197 237 283 346
#
# _framework density 21.149646000000001
#
# number of rings (size 3 to 8) (size 9 to 14) (size 15 to 20)
#    0.000    2.250    0.000    1.875    3.500    3.000 
#    0.000    1.250    0.000    0.000    0.000    0.000 
#    0.000    0.000    0.000    0.000    0.000    0.000 
#
# Total GULP energy -178471.148515 kJ/mol
# GULP energy per Si atom -5577.223391 kJ/mol
# Density = 2.110151 g / cm^3
# Si number density = 21.149646 Si / 1000 Ang^3
#
#
#
# Elastic Constant Matrix: (Units=GPa)
#
#
# Indices 1 2 3 4 5 6 
#
# 1 115.1492 28.2841 30.1029 0.0000 0.0000 0.0000
# 2 28.2841 90.5674 21.1451 0.0000 0.0000 0.0000
# 3 30.1029 21.1451 81.4379 0.0000 0.0000 0.0000
# 4 0.0000 0.0000 0.0000 35.6176 0.0000 0.0000
# 5 0.0000 0.0000 0.0000 0.0000 19.6888 0.0000
# 6 0.0000 0.0000 0.0000 0.0000 0.0000 19.1221
#
#
#
# Elastic Compliance Matrix: (Units=1/GPa)
#
#
# Indices 1 2 3 4 5 6 
#
# 1 0.010091 -0.002428 -0.003100 0.000000 0.000000 0.000000
# 2 -0.002428 0.012338 -0.002306 0.000000 0.000000 0.000000
# 3 -0.003100 -0.002306 0.014024 0.000000 0.000000 0.000000
# 4 0.000000 0.000000 0.000000 0.028076 0.000000 0.000000
# 5 0.000000 0.000000 0.000000 0.000000 0.050790 0.000000
# 6 0.000000 0.000000 0.000000 0.000000 0.000000 0.052295
#
#
# Mechanical properties :
#
#
# Convention : Reuss Voigt Hill
#
# Bulk Modulus (GPa) = 48.10974 49.57984 48.84479
# Shear Modulus (GPa) = 26.28663 28.72718 27.50690
#
# Velocity S-wave (km/s) = 3.52929 3.68949 3.61027
# Velocity P-wave (km/s) = 6.27730 6.45314 6.36583
#
# Compressibility (1/GPa) = 0.02078581
#
# Stress axis : x y z
#
# Youngs Moduli (GPa) = 99.09762 81.04972 71.30696
#
# Poissons Ratio (x) = 0.19677 0.22103
# Poissons Ratio (y) = 0.24058 0.16445
# Poissons Ratio (z) = 0.30718 0.18691
#
# Static dielectric constant tensor:
#      x y z
#    x 1.828810 0.000000 0.000000 
#    y 0.000000 1.825610 0.000000 
#    z 0.000000 0.000000 1.776430 
# 
# From -- ./inp_files/6607.got.cif
#   From: 2010.05.17/outbox.cif.g08.bks.cpg/sg31_4_cif.got.tgz:6607.got - 2010.06.03 17:08:30.
