data_PCOD9343450
_publ_section_title
;
Structure prediction by ZEFSAII (Michael W. Deem and Ramdas Pophale) SiO2 
 PCOD9343450
Probable space group: P M N 21
;
_chemical_formula_sum "Si O2"
_cell_formula_units_Z 24
_cell_length_a 8.994111
_cell_length_b 10.145030
_cell_length_c 14.301586
_cell_angle_alpha 90.000000
_cell_angle_beta 90.000000
_cell_angle_gamma 90.000000
_cell_volume 1304.955736
_symmetry_space_group_name_H-M "P M N 21"
_symmetry_group_IT_number 31
_symmetry_cell_setting 'orthorhombic'
loop_
_space_group_symop_operation_xyz
x,y,z
1/2-x,-y,1/2+z
-x,y,z
1/2+x,-y,1/2+z
loop_
_atom_site_type_symbol
_atom_site_label
_atom_site_fract_x
_atom_site_fract_y
_atom_site_fract_z
Si Si1 0.678033 0.277016 0.541580
Si Si2 0.327235 0.140314 0.833639
Si Si3 0.176960 0.377344 0.729392
Si Si4 0.678169 0.348743 0.330858
Si Si5 0.327323 0.878415 0.709680
Si Si6 0.177698 0.986819 0.531976
O O1 0.500000 0.268349 0.551569
O O2 0.744320 0.355022 0.629688
O O3 0.713346 0.343229 0.441365
O O4 0.744828 0.129308 0.540095
O O5 0.500000 0.183491 0.837868
O O6 0.227815 0.257949 0.795786
O O7 0.318839 0.018416 0.762320
O O8 0.283872 0.082719 0.934205
O O9 0.215851 0.514029 0.780517
O O10 0.000000 0.373436 0.715667
O O11 0.500000 0.328678 0.322609
O O12 0.762121 0.231906 0.277802
O O13 0.500000 0.851462 0.688607
O O14 0.232855 0.895184 0.616032
O O15 0.000000 0.005354 0.535342
#
# Coordination Sequence:
#
# PCOD9343450 Si02
#       6
#     4   4   4   4   4   4
#     4  11  22  39  63  89 121 161 205 253 307 365
#     4  10  22  39  60  90 123 156 204 253 298 359
#     4  11  24  41  63  91 125 164 205 250 307 367
#     4  10  24  43  62  89 125 164 207 252 303 365
#     4  11  22  38  62  93 123 156 204 252 302 360
#     4  11  22  38  62  92 125 161 205 254 303 360
#
# _framework density 18.391428000000001
#
# number of rings (size 3 to 8) (size 9 to 14) (size 15 to 20)
#    0.000    1.333    3.333    2.000    0.000    5.333 
#    0.000    3.333    0.000    0.000    0.000    0.000 
#    0.000    0.000    0.000    0.000    0.000    0.000 
#
# Total GULP energy -134131.498666 kJ/mol
# GULP energy per Si atom -5588.812444 kJ/mol
# Density = 1.834957 g / cm^3
# Si number density = 18.391428 Si / 1000 Ang^3
#
#
#
# Elastic Constant Matrix: (Units=GPa)
#
#
# Indices 1 2 3 4 5 6 
#
# 1 54.7379 43.3840 47.6384 0.0000 0.0000 0.0000
# 2 43.3840 87.2221 31.4802 0.0000 0.0000 0.0000
# 3 47.6384 31.4802 130.7701 0.0000 0.0000 0.0000
# 4 0.0000 0.0000 0.0000 27.7312 0.0000 0.0000
# 5 0.0000 0.0000 0.0000 0.0000 19.0409 0.0000
# 6 0.0000 0.0000 0.0000 0.0000 0.0000 20.4928
#
#
#
# Elastic Compliance Matrix: (Units=1/GPa)
#
#
# Indices 1 2 3 4 5 6 
#
# 1 0.040661 -0.016294 -0.010890 0.000000 0.000000 0.000000
# 2 -0.016294 0.019085 0.001341 0.000000 0.000000 0.000000
# 3 -0.010890 0.001341 0.011291 0.000000 0.000000 0.000000
# 4 0.000000 0.000000 0.000000 0.036060 0.000000 0.000000
# 5 0.000000 0.000000 0.000000 0.000000 0.052519 0.000000
# 6 0.000000 0.000000 0.000000 0.000000 0.000000 0.048798
#
#
# Mechanical properties :
#
#
# Convention : Reuss Voigt Hill
#
# Bulk Modulus (GPa) = 51.67387 57.52614 54.60000
# Shear Modulus (GPa) = 18.75821 23.46814 21.11318
#
# Velocity S-wave (km/s) = 3.19712 3.57604 3.39188
# Velocity P-wave (km/s) = 6.46425 6.95683 6.71505
#
# Compressibility (1/GPa) = 0.01935214
#
# Stress axis : x y z
#
# Youngs Moduli (GPa) = 24.59378 52.39582 88.56470
#
# Poissons Ratio (x) = 0.85374 0.96446
# Poissons Ratio (y) = 0.40073 -0.11880
# Poissons Ratio (z) = 0.26782 -0.07028
#
# Static dielectric constant tensor:
#      x y z
#    x 1.617360 0.000000 0.000000 
#    y 0.000000 1.592920 0.000000 
#    z 0.000000 0.000000 1.631500 
# 
# From -- ./inp_files/4729.got.cif
#   From: 2010.05.17/outbox.cif.g08.bks.cpg/sg31_3_cif.got.tgz:4729.got - 2010.06.03 17:08:30.
