data_PCOD9343637
_publ_section_title
;
Structure prediction by ZEFSAII (Michael W. Deem and Ramdas Pophale) SiO2 
 PCOD9343637
Probable space group: P B A 2
;
_chemical_formula_sum "Si O2"
_cell_formula_units_Z 20
_cell_length_a 5.232410
_cell_length_b 13.717637
_cell_length_c 11.925574
_cell_angle_alpha 90.000000
_cell_angle_beta 90.000000
_cell_angle_gamma 90.000000
_cell_volume 855.973589
_symmetry_space_group_name_H-M "P B A 2"
_symmetry_group_IT_number 32
_symmetry_cell_setting 'orthorhombic'
loop_
_space_group_symop_operation_xyz
x,y,z
-x,-y,z
1/2-x,1/2+y,z
1/2+x,1/2-y,z
loop_
_atom_site_type_symbol
_atom_site_label
_atom_site_fract_x
_atom_site_fract_y
_atom_site_fract_z
Si Si1 0.994993 0.182569 0.957080
Si Si2 0.402775 0.147806 0.540128
Si Si3 0.138990 0.815325 0.196354
Si Si4 0.263008 0.560840 0.758751
Si Si5 0.592393 0.630946 0.444732
O O1 0.218243 0.265092 0.945740
O O2 0.097352 0.106440 0.866779
O O3 0.953279 0.135462 0.080659
O O4 0.321754 0.143737 0.669552
O O5 0.433156 0.254930 0.485843
O O6 0.672265 0.098606 0.519354
O O7 0.184722 0.092756 0.472079
O O8 0.426653 0.771922 0.197705
O O9 0.126692 0.872961 0.312108
O O10 0.500000 0.500000 0.707440
O O11 0.000000 0.500000 0.781526
#
# Coordination Sequence:
#
# PCOD9343637 Si02
#       5
#     4   4   4   4   4
#     4  10  23  38  65  93 121 157 223 271 312 374
#     4  10  20  31  57  83 120 158 198 244 316 373
#     4  10  16  32  54  92 122 144 186 271 321 353
#     4  12  26  43  59  86 134 179 213 259 326 388
#     4  10  17  32  57  94 116 143 196 269 313 362
#
# _framework density 23.365206000000001
#
# number of rings (size 3 to 8) (size 9 to 14) (size 15 to 20)
#    0.000    1.600    4.000    2.400    5.600    0.000 
#    0.000    0.000    0.000    4.800    0.000    0.000 
#    0.000    0.000    0.000    0.000    0.000    0.000 
#
# Total GULP energy -111440.365776 kJ/mol
# GULP energy per Si atom -5572.018289 kJ/mol
# Density = 2.331203 g / cm^3
# Si number density = 23.365206 Si / 1000 Ang^3
#
#
#
# Elastic Constant Matrix: (Units=GPa)
#
#
# Indices 1 2 3 4 5 6 
#
# 1 123.9022 15.8955 -19.2491 0.0000 0.0000 0.0000
# 2 15.8955 36.0770 7.2462 0.0000 0.0000 0.0000
# 3 -19.2491 7.2462 124.0824 0.0000 0.0000 0.0000
# 4 0.0000 0.0000 0.0000 5.7724 0.0000 0.0000
# 5 0.0000 0.0000 0.0000 0.0000 27.5136 0.0000
# 6 0.0000 0.0000 0.0000 0.0000 0.0000 19.9686
#
#
#
# Elastic Compliance Matrix: (Units=1/GPa)
#
#
# Indices 1 2 3 4 5 6 
#
# 1 0.008866 -0.004232 0.001623 0.000000 0.000000 0.000000
# 2 -0.004232 0.030068 -0.002412 0.000000 0.000000 0.000000
# 3 0.001623 -0.002412 0.008452 0.000000 0.000000 0.000000
# 4 0.000000 0.000000 0.000000 0.173239 0.000000 0.000000
# 5 0.000000 0.000000 0.000000 0.000000 0.036346 0.000000
# 6 0.000000 0.000000 0.000000 0.000000 0.000000 0.050079
#
#
# Mechanical properties :
#
#
# Convention : Reuss Voigt Hill
#
# Bulk Modulus (GPa) = 26.78010 32.42741 29.60376
# Shear Modulus (GPa) = 15.17269 29.32886 22.25077
#
# Velocity S-wave (km/s) = 2.55104 3.54678 3.08929
# Velocity P-wave (km/s) = 4.49038 5.53908 5.04207
#
# Compressibility (1/GPa) = 0.03734116
#
# Stress axis : x y z
#
# Youngs Moduli (GPa) = 112.79160 33.25826 118.31867
#
# Poissons Ratio (x) = 0.14076 -0.19198
# Poissons Ratio (y) = 0.47736 0.28544
# Poissons Ratio (z) = -0.18301 0.08023
#
# Static dielectric constant tensor:
#      x y z
#    x 1.928220 0.000000 0.000000 
#    y 0.000000 1.902830 0.000000 
#    z 0.000000 0.000000 1.925930 
# 
# From -- ./inp_files/3479.got.cif
#   From: 2010.05.17/outbox.cif.g08.bks.cpg/sg32_2_cif.got.tgz:3479.got - 2010.06.03 17:12:27.
