data_PCOD9343226
_publ_section_title
;
Structure prediction by ZEFSAII (Michael W. Deem and Ramdas Pophale) SiO2 
 PCOD9343226
Probable space group: P M N 21
;
_chemical_formula_sum "Si O2"
_cell_formula_units_Z 32
_cell_length_a 11.025891
_cell_length_b 5.965695
_cell_length_c 22.161071
_cell_angle_alpha 90.000000
_cell_angle_beta 90.000000
_cell_angle_gamma 90.000000
_cell_volume 1457.691046
_symmetry_space_group_name_H-M "P M N 21"
_symmetry_group_IT_number 31
_symmetry_cell_setting 'orthorhombic'
loop_
_space_group_symop_operation_xyz
x,y,z
1/2-x,-y,1/2+z
-x,y,z
1/2+x,-y,1/2+z
loop_
_atom_site_type_symbol
_atom_site_label
_atom_site_fract_x
_atom_site_fract_y
_atom_site_fract_z
Si Si1 0.805793 0.818247 0.454650
Si Si2 0.694978 0.183085 0.366980
Si Si3 0.369382 0.432436 0.838826
Si Si4 0.769670 0.092868 0.560572
Si Si5 0.718292 0.912008 0.258381
Si Si6 0.870047 0.565151 0.980956
Si Si7 0.147844 0.213755 0.162977
Si Si8 0.135489 0.418125 0.659056
O O1 0.878941 0.680639 0.404886
O O2 0.724308 0.632006 0.486033
O O3 0.727903 0.983036 0.412169
O O4 0.851261 0.965375 0.510553
O O5 0.813526 0.322991 0.347756
O O6 0.627396 0.356528 0.410783
O O7 0.648226 0.075743 0.305018
O O8 0.500000 0.447816 0.809488
O O9 0.285783 0.272165 0.799305
O O10 0.671163 0.230760 0.522163
O O11 0.844812 0.272605 0.598797
O O12 0.696787 0.928391 0.605410
O O13 0.640539 0.766779 0.212102
O O14 0.815081 0.058381 0.220253
O O15 0.000000 0.481587 0.000082
O O16 0.244663 0.422724 0.165866
O O17 0.000000 0.256681 0.160952
O O18 0.000000 0.526789 0.659076
#
# Coordination Sequence:
#
# PCOD9343226 Si02
#       8
#     4   4   4   4   4   4   4   4
#     4   9  20  37  56  87 122 155 195 245 305 367
#     4   9  20  37  56  87 122 155 195 245 305 367
#     4  10  20  37  62  90 120 156 203 257 313 374
#     4  10  22  41  63  89 123 163 212 260 310 371
#     4  10  22  41  63  89 123 163 212 260 310 371
#     4  10  20  37  62  90 120 156 203 257 313 374
#     4  11  24  42  67  97 127 163 211 269 326 374
#     4  11  26  44  63  91 127 169 215 261 314 380
#
# _framework density 21.952527
#
# number of rings (size 3 to 8) (size 9 to 14) (size 15 to 20)
#    0.000    2.000    0.000    2.250    0.000   13.000 
#    0.000   17.500    0.000    0.000    0.000    0.000 
#    0.000    0.000    0.000    0.000    0.000    0.000 
#
# Total GULP energy -178303.212374 kJ/mol
# GULP energy per Si atom -5571.975387 kJ/mol
# Density = 2.190256 g / cm^3
# Si number density = 21.952527 Si / 1000 Ang^3
#
#
#
# Elastic Constant Matrix: (Units=GPa)
#
#
# Indices 1 2 3 4 5 6 
#
# 1 97.0971 2.5707 6.7788 0.0000 0.0000 0.0000
# 2 2.5707 55.3279 18.6922 0.0000 0.0000 0.0000
# 3 6.7788 18.6922 115.2565 0.0000 0.0000 0.0000
# 4 0.0000 0.0000 0.0000 47.3798 0.0000 0.0000
# 5 0.0000 0.0000 0.0000 0.0000 -64.9891 0.0000
# 6 0.0000 0.0000 0.0000 0.0000 0.0000 105.2602
#
#
#
# Elastic Compliance Matrix: (Units=1/GPa)
#
#
# Indices 1 2 3 4 5 6 
#
# 1 0.010346 -0.000291 -0.000561 0.000000 0.000000 0.000000
# 2 -0.000291 0.019130 -0.003085 0.000000 0.000000 0.000000
# 3 -0.000561 -0.003085 0.009210 0.000000 0.000000 0.000000
# 4 0.000000 0.000000 0.000000 0.021106 0.000000 0.000000
# 5 0.000000 0.000000 0.000000 0.000000 -0.015387 0.000000
# 6 0.000000 0.000000 0.000000 0.000000 0.000000 0.009500
#
#
# Mechanical properties :
#
#
# Convention : Reuss Voigt Hill
#
# Bulk Modulus (GPa) = 32.45691 35.97388 34.21540
# Shear Modulus (GPa) = 69.39612 33.50614 51.45113
#
# Velocity S-wave (km/s) = 5.62855 3.91103 4.84648
# Velocity P-wave (km/s) = 7.55366 6.06775 6.85111
#
# Compressibility (1/GPa) = 0.03081008
#
# Stress axis : x y z
#
# Youngs Moduli (GPa) = 96.65702 52.27399 108.58127
#
# Poissons Ratio (x) = 0.01522 0.06095
# Poissons Ratio (y) = 0.02813 0.33501
# Poissons Ratio (z) = 0.05425 0.16128
#
# Static dielectric constant tensor:
#      x y z
#    x 1.821250 0.000000 0.000000 
#    y 0.000000 1.788000 0.000000 
#    z 0.000000 0.000000 1.823050 
# 
# From -- ./inp_files/6532.got.cif
#   From: 2010.05.17/outbox.cif.g08.bks.cpg/sg31_4_cif.got.tgz:6532.got - 2010.06.03 17:08:30.
