data_PCOD9343871
_publ_section_title
;
Structure prediction by ZEFSAII (Michael W. Deem and Ramdas Pophale) SiO2 
 PCOD9343871
Probable space group: P B A 2
;
_chemical_formula_sum "Si O2"
_cell_formula_units_Z 16
_cell_length_a 12.831225
_cell_length_b 10.551771
_cell_length_c 4.769014
_cell_angle_alpha 90.000000
_cell_angle_beta 90.000000
_cell_angle_gamma 90.000000
_cell_volume 645.687049
_symmetry_space_group_name_H-M "P B A 2"
_symmetry_group_IT_number 32
_symmetry_cell_setting 'orthorhombic'
loop_
_space_group_symop_operation_xyz
x,y,z
-x,-y,z
1/2-x,1/2+y,z
1/2+x,1/2-y,z
loop_
_atom_site_type_symbol
_atom_site_label
_atom_site_fract_x
_atom_site_fract_y
_atom_site_fract_z
Si Si1 0.912860 0.268113 0.121970
Si Si2 0.897176 0.439137 0.644030
Si Si3 0.410686 0.590770 0.989559
Si Si4 0.190364 0.968322 0.444487
O O1 0.931737 0.370978 0.359723
O O2 0.847214 0.157958 0.283129
O O3 0.856635 0.330493 0.855153
O O4 0.023643 0.218833 0.993604
O O5 0.806049 0.536992 0.568832
O O6 0.000000 0.500000 0.773784
O O7 0.500000 0.500000 0.120205
O O8 0.379166 0.522433 0.701246
O O9 0.317596 0.578947 0.209817
#
# Coordination Sequence:
#
# PCOD9343871 Si02
#       4
#     4   4   4   4
#     4  11  24  44  69  99 139 182 225 288 348 396
#     4  12  27  44  65 101 144 181 227 284 348 414
#     4  10  20  40  69  99 128 170 233 285 325 399
#     4  11  23  42  69 101 134 181 235 277 335 421
#
# _framework density 24.779803999999999
#
# number of rings (size 3 to 8) (size 9 to 14) (size 15 to 20)
#    0.000    1.000    0.000    9.000    0.000    6.000 
#    0.000    2.500    0.000    0.000    0.000    0.000 
#    0.000    0.000    0.000    0.000    0.000    0.000 
#
# Total GULP energy -89325.417669 kJ/mol
# GULP energy per Si atom -5582.838604 kJ/mol
# Density = 2.472340 g / cm^3
# Si number density = 24.779804 Si / 1000 Ang^3
#
#
#
# Elastic Constant Matrix: (Units=GPa)
#
#
# Indices 1 2 3 4 5 6 
#
# 1 117.3465 35.6631 34.9148 0.0000 0.0000 0.0000
# 2 35.6631 76.9284 27.8371 0.0000 0.0000 0.0000
# 3 34.9148 27.8371 135.6969 0.0000 0.0000 0.0000
# 4 0.0000 0.0000 0.0000 43.6539 0.0000 0.0000
# 5 0.0000 0.0000 0.0000 0.0000 41.1994 0.0000
# 6 0.0000 0.0000 0.0000 0.0000 0.0000 31.5576
#
#
#
# Elastic Compliance Matrix: (Units=1/GPa)
#
#
# Indices 1 2 3 4 5 6 
#
# 1 0.010314 -0.004127 -0.001807 0.000000 0.000000 0.000000
# 2 -0.004127 0.015693 -0.002157 0.000000 0.000000 0.000000
# 3 -0.001807 -0.002157 0.008277 0.000000 0.000000 0.000000
# 4 0.000000 0.000000 0.000000 0.022907 0.000000 0.000000
# 5 0.000000 0.000000 0.000000 0.000000 0.024272 0.000000
# 6 0.000000 0.000000 0.000000 0.000000 0.000000 0.031688
#
#
# Mechanical properties :
#
#
# Convention : Reuss Voigt Hill
#
# Bulk Modulus (GPa) = 55.24798 58.53356 56.89077
# Shear Modulus (GPa) = 36.93617 38.71932 37.82774
#
# Velocity S-wave (km/s) = 3.86499 3.95718 3.91135
# Velocity P-wave (km/s) = 6.50088 6.67471 6.58837
#
# Compressibility (1/GPa) = 0.01810021
#
# Stress axis : x y z
#
# Youngs Moduli (GPa) = 96.95726 63.72190 120.81864
#
# Poissons Ratio (x) = 0.26301 0.21832
# Poissons Ratio (y) = 0.40019 0.26064
# Poissons Ratio (z) = 0.17520 0.13747
#
# Static dielectric constant tensor:
#      x y z
#    x 2.080940 0.000000 0.000000 
#    y 0.000000 2.088690 0.000000 
#    z 0.000000 0.000000 1.970390 
# 
# From -- ./inp_files/676.got.cif
#   From: 2010.05.17/outbox.cif.g08.bks.cpg/sg32_1_cif.got.tgz:676.got - 2010.06.03 17:12:27.
