data_PCOD9343652
_publ_section_title
;
Structure prediction by ZEFSAII (Michael W. Deem and Ramdas Pophale) SiO2 
 PCOD9343652
Probable space group: P B A 2
;
_chemical_formula_sum "Si O2"
_cell_formula_units_Z 32
_cell_length_a 20.354020
_cell_length_b 16.673868
_cell_length_c 5.179016
_cell_angle_alpha 90.000000
_cell_angle_beta 90.000000
_cell_angle_gamma 90.000000
_cell_volume 1757.655707
_symmetry_space_group_name_H-M "P B A 2"
_symmetry_group_IT_number 32
_symmetry_cell_setting 'orthorhombic'
loop_
_space_group_symop_operation_xyz
x,y,z
-x,-y,z
1/2-x,1/2+y,z
1/2+x,1/2-y,z
loop_
_atom_site_type_symbol
_atom_site_label
_atom_site_fract_x
_atom_site_fract_y
_atom_site_fract_z
Si Si1 0.928248 0.210853 0.260070
Si Si2 0.128214 0.609983 0.264749
Si Si3 0.132600 0.950609 0.166684
Si Si4 0.572719 0.494613 0.667002
Si Si5 0.449824 0.072711 0.764987
Si Si6 0.143770 0.171630 0.718692
Si Si7 0.716083 0.389079 0.221467
Si Si8 0.490270 0.748540 0.760090
O O1 0.893635 0.297111 0.257546
O O2 0.871686 0.143288 0.237121
O O3 0.972450 0.206997 0.518419
O O4 0.979024 0.209358 0.019074
O O5 0.102630 0.574899 0.533900
O O6 0.205882 0.605622 0.230534
O O7 0.089283 0.567737 0.032890
O O8 0.077473 0.981894 0.368403
O O9 0.188188 0.018550 0.220480
O O10 0.117733 0.955067 0.862577
O O11 0.500000 0.500000 0.766258
O O12 0.596598 0.405063 0.700734
O O13 0.488138 0.158066 0.759200
O O14 0.500000 0.000000 0.734993
O O15 0.188258 0.161526 0.464516
O O16 0.088894 0.240978 0.740318
O O17 0.188622 0.156306 0.968627
#
# Coordination Sequence:
#
# PCOD9343652 Si02
#       8
#     4   4   4   4   4   4   4   4
#     4  10  19  33  53  75 102 137 177 218 266 310
#     4  10  21  38  58  77 106 142 173 217 271 321
#     4  10  19  30  46  71 101 133 175 210 238 305
#     4  10  18  27  44  69 100 134 165 203 247 289
#     4  10  21  39  62  83 101 130 179 232 277 308
#     4  10  19  32  50  74 107 140 170 206 253 312
#     4  10  21  35  51  75 110 148 175 205 258 320
#     4  10  20  34  54  80 107 134 171 223 267 309
#
# _framework density 18.20607
#
# number of rings (size 3 to 8) (size 9 to 14) (size 15 to 20)
#    0.000    2.000    0.000    4.500    0.000    2.000 
#    0.000    2.500    0.000    0.000    0.000    0.000 
#    0.000    0.000    0.000    0.000    0.000    0.000 
#
# Total GULP energy -178288.969163 kJ/mol
# GULP energy per Si atom -5571.530286 kJ/mol
# Density = 1.816463 g / cm^3
# Si number density = 18.206070 Si / 1000 Ang^3
#
#
#
# Elastic Constant Matrix: (Units=GPa)
#
#
# Indices 1 2 3 4 5 6 
#
# 1 85.6999 22.9519 17.9645 0.0000 0.0000 0.0000
# 2 22.9519 30.9338 10.5658 0.0000 0.0000 0.0000
# 3 17.9645 10.5658 104.1670 0.0000 0.0000 0.0000
# 4 0.0000 0.0000 0.0000 6.4514 0.0000 0.0000
# 5 0.0000 0.0000 0.0000 0.0000 17.6502 0.0000
# 6 0.0000 0.0000 0.0000 0.0000 0.0000 14.8118
#
#
#
# Elastic Compliance Matrix: (Units=1/GPa)
#
#
# Indices 1 2 3 4 5 6 
#
# 1 0.014782 -0.010459 -0.001488 0.000000 0.000000 0.000000
# 2 -0.010459 0.040888 -0.002344 0.000000 0.000000 0.000000
# 3 -0.001488 -0.002344 0.010094 0.000000 0.000000 0.000000
# 4 0.000000 0.000000 0.000000 0.155005 0.000000 0.000000
# 5 0.000000 0.000000 0.000000 0.000000 0.056656 0.000000
# 6 0.000000 0.000000 0.000000 0.000000 0.000000 0.067514
#
#
# Mechanical properties :
#
#
# Convention : Reuss Voigt Hill
#
# Bulk Modulus (GPa) = 26.89483 35.97389 31.43436
# Shear Modulus (GPa) = 12.95622 19.07060 16.01341
#
# Velocity S-wave (km/s) = 2.67056 3.24000 2.96896
# Velocity P-wave (km/s) = 4.93089 5.81369 5.39039
#
# Compressibility (1/GPa) = 0.03718187
#
# Stress axis : x y z
#
# Youngs Moduli (GPa) = 67.65088 24.45706 99.06529
#
# Poissons Ratio (x) = 0.25580 0.14744
# Poissons Ratio (y) = 0.70758 0.23216
# Poissons Ratio (z) = 0.10069 0.05732
#
# Static dielectric constant tensor:
#      x y z
#    x 1.593120 0.000000 0.000000 
#    y 0.000000 1.528620 0.000000 
#    z 0.000000 0.000000 1.671450 
# 
# From -- ./inp_files/1516.got.cif
#   From: 2010.05.17/outbox.cif.g08.bks.cpg/sg32_1_cif.got.tgz:1516.got - 2010.06.03 17:12:27.
