data_PCOD9343943
_publ_section_title
;
Structure prediction by ZEFSAII (Michael W. Deem and Ramdas Pophale) SiO2 
 PCOD9343943
Probable space group: P B A 2
;
_chemical_formula_sum "Si O2"
_cell_formula_units_Z 20
_cell_length_a 14.851978
_cell_length_b 9.145566
_cell_length_c 7.555344
_cell_angle_alpha 90.000000
_cell_angle_beta 90.000000
_cell_angle_gamma 90.000000
_cell_volume 1026.240449
_symmetry_space_group_name_H-M "P B A 2"
_symmetry_group_IT_number 32
_symmetry_cell_setting 'orthorhombic'
loop_
_space_group_symop_operation_xyz
x,y,z
-x,-y,z
1/2-x,1/2+y,z
1/2+x,1/2-y,z
loop_
_atom_site_type_symbol
_atom_site_label
_atom_site_fract_x
_atom_site_fract_y
_atom_site_fract_z
Si Si1 0.322044 0.970713 0.386590
Si Si2 0.186411 0.164154 0.204452
Si Si3 0.403240 0.932521 0.752519
Si Si4 0.124689 0.643808 0.074617
Si Si5 0.533488 0.347334 0.926268
O O1 0.335241 0.806797 0.318113
O O2 0.337016 0.972228 0.594485
O O3 0.225140 0.033601 0.325850
O O4 0.387991 0.076476 0.271477
O O5 0.273718 0.204705 0.083199
O O6 0.103794 0.120306 0.082853
O O7 0.418127 0.761707 0.789429
O O8 0.500000 0.000000 0.702770
O O9 0.376818 0.009087 0.937094
O O10 0.049911 0.756182 0.009556
O O11 0.500000 0.500000 0.848827
#
# Coordination Sequence:
#
# PCOD9343943 Si02
#       5
#     4   4   4   4   4
#     4  10  22  39  61  92 125 166 214 256 329 376
#     4  10  21  39  64  91 127 173 206 267 321 380
#     4  10  22  39  64  90 123 172 210 261 325 387
#     4   9  22  41  64  90 130 172 211 261 324 388
#     4  11  21  39  68  97 125 170 220 270 322 374
#
# _framework density 19.488610999999999
#
# number of rings (size 3 to 8) (size 9 to 14) (size 15 to 20)
#    1.200    0.800    2.000    1.200    2.800    1.600 
#    0.000    5.000    0.000    0.000    0.000    0.000 
#    0.000    0.000    0.000    0.000    0.000    0.000 
#
# Total GULP energy -111457.811597 kJ/mol
# GULP energy per Si atom -5572.890580 kJ/mol
# Density = 1.944425 g / cm^3
# Si number density = 19.488611 Si / 1000 Ang^3
#
#
#
# Elastic Constant Matrix: (Units=GPa)
#
#
# Indices 1 2 3 4 5 6 
#
# 1 52.9310 -1.2338 16.6619 0.0000 0.0000 0.0000
# 2 -1.2338 84.3378 33.0114 0.0000 0.0000 0.0000
# 3 16.6619 33.0114 76.0522 0.0000 0.0000 0.0000
# 4 0.0000 0.0000 0.0000 4.0699 0.0000 0.0000
# 5 0.0000 0.0000 0.0000 0.0000 16.8294 0.0000
# 6 0.0000 0.0000 0.0000 0.0000 0.0000 24.4670
#
#
#
# Elastic Compliance Matrix: (Units=1/GPa)
#
#
# Indices 1 2 3 4 5 6 
#
# 1 0.020722 0.002506 -0.005628 0.000000 0.000000 0.000000
# 2 0.002506 0.014587 -0.006881 0.000000 0.000000 0.000000
# 3 -0.005628 -0.006881 0.017368 0.000000 0.000000 0.000000
# 4 0.000000 0.000000 0.000000 0.245705 0.000000 0.000000
# 5 0.000000 0.000000 0.000000 0.000000 0.059420 0.000000
# 6 0.000000 0.000000 0.000000 0.000000 0.000000 0.040871
#
#
# Mechanical properties :
#
#
# Convention : Reuss Voigt Hill
#
# Bulk Modulus (GPa) = 30.60631 34.46666 32.53648
# Shear Modulus (GPa) = 11.63955 20.06537 15.85246
#
# Velocity S-wave (km/s) = 2.44652 3.21221 2.85515
# Velocity P-wave (km/s) = 4.87026 5.61085 5.25362
#
# Compressibility (1/GPa) = 0.03267300
#
# Stress axis : x y z
#
# Youngs Moduli (GPa) = 48.25687 68.55441 57.57575
#
# Poissons Ratio (x) = -0.17179 0.32402
# Poissons Ratio (y) = -0.12093 0.39616
# Poissons Ratio (z) = 0.27157 0.47170
#
# Static dielectric constant tensor:
#      x y z
#    x 1.701250 0.000000 0.000000 
#    y 0.000000 1.684150 0.000000 
#    z 0.000000 0.000000 1.674020 
# 
# From -- ./inp_files/2964.got.cif
#   From: 2010.05.17/outbox.cif.g08.bks.cpg/sg32_2_cif.got.tgz:2964.got - 2010.06.03 17:12:27.
