data_PCOD9343661
_publ_section_title
;
Structure prediction by ZEFSAII (Michael W. Deem and Ramdas Pophale) SiO2 
 PCOD9343661
Probable space group: P B A 2
;
_chemical_formula_sum "Si O2"
_cell_formula_units_Z 32
_cell_length_a 11.421833
_cell_length_b 12.290800
_cell_length_c 9.610132
_cell_angle_alpha 90.000000
_cell_angle_beta 90.000000
_cell_angle_gamma 90.000000
_cell_volume 1349.103630
_symmetry_space_group_name_H-M "P B A 2"
_symmetry_group_IT_number 32
_symmetry_cell_setting 'orthorhombic'
loop_
_space_group_symop_operation_xyz
x,y,z
-x,-y,z
1/2-x,1/2+y,z
1/2+x,1/2-y,z
loop_
_atom_site_type_symbol
_atom_site_label
_atom_site_fract_x
_atom_site_fract_y
_atom_site_fract_z
Si Si1 0.069902 0.402352 0.475490
Si Si2 0.833935 0.862444 0.007364
Si Si3 0.674070 0.477726 0.743433
Si Si4 0.640149 0.692571 0.904818
Si Si5 0.845686 0.762328 0.283069
Si Si6 0.188148 0.028240 0.441750
Si Si7 0.942764 0.396565 0.771831
Si Si8 0.680790 0.571703 0.166601
O O1 0.064206 0.293580 0.387160
O O2 0.201440 0.450677 0.481502
O O3 0.011981 0.385943 0.626172
O O4 0.000000 0.500000 0.403184
O O5 0.895513 0.815519 0.144036
O O6 0.767120 0.966400 0.082213
O O7 0.751316 0.766366 0.950680
O O8 0.889965 0.913924 0.868962
O O9 0.672476 0.604366 0.787048
O O10 0.626372 0.456766 0.589540
O O11 0.807047 0.429287 0.745949
O O12 0.551137 0.784040 0.852790
O O13 0.608766 0.626402 0.043128
O O14 0.779614 0.853939 0.375734
O O15 0.768384 0.663284 0.223712
O O16 0.126130 0.971075 0.310538
O O17 0.000000 0.500000 0.847610
#
# Coordination Sequence:
#
# PCOD9343661 Si02
#       8
#     4   4   4   4   4   4   4   4
#     4  10  19  35  50  85 125 149 194 256 315 361
#     4   8  16  31  52  85 112 139 197 248 289 347
#     4  10  18  32  56  91 114 149 203 257 289 359
#     4   9  18  32  58  82 112 159 193 249 302 352
#     4   9  18  32  58  82 112 159 193 249 302 352
#     4  10  18  32  56  91 114 149 203 257 289 359
#     4  10  19  35  50  85 125 149 194 256 315 361
#     4   8  16  31  52  85 112 139 197 248 289 347
#
# _framework density 23.719452
#
# number of rings (size 3 to 8) (size 9 to 14) (size 15 to 20)
#    0.000    2.750    2.500    0.000    0.000    4.000 
#    0.000    0.000    0.000   75.750    0.000    1.750 
#    0.000    0.000    0.000    0.000    0.000    0.000 
#
# Total GULP energy -178258.662884 kJ/mol
# GULP energy per Si atom -5570.583215 kJ/mol
# Density = 2.366547 g / cm^3
# Si number density = 23.719452 Si / 1000 Ang^3
#
#
#
# Elastic Constant Matrix: (Units=GPa)
#
#
# Indices 1 2 3 4 5 6 
#
# 1 47.7551 -0.8967 -0.1988 0.0000 0.0000 0.0000
# 2 -0.8967 121.8139 57.8262 0.0000 0.0000 0.0000
# 3 -0.1988 57.8262 168.9129 0.0000 0.0000 0.0000
# 4 0.0000 0.0000 0.0000 26.5098 0.0000 0.0000
# 5 0.0000 0.0000 0.0000 0.0000 11.6876 0.0000
# 6 0.0000 0.0000 0.0000 0.0000 0.0000 15.8172
#
#
#
# Elastic Compliance Matrix: (Units=1/GPa)
#
#
# Indices 1 2 3 4 5 6 
#
# 1 0.020943 0.000170 -0.000034 0.000000 0.000000 0.000000
# 2 0.000170 0.009804 -0.003356 0.000000 0.000000 0.000000
# 3 -0.000034 -0.003356 0.007069 0.000000 0.000000 0.000000
# 4 0.000000 0.000000 0.000000 0.037722 0.000000 0.000000
# 5 0.000000 0.000000 0.000000 0.000000 0.085561 0.000000
# 6 0.000000 0.000000 0.000000 0.000000 0.000000 0.063222
#
#
# Mechanical properties :
#
#
# Convention : Reuss Voigt Hill
#
# Bulk Modulus (GPa) = 31.87052 50.21592 41.04322
# Shear Modulus (GPa) = 20.72806 29.58633 25.15720
#
# Velocity S-wave (km/s) = 2.95936 3.53561 3.26024
# Velocity P-wave (km/s) = 5.01425 6.15501 5.61368
#
# Compressibility (1/GPa) = 0.03137695
#
# Stress axis : x y z
#
# Youngs Moduli (GPa) = 47.74815 102.00311 141.46119
#
# Poissons Ratio (x) = -0.01735 0.00475
# Poissons Ratio (y) = -0.00812 0.47474
# Poissons Ratio (z) = 0.00160 0.34232
#
# Static dielectric constant tensor:
#      x y z
#    x 1.943840 0.000000 0.000000 
#    y 0.000000 1.955890 0.000000 
#    z 0.000000 0.000000 1.919130 
# 
# From -- ./inp_files/3252.got.cif
#   From: 2010.05.17/outbox.cif.g08.bks.cpg/sg32_2_cif.got.tgz:3252.got - 2010.06.03 17:12:27.
