data_PCOD9343820
_publ_section_title
;
Structure prediction by ZEFSAII (Michael W. Deem and Ramdas Pophale) SiO2 
 PCOD9343820
Probable space group: P B A 2
;
_chemical_formula_sum "Si O2"
_cell_formula_units_Z 26
_cell_length_a 9.818262
_cell_length_b 12.643589
_cell_length_c 10.075554
_cell_angle_alpha 90.000000
_cell_angle_beta 90.000000
_cell_angle_gamma 90.000000
_cell_volume 1250.759822
_symmetry_space_group_name_H-M "P B A 2"
_symmetry_group_IT_number 32
_symmetry_cell_setting 'orthorhombic'
loop_
_space_group_symop_operation_xyz
x,y,z
-x,-y,z
1/2-x,1/2+y,z
1/2+x,1/2-y,z
loop_
_atom_site_type_symbol
_atom_site_label
_atom_site_fract_x
_atom_site_fract_y
_atom_site_fract_z
Si Si1 0.958764 0.382196 0.581640
Si Si2 0.308350 0.736600 0.465746
Si Si3 0.790140 0.606143 0.235748
Si Si4 0.091679 0.635562 0.887952
Si Si5 0.173714 0.254089 0.008800
Si Si6 0.884819 0.911997 0.238721
Si Si7 0.500000 0.000000 0.105492
O O1 0.820537 0.327666 0.524103
O O2 0.929494 0.397191 0.737661
O O3 0.000000 0.500000 0.527898
O O4 0.085673 0.301231 0.558260
O O5 0.255143 0.825032 0.361774
O O6 0.393914 0.656987 0.371693
O O7 0.740902 0.664760 0.102631
O O8 0.747427 0.485745 0.250550
O O9 0.949891 0.594773 0.199033
O O10 0.223569 0.707658 0.902054
O O11 0.955631 0.694319 0.938369
O O12 0.109249 0.542844 0.997929
O O13 0.125278 0.165256 0.113679
O O14 0.000000 0.000000 0.225593
#
# Coordination Sequence:
#
# PCOD9343820 Si02
#       7
#     4   4   4   4   4   4   2
#     4  12  26  46  67  93 136 187 229 279 332 413
#     4  11  26  41  65  98 130 178 233 272 340 407
#     4  10  21  37  65  94 130 159 213 281 337 395
#     4  11  21  42  62  93 127 171 220 268 326 408
#     4  10  22  37  65  97 128 160 216 276 342 396
#     4  11  21  38  63  94 131 163 211 281 337 396
#     4  10  20  36  66  94 120 166 214 264 344 396
#
# _framework density 20.787362999999999
#
# number of rings (size 3 to 8) (size 9 to 14) (size 15 to 20)
#    0.000    1.231    2.308    3.692    3.231    2.462 
#    0.000    0.000    0.000    3.692    0.000    0.000 
#    0.000    0.000    0.000    0.000    0.000    0.000 
#
# Total GULP energy -144955.139090 kJ/mol
# GULP energy per Si atom -5575.197657 kJ/mol
# Density = 2.074005 g / cm^3
# Si number density = 20.787363 Si / 1000 Ang^3
#
#
#
# Elastic Constant Matrix: (Units=GPa)
#
#
# Indices 1 2 3 4 5 6 
#
# 1 83.9980 29.6987 31.9861 0.0000 0.0000 0.0000
# 2 29.6987 110.7489 39.7699 0.0000 0.0000 0.0000
# 3 31.9861 39.7699 96.1785 0.0000 0.0000 0.0000
# 4 0.0000 0.0000 0.0000 30.7563 0.0000 0.0000
# 5 0.0000 0.0000 0.0000 0.0000 25.1144 0.0000
# 6 0.0000 0.0000 0.0000 0.0000 0.0000 40.0425
#
#
#
# Elastic Compliance Matrix: (Units=1/GPa)
#
#
# Indices 1 2 3 4 5 6 
#
# 1 0.014188 -0.002478 -0.003694 0.000000 0.000000 0.000000
# 2 -0.002478 0.011037 -0.003740 0.000000 0.000000 0.000000
# 3 -0.003694 -0.003740 0.013172 0.000000 0.000000 0.000000
# 4 0.000000 0.000000 0.000000 0.032514 0.000000 0.000000
# 5 0.000000 0.000000 0.000000 0.000000 0.039818 0.000000
# 6 0.000000 0.000000 0.000000 0.000000 0.000000 0.024973
#
#
# Mechanical properties :
#
#
# Convention : Reuss Voigt Hill
#
# Bulk Modulus (GPa) = 53.83939 54.87052 54.35495
# Shear Modulus (GPa) = 30.91841 31.81401 31.36621
#
# Velocity S-wave (km/s) = 3.86082 3.91634 3.88868
# Velocity P-wave (km/s) = 6.76985 6.84863 6.80935
#
# Compressibility (1/GPa) = 0.01857376
#
# Stress axis : x y z
#
# Youngs Moduli (GPa) = 70.48308 90.60529 75.91830
#
# Poissons Ratio (x) = 0.22454 0.28042
# Poissons Ratio (y) = 0.17467 0.28390
# Poissons Ratio (z) = 0.26034 0.33883
#
# Static dielectric constant tensor:
#      x y z
#    x 2.028660 0.000000 0.000000 
#    y 0.000000 1.844970 0.000000 
#    z 0.000000 0.000000 1.739020 
# 
# From -- ./inp_files/2751.got.cif
#   From: 2010.05.17/outbox.cif.g08.bks.cpg/sg32_2_cif.got.tgz:2751.got - 2010.06.03 17:12:27.
