data_PCOD9343664
_publ_section_title
;
Structure prediction by ZEFSAII (Michael W. Deem and Ramdas Pophale) SiO2 
 PCOD9343664
Probable space group: P B A 2
;
_chemical_formula_sum "Si O2"
_cell_formula_units_Z 30
_cell_length_a 14.114604
_cell_length_b 8.515940
_cell_length_c 11.568019
_cell_angle_alpha 90.000000
_cell_angle_beta 90.000000
_cell_angle_gamma 90.000000
_cell_volume 1390.465713
_symmetry_space_group_name_H-M "P B A 2"
_symmetry_group_IT_number 32
_symmetry_cell_setting 'orthorhombic'
loop_
_space_group_symop_operation_xyz
x,y,z
-x,-y,z
1/2-x,1/2+y,z
1/2+x,1/2-y,z
loop_
_atom_site_type_symbol
_atom_site_label
_atom_site_fract_x
_atom_site_fract_y
_atom_site_fract_z
Si Si1 0.293870 0.020546 0.706150
Si Si2 0.042158 0.328272 0.651602
Si Si3 0.000000 0.000000 0.982243
Si Si4 0.616528 0.664962 0.787187
Si Si5 0.440446 0.655153 0.424107
Si Si6 0.884509 0.857595 0.178627
Si Si7 0.270830 0.355562 0.274292
Si Si8 0.714452 0.899838 0.441622
O O1 0.354244 0.857151 0.705389
O O2 0.187975 0.961437 0.730824
O O3 0.330775 0.163248 0.787003
O O4 0.310482 0.082451 0.574582
O O5 0.039469 0.288861 0.516697
O O6 0.000000 0.500000 0.672372
O O7 0.977771 0.199879 0.713086
O O8 0.923459 0.093712 0.905522
O O9 0.056199 0.122791 0.063480
O O10 0.500000 0.500000 0.451925
O O11 0.449649 0.688840 0.288043
O O12 0.328724 0.617779 0.440541
O O13 0.793380 0.744037 0.186533
O O14 0.840620 0.028237 0.209530
O O15 0.323671 0.246740 0.368796
O O16 0.199578 0.453213 0.357581
#
# Coordination Sequence:
#
# PCOD9343664 Si02
#       8
#     4   4   2   4   4   4   4   4
#     4  11  22  43  67 102 138 179 214 272 354 394
#     4  10  23  40  63 105 144 163 216 274 334 424
#     4  12  28  46  64  88 128 176 250 282 306 384
#     4  11  27  43  69  95 131 184 230 279 325 397
#     4  10  18  32  62  95 133 170 207 261 348 395
#     4  10  21  42  64  90 126 167 218 273 322 391
#     4   8  18  35  64  96 126 163 202 264 336 400
#     4  10  18  32  62 101 134 160 204 259 326 437
#
# _framework density 21.575507000000002
#
# number of rings (size 3 to 8) (size 9 to 14) (size 15 to 20)
#    0.000    2.133    0.667    4.000    4.667    4.267 
#    0.000    0.000    8.800    0.000    0.000    0.000 
#    0.000    0.000    0.000    0.000    0.000    0.000 
#
# Total GULP energy -167407.385826 kJ/mol
# GULP energy per Si atom -5580.246194 kJ/mol
# Density = 2.152640 g / cm^3
# Si number density = 21.575507 Si / 1000 Ang^3
#
#
#
# Elastic Constant Matrix: (Units=GPa)
#
#
# Indices 1 2 3 4 5 6 
#
# 1 62.3414 15.9282 31.9954 0.0000 0.0000 0.0000
# 2 15.9282 87.0911 29.9074 0.0000 0.0000 0.0000
# 3 31.9954 29.9074 100.5855 0.0000 0.0000 0.0000
# 4 0.0000 0.0000 0.0000 26.3208 0.0000 0.0000
# 5 0.0000 0.0000 0.0000 0.0000 35.7825 0.0000
# 6 0.0000 0.0000 0.0000 0.0000 0.0000 27.2367
#
#
#
# Elastic Compliance Matrix: (Units=1/GPa)
#
#
# Indices 1 2 3 4 5 6 
#
# 1 0.019366 -0.001589 -0.005688 0.000000 0.000000 0.000000
# 2 -0.001589 0.012918 -0.003336 0.000000 0.000000 0.000000
# 3 -0.005688 -0.003336 0.012743 0.000000 0.000000 0.000000
# 4 0.000000 0.000000 0.000000 0.037993 0.000000 0.000000
# 5 0.000000 0.000000 0.000000 0.000000 0.027947 0.000000
# 6 0.000000 0.000000 0.000000 0.000000 0.000000 0.036715
#
#
# Mechanical properties :
#
#
# Convention : Reuss Voigt Hill
#
# Bulk Modulus (GPa) = 42.01204 45.07555 43.54379
# Shear Modulus (GPa) = 28.27419 29.34712 28.81066
#
# Velocity S-wave (km/s) = 3.62398 3.69210 3.65820
# Velocity P-wave (km/s) = 6.08484 6.25402 6.17001
#
# Compressibility (1/GPa) = 0.02380270
#
# Stress axis : x y z
#
# Youngs Moduli (GPa) = 51.63769 77.40976 78.47554
#
# Poissons Ratio (x) = 0.12298 0.44635
# Poissons Ratio (y) = 0.08203 0.26177
# Poissons Ratio (z) = 0.29370 0.25822
#
# Static dielectric constant tensor:
#      x y z
#    x 1.886950 0.000000 0.000000 
#    y 0.000000 1.866510 0.000000 
#    z 0.000000 0.000000 1.779280 
# 
# From -- ./inp_files/3936.got.cif
#   From: 2010.05.17/outbox.cif.g08.bks.cpg/sg32_2_cif.got.tgz:3936.got - 2010.06.03 17:12:27.
