data_PCOD9343133
_publ_section_title
;
Structure prediction by ZEFSAII (Michael W. Deem and Ramdas Pophale) SiO2 
 PCOD9343133
Probable space group: P M N 21
;
_chemical_formula_sum "Si O2"
_cell_formula_units_Z 32
_cell_length_a 7.975578
_cell_length_b 11.746270
_cell_length_c 16.581610
_cell_angle_alpha 90.000000
_cell_angle_beta 90.000000
_cell_angle_gamma 90.000000
_cell_volume 1553.419821
_symmetry_space_group_name_H-M "P M N 21"
_symmetry_group_IT_number 31
_symmetry_cell_setting 'orthorhombic'
loop_
_space_group_symop_operation_xyz
x,y,z
1/2-x,-y,1/2+z
-x,y,z
1/2+x,-y,1/2+z
loop_
_atom_site_type_symbol
_atom_site_label
_atom_site_fract_x
_atom_site_fract_y
_atom_site_fract_z
Si Si1 0.193005 0.715351 0.972980
Si Si2 0.307259 0.329439 0.776279
Si Si3 0.191672 0.432419 0.615299
Si Si4 0.200965 0.431227 0.326493
Si Si5 0.300965 0.928151 0.617714
Si Si6 0.296813 0.026031 0.446754
Si Si7 0.799994 0.672839 0.654641
Si Si8 0.298272 0.073815 0.772945
O O1 0.207168 0.643306 0.892190
O O2 0.000000 0.722098 0.000567
O O3 0.253414 0.842640 0.957266
O O4 0.295764 0.647282 0.038964
O O5 0.500000 0.316727 0.802882
O O6 0.301597 0.376930 0.685298
O O7 0.237402 0.437507 0.825344
O O8 0.230616 0.203653 0.776021
O O9 0.239717 0.563620 0.598087
O O10 0.000000 0.435302 0.645764
O O11 0.236104 0.372099 0.240795
O O12 0.000000 0.430931 0.340212
O O13 0.500000 0.950100 0.615279
O O14 0.236679 0.962794 0.528547
O O15 0.274066 0.794372 0.632280
O O16 0.235334 0.001320 0.695048
O O17 0.500000 0.020012 0.444379
O O18 0.236612 0.981203 0.360113
O O19 0.000000 0.687700 0.657063
O O20 0.500000 0.079925 0.763246
#
# Coordination Sequence:
#
# PCOD9343133 Si02
#       8
#     4   4   4   4   4   4   4   4
#     4  11  22  37  57  80 110 145 182 228 281 331
#     4   9  19  37  58  80 110 146 182 223 277 334
#     4  10  21  36  56  82 110 141 181 229 276 330
#     4  10  20  35  57  83 111 144 182 226 276 332
#     4  10  21  38  59  82 112 151 191 232 281 338
#     4  10  23  40  57  82 114 148 190 236 282 338
#     4  10  21  37  56  81 112 144 183 228 276 331
#     4  10  21  38  60  84 113 151 191 232 281 336
#
# _framework density 20.599712
#
# number of rings (size 3 to 8) (size 9 to 14) (size 15 to 20)
#    0.000    2.000    0.000    3.000    0.000    9.500 
#    0.000    5.000    0.000    0.000    0.000    0.000 
#    0.000    0.000    0.000    0.000    0.000    0.000 
#
# Total GULP energy -178515.280286 kJ/mol
# GULP energy per Si atom -5578.602509 kJ/mol
# Density = 2.055283 g / cm^3
# Si number density = 20.599712 Si / 1000 Ang^3
#
#
#
# Elastic Constant Matrix: (Units=GPa)
#
#
# Indices 1 2 3 4 5 6 
#
# 1 19.4729 -3.3528 -1.1531 0.0000 0.0000 0.0000
# 2 -3.3528 156.3297 45.5485 0.0000 0.0000 0.0000
# 3 -1.1531 45.5485 66.9213 0.0000 0.0000 0.0000
# 4 0.0000 0.0000 0.0000 31.0613 0.0000 0.0000
# 5 0.0000 0.0000 0.0000 0.0000 9.2059 0.0000
# 6 0.0000 0.0000 0.0000 0.0000 0.0000 -6.8468
#
#
#
# Elastic Compliance Matrix: (Units=1/GPa)
#
#
# Indices 1 2 3 4 5 6 
#
# 1 0.051545 0.001056 0.000169 0.000000 0.000000 0.000000
# 2 0.001056 0.008001 -0.005427 0.000000 0.000000 0.000000
# 3 0.000169 -0.005427 0.018640 0.000000 0.000000 0.000000
# 4 0.000000 0.000000 0.000000 0.032194 0.000000 0.000000
# 5 0.000000 0.000000 0.000000 0.000000 0.108626 0.000000
# 6 0.000000 0.000000 0.000000 0.000000 0.000000 -0.146054
#
#
# Mechanical properties :
#
#
# Convention : Reuss Voigt Hill
#
# Bulk Modulus (GPa) = 14.33031 36.08990 25.21010
# Shear Modulus (GPa) = 47.79331 20.12950 33.96141
#
# Velocity S-wave (km/s) = 4.82196 3.12937 4.06474
# Velocity P-wave (km/s) = 6.16226 5.53307 5.85612
#
# Compressibility (1/GPa) = 0.06978216
#
# Stress axis : x y z
#
# Youngs Moduli (GPa) = 19.40042 124.98917 53.64859
#
# Poissons Ratio (x) = -0.13201 -0.00908
# Poissons Ratio (y) = -0.02049 0.29117
# Poissons Ratio (z) = -0.00329 0.67835
#
# Static dielectric constant tensor:
#      x y z
#    x 1.762700 0.000000 0.000000 
#    y 0.000000 1.738160 0.000000 
#    z 0.000000 0.000000 1.718990 
# 
# From -- ./inp_files/5024.got.cif
#   From: 2010.05.17/outbox.cif.g08.bks.cpg/sg31_3_cif.got.tgz:5024.got - 2010.06.03 17:08:30.
