data_PCOD9343313
_publ_section_title
;
Structure prediction by ZEFSAII (Michael W. Deem and Ramdas Pophale) SiO2 
 PCOD9343313
Probable space group: P M N 21
;
_chemical_formula_sum "Si O2"
_cell_formula_units_Z 32
_cell_length_a 15.426024
_cell_length_b 10.836463
_cell_length_c 9.331874
_cell_angle_alpha 90.000000
_cell_angle_beta 90.000000
_cell_angle_gamma 90.000000
_cell_volume 1559.949077
_symmetry_space_group_name_H-M "P M N 21"
_symmetry_group_IT_number 31
_symmetry_cell_setting 'orthorhombic'
loop_
_space_group_symop_operation_xyz
x,y,z
1/2-x,-y,1/2+z
-x,y,z
1/2+x,-y,1/2+z
loop_
_atom_site_type_symbol
_atom_site_label
_atom_site_fract_x
_atom_site_fract_y
_atom_site_fract_z
Si Si1 0.274836 0.847332 0.009530
Si Si2 0.902527 0.923237 0.499838
Si Si3 0.403187 0.484954 0.351291
Si Si4 0.100067 0.510859 0.253823
Si Si5 0.202874 0.359268 0.046022
Si Si6 0.098259 0.381006 0.548136
Si Si7 0.299500 0.242908 0.794371
Si Si8 0.156715 0.761480 0.753618
O O1 0.226569 0.843251 0.162344
O O2 0.333131 0.967757 0.992321
O O3 0.335811 0.727660 0.019897
O O4 0.212349 0.829940 0.874260
O O5 0.876366 0.820993 0.382848
O O6 0.892609 0.856585 0.652909
O O7 0.000000 0.967726 0.478453
O O8 0.500000 0.523682 0.402260
O O9 0.322444 0.519941 0.452435
O O10 0.402527 0.339789 0.328471
O O11 0.389512 0.554614 0.200969
O O12 0.106560 0.480267 0.422078
O O13 0.165082 0.626118 0.233927
O O14 0.000000 0.542655 0.221780
O O15 0.128140 0.387409 0.165968
O O16 0.221638 0.265599 0.911398
O O17 0.281566 0.321200 0.148997
O O18 0.000000 0.332569 0.543341
#
# Coordination Sequence:
#
# PCOD9343313 Si02
#       8
#     4   4   4   4   4   4   4   4
#     4  12  23  42  66  92 124 165 212 262 307 362
#     4  11  25  47  66  87 118 164 216 267 317 361
#     4  11  22  37  58  91 131 166 198 249 312 374
#     4  11  22  37  58  91 131 166 198 249 312 374
#     4  11  21  35  59  94 127 162 197 249 308 374
#     4  10  21  36  59  91 129 169 205 246 310 377
#     4  11  24  39  67  92 124 162 215 254 307 369
#     4  11  24  39  67  92 124 162 215 254 307 369
#
# _framework density 20.513490999999998
#
# number of rings (size 3 to 8) (size 9 to 14) (size 15 to 20)
#    0.000    1.000    2.500    5.250    3.500    1.000 
#    0.000    1.875    0.000    0.000    0.000    0.000 
#    0.000    0.000    0.000    0.000    0.000    0.000 
#
# Total GULP energy -178399.901523 kJ/mol
# GULP energy per Si atom -5574.996923 kJ/mol
# Density = 2.046680 g / cm^3
# Si number density = 20.513491 Si / 1000 Ang^3
#
#
#
# Elastic Constant Matrix: (Units=GPa)
#
#
# Indices 1 2 3 4 5 6 
#
# 1 72.2227 13.6594 31.9054 0.0000 0.0000 0.0000
# 2 13.6594 41.8749 10.2301 0.0000 0.0000 0.0000
# 3 31.9054 10.2301 118.2817 0.0000 0.0000 0.0000
# 4 0.0000 0.0000 0.0000 25.0832 0.0000 0.0000
# 5 0.0000 0.0000 0.0000 0.0000 12.0404 0.0000
# 6 0.0000 0.0000 0.0000 0.0000 0.0000 76.2673
#
#
#
# Elastic Compliance Matrix: (Units=1/GPa)
#
#
# Indices 1 2 3 4 5 6 
#
# 1 0.016470 -0.004380 -0.004064 0.000000 0.000000 0.000000
# 2 -0.004380 0.025561 -0.001029 0.000000 0.000000 0.000000
# 3 -0.004064 -0.001029 0.009640 0.000000 0.000000 0.000000
# 4 0.000000 0.000000 0.000000 0.039867 0.000000 0.000000
# 5 0.000000 0.000000 0.000000 0.000000 0.083054 0.000000
# 6 0.000000 0.000000 0.000000 0.000000 0.000000 0.013112
#
#
# Mechanical properties :
#
#
# Convention : Reuss Voigt Hill
#
# Bulk Modulus (GPa) = 30.55808 38.21878 34.38843
# Shear Modulus (GPa) = 22.98255 34.45046 28.71651
#
# Velocity S-wave (km/s) = 3.35081 4.10250 3.74556
# Velocity P-wave (km/s) = 5.46805 6.41188 5.95868
#
# Compressibility (1/GPa) = 0.03272456
#
# Stress axis : x y z
#
# Youngs Moduli (GPa) = 60.71805 39.12255 103.73900
#
# Poissons Ratio (x) = 0.17134 0.42157
# Poissons Ratio (y) = 0.26592 0.10679
# Poissons Ratio (z) = 0.24674 0.04027
#
# Static dielectric constant tensor:
#      x y z
#    x 1.757620 0.000000 0.000000 
#    y 0.000000 1.698960 0.000000 
#    z 0.000000 0.000000 1.782110 
# 
# From -- ./inp_files/2566.got.cif
#   From: 2010.05.17/outbox.cif.g08.bks.cpg/sg31_2_cif.got.tgz:2566.got - 2010.06.03 17:08:30.
