data_PCOD9343726
_publ_section_title
;
Structure prediction by ZEFSAII (Michael W. Deem and Ramdas Pophale) SiO2 
 PCOD9343726
Probable space group: P B A 2
;
_chemical_formula_sum "Si O2"
_cell_formula_units_Z 20
_cell_length_a 15.986626
_cell_length_b 5.422280
_cell_length_c 8.893250
_cell_angle_alpha 90.000000
_cell_angle_beta 90.000000
_cell_angle_gamma 90.000000
_cell_volume 770.902149
_symmetry_space_group_name_H-M "P B A 2"
_symmetry_group_IT_number 32
_symmetry_cell_setting 'orthorhombic'
loop_
_space_group_symop_operation_xyz
x,y,z
-x,-y,z
1/2-x,1/2+y,z
1/2+x,1/2-y,z
loop_
_atom_site_type_symbol
_atom_site_label
_atom_site_fract_x
_atom_site_fract_y
_atom_site_fract_z
Si Si1 0.203016 0.735842 0.833990
Si Si2 0.098003 0.557713 0.084548
Si Si3 0.590868 0.440917 0.197912
Si Si4 0.733892 0.241302 0.514176
Si Si5 0.048412 0.239419 0.536452
O O1 0.263870 0.506744 0.875760
O O2 0.201363 0.747306 0.653001
O O3 0.119287 0.660367 0.919814
O O4 0.136267 0.288045 0.118829
O O5 0.000000 0.500000 0.105510
O O6 0.127108 0.782371 0.192418
O O7 0.500000 0.500000 0.122805
O O8 0.568326 0.334287 0.362393
O O9 0.748021 0.492681 0.427237
O O10 0.643121 0.236017 0.592682
O O11 0.000000 0.500000 0.544713
O O12 0.000000 0.000000 0.599618
#
# Coordination Sequence:
#
# PCOD9343726 Si02
#       5
#     4   4   4   4   4
#     4  10  21  39  57  79 118 160 195 246 298 344
#     4  10  19  35  59  85 113 152 196 238 290 354
#     4   9  18  33  57  88 118 145 189 247 294 345
#     4  10  22  41  60  84 124 163 199 256 308 350
#     4  11  21  38  64  92 120 160 205 249 301 365
#
# _framework density 25.943629000000001
#
# number of rings (size 3 to 8) (size 9 to 14) (size 15 to 20)
#    0.000    2.000    0.000    5.400    0.000    0.000 
#    0.000   18.000    0.000    0.000    0.000    0.000 
#    0.000    0.000    0.000    0.000    0.000    0.000 
#
# Total GULP energy -111594.974502 kJ/mol
# GULP energy per Si atom -5579.748725 kJ/mol
# Density = 2.588458 g / cm^3
# Si number density = 25.943629 Si / 1000 Ang^3
#
#
#
# Elastic Constant Matrix: (Units=GPa)
#
#
# Indices 1 2 3 4 5 6 
#
# 1 54.1335 57.2722 7.7909 0.0000 0.0000 0.0000
# 2 57.2722 313.1819 27.3675 0.0000 0.0000 0.0000
# 3 7.7909 27.3675 51.3473 0.0000 0.0000 0.0000
# 4 0.0000 0.0000 0.0000 33.3821 0.0000 0.0000
# 5 0.0000 0.0000 0.0000 0.0000 36.0020 0.0000
# 6 0.0000 0.0000 0.0000 0.0000 0.0000 44.8171
#
#
#
# Elastic Compliance Matrix: (Units=1/GPa)
#
#
# Indices 1 2 3 4 5 6 
#
# 1 0.022988 -0.004089 -0.001308 0.000000 0.000000 0.000000
# 2 -0.004089 0.004077 -0.001552 0.000000 0.000000 0.000000
# 3 -0.001308 -0.001552 0.020501 0.000000 0.000000 0.000000
# 4 0.000000 0.000000 0.000000 0.029956 0.000000 0.000000
# 5 0.000000 0.000000 0.000000 0.000000 0.027776 0.000000
# 6 0.000000 0.000000 0.000000 0.000000 0.000000 0.022313
#
#
# Mechanical properties :
#
#
# Convention : Reuss Voigt Hill
#
# Bulk Modulus (GPa) = 29.70415 67.05820 48.38118
# Shear Modulus (GPa) = 32.73698 44.58905 38.66302
#
# Velocity S-wave (km/s) = 3.55611 4.15021 3.86459
# Velocity P-wave (km/s) = 5.32311 6.99066 6.21309
#
# Compressibility (1/GPa) = 0.03366533
#
# Stress axis : x y z
#
# Youngs Moduli (GPa) = 43.50141 245.30675 48.77794
#
# Poissons Ratio (x) = 1.00318 0.06382
# Poissons Ratio (y) = 0.17790 0.07572
# Poissons Ratio (z) = 0.05691 0.38078
#
# Static dielectric constant tensor:
#      x y z
#    x 2.103600 0.000000 0.000000 
#    y 0.000000 2.181350 0.000000 
#    z 0.000000 0.000000 2.029000 
# 
# From -- ./inp_files/3154.got.cif
#   From: 2010.05.17/outbox.cif.g08.bks.cpg/sg32_2_cif.got.tgz:3154.got - 2010.06.03 17:12:27.
