data_PCOD9343844
_publ_section_title
;
Structure prediction by ZEFSAII (Michael W. Deem and Ramdas Pophale) SiO2 
 PCOD9343844
Probable space group: P B A 2
;
_chemical_formula_sum "Si O2"
_cell_formula_units_Z 32
_cell_length_a 15.515567
_cell_length_b 8.632843
_cell_length_c 12.002525
_cell_angle_alpha 90.000000
_cell_angle_beta 90.000000
_cell_angle_gamma 90.000000
_cell_volume 1607.659655
_symmetry_space_group_name_H-M "P B A 2"
_symmetry_group_IT_number 32
_symmetry_cell_setting 'orthorhombic'
loop_
_space_group_symop_operation_xyz
x,y,z
-x,-y,z
1/2-x,1/2+y,z
1/2+x,1/2-y,z
loop_
_atom_site_type_symbol
_atom_site_label
_atom_site_fract_x
_atom_site_fract_y
_atom_site_fract_z
Si Si1 0.592837 0.192733 0.612520
Si Si2 0.164056 0.683294 0.857315
Si Si3 0.490738 0.315969 0.003517
Si Si4 0.613830 0.830223 0.605163
Si Si5 0.018490 0.681819 0.250984
Si Si6 0.350630 0.812795 0.863834
Si Si7 0.321511 0.311816 0.378556
Si Si8 0.859641 0.829040 0.384288
O O1 0.488998 0.198140 0.607550
O O2 0.623993 0.230003 0.736671
O O3 0.627736 0.302538 0.516275
O O4 0.622559 0.015804 0.587817
O O5 0.150499 0.714448 0.725714
O O6 0.258473 0.739753 0.890757
O O7 0.153840 0.498779 0.871283
O O8 0.091055 0.768651 0.928466
O O9 0.500000 0.500000 0.011753
O O10 0.575080 0.248193 0.943772
O O11 0.482493 0.242812 0.125386
O O12 0.659075 0.738776 0.505860
O O13 0.110588 0.716607 0.305404
O O14 0.000000 0.500000 0.255576
O O15 0.944939 0.769927 0.322070
O O16 0.223737 0.269824 0.349658
O O17 0.341191 0.491927 0.362428
#
# Coordination Sequence:
#
# PCOD9343844 Si02
#       8
#     4   4   4   4   4   4   4   4
#     4  10  20  38  65  96 133 172 211 259 318 380
#     4  11  23  42  66  97 132 171 214 263 318 379
#     4  12  26  45  68  95 126 167 217 267 319 380
#     4  10  20  38  65  96 133 172 211 259 318 380
#     4  12  26  47  70  93 126 167 213 269 323 378
#     4  11  23  42  66  97 132 171 214 263 318 379
#     4  12  25  42  66  98 132 170 214 262 318 382
#     4  12  25  42  66  98 132 170 214 262 318 382
#
# _framework density 19.904712
#
# number of rings (size 3 to 8) (size 9 to 14) (size 15 to 20)
#    0.000    0.750    2.500    6.000    0.000    5.000 
#    0.000    5.000    0.000    0.000    0.000    0.000 
#    0.000    0.000    0.000    0.000    0.000    0.000 
#
# Total GULP energy -179178.461228 kJ/mol
# GULP energy per Si atom -5599.326913 kJ/mol
# Density = 1.985941 g / cm^3
# Si number density = 19.904712 Si / 1000 Ang^3
#
#
#
# Elastic Constant Matrix: (Units=GPa)
#
#
# Indices 1 2 3 4 5 6 
#
# 1 69.9379 -25.1555 5.4016 0.0000 0.0000 0.0000
# 2 -25.1555 44.0704 12.5966 0.0000 0.0000 0.0000
# 3 5.4016 12.5966 79.2259 0.0000 0.0000 0.0000
# 4 0.0000 0.0000 0.0000 46.4349 0.0000 0.0000
# 5 0.0000 0.0000 0.0000 0.0000 -2.8300 0.0000
# 6 0.0000 0.0000 0.0000 0.0000 0.0000 34.5688
#
#
#
# Elastic Compliance Matrix: (Units=1/GPa)
#
#
# Indices 1 2 3 4 5 6 
#
# 1 0.018698 0.011563 -0.003113 0.000000 0.000000 0.000000
# 2 0.011563 0.030921 -0.005705 0.000000 0.000000 0.000000
# 3 -0.003113 -0.005705 0.013741 0.000000 0.000000 0.000000
# 4 0.000000 0.000000 0.000000 0.021536 0.000000 0.000000
# 5 0.000000 0.000000 0.000000 0.000000 -0.353362 0.000000
# 6 0.000000 0.000000 0.000000 0.000000 0.000000 0.028928
#
#
# Mechanical properties :
#
#
# Convention : Reuss Voigt Hill
#
# Bulk Modulus (GPa) = 14.52436 19.87996 17.20216
# Shear Modulus (GPa) = -22.51466 28.99418 3.23976
#
# Velocity S-wave (km/s) = -3.36686 3.82075 1.27717
# Velocity P-wave (km/s) = 2.79313 5.42894 3.29179
#
# Compressibility (1/GPa) = 0.06884986
#
# Stress axis : x y z
#
# Youngs Moduli (GPa) = 53.48246 32.33998 72.77267
#
# Poissons Ratio (x) = -0.37393 0.22656
# Poissons Ratio (y) = -0.61839 0.41515
# Poissons Ratio (z) = 0.16650 0.18449
#
# Static dielectric constant tensor:
#      x y z
#    x 1.677560 0.000000 0.000000 
#    y 0.000000 1.674110 0.000000 
#    z 0.000000 0.000000 1.673830 
# 
# From -- ./inp_files/3959.got.cif
#   From: 2010.05.17/outbox.cif.g08.bks.cpg/sg32_2_cif.got.tgz:3959.got - 2010.06.03 17:12:27.
