data_PCOD9343800
_publ_section_title
;
Structure prediction by ZEFSAII (Michael W. Deem and Ramdas Pophale) SiO2 
 PCOD9343800
Probable space group: P B A 2
;
_chemical_formula_sum "Si O2"
_cell_formula_units_Z 28
_cell_length_a 5.824928
_cell_length_b 22.093196
_cell_length_c 10.180346
_cell_angle_alpha 90.000000
_cell_angle_beta 90.000000
_cell_angle_gamma 90.000000
_cell_volume 1310.121717
_symmetry_space_group_name_H-M "P B A 2"
_symmetry_group_IT_number 32
_symmetry_cell_setting 'orthorhombic'
loop_
_space_group_symop_operation_xyz
x,y,z
-x,-y,z
1/2-x,1/2+y,z
1/2+x,1/2-y,z
loop_
_atom_site_type_symbol
_atom_site_label
_atom_site_fract_x
_atom_site_fract_y
_atom_site_fract_z
Si Si1 0.717560 0.234233 0.100490
Si Si2 0.500000 0.000000 0.437681
Si Si3 0.119744 0.065387 0.826687
Si Si4 0.220739 0.724168 0.405162
Si Si5 0.617478 0.564860 0.330909
Si Si6 0.500000 0.000000 0.982660
Si Si7 0.192542 0.102403 0.544860
Si Si8 0.819515 0.103029 0.068194
O O1 0.479899 0.261633 0.043553
O O2 0.758663 0.262405 0.247255
O O3 0.669328 0.162486 0.087861
O O4 0.382575 0.950058 0.346191
O O5 0.673605 0.961156 0.524769
O O6 0.152305 0.106375 0.699113
O O7 0.359474 0.046452 0.892257
O O8 0.000000 0.000000 0.794161
O O9 0.969973 0.098514 0.937889
O O10 0.480615 0.743779 0.448730
O O11 0.191504 0.657224 0.466193
O O12 0.500000 0.500000 0.319573
O O13 0.544126 0.594666 0.466358
O O14 0.540568 0.601686 0.204532
O O15 0.323178 0.959519 0.063965
#
# Coordination Sequence:
#
# PCOD9343800 Si02
#       8
#     4   2   4   4   4   2   4   4
#     4  10  23  41  68  96 133 182 233 283 346 408
#     4  10  22  32  62 102 128 168 218 290 354 414
#     4  10  22  42  63  99 134 182 222 282 363 425
#     4  10  23  44  66  98 131 184 231 286 343 413
#     4  10  20  35  56  96 128 165 215 283 350 414
#     4  10  22  40  68  98 136 180 224 286 360 422
#     4  11  23  40  68  93 137 173 231 285 351 420
#     4  11  23  40  66  94 137 174 231 285 350 422
#
# _framework density 21.372059
#
# number of rings (size 3 to 8) (size 9 to 14) (size 15 to 20)
#    0.000    1.714    0.000    5.143    8.000    2.286 
#    0.000    1.429    0.000    0.000    0.000    0.000 
#    0.000    0.000    0.000    0.000    0.000    0.000 
#
# Total GULP energy -155869.622280 kJ/mol
# GULP energy per Si atom -5566.772224 kJ/mol
# Density = 2.132342 g / cm^3
# Si number density = 21.372059 Si / 1000 Ang^3
#
#
#
# Elastic Constant Matrix: (Units=GPa)
#
#
# Indices 1 2 3 4 5 6 
#
# 1 88.9541 15.1184 27.1818 0.0000 0.0000 0.0000
# 2 15.1184 75.9524 21.1809 0.0000 0.0000 0.0000
# 3 27.1818 21.1809 109.9908 0.0000 0.0000 0.0000
# 4 0.0000 0.0000 0.0000 -1.5138 0.0000 0.0000
# 5 0.0000 0.0000 0.0000 0.0000 11.6049 0.0000
# 6 0.0000 0.0000 0.0000 0.0000 0.0000 26.5474
#
#
#
# Elastic Compliance Matrix: (Units=1/GPa)
#
#
# Indices 1 2 3 4 5 6 
#
# 1 0.012364 -0.001700 -0.002728 0.000000 0.000000 0.000000
# 2 -0.001700 0.014147 -0.002304 0.000000 0.000000 0.000000
# 3 -0.002728 -0.002304 0.010210 0.000000 0.000000 0.000000
# 4 0.000000 0.000000 0.000000 -0.660574 0.000000 0.000000
# 5 0.000000 0.000000 0.000000 0.000000 0.086171 0.000000
# 6 0.000000 0.000000 0.000000 0.000000 0.000000 0.037668
#
#
# Mechanical properties :
#
#
# Convention : Reuss Voigt Hill
#
# Bulk Modulus (GPa) = 42.99985 44.65106 43.82545
# Shear Modulus (GPa) = -10.44284 21.42210 5.48963
#
# Velocity S-wave (km/s) = -2.21288 3.16941 1.60442
# Velocity P-wave (km/s) = 3.69246 5.85928 4.89721
#
# Compressibility (1/GPa) = 0.02325590
#
# Stress axis : x y z
#
# Youngs Moduli (GPa) = 80.87747 70.68563 97.94727
#
# Poissons Ratio (x) = 0.12019 0.26722
# Poissons Ratio (y) = 0.13752 0.22568
# Poissons Ratio (z) = 0.22065 0.16287
#
# Static dielectric constant tensor:
#      x y z
#    x 1.815980 0.000000 0.000000 
#    y 0.000000 1.857430 0.000000 
#    z 0.000000 0.000000 1.774560 
# 
# From -- ./inp_files/3578.got.cif
#   From: 2010.05.17/outbox.cif.g08.bks.cpg/sg32_2_cif.got.tgz:3578.got - 2010.06.03 17:12:27.
