data_PCOD9343524
_publ_section_title
;
Structure prediction by ZEFSAII (Michael W. Deem and Ramdas Pophale) SiO2 
 PCOD9343524
Probable space group: P M N 21
;
_chemical_formula_sum "Si O2"
_cell_formula_units_Z 32
_cell_length_a 18.500913
_cell_length_b 12.863701
_cell_length_c 5.465923
_cell_angle_alpha 90.000000
_cell_angle_beta 90.000000
_cell_angle_gamma 90.000000
_cell_volume 1300.836179
_symmetry_space_group_name_H-M "P M N 21"
_symmetry_group_IT_number 31
_symmetry_cell_setting 'orthorhombic'
loop_
_space_group_symop_operation_xyz
x,y,z
1/2-x,-y,1/2+z
-x,y,z
1/2+x,-y,1/2+z
loop_
_atom_site_type_symbol
_atom_site_label
_atom_site_fract_x
_atom_site_fract_y
_atom_site_fract_z
Si Si1 0.865719 0.356974 0.712280
Si Si2 0.197428 0.622755 0.295822
Si Si3 0.166776 0.055508 0.413453
Si Si4 0.079960 0.696290 0.639226
Si Si5 0.087188 0.239171 0.207237
Si Si6 0.917753 0.929572 0.785531
Si Si7 0.198667 0.859895 0.149917
Si Si8 0.923008 0.531985 0.008720
O O1 0.782142 0.393406 0.746981
O O2 0.885120 0.303276 0.451635
O O3 0.913986 0.457382 0.775687
O O4 0.883199 0.284783 0.950231
O O5 0.153192 0.640988 0.547136
O O6 0.188510 0.740817 0.202603
O O7 0.148883 0.533496 0.170176
O O8 0.118053 0.122154 0.229862
O O9 0.231379 0.131769 0.482430
O O10 0.114969 0.023710 0.634378
O O11 0.208163 0.946554 0.358547
O O12 0.087379 0.820535 0.634444
O O13 0.073044 0.649685 0.910409
O O14 0.000000 0.673093 0.523232
O O15 0.000000 0.240885 0.207163
O O16 0.000000 0.948223 0.846147
O O17 0.871205 0.905469 0.020488
O O18 0.000000 0.503731 0.127136
#
# Coordination Sequence:
#
# PCOD9343524 Si02
#       8
#     4   4   4   4   4   4   4   4
#     4  12  31  50  82 113 151 201 260 319 374 449
#     4  12  26  44  74 109 151 189 249 315 377 452
#     4  12  26  44  72 101 141 202 247 305 374 447
#     4  10  23  42  69 103 146 188 237 302 377 452
#     4  12  29  54  77 109 154 205 263 316 371 445
#     4  11  24  42  67 104 144 184 243 304 372 451
#     4  12  25  43  70 101 145 190 243 307 378 447
#     4  11  26  49  75 106 148 199 246 306 385 455
#
# _framework density 24.599561999999999
#
# number of rings (size 3 to 8) (size 9 to 14) (size 15 to 20)
#    0.000    0.500    5.000    1.875   10.500    1.500 
#    0.000    0.000    0.000    0.000    0.000    0.000 
#    0.000    0.000    0.000    0.000    0.000    0.000 
#
# Total GULP energy -178646.167899 kJ/mol
# GULP energy per Si atom -5582.692747 kJ/mol
# Density = 2.454357 g / cm^3
# Si number density = 24.599562 Si / 1000 Ang^3
#
#
#
# Elastic Constant Matrix: (Units=GPa)
#
#
# Indices 1 2 3 4 5 6 
#
# 1 151.6729 1.6577 1.8792 0.0000 0.0000 0.0000
# 2 1.6577 93.1336 7.6795 0.0000 0.0000 0.0000
# 3 1.8792 7.6795 41.5722 0.0000 0.0000 0.0000
# 4 0.0000 0.0000 0.0000 48.5745 0.0000 0.0000
# 5 0.0000 0.0000 0.0000 0.0000 29.4937 0.0000
# 6 0.0000 0.0000 0.0000 0.0000 0.0000 17.6097
#
#
#
# Elastic Compliance Matrix: (Units=1/GPa)
#
#
# Indices 1 2 3 4 5 6 
#
# 1 0.006598 -0.000094 -0.000281 0.000000 0.000000 0.000000
# 2 -0.000094 0.010905 -0.002010 0.000000 0.000000 0.000000
# 3 -0.000281 -0.002010 0.024439 0.000000 0.000000 0.000000
# 4 0.000000 0.000000 0.000000 0.020587 0.000000 0.000000
# 5 0.000000 0.000000 0.000000 0.000000 0.033906 0.000000
# 6 0.000000 0.000000 0.000000 0.000000 0.000000 0.056787
#
#
# Mechanical properties :
#
#
# Convention : Reuss Voigt Hill
#
# Bulk Modulus (GPa) = 26.90309 34.31239 30.60774
# Shear Modulus (GPa) = 29.34601 37.47972 33.41287
#
# Velocity S-wave (km/s) = 3.45766 3.90756 3.68947
# Velocity P-wave (km/s) = 5.18658 5.85981 5.53344
#
# Compressibility (1/GPa) = 0.03717046
#
# Stress axis : x y z
#
# Youngs Moduli (GPa) = 151.56921 91.70365 40.91890
#
# Poissons Ratio (x) = 0.00865 0.01149
# Poissons Ratio (y) = 0.01429 0.08225
# Poissons Ratio (z) = 0.04256 0.18434
#
# Static dielectric constant tensor:
#      x y z
#    x 1.989410 0.000000 0.000000 
#    y 0.000000 1.997970 0.000000 
#    z 0.000000 0.000000 2.040390 
# 
# From -- ./inp_files/877.got.cif
#   From: 2010.05.17/outbox.cif.g08.bks.cpg/sg31_1_cif.got.tgz:877.got - 2010.06.03 17:08:30.
