data_PCOD9343775
_publ_section_title
;
Structure prediction by ZEFSAII (Michael W. Deem and Ramdas Pophale) SiO2 
 PCOD9343775
Probable space group: P B A 2
;
_chemical_formula_sum "Si O2"
_cell_formula_units_Z 32
_cell_length_a 8.514793
_cell_length_b 13.945995
_cell_length_c 10.225124
_cell_angle_alpha 90.000000
_cell_angle_beta 90.000000
_cell_angle_gamma 90.000000
_cell_volume 1214.205464
_symmetry_space_group_name_H-M "P B A 2"
_symmetry_group_IT_number 32
_symmetry_cell_setting 'orthorhombic'
loop_
_space_group_symop_operation_xyz
x,y,z
-x,-y,z
1/2-x,1/2+y,z
1/2+x,1/2-y,z
loop_
_atom_site_type_symbol
_atom_site_label
_atom_site_fract_x
_atom_site_fract_y
_atom_site_fract_z
Si Si1 0.327690 0.722268 0.897440
Si Si2 0.046404 0.844606 0.295350
Si Si3 0.329518 0.041205 0.015317
Si Si4 0.216390 0.855238 0.659419
Si Si5 0.840884 0.457047 0.605960
Si Si6 0.873656 0.143002 0.008895
Si Si7 0.981983 0.277507 0.531577
Si Si8 0.255237 0.028083 0.314053
O O1 0.288113 0.796821 0.781416
O O2 0.283472 0.793549 0.016207
O O3 0.502242 0.679963 0.901020
O O4 0.212712 0.632580 0.926244
O O5 0.056888 0.749194 0.382039
O O6 0.892144 0.901948 0.338603
O O7 0.190089 0.919398 0.306457
O O8 0.032738 0.835667 0.140737
O O9 0.328146 0.056656 0.173771
O O10 0.500000 0.000000 0.980963
O O11 0.187788 0.964686 0.995520
O O12 0.048236 0.822294 0.605673
O O13 0.349855 0.826029 0.550658
O O14 0.215362 0.970749 0.665962
O O15 0.856567 0.343414 0.611254
O O16 0.847236 0.466650 0.448597
O O17 0.000000 0.500000 0.665071
#
# Coordination Sequence:
#
# PCOD9343775 Si02
#       8
#     4   4   4   4   4   4   4   4
#     4  12  25  46  72  99 151 208 262 318 376 478
#     4  10  21  38  70 103 150 187 244 311 382 472
#     4  11  24  44  73 111 151 199 252 319 408 466
#     4  11  25  45  65 101 137 195 256 309 376 457
#     4  10  22  40  65  98 141 184 235 305 378 443
#     4  11  25  45  69 109 151 201 257 315 393 464
#     4  11  23  42  69 101 141 191 249 311 380 453
#     4  10  19  40  66 104 153 186 234 305 385 466
#
# _framework density 26.354686000000001
#
# number of rings (size 3 to 8) (size 9 to 14) (size 15 to 20)
#    0.000    1.250    2.500    3.000    1.750    2.000 
#    2.250    3.750    0.000    0.000    0.000    0.000 
#    0.000    0.000    0.000    0.000    0.000    0.000 
#
# Total GULP energy -178771.621753 kJ/mol
# GULP energy per Si atom -5586.613180 kJ/mol
# Density = 2.629470 g / cm^3
# Si number density = 26.354686 Si / 1000 Ang^3
#
#
#
# Elastic Constant Matrix: (Units=GPa)
#
#
# Indices 1 2 3 4 5 6 
#
# 1 52.8309 1.9958 20.6044 0.0000 0.0000 0.0000
# 2 1.9958 118.2579 37.0839 0.0000 0.0000 0.0000
# 3 20.6044 37.0839 108.8804 0.0000 0.0000 0.0000
# 4 0.0000 0.0000 0.0000 44.5591 0.0000 0.0000
# 5 0.0000 0.0000 0.0000 0.0000 24.5766 0.0000
# 6 0.0000 0.0000 0.0000 0.0000 0.0000 43.5294
#
#
#
# Elastic Compliance Matrix: (Units=1/GPa)
#
#
# Indices 1 2 3 4 5 6 
#
# 1 0.020537 0.000976 -0.004219 0.000000 0.000000 0.000000
# 2 0.000976 0.009514 -0.003425 0.000000 0.000000 0.000000
# 3 -0.004219 -0.003425 0.011149 0.000000 0.000000 0.000000
# 4 0.000000 0.000000 0.000000 0.022442 0.000000 0.000000
# 5 0.000000 0.000000 0.000000 0.000000 0.040689 0.000000
# 6 0.000000 0.000000 0.000000 0.000000 0.000000 0.022973
#
#
# Mechanical properties :
#
#
# Convention : Reuss Voigt Hill
#
# Bulk Modulus (GPa) = 35.88774 44.37083 40.12929
# Shear Modulus (GPa) = 33.34944 37.21867 35.28405
#
# Velocity S-wave (km/s) = 3.56112 3.76203 3.66295
# Velocity P-wave (km/s) = 5.52770 5.97855 5.75754
#
# Compressibility (1/GPa) = 0.02786467
#
# Stress axis : x y z
#
# Youngs Moduli (GPa) = 48.69292 105.11195 89.69147
#
# Poissons Ratio (x) = -0.10263 0.37840
# Poissons Ratio (y) = -0.04754 0.30720
# Poissons Ratio (z) = 0.20543 0.36002
#
# Static dielectric constant tensor:
#      x y z
#    x 2.051800 0.000000 0.000000 
#    y 0.000000 2.129590 0.000000 
#    z 0.000000 0.000000 2.209310 
# 
# From -- ./inp_files/3755.got.cif
#   From: 2010.05.17/outbox.cif.g08.bks.cpg/sg32_2_cif.got.tgz:3755.got - 2010.06.03 17:12:27.
