data_PCOD9343324
_publ_section_title
;
Structure prediction by ZEFSAII (Michael W. Deem and Ramdas Pophale) SiO2 
 PCOD9343324
Probable space group: P M N 21
;
_chemical_formula_sum "Si O2"
_cell_formula_units_Z 24
_cell_length_a 9.109515
_cell_length_b 14.429206
_cell_length_c 8.216831
_cell_angle_alpha 90.000000
_cell_angle_beta 90.000000
_cell_angle_gamma 90.000000
_cell_volume 1080.045480
_symmetry_space_group_name_H-M "P M N 21"
_symmetry_group_IT_number 31
_symmetry_cell_setting 'orthorhombic'
loop_
_space_group_symop_operation_xyz
x,y,z
1/2-x,-y,1/2+z
-x,y,z
1/2+x,-y,1/2+z
loop_
_atom_site_type_symbol
_atom_site_label
_atom_site_fract_x
_atom_site_fract_y
_atom_site_fract_z
Si Si1 0.169402 0.965041 0.478500
Si Si2 0.326360 0.794252 0.627052
Si Si3 0.327621 0.297339 0.822842
Si Si4 0.672882 0.476625 0.623176
Si Si5 0.674000 0.363354 0.297033
Si Si6 0.668150 0.124598 0.619158
O O1 0.261561 0.895718 0.592770
O O2 0.181501 0.926684 0.295136
O O3 0.000000 0.960068 0.526278
O O4 0.227584 0.068857 0.499518
O O5 0.500000 0.798159 0.644502
O O6 0.277326 0.737845 0.464521
O O7 0.253519 0.734350 0.770347
O O8 0.500000 0.282348 0.870161
O O9 0.308399 0.402364 0.768470
O O10 0.302655 0.230793 0.666430
O O11 0.500000 0.503124 0.615360
O O12 0.709145 0.418259 0.462266
O O13 0.771538 0.565332 0.658080
O O14 0.500000 0.349180 0.289110
O O15 0.500000 0.116706 0.562919
#
# Coordination Sequence:
#
# PCOD9343324 Si02
#       6
#     4   4   4   4   4   4
#     4  10  21  37  57  82 113 149 187 228 277 329
#     4  11  22  37  58  83 111 145 187 231 277 330
#     4   9  19  38  60  82 113 148 183 227 276 326
#     4  10  22  39  59  84 112 146 186 226 273 329
#     4  11  23  38  57  83 114 147 184 227 277 330
#     4   9  19  35  55  82 113 147 187 229 274 324
#
# _framework density 22.221285000000002
#
# number of rings (size 3 to 8) (size 9 to 14) (size 15 to 20)
#    0.000    2.000    0.000    4.500    0.000    9.333 
#    0.000    1.667    0.000    0.000    0.000    0.000 
#    0.000    0.000    0.000    0.000    0.000    0.000 
#
# Total GULP energy -134250.274595 kJ/mol
# GULP energy per Si atom -5593.761441 kJ/mol
# Density = 2.217071 g / cm^3
# Si number density = 22.221285 Si / 1000 Ang^3
#
#
#
# Elastic Constant Matrix: (Units=GPa)
#
#
# Indices 1 2 3 4 5 6 
#
# 1 70.6956 26.0505 12.8276 0.0000 0.0000 0.0000
# 2 26.0505 85.8476 -1.5666 0.0000 0.0000 0.0000
# 3 12.8276 -1.5666 49.9020 0.0000 0.0000 0.0000
# 4 0.0000 0.0000 0.0000 34.8193 0.0000 0.0000
# 5 0.0000 0.0000 0.0000 0.0000 24.8424 0.0000
# 6 0.0000 0.0000 0.0000 0.0000 0.0000 28.0145
#
#
#
# Elastic Compliance Matrix: (Units=1/GPa)
#
#
# Indices 1 2 3 4 5 6 
#
# 1 0.016880 -0.005204 -0.004502 0.000000 0.000000 0.000000
# 2 -0.005204 0.013260 0.001754 0.000000 0.000000 0.000000
# 3 -0.004502 0.001754 0.021252 0.000000 0.000000 0.000000
# 4 0.000000 0.000000 0.000000 0.028720 0.000000 0.000000
# 5 0.000000 0.000000 0.000000 0.000000 0.040254 0.000000
# 6 0.000000 0.000000 0.000000 0.000000 0.000000 0.035696
#
#
# Mechanical properties :
#
#
# Convention : Reuss Voigt Hill
#
# Bulk Modulus (GPa) = 28.18017 31.22980 29.70499
# Shear Modulus (GPa) = 27.20426 28.81083 28.00754
#
# Velocity S-wave (km/s) = 3.50271 3.60466 3.55405
# Velocity P-wave (km/s) = 5.39146 5.60440 5.49896
#
# Compressibility (1/GPa) = 0.03548594
#
# Stress axis : x y z
#
# Youngs Moduli (GPa) = 59.24220 75.41576 47.05502
#
# Poissons Ratio (x) = 0.39249 0.21186
# Poissons Ratio (y) = 0.30832 -0.08254
# Poissons Ratio (z) = 0.26674 -0.13229
#
# Static dielectric constant tensor:
#      x y z
#    x 1.742310 0.000000 0.000000 
#    y 0.000000 1.802370 0.000000 
#    z 0.000000 0.000000 1.879710 
# 
# From -- ./inp_files/1681.got.cif
#   From: 2010.05.17/outbox.cif.g08.bks.cpg/sg31_1_cif.got.tgz:1681.got - 2010.06.03 17:08:30.
