data_PCOD9343676
_publ_section_title
;
Structure prediction by ZEFSAII (Michael W. Deem and Ramdas Pophale) SiO2 
 PCOD9343676
Probable space group: P B A 2
;
_chemical_formula_sum "Si O2"
_cell_formula_units_Z 30
_cell_length_a 10.770892
_cell_length_b 15.673976
_cell_length_c 8.810082
_cell_angle_alpha 90.000000
_cell_angle_beta 90.000000
_cell_angle_gamma 90.000000
_cell_volume 1487.341854
_symmetry_space_group_name_H-M "P B A 2"
_symmetry_group_IT_number 32
_symmetry_cell_setting 'orthorhombic'
loop_
_space_group_symop_operation_xyz
x,y,z
-x,-y,z
1/2-x,1/2+y,z
1/2+x,1/2-y,z
loop_
_atom_site_type_symbol
_atom_site_label
_atom_site_fract_x
_atom_site_fract_y
_atom_site_fract_z
Si Si1 0.243217 0.149679 0.037190
Si Si2 0.351129 0.003315 0.817703
Si Si3 0.255971 0.061737 0.493357
Si Si4 0.476558 0.358131 0.185199
Si Si5 0.591371 0.816366 0.327830
Si Si6 0.253735 0.844400 0.986145
Si Si7 0.105958 0.439057 0.258541
Si Si8 0.500000 0.500000 0.408247
O O1 0.349100 0.161367 0.163999
O O2 0.222781 0.243601 0.962120
O O3 0.116451 0.130128 0.127436
O O4 0.286879 0.073666 0.928139
O O5 0.316948 0.031880 0.648686
O O6 0.500000 0.000000 0.835132
O O7 0.293984 0.910250 0.856641
O O8 0.302735 0.156598 0.447273
O O9 0.309720 0.000742 0.359439
O O10 0.108143 0.048163 0.498601
O O11 0.457032 0.277609 0.295730
O O12 0.388931 0.352005 0.038473
O O13 0.437260 0.434768 0.292218
O O14 0.473284 0.875321 0.363368
O O15 0.327999 0.880766 0.133578
O O16 0.000000 0.500000 0.186352
#
# Coordination Sequence:
#
# PCOD9343676 Si02
#       8
#     4   4   4   4   4   4   4   2
#     4  11  23  41  67 102 128 172 227 276 342 389
#     4  12  26  46  65  92 140 182 224 273 334 419
#     4  11  24  42  65  96 131 179 219 265 341 401
#     4  11  22  38  68  99 133 161 220 284 330 389
#     4  10  20  39  65  95 127 164 222 277 319 385
#     4  11  22  39  67  98 129 168 215 280 330 389
#     4  10  18  36  64  91 119 166 220 267 317 384
#     4  12  22  42  64  98 132 168 218 278 332 394
#
# _framework density 20.170210999999998
#
# number of rings (size 3 to 8) (size 9 to 14) (size 15 to 20)
#    0.000    1.067    4.000    4.800    1.867    1.067 
#    2.400    1.333    0.000    0.000    0.000    0.000 
#    0.000    0.000    0.000    0.000    0.000    0.000 
#
# Total GULP energy -167364.335100 kJ/mol
# GULP energy per Si atom -5578.811170 kJ/mol
# Density = 2.012430 g / cm^3
# Si number density = 20.170211 Si / 1000 Ang^3
#
#
#
# Elastic Constant Matrix: (Units=GPa)
#
#
# Indices 1 2 3 4 5 6 
#
# 1 97.5534 29.2262 16.7938 0.0000 0.0000 0.0000
# 2 29.2262 110.8808 28.9212 0.0000 0.0000 0.0000
# 3 16.7938 28.9212 64.3994 0.0000 0.0000 0.0000
# 4 0.0000 0.0000 0.0000 20.2593 0.0000 0.0000
# 5 0.0000 0.0000 0.0000 0.0000 90.9141 0.0000
# 6 0.0000 0.0000 0.0000 0.0000 0.0000 28.4567
#
#
#
# Elastic Compliance Matrix: (Units=1/GPa)
#
#
# Indices 1 2 3 4 5 6 
#
# 1 0.011316 -0.002507 -0.001825 0.000000 0.000000 0.000000
# 2 -0.002507 0.010771 -0.004183 0.000000 0.000000 0.000000
# 3 -0.001825 -0.004183 0.017883 0.000000 0.000000 0.000000
# 4 0.000000 0.000000 0.000000 0.049360 0.000000 0.000000
# 5 0.000000 0.000000 0.000000 0.000000 0.010999 0.000000
# 6 0.000000 0.000000 0.000000 0.000000 0.000000 0.035141
#
#
# Mechanical properties :
#
#
# Convention : Reuss Voigt Hill
#
# Bulk Modulus (GPa) = 43.59390 46.96845 45.28118
# Shear Modulus (GPa) = 31.22141 41.11883 36.17012
#
# Velocity S-wave (km/s) = 3.93860 4.51998 4.23927
# Velocity P-wave (km/s) = 6.50718 7.11174 6.81616
#
# Compressibility (1/GPa) = 0.02293899
#
# Stress axis : x y z
#
# Youngs Moduli (GPa) = 88.37073 92.84604 55.91977
#
# Poissons Ratio (x) = 0.23273 0.10207
# Poissons Ratio (y) = 0.22151 0.23393
# Poissons Ratio (z) = 0.16130 0.38840
#
# Static dielectric constant tensor:
#      x y z
#    x 1.647370 0.000000 0.000000 
#    y 0.000000 1.789270 0.000000 
#    z 0.000000 0.000000 1.683160 
# 
# From -- ./inp_files/2840.got.cif
#   From: 2010.05.17/outbox.cif.g08.bks.cpg/sg32_2_cif.got.tgz:2840.got - 2010.06.03 17:12:27.
