data_PCOD9343286
_publ_section_title
;
Structure prediction by ZEFSAII (Michael W. Deem and Ramdas Pophale) SiO2 
 PCOD9343286
Probable space group: P M N 21
;
_chemical_formula_sum "Si O2"
_cell_formula_units_Z 32
_cell_length_a 13.353582
_cell_length_b 16.296755
_cell_length_c 7.188432
_cell_angle_alpha 90.000000
_cell_angle_beta 90.000000
_cell_angle_gamma 90.000000
_cell_volume 1564.346962
_symmetry_space_group_name_H-M "P M N 21"
_symmetry_group_IT_number 31
_symmetry_cell_setting 'orthorhombic'
loop_
_space_group_symop_operation_xyz
x,y,z
1/2-x,-y,1/2+z
-x,y,z
1/2+x,-y,1/2+z
loop_
_atom_site_type_symbol
_atom_site_label
_atom_site_fract_x
_atom_site_fract_y
_atom_site_fract_z
Si Si1 0.619055 0.597855 0.166440
Si Si2 0.118098 0.859600 0.812114
Si Si3 0.272683 0.100984 0.690911
Si Si4 0.382954 0.002760 0.002531
Si Si5 0.380110 0.442273 0.900688
Si Si6 0.120325 0.521349 0.978369
Si Si7 0.614645 0.311981 0.359960
Si Si8 0.705002 0.287443 0.747919
O O1 0.500000 0.616077 0.143424
O O2 0.637752 0.562670 0.373971
O O3 0.693951 0.674299 0.155076
O O4 0.643049 0.520146 0.032158
O O5 0.128356 0.921232 0.643761
O O6 0.162092 0.768967 0.772731
O O7 0.000000 0.848091 0.844016
O O8 0.163517 0.893145 0.001858
O O9 0.278115 0.191234 0.784847
O O10 0.164480 0.073417 0.614418
O O11 0.319725 0.031311 0.823228
O O12 0.500000 0.991246 0.958258
O O13 0.500000 0.432202 0.914095
O O14 0.350919 0.470981 0.691860
O O15 0.332608 0.350555 0.907842
O O16 0.159710 0.597301 0.853818
O O17 0.000000 0.531739 0.978219
O O18 0.500000 0.318451 0.294768
O O19 0.621859 0.293587 0.582944
#
# Coordination Sequence:
#
# PCOD9343286 Si02
#       8
#     4   4   4   4   4   4   4   4
#     4  10  21  35  52  78 112 154 196 231 278 345
#     4   9  18  35  60  89 120 153 190 248 315 369
#     4  11  22  41  60  90 127 154 206 260 304 380
#     4  11  23  39  66  92 119 163 202 249 319 381
#     4   9  19  35  54  79 111 146 190 237 285 342
#     4   8  15  30  50  71 104 144 182 229 273 324
#     4   8  15  30  52  79 110 140 178 234 297 345
#     4  10  21  33  57  86 113 154 191 246 296 346
#
# _framework density 20.455819000000002
#
# number of rings (size 3 to 8) (size 9 to 14) (size 15 to 20)
#    0.000    2.500    1.250    1.500    3.500    3.000 
#    0.000    5.000    0.000    0.000    0.000    0.000 
#    0.000    0.000    0.000    0.000    0.000    0.000 
#
# Total GULP energy -178281.626240 kJ/mol
# GULP energy per Si atom -5571.300820 kJ/mol
# Density = 2.040926 g / cm^3
# Si number density = 20.455819 Si / 1000 Ang^3
#
#
#
# Elastic Constant Matrix: (Units=GPa)
#
#
# Indices 1 2 3 4 5 6 
#
# 1 87.5163 43.8500 19.2459 0.0000 0.0000 0.0000
# 2 43.8500 67.8256 14.8431 0.0000 0.0000 0.0000
# 3 19.2459 14.8431 47.8686 0.0000 0.0000 0.0000
# 4 0.0000 0.0000 0.0000 26.7746 0.0000 0.0000
# 5 0.0000 0.0000 0.0000 0.0000 21.8014 0.0000
# 6 0.0000 0.0000 0.0000 0.0000 0.0000 26.6643
#
#
#
# Elastic Compliance Matrix: (Units=1/GPa)
#
#
# Indices 1 2 3 4 5 6 
#
# 1 0.017519 -0.010497 -0.003789 0.000000 0.000000 0.000000
# 2 -0.010497 0.022107 -0.002634 0.000000 0.000000 0.000000
# 3 -0.003789 -0.002634 0.023231 0.000000 0.000000 0.000000
# 4 0.000000 0.000000 0.000000 0.037349 0.000000 0.000000
# 5 0.000000 0.000000 0.000000 0.000000 0.045869 0.000000
# 6 0.000000 0.000000 0.000000 0.000000 0.000000 0.037503
#
#
# Mechanical properties :
#
#
# Convention : Reuss Voigt Hill
#
# Bulk Modulus (GPa) = 34.46380 39.89873 37.18127
# Shear Modulus (GPa) = 22.01766 23.39949 22.70858
#
# Velocity S-wave (km/s) = 3.28434 3.38583 3.33547
# Velocity P-wave (km/s) = 5.59169 5.90189 5.74888
#
# Compressibility (1/GPa) = 0.02901596
#
# Stress axis : x y z
#
# Youngs Moduli (GPa) = 57.07984 45.23487 43.04653
#
# Poissons Ratio (x) = 0.47484 0.16309
# Poissons Ratio (y) = 0.59918 0.11340
# Poissons Ratio (z) = 0.21626 0.11917
#
# Static dielectric constant tensor:
#      x y z
#    x 1.774830 0.000000 0.000000 
#    y 0.000000 1.786740 0.000000 
#    z 0.000000 0.000000 1.753330 
# 
# From -- ./inp_files/2634.got.cif
#   From: 2010.05.17/outbox.cif.g08.bks.cpg/sg31_2_cif.got.tgz:2634.got - 2010.06.03 17:08:30.
