data_PCOD9343014
_publ_section_title
;
Structure prediction by ZEFSAII (Michael W. Deem and Ramdas Pophale) SiO2 
 PCOD9343014
Probable space group: P M N 21
;
_chemical_formula_sum "Si O2"
_cell_formula_units_Z 32
_cell_length_a 9.343039
_cell_length_b 15.806570
_cell_length_c 11.084054
_cell_angle_alpha 90.000000
_cell_angle_beta 90.000000
_cell_angle_gamma 90.000000
_cell_volume 1636.908612
_symmetry_space_group_name_H-M "P M N 21"
_symmetry_group_IT_number 31
_symmetry_cell_setting 'orthorhombic'
loop_
_space_group_symop_operation_xyz
x,y,z
1/2-x,-y,1/2+z
-x,y,z
1/2+x,-y,1/2+z
loop_
_atom_site_type_symbol
_atom_site_label
_atom_site_fract_x
_atom_site_fract_y
_atom_site_fract_z
Si Si1 0.162870 0.714695 0.621470
Si Si2 0.161277 0.865458 0.425592
Si Si3 0.836379 0.152663 0.558480
Si Si4 0.828700 0.547459 0.299257
Si Si5 0.836830 0.165757 0.273720
Si Si6 0.169007 0.735699 0.215044
Si Si7 0.330897 0.983627 0.588673
Si Si8 0.828155 0.451819 0.045476
O O1 0.158887 0.791601 0.526138
O O2 0.232527 0.758142 0.737905
O O3 0.260939 0.640210 0.571226
O O4 0.000000 0.684963 0.639595
O O5 0.195466 0.813167 0.306451
O O6 0.270381 0.935928 0.470321
O O7 0.000000 0.901721 0.415821
O O8 0.833050 0.148389 0.414328
O O9 0.762549 0.239334 0.600862
O O10 0.000000 0.149855 0.600201
O O11 0.750294 0.071197 0.603766
O O12 0.796319 0.646848 0.277388
O O13 0.744082 0.517602 0.419233
O O14 0.000000 0.538998 0.321276
O O15 0.797079 0.503256 0.169987
O O16 0.801578 0.081153 0.198460
O O17 0.000000 0.189216 0.238146
O O18 0.000000 0.733736 0.186499
O O19 0.500000 0.997721 0.580699
O O20 0.000000 0.449618 0.031119
#
# Coordination Sequence:
#
# PCOD9343014 Si02
#       8
#     4   4   4   4   4   4   4   4
#     4  10  19  36  63  89 115 152 196 241 297 362
#     4   9  18  35  60  84 111 149 190 241 292 346
#     4  11  24  39  56  84 121 157 199 250 306 365
#     4  10  23  44  65  91 129 168 212 263 319 382
#     4   9  21  40  57  80 118 155 195 250 303 356
#     4  10  21  40  62  84 117 159 200 246 303 363
#     4  10  21  37  58  84 113 153 197 243 297 357
#     4  11  23  39  65  98 130 165 209 262 317 379
#
# _framework density 19.549043999999999
#
# number of rings (size 3 to 8) (size 9 to 14) (size 15 to 20)
#    0.000    2.000    1.250    1.500    1.750    5.000 
#    0.000    2.500    0.000    0.000    0.000    0.000 
#    0.000    0.000    0.000    0.000    0.000    0.000 
#
# Total GULP energy -178581.594640 kJ/mol
# GULP energy per Si atom -5580.674833 kJ/mol
# Density = 1.950455 g / cm^3
# Si number density = 19.549044 Si / 1000 Ang^3
#
#
#
# Elastic Constant Matrix: (Units=GPa)
#
#
# Indices 1 2 3 4 5 6 
#
# 1 64.8067 43.8440 59.7723 0.0000 0.0000 0.0000
# 2 43.8440 53.0854 35.2416 0.0000 0.0000 0.0000
# 3 59.7723 35.2416 91.1683 0.0000 0.0000 0.0000
# 4 0.0000 0.0000 0.0000 19.7461 0.0000 0.0000
# 5 0.0000 0.0000 0.0000 0.0000 28.0282 0.0000
# 6 0.0000 0.0000 0.0000 0.0000 0.0000 20.3193
#
#
#
# Elastic Compliance Matrix: (Units=1/GPa)
#
#
# Indices 1 2 3 4 5 6 
#
# 1 0.067936 -0.035703 -0.030740 0.000000 0.000000 0.000000
# 2 -0.035703 0.044103 0.006359 0.000000 0.000000 0.000000
# 3 -0.030740 0.006359 0.028664 0.000000 0.000000 0.000000
# 4 0.000000 0.000000 0.000000 0.050643 0.000000 0.000000
# 5 0.000000 0.000000 0.000000 0.000000 0.035678 0.000000
# 6 0.000000 0.000000 0.000000 0.000000 0.000000 0.049214
#
#
# Mechanical properties :
#
#
# Convention : Reuss Voigt Hill
#
# Bulk Modulus (GPa) = 48.69128 54.08625 51.38877
# Shear Modulus (GPa) = 12.39919 18.29887 15.34903
#
# Velocity S-wave (km/s) = 2.52119 3.06281 2.80510
# Velocity P-wave (km/s) = 5.78243 6.34309 6.06924
#
# Compressibility (1/GPa) = 0.02053756
#
# Stress axis : x y z
#
# Youngs Moduli (GPa) = 14.71963 22.67412 34.88643
#
# Poissons Ratio (x) = 0.80952 1.07241
# Poissons Ratio (y) = 0.52553 -0.22185
# Poissons Ratio (z) = 0.45248 -0.14419
#
# Static dielectric constant tensor:
#      x y z
#    x 1.677700 0.000000 0.000000 
#    y 0.000000 1.664040 0.000000 
#    z 0.000000 0.000000 1.725240 
# 
# From -- ./inp_files/3659.got.cif
#   From: 2010.05.17/outbox.cif.g08.bks.cpg/sg31_2_cif.got.tgz:3659.got - 2010.06.03 17:08:30.
