data_PCOD9343147
_publ_section_title
;
Structure prediction by ZEFSAII (Michael W. Deem and Ramdas Pophale) SiO2 
 PCOD9343147
Probable space group: P M N 21
;
_chemical_formula_sum "Si O2"
_cell_formula_units_Z 32
_cell_length_a 8.662404
_cell_length_b 14.770033
_cell_length_c 12.835084
_cell_angle_alpha 90.000000
_cell_angle_beta 90.000000
_cell_angle_gamma 90.000000
_cell_volume 1642.171897
_symmetry_space_group_name_H-M "P M N 21"
_symmetry_group_IT_number 31
_symmetry_cell_setting 'orthorhombic'
loop_
_space_group_symop_operation_xyz
x,y,z
1/2-x,-y,1/2+z
-x,y,z
1/2+x,-y,1/2+z
loop_
_atom_site_type_symbol
_atom_site_label
_atom_site_fract_x
_atom_site_fract_y
_atom_site_fract_z
Si Si1 0.313627 0.363488 0.181020
Si Si2 0.817146 0.869220 0.984505
Si Si3 0.186029 0.762561 0.499182
Si Si4 0.812352 0.668340 0.915655
Si Si5 0.684606 0.447930 0.616513
Si Si6 0.319604 0.048271 0.902986
Si Si7 0.674043 0.870975 0.208674
Si Si8 0.323853 0.669691 0.298991
O O1 0.500000 0.366867 0.182915
O O2 0.258721 0.361341 0.300851
O O3 0.252220 0.451829 0.122575
O O4 0.269537 0.275928 0.112056
O O5 0.771446 0.773320 0.934140
O O6 0.000000 0.864801 0.005017
O O7 0.775967 0.957489 0.918961
O O8 0.725293 0.880859 0.091234
O O9 0.235414 0.865503 0.472683
O O10 0.250253 0.695285 0.410019
O O11 0.000000 0.762204 0.491068
O O12 0.000000 0.663317 0.915085
O O13 0.760269 0.607738 0.014130
O O14 0.500000 0.451136 0.612357
O O15 0.735227 0.398261 0.723205
O O16 0.500000 0.032180 0.924500
O O17 0.292780 0.081204 0.785595
O O18 0.500000 0.905432 0.226148
O O19 0.674613 0.765223 0.238178
O O20 0.500000 0.637831 0.313665
#
# Coordination Sequence:
#
# PCOD9343147 Si02
#       8
#     4   4   4   4   4   4   4   4
#     4  10  22  41  61  86 118 160 202 244 298 361
#     4  11  21  37  61  88 119 160 201 249 304 364
#     4   9  20  38  60  85 120 159 199 243 298 358
#     4   9  21  40  61  85 121 160 197 242 303 368
#     4  11  22  38  59  87 118 154 197 244 301 361
#     4  10  21  37  58  88 122 161 203 250 301 361
#     4  10  20  36  57  84 114 151 199 252 302 355
#     4  10  20  35  59  85 112 149 196 250 297 346
#
# _framework density 19.486388000000002
#
# number of rings (size 3 to 8) (size 9 to 14) (size 15 to 20)
#    0.000    2.000    1.250    1.875    1.750    3.000 
#    0.000    4.375    0.000    0.000    0.000    0.000 
#    0.000    0.000    0.000    0.000    0.000    0.000 
#
# Total GULP energy -178602.004383 kJ/mol
# GULP energy per Si atom -5581.312637 kJ/mol
# Density = 1.944204 g / cm^3
# Si number density = 19.486388 Si / 1000 Ang^3
#
#
#
# Elastic Constant Matrix: (Units=GPa)
#
#
# Indices 1 2 3 4 5 6 
#
# 1 18.8070 9.6176 2.5466 0.0000 0.0000 0.0000
# 2 9.6176 96.4346 43.1672 0.0000 0.0000 0.0000
# 3 2.5466 43.1672 67.3604 0.0000 0.0000 0.0000
# 4 0.0000 0.0000 0.0000 17.1452 0.0000 0.0000
# 5 0.0000 0.0000 0.0000 0.0000 20.3822 0.0000
# 6 0.0000 0.0000 0.0000 0.0000 0.0000 24.1626
#
#
#
# Elastic Compliance Matrix: (Units=1/GPa)
#
#
# Indices 1 2 3 4 5 6 
#
# 1 0.056232 -0.006530 0.002058 0.000000 0.000000 0.000000
# 2 -0.006530 0.015299 -0.009557 0.000000 0.000000 0.000000
# 3 0.002058 -0.009557 0.020892 0.000000 0.000000 0.000000
# 4 0.000000 0.000000 0.000000 0.058325 0.000000 0.000000
# 5 0.000000 0.000000 0.000000 0.000000 0.049062 0.000000
# 6 0.000000 0.000000 0.000000 0.000000 0.000000 0.041386
#
#
# Mechanical properties :
#
#
# Convention : Reuss Voigt Hill
#
# Bulk Modulus (GPa) = 15.53600 32.58497 24.06049
# Shear Modulus (GPa) = 17.19926 20.82270 19.01098
#
# Velocity S-wave (km/s) = 2.97413 3.27246 3.12685
# Velocity P-wave (km/s) = 4.44792 5.57107 5.04087
#
# Compressibility (1/GPa) = 0.06436662
#
# Stress axis : x y z
#
# Youngs Moduli (GPa) = 17.78347 65.36316 47.86412
#
# Poissons Ratio (x) = 0.42679 -0.09853
# Poissons Ratio (y) = 0.11612 0.45746
# Poissons Ratio (z) = -0.03661 0.62470
#
# Static dielectric constant tensor:
#      x y z
#    x 1.664120 0.000000 0.000000 
#    y 0.000000 1.684660 0.000000 
#    z 0.000000 0.000000 1.678010 
# 
# From -- ./inp_files/3602.got.cif
#   From: 2010.05.17/outbox.cif.g08.bks.cpg/sg31_2_cif.got.tgz:3602.got - 2010.06.03 17:08:30.
