data_PCOD9343541
_publ_section_title
;
Structure prediction by ZEFSAII (Michael W. Deem and Ramdas Pophale) SiO2 
 PCOD9343541
Probable space group: P M N 21
;
_chemical_formula_sum "Si O2"
_cell_formula_units_Z 20
_cell_length_a 18.317623
_cell_length_b 8.168864
_cell_length_c 4.967786
_cell_angle_alpha 90.000000
_cell_angle_beta 90.000000
_cell_angle_gamma 90.000000
_cell_volume 743.350540
_symmetry_space_group_name_H-M "P M N 21"
_symmetry_group_IT_number 31
_symmetry_cell_setting 'orthorhombic'
loop_
_space_group_symop_operation_xyz
x,y,z
1/2-x,-y,1/2+z
-x,y,z
1/2+x,-y,1/2+z
loop_
_atom_site_type_symbol
_atom_site_label
_atom_site_fract_x
_atom_site_fract_y
_atom_site_fract_z
Si Si1 0.919525 0.081384 0.227430
Si Si2 0.728979 0.912066 0.044300
Si Si3 0.202112 0.513556 0.473397
Si Si4 0.130681 0.729664 0.107297
Si Si5 0.419079 0.604373 0.335375
O O1 0.851999 0.086928 0.430902
O O2 0.914983 0.238438 0.030576
O O3 0.000000 0.086289 0.355573
O O4 0.911535 0.900728 0.093370
O O5 0.788198 0.769981 0.992917
O O6 0.646734 0.606533 0.123483
O O7 0.733770 0.945309 0.361290
O O8 0.151742 0.672119 0.410514
O O9 0.231193 0.461926 0.178933
O O10 0.091349 0.571330 0.984415
O O11 0.500000 0.603265 0.210868
#
# Coordination Sequence:
#
# PCOD9343541 Si02
#       5
#     4   4   4   4   4
#     4  10  25  52  81 122 172 215 278 353 426 505
#     4  10  25  48  80 123 162 215 283 343 411 507
#     4  12  28  51  86 123 167 226 287 352 421 507
#     4  11  26  50  85 119 166 228 279 349 422 515
#     4  11  27  51  83 125 171 222 285 355 431 510
#
# _framework density 26.905207000000001
#
# number of rings (size 3 to 8) (size 9 to 14) (size 15 to 20)
#    0.000    1.200    2.000    0.600   11.200    4.800 
#    0.000    4.000    0.000    1.200    0.000    0.000 
#    0.000    0.000    0.000    0.000    0.000    0.000 
#
# Total GULP energy -111908.147253 kJ/mol
# GULP energy per Si atom -5595.407363 kJ/mol
# Density = 2.684397 g / cm^3
# Si number density = 26.905207 Si / 1000 Ang^3
#
#
#
# Elastic Constant Matrix: (Units=GPa)
#
#
# Indices 1 2 3 4 5 6 
#
# 1 221.1351 22.0594 28.6056 0.0000 0.0000 0.0000
# 2 22.0594 200.7436 29.2843 0.0000 0.0000 0.0000
# 3 28.6056 29.2843 74.7199 0.0000 0.0000 0.0000
# 4 0.0000 0.0000 0.0000 55.6407 0.0000 0.0000
# 5 0.0000 0.0000 0.0000 0.0000 -12.1999 0.0000
# 6 0.0000 0.0000 0.0000 0.0000 0.0000 15.6317
#
#
#
# Elastic Compliance Matrix: (Units=1/GPa)
#
#
# Indices 1 2 3 4 5 6 
#
# 1 0.004772 -0.000274 -0.001720 0.000000 0.000000 0.000000
# 2 -0.000274 0.005299 -0.001972 0.000000 0.000000 0.000000
# 3 -0.001720 -0.001972 0.014815 0.000000 0.000000 0.000000
# 4 0.000000 0.000000 0.000000 0.017972 0.000000 0.000000
# 5 0.000000 0.000000 0.000000 0.000000 -0.081968 0.000000
# 6 0.000000 0.000000 0.000000 0.000000 0.000000 0.063973
#
#
# Mechanical properties :
#
#
# Convention : Reuss Voigt Hill
#
# Bulk Modulus (GPa) = 58.97957 72.94413 65.96185
# Shear Modulus (GPa) = 130.05493 39.59111 84.82302
#
# Velocity S-wave (km/s) = 6.96011 3.84018 5.62095
# Velocity P-wave (km/s) = 9.30375 6.84347 8.16678
#
# Compressibility (1/GPa) = 0.01695502
#
# Stress axis : x y z
#
# Youngs Moduli (GPa) = 209.56202 188.70654 67.50101
#
# Poissons Ratio (x) = 0.05161 0.11608
# Poissons Ratio (y) = 0.05732 0.13312
# Poissons Ratio (z) = 0.36037 0.37216
#
# Static dielectric constant tensor:
#      x y z
#    x 2.064810 0.000000 0.000000 
#    y 0.000000 2.304130 0.000000 
#    z 0.000000 0.000000 2.121600 
# 
# From -- ./inp_files/2728.got.cif
#   From: 2010.05.17/outbox.cif.g08.bks.cpg/sg31_2_cif.got.tgz:2728.got - 2010.06.03 17:08:30.
