data_PCOD9343065
_publ_section_title
;
Structure prediction by ZEFSAII (Michael W. Deem and Ramdas Pophale) SiO2 
 PCOD9343065
Probable space group: P M N 21
;
_chemical_formula_sum "Si O2"
_cell_formula_units_Z 28
_cell_length_a 21.335104
_cell_length_b 5.426328
_cell_length_c 12.415456
_cell_angle_alpha 90.000000
_cell_angle_beta 90.000000
_cell_angle_gamma 90.000000
_cell_volume 1437.353136
_symmetry_space_group_name_H-M "P M N 21"
_symmetry_group_IT_number 31
_symmetry_cell_setting 'orthorhombic'
loop_
_space_group_symop_operation_xyz
x,y,z
1/2-x,-y,1/2+z
-x,y,z
1/2+x,-y,1/2+z
loop_
_atom_site_type_symbol
_atom_site_label
_atom_site_fract_x
_atom_site_fract_y
_atom_site_fract_z
Si Si1 0.567786 0.021311 0.403430
Si Si2 0.207769 0.283685 0.149766
Si Si3 0.070075 0.634983 0.696342
Si Si4 0.167288 0.244330 0.778870
Si Si5 0.336926 0.114272 0.070320
Si Si6 0.733484 0.920629 0.877158
Si Si7 0.337568 0.223474 0.547065
O O1 0.500000 0.916624 0.429807
O O2 0.563504 0.162417 0.289764
O O3 0.594389 0.203132 0.493279
O O4 0.621640 0.826533 0.378429
O O5 0.275906 0.284960 0.091563
O O6 0.217354 0.251735 0.276958
O O7 0.173292 0.531794 0.115212
O O8 0.175313 0.029514 0.111630
O O9 0.130474 0.482164 0.737040
O O10 0.096570 0.752717 0.586393
O O11 0.000000 0.518668 0.686216
O O12 0.166313 0.075273 0.671061
O O13 0.234883 0.171840 0.828152
O O14 0.323012 0.985317 0.957158
O O15 0.786846 0.788255 0.949523
#
# Coordination Sequence:
#
# PCOD9343065 Si02
#       7
#     4   4   4   4   4   4   4
#     4   9  19  34  54  81 112 151 191 239 301 355
#     4  10  22  37  56  86 118 150 193 242 295 357
#     4  10  20  33  55  84 114 153 196 244 295 360
#     4   9  18  34  51  81 115 143 194 242 293 358
#     4   9  20  34  53  79 114 148 190 236 298 346
#     4   9  20  37  55  83 115 159 191 242 307 360
#     4  10  22  37  56  86 119 150 193 245 295 354
#
# _framework density 19.480250000000002
#
# number of rings (size 3 to 8) (size 9 to 14) (size 15 to 20)
#    0.000    2.571    0.000    1.286   12.000    2.857 
#    0.000    0.000    0.000    1.714    0.000    0.000 
#    0.000    0.000    0.000    0.000    0.000    0.000 
#
# Total GULP energy -155884.254281 kJ/mol
# GULP energy per Si atom -5567.294796 kJ/mol
# Density = 1.943591 g / cm^3
# Si number density = 19.480250 Si / 1000 Ang^3
#
#
#
# Elastic Constant Matrix: (Units=GPa)
#
#
# Indices 1 2 3 4 5 6 
#
# 1 55.7126 15.3321 24.0299 0.0000 0.0000 0.0000
# 2 15.3321 46.4034 31.1397 0.0000 0.0000 0.0000
# 3 24.0299 31.1397 100.3426 0.0000 0.0000 0.0000
# 4 0.0000 0.0000 0.0000 26.5838 0.0000 0.0000
# 5 0.0000 0.0000 0.0000 0.0000 8.5158 0.0000
# 6 0.0000 0.0000 0.0000 0.0000 0.0000 -8.0876
#
#
#
# Elastic Compliance Matrix: (Units=1/GPa)
#
#
# Indices 1 2 3 4 5 6 
#
# 1 0.020717 -0.004440 -0.003583 0.000000 0.000000 0.000000
# 2 -0.004440 0.028170 -0.007679 0.000000 0.000000 0.000000
# 3 -0.003583 -0.007679 0.013207 0.000000 0.000000 0.000000
# 4 0.000000 0.000000 0.000000 0.037617 0.000000 0.000000
# 5 0.000000 0.000000 0.000000 0.000000 0.117429 0.000000
# 6 0.000000 0.000000 0.000000 0.000000 0.000000 -0.123645
#
#
# Mechanical properties :
#
#
# Convention : Reuss Voigt Hill
#
# Bulk Modulus (GPa) = 32.58487 38.16246 35.37366
# Shear Modulus (GPa) = 37.00150 14.19950 25.60050
#
# Velocity S-wave (km/s) = 4.36298 2.70278 3.62909
# Velocity P-wave (km/s) = 6.49186 5.41967 5.97985
#
# Compressibility (1/GPa) = 0.03068909
#
# Stress axis : x y z
#
# Youngs Moduli (GPa) = 48.27009 35.49835 75.71766
#
# Poissons Ratio (x) = 0.15763 0.27131
# Poissons Ratio (y) = 0.21434 0.58142
# Poissons Ratio (z) = 0.17296 0.27259
#
# Static dielectric constant tensor:
#      x y z
#    x 1.748950 0.000000 0.000000 
#    y 0.000000 1.816130 0.000000 
#    z 0.000000 0.000000 1.697930 
# 
# From -- ./inp_files/4544.got.cif
#   From: 2010.05.17/outbox.cif.g08.bks.cpg/sg31_3_cif.got.tgz:4544.got - 2010.06.03 17:08:30.
