data_PCOD9343688
_publ_section_title
;
Structure prediction by ZEFSAII (Michael W. Deem and Ramdas Pophale) SiO2 
 PCOD9343688
Probable space group: P B A 2
;
_chemical_formula_sum "Si O2"
_cell_formula_units_Z 32
_cell_length_a 8.539029
_cell_length_b 27.340580
_cell_length_c 5.185420
_cell_angle_alpha 90.000000
_cell_angle_beta 90.000000
_cell_angle_gamma 90.000000
_cell_volume 1210.598553
_symmetry_space_group_name_H-M "P B A 2"
_symmetry_group_IT_number 32
_symmetry_cell_setting 'orthorhombic'
loop_
_space_group_symop_operation_xyz
x,y,z
-x,-y,z
1/2-x,1/2+y,z
1/2+x,1/2-y,z
loop_
_atom_site_type_symbol
_atom_site_label
_atom_site_fract_x
_atom_site_fract_y
_atom_site_fract_z
Si Si1 0.854710 0.075812 0.310020
Si Si2 0.543022 0.630503 0.827999
Si Si3 0.578130 0.126432 0.495091
Si Si4 0.913418 0.447738 0.852899
Si Si5 0.180506 0.521725 0.354426
Si Si6 0.872733 0.789043 0.512327
Si Si7 0.078557 0.708675 0.252805
Si Si8 0.702919 0.205524 0.850679
O O1 0.893009 0.093135 0.602966
O O2 0.679467 0.099399 0.280189
O O3 0.809423 0.018893 0.292385
O O4 0.965714 0.096846 0.085979
O O5 0.420527 0.660978 0.652261
O O6 0.644645 0.677011 0.952378
O O7 0.530204 0.090916 0.726573
O O8 0.433102 0.156212 0.392874
O O9 0.679982 0.170838 0.602137
O O10 0.784805 0.455427 0.631150
O O11 0.000000 0.500000 0.889335
O O12 0.837227 0.439239 0.127863
O O13 0.000000 0.500000 0.388159
O O14 0.015992 0.754592 0.421514
O O15 0.764601 0.787058 0.257567
O O16 0.781711 0.758838 0.733719
O O17 0.955373 0.703390 0.019453
#
# Coordination Sequence:
#
# PCOD9343688 Si02
#       8
#     4   4   4   4   4   4   4   4
#     4  11  21  38  59  92 131 163 217 262 337 381
#     4  11  24  40  63  89 128 173 215 270 325 409
#     4  10  21  35  54  92 126 169 209 268 335 387
#     4  10  19  29  53  87 129 163 201 261 324 392
#     4  10  19  30  53  88 126 165 195 267 318 390
#     4  11  25  42  59  95 119 179 222 274 339 396
#     4  11  24  40  63  86 132 168 224 278 332 407
#     4  10  23  36  61  85 127 168 214 275 325 405
#
# _framework density 26.433202000000001
#
# number of rings (size 3 to 8) (size 9 to 14) (size 15 to 20)
#    0.000    1.500    5.000    0.750   10.500    0.000 
#    0.000    0.000    0.000    0.000    0.000    5.250 
#    0.000    0.000    0.000    0.000    0.000    0.000 
#
# Total GULP energy -178382.996824 kJ/mol
# GULP energy per Si atom -5574.468651 kJ/mol
# Density = 2.637304 g / cm^3
# Si number density = 26.433202 Si / 1000 Ang^3
#
#
#
# Elastic Constant Matrix: (Units=GPa)
#
#
# Indices 1 2 3 4 5 6 
#
# 1 85.4868 6.9264 11.2321 0.0000 0.0000 0.0000
# 2 6.9264 21.0683 0.6520 0.0000 0.0000 0.0000
# 3 11.2321 0.6520 140.7697 0.0000 0.0000 0.0000
# 4 0.0000 0.0000 0.0000 -11.7738 0.0000 0.0000
# 5 0.0000 0.0000 0.0000 0.0000 -52.4963 0.0000
# 6 0.0000 0.0000 0.0000 0.0000 0.0000 11.2676
#
#
#
# Elastic Compliance Matrix: (Units=1/GPa)
#
#
# Indices 1 2 3 4 5 6 
#
# 1 0.012144 -0.003963 -0.000951 0.000000 0.000000 0.000000
# 2 -0.003963 0.048765 0.000090 0.000000 0.000000 0.000000
# 3 -0.000951 0.000090 0.007179 0.000000 0.000000 0.000000
# 4 0.000000 0.000000 0.000000 -0.084934 0.000000 0.000000
# 5 0.000000 0.000000 0.000000 0.000000 -0.019049 0.000000
# 6 0.000000 0.000000 0.000000 0.000000 0.000000 0.088750
#
#
# Mechanical properties :
#
#
# Convention : Reuss Voigt Hill
#
# Bulk Modulus (GPa) = 17.11119 31.66065 24.38592
# Shear Modulus (GPa) = 60.98945 4.63377 32.81161
#
# Velocity S-wave (km/s) = 4.80865 1.32545 3.52703
# Velocity P-wave (km/s) = 6.10887 3.78762 5.08253
#
# Compressibility (1/GPa) = 0.05844130
#
# Stress axis : x y z
#
# Youngs Moduli (GPa) = 82.34722 20.50661 139.29062
#
# Poissons Ratio (x) = 0.08127 0.13241
# Poissons Ratio (y) = 0.32634 -0.01258
# Poissons Ratio (z) = 0.07828 -0.00185
#
# Static dielectric constant tensor:
#      x y z
#    x 2.495400 0.000000 0.000000 
#    y 0.000000 2.169320 0.000000 
#    z 0.000000 0.000000 2.152930 
# 
# From -- ./inp_files/642.got.cif
#   From: 2010.05.17/outbox.cif.g08.bks.cpg/sg32_1_cif.got.tgz:642.got - 2010.06.03 17:12:27.
