data_PCOD9343981
_publ_section_title
;
Structure prediction by ZEFSAII (Michael W. Deem and Ramdas Pophale) SiO2 
 PCOD9343981
Probable space group: P B A 2
;
_chemical_formula_sum "Si O2"
_cell_formula_units_Z 22
_cell_length_a 13.271885
_cell_length_b 9.536753
_cell_length_c 7.968730
_cell_angle_alpha 90.000000
_cell_angle_beta 90.000000
_cell_angle_gamma 90.000000
_cell_volume 1008.607647
_symmetry_space_group_name_H-M "P B A 2"
_symmetry_group_IT_number 32
_symmetry_cell_setting 'orthorhombic'
loop_
_space_group_symop_operation_xyz
x,y,z
-x,-y,z
1/2-x,1/2+y,z
1/2+x,1/2-y,z
loop_
_atom_site_type_symbol
_atom_site_label
_atom_site_fract_x
_atom_site_fract_y
_atom_site_fract_z
Si Si1 0.803734 0.945332 0.401190
Si Si2 0.191401 0.892110 0.712724
Si Si3 0.700039 0.884543 0.885170
Si Si4 0.500078 0.717784 0.513873
Si Si5 0.840420 0.227547 0.234615
Si Si6 0.500000 0.000000 0.713165
O O1 0.756835 0.032244 0.555075
O O2 0.092832 0.119139 0.470230
O O3 0.817882 0.061722 0.255286
O O4 0.737607 0.816574 0.344607
O O5 0.233237 0.741420 0.762251
O O6 0.079456 0.856054 0.643004
O O7 0.212233 0.999007 0.865938
O O8 0.597184 0.958850 0.824033
O O9 0.671521 0.801175 0.055013
O O10 0.555358 0.744672 0.335607
O O11 0.475331 0.865199 0.599397
#
# Coordination Sequence:
#
# PCOD9343981 Si02
#       6
#     4   4   4   4   4   2
#     4  11  23  44  70  99 133 185 233 284 336 419
#     4  10  21  42  66  94 132 176 232 274 336 415
#     4  11  24  43  65 102 140 176 225 292 355 407
#     4  10  24  42  71 100 134 184 245 281 336 428
#     4  11  24  43  66 100 141 176 227 289 357 404
#     4  10  24  42  66 102 134 180 240 286 342 414
#
# _framework density 21.812248
#
# number of rings (size 3 to 8) (size 9 to 14) (size 15 to 20)
#    0.000    1.455    0.000    6.545   10.182    0.727 
#    3.273    7.273    0.000    0.000    0.000    0.000 
#    0.000    0.000    0.000    0.000    0.000    0.000 
#
# Total GULP energy -122772.841289 kJ/mol
# GULP energy per Si atom -5580.583695 kJ/mol
# Density = 2.176260 g / cm^3
# Si number density = 21.812248 Si / 1000 Ang^3
#
#
#
# Elastic Constant Matrix: (Units=GPa)
#
#
# Indices 1 2 3 4 5 6 
#
# 1 63.3356 53.4414 29.8213 0.0000 0.0000 0.0000
# 2 53.4414 188.6249 54.5528 0.0000 0.0000 0.0000
# 3 29.8213 54.5528 114.5367 0.0000 0.0000 0.0000
# 4 0.0000 0.0000 0.0000 41.5566 0.0000 0.0000
# 5 0.0000 0.0000 0.0000 0.0000 7.9634 0.0000
# 6 0.0000 0.0000 0.0000 0.0000 0.0000 35.5760
#
#
#
# Elastic Compliance Matrix: (Units=1/GPa)
#
#
# Indices 1 2 3 4 5 6 
#
# 1 0.021690 -0.005233 -0.003155 0.000000 0.000000 0.000000
# 2 -0.005233 0.007411 -0.002167 0.000000 0.000000 0.000000
# 3 -0.003155 -0.002167 0.010585 0.000000 0.000000 0.000000
# 4 0.000000 0.000000 0.000000 0.024064 0.000000 0.000000
# 5 0.000000 0.000000 0.000000 0.000000 0.125574 0.000000
# 6 0.000000 0.000000 0.000000 0.000000 0.000000 0.028109
#
#
# Mechanical properties :
#
#
# Convention : Reuss Voigt Hill
#
# Bulk Modulus (GPa) = 53.83535 71.34756 62.59146
# Shear Modulus (GPa) = 20.43041 32.26467 26.34754
#
# Velocity S-wave (km/s) = 3.06379 3.85021 3.47929
# Velocity P-wave (km/s) = 6.10333 7.24889 6.70063
#
# Compressibility (1/GPa) = 0.01857516
#
# Stress axis : x y z
#
# Youngs Moduli (GPa) = 46.10501 134.93691 94.47740
#
# Poissons Ratio (x) = 0.70608 0.29807
# Poissons Ratio (y) = 0.24125 0.20476
# Poissons Ratio (z) = 0.14546 0.29245
#
# Static dielectric constant tensor:
#      x y z
#    x 1.819440 0.000000 0.000000 
#    y 0.000000 1.839740 0.000000 
#    z 0.000000 0.000000 1.880540 
# 
# From -- ./inp_files/2289.got.cif
#   From: 2010.05.17/outbox.cif.g08.bks.cpg/sg32_2_cif.got.tgz:2289.got - 2010.06.03 17:12:27.
