data_PCOD9343016
_publ_section_title
;
Structure prediction by ZEFSAII (Michael W. Deem and Ramdas Pophale) SiO2 
 PCOD9343016
Probable space group: P M N 21
;
_chemical_formula_sum "Si O2"
_cell_formula_units_Z 32
_cell_length_a 13.859088
_cell_length_b 9.769260
_cell_length_c 12.011309
_cell_angle_alpha 90.000000
_cell_angle_beta 90.000000
_cell_angle_gamma 90.000000
_cell_volume 1626.247568
_symmetry_space_group_name_H-M "P M N 21"
_symmetry_group_IT_number 31
_symmetry_cell_setting 'orthorhombic'
loop_
_space_group_symop_operation_xyz
x,y,z
1/2-x,-y,1/2+z
-x,y,z
1/2+x,-y,1/2+z
loop_
_atom_site_type_symbol
_atom_site_label
_atom_site_fract_x
_atom_site_fract_y
_atom_site_fract_z
Si Si1 0.383337 0.781335 0.213320
Si Si2 0.708082 0.007460 0.361252
Si Si3 0.888332 0.666617 0.576058
Si Si4 0.116524 0.369861 0.490729
Si Si5 0.887485 0.698387 0.836881
Si Si6 0.614736 0.848126 0.806960
Si Si7 0.615585 0.580061 0.417829
Si Si8 0.302104 0.813958 0.561146
O O1 0.500000 0.804902 0.212840
O O2 0.362395 0.663444 0.304612
O O3 0.328843 0.915028 0.258471
O O4 0.350830 0.726488 0.093259
O O5 0.664679 0.158321 0.349861
O O6 0.822987 0.030618 0.362014
O O7 0.673539 0.931630 0.472699
O O8 0.856840 0.528056 0.511969
O O9 0.883865 0.644870 0.709509
O O10 0.812419 0.787140 0.556688
O O11 0.000000 0.697887 0.548365
O O12 0.135971 0.292030 0.375362
O O13 0.000000 0.373066 0.501576
O O14 0.847491 0.574835 0.911594
O O15 0.000000 0.720779 0.863176
O O16 0.500000 0.869841 0.808277
O O17 0.656285 0.840146 0.682529
O O18 0.500000 0.571714 0.423383
O O19 0.652381 0.672636 0.517341
#
# Coordination Sequence:
#
# PCOD9343016 Si02
#       8
#     4   4   4   4   4   4   4   4
#     4   9  17  35  63  93 119 149 199 259 309 364
#     4  11  24  38  58  92 124 166 212 252 309 375
#     4  10  20  37  64  95 121 149 205 273 317 360
#     4   9  19  37  64  91 120 157 199 256 319 373
#     4  10  19  36  63  95 121 147 202 272 318 355
#     4  11  25  42  60  86 129 173 208 252 318 386
#     4   9  18  35  62  92 119 153 200 256 313 366
#     4  11  24  40  61  88 125 170 208 252 312 383
#
# _framework density 19.677202999999999
#
# number of rings (size 3 to 8) (size 9 to 14) (size 15 to 20)
#    0.000    2.000    2.500    0.750    3.500    2.000 
#    0.000    0.000    0.000    0.000    0.000    0.000 
#    0.000    0.000    0.000    0.000    0.000    0.000 
#
# Total GULP energy -178564.696651 kJ/mol
# GULP energy per Si atom -5580.146770 kJ/mol
# Density = 1.963242 g / cm^3
# Si number density = 19.677203 Si / 1000 Ang^3
#
#
#
# Elastic Constant Matrix: (Units=GPa)
#
#
# Indices 1 2 3 4 5 6 
#
# 1 59.9900 29.2156 -1.9745 0.0000 0.0000 0.0000
# 2 29.2156 87.4400 10.5503 0.0000 0.0000 0.0000
# 3 -1.9745 10.5503 66.3696 0.0000 0.0000 0.0000
# 4 0.0000 0.0000 0.0000 22.3129 0.0000 0.0000
# 5 0.0000 0.0000 0.0000 0.0000 20.2402 0.0000
# 6 0.0000 0.0000 0.0000 0.0000 0.0000 25.5270
#
#
#
# Elastic Compliance Matrix: (Units=1/GPa)
#
#
# Indices 1 2 3 4 5 6 
#
# 1 0.020095 -0.006919 0.001698 0.000000 0.000000 0.000000
# 2 -0.006919 0.014042 -0.002438 0.000000 0.000000 0.000000
# 3 0.001698 -0.002438 0.015505 0.000000 0.000000 0.000000
# 4 0.000000 0.000000 0.000000 0.044817 0.000000 0.000000
# 5 0.000000 0.000000 0.000000 0.000000 0.049407 0.000000
# 6 0.000000 0.000000 0.000000 0.000000 0.000000 0.039174
#
#
# Mechanical properties :
#
#
# Convention : Reuss Voigt Hill
#
# Bulk Modulus (GPa) = 29.13431 32.15360 30.64396
# Shear Modulus (GPa) = 23.83218 25.34991 24.59104
#
# Velocity S-wave (km/s) = 3.48394 3.59317 3.53898
# Velocity P-wave (km/s) = 5.56975 5.79573 5.68386
#
# Compressibility (1/GPa) = 0.03432379
#
# Stress axis : x y z
#
# Youngs Moduli (GPa) = 49.76380 71.21309 64.49448
#
# Poissons Ratio (x) = 0.49272 -0.10949
# Poissons Ratio (y) = 0.34432 0.15724
# Poissons Ratio (z) = -0.08448 0.17362
#
# Static dielectric constant tensor:
#      x y z
#    x 1.731260 0.000000 0.000000 
#    y 0.000000 1.687560 0.000000 
#    z 0.000000 0.000000 1.684380 
# 
# From -- ./inp_files/4259.got.cif
#   From: 2010.05.17/outbox.cif.g08.bks.cpg/sg31_3_cif.got.tgz:4259.got - 2010.06.03 17:08:30.
