data_PCOD9343387
_publ_section_title
;
Structure prediction by ZEFSAII (Michael W. Deem and Ramdas Pophale) SiO2 
 PCOD9343387
Probable space group: P M N 21
;
_chemical_formula_sum "Si O2"
_cell_formula_units_Z 32
_cell_length_a 8.487371
_cell_length_b 13.705452
_cell_length_c 13.492903
_cell_angle_alpha 90.000000
_cell_angle_beta 90.000000
_cell_angle_gamma 90.000000
_cell_volume 1569.538408
_symmetry_space_group_name_H-M "P M N 21"
_symmetry_group_IT_number 31
_symmetry_cell_setting 'orthorhombic'
loop_
_space_group_symop_operation_xyz
x,y,z
1/2-x,-y,1/2+z
-x,y,z
1/2+x,-y,1/2+z
loop_
_atom_site_type_symbol
_atom_site_label
_atom_site_fract_x
_atom_site_fract_y
_atom_site_fract_z
Si Si1 0.307972 0.398496 0.150400
Si Si2 0.186901 0.892379 0.807286
Si Si3 0.812552 0.956053 0.174716
Si Si4 0.188620 0.978818 0.480238
Si Si5 0.807806 0.753809 0.482362
Si Si6 0.308960 0.323803 0.364213
Si Si7 0.811045 0.386724 0.580492
Si Si8 0.309337 0.250640 0.758734
O O1 0.500000 0.394831 0.150994
O O2 0.259419 0.382430 0.264875
O O3 0.259911 0.503545 0.108849
O O4 0.254933 0.314508 0.073166
O O5 0.244161 0.787151 0.841756
O O6 0.000000 0.886395 0.800185
O O7 0.250874 0.937822 0.706774
O O8 0.241503 0.975186 0.882173
O O9 0.748468 0.948255 0.064491
O O10 0.760395 0.861401 0.236637
O O11 0.000000 0.957144 0.177511
O O12 0.000000 0.978973 0.475605
O O13 0.240455 0.866767 0.492916
O O14 0.759941 0.720762 0.370811
O O15 0.000000 0.752354 0.483945
O O16 0.500000 0.325453 0.368683
O O17 0.247814 0.358677 0.470642
O O18 0.751839 0.316335 0.668586
O O19 0.000000 0.383592 0.579506
O O20 0.500000 0.253444 0.756682
#
# Coordination Sequence:
#
# PCOD9343387 Si02
#       8
#     4   4   4   4   4   4   4   4
#     4   9  20  39  63  88 116 152 200 252 300 355
#     4  11  22  37  59  87 117 158 201 240 293 352
#     4  11  22  37  57  87 122 159 201 244 289 350
#     4  11  21  36  59  88 121 161 200 241 293 351
#     4   9  18  37  62  87 117 159 203 239 291 365
#     4  10  22  42  63  85 119 162 202 241 296 374
#     4  11  24  39  61  93 120 150 197 258 309 345
#     4  10  21  39  62  87 120 163 202 237 293 370
#
# _framework density 20.388159000000002
#
# number of rings (size 3 to 8) (size 9 to 14) (size 15 to 20)
#    0.000    1.750    1.250    3.000    1.750    7.000 
#    0.000    0.625    0.000    3.750    0.000    0.000 
#    0.000    0.000    0.000    0.000    0.000    0.000 
#
# Total GULP energy -178580.468877 kJ/mol
# GULP energy per Si atom -5580.639652 kJ/mol
# Density = 2.034175 g / cm^3
# Si number density = 20.388159 Si / 1000 Ang^3
#
#
#
# Elastic Constant Matrix: (Units=GPa)
#
#
# Indices 1 2 3 4 5 6 
#
# 1 14.5796 15.2454 9.6029 0.0000 0.0000 0.0000
# 2 15.2454 109.7404 47.4213 0.0000 0.0000 0.0000
# 3 9.6029 47.4213 143.5909 0.0000 0.0000 0.0000
# 4 0.0000 0.0000 0.0000 35.2465 0.0000 0.0000
# 5 0.0000 0.0000 0.0000 0.0000 -1.1939 0.0000
# 6 0.0000 0.0000 0.0000 0.0000 0.0000 27.3590
#
#
#
# Elastic Compliance Matrix: (Units=1/GPa)
#
#
# Indices 1 2 3 4 5 6 
#
# 1 0.080725 -0.010360 -0.001977 0.000000 0.000000 0.000000
# 2 -0.010360 0.011959 -0.003257 0.000000 0.000000 0.000000
# 3 -0.001977 -0.003257 0.008172 0.000000 0.000000 0.000000
# 4 0.000000 0.000000 0.000000 0.028372 0.000000 0.000000
# 5 0.000000 0.000000 0.000000 0.000000 -0.837623 0.000000
# 6 0.000000 0.000000 0.000000 0.000000 0.000000 0.036551
#
#
# Mechanical properties :
#
#
# Convention : Reuss Voigt Hill
#
# Bulk Modulus (GPa) = 14.35384 45.82778 30.09081
# Shear Modulus (GPa) = -8.09803 25.32507 8.61352
#
# Velocity S-wave (km/s) = -1.99513 3.52823 2.05765
# Velocity P-wave (km/s) = 1.32218 6.25495 4.52065
#
# Compressibility (1/GPa) = 0.06966779
#
# Stress axis : x y z
#
# Youngs Moduli (GPa) = 12.38780 83.61970 122.36960
#
# Poissons Ratio (x) = 0.86630 0.24195
# Poissons Ratio (y) = 0.12834 0.39851
# Poissons Ratio (z) = 0.02449 0.27232
#
# Static dielectric constant tensor:
#      x y z
#    x 1.697010 0.000000 0.000000 
#    y 0.000000 1.722750 0.000000 
#    z 0.000000 0.000000 1.705750 
# 
# From -- ./inp_files/5089.got.cif
#   From: 2010.05.17/outbox.cif.g08.bks.cpg/sg31_3_cif.got.tgz:5089.got - 2010.06.03 17:08:30.
