data_PCOD9343618
_publ_section_title
;
Structure prediction by ZEFSAII (Michael W. Deem and Ramdas Pophale) SiO2 
 PCOD9343618
Probable space group: P M N 21
;
_chemical_formula_sum "Si O2"
_cell_formula_units_Z 24
_cell_length_a 9.000000
_cell_length_b 9.000000
_cell_length_c 15.000000
_cell_angle_alpha 90.000000
_cell_angle_beta 90.000000
_cell_angle_gamma 90.000000
_cell_volume 1215.000000
_symmetry_space_group_name_H-M "P M N 21"
_symmetry_group_IT_number 31
_symmetry_cell_setting 'orthorhombic'
loop_
_space_group_symop_operation_xyz
x,y,z
1/2-x,-y,1/2+z
-x,y,z
1/2+x,-y,1/2+z
loop_
_atom_site_type_symbol
_atom_site_label
_atom_site_fract_x
_atom_site_fract_y
_atom_site_fract_z
Si Si1 0.167688 0.335508 0.058500
Si Si2 0.171085 0.158522 0.729571
Si Si3 0.164982 0.682462 0.084642
Si Si4 0.835033 0.814524 0.405770
Si Si5 0.676524 0.847026 0.730675
Si Si6 0.670222 0.834060 0.927550
O O1 0.163538 0.510992 0.061167
O O2 0.205502 0.270995 0.154922
O O3 0.000000 0.280226 0.035921
O O4 0.287129 0.279794 0.989253
O O5 0.221978 0.284201 0.662798
O O6 0.218039 0.205152 0.827774
O O7 0.000000 0.127926 0.722390
O O8 0.255088 0.005572 0.707549
O O9 0.000000 0.729362 0.112693
O O10 0.220089 0.772916 0.000223
O O11 0.000000 0.777502 0.373114
O O12 0.833658 0.987716 0.431496
O O13 0.500000 0.869222 0.739163
O O14 0.725312 0.796147 0.828435
O O15 0.500000 0.780330 0.941071
#
# Coordination Sequence:
#
# PCOD9343618 Si02
#       6
#     4   4   4   4   4   4
#     4  10  22  38  56  82 115 150 186 225 273 328
#     4  11  22  37  59  85 111 142 185 232 277 329
#     4  11  23  37  54  81 117 153 186 224 275 330
#     4  10  21  38  60  84 110 143 185 231 279 329
#     4   9  19  38  61  82 108 143 185 232 278 325
#     4   9  19  36  58  84 109 141 187 232 276 327
#
# _framework density 19.753086
#
# number of rings (size 3 to 8) (size 9 to 14) (size 15 to 20)
#    0.000    2.000    0.000    4.500    0.000    9.333 
#    0.000    1.667    0.000    0.000    0.000    0.000 
#    0.000    0.000    0.000    0.000    0.000    0.000 
#
# Total GULP energy -133883.289042 kJ/mol
# GULP energy per Si atom -5578.470377 kJ/mol
# Density = 1.970813 g / cm^3
# Si number density = 19.753086 Si / 1000 Ang^3
#
#
#
# Elastic Constant Matrix: (Units=GPa)
#
#
# Indices 1 2 3 4 5 6 
#
# 1 -30.5918 12.1164 35.9824 0.0000 0.0000 0.0000
# 2 12.1164 -20.4651 57.4408 0.0000 0.0000 0.0000
# 3 35.9824 57.4408 37.4348 0.0000 0.0000 0.0000
# 4 0.0000 0.0000 0.0000 46.8622 0.0000 0.0000
# 5 0.0000 0.0000 0.0000 0.0000 28.6043 0.0000
# 6 0.0000 0.0000 0.0000 0.0000 0.0000 17.0053
#
#
#
# Elastic Compliance Matrix: (Units=1/GPa)
#
#
# Indices 1 2 3 4 5 6 
#
# 1 -0.020800 0.008254 0.007328 0.000000 0.000000 0.000000
# 2 0.008254 -0.012483 0.011221 0.000000 0.000000 0.000000
# 3 0.007328 0.011221 0.002452 0.000000 0.000000 0.000000
# 4 0.000000 0.000000 0.000000 0.021339 0.000000 0.000000
# 5 0.000000 0.000000 0.000000 0.000000 0.034960 0.000000
# 6 0.000000 0.000000 0.000000 0.000000 0.000000 0.058805
#
#
# Mechanical properties :
#
#
# Convention : Reuss Voigt Hill
#
# Bulk Modulus (GPa) = 43.90919 21.93969 32.92444
# Shear Modulus (GPa) = 130.68816 10.55026 70.61921
#
# Velocity S-wave (km/s) = 8.14276 2.31358 5.98570
# Velocity P-wave (km/s) = 10.52061 4.27410 8.02967
#
# Compressibility (1/GPa) = 0.02277428
#
# Stress axis : x y z
#
# Youngs Moduli (GPa) = -48.07696 -80.10851 407.83901
#
# Poissons Ratio (x) = 0.66120 -2.98871
# Poissons Ratio (y) = 0.39682 -4.57624
# Poissons Ratio (z) = 0.35232 0.89887
#
# Static dielectric constant tensor:
#      x y z
#    x 1.674740 0.000000 0.000000 
#    y 0.000000 1.647040 0.000000 
#    z 0.000000 0.000000 1.729090 
# 
# From -- ./inp_files/4731.got.cif
#   From: 2010.05.17/outbox.ucp.g08.bks.cvg/sg31_3_cif.got.tgz:4731.got - 2010.06.11 10:34:26.
