data_PCOD9343436
_publ_section_title
;
Structure prediction by ZEFSAII (Michael W. Deem and Ramdas Pophale) SiO2 
 PCOD9343436
Probable space group: P M N 21
;
_chemical_formula_sum "Si O2"
_cell_formula_units_Z 24
_cell_length_a 21.652462
_cell_length_b 4.870087
_cell_length_c 8.940057
_cell_angle_alpha 90.000000
_cell_angle_beta 90.000000
_cell_angle_gamma 90.000000
_cell_volume 942.723412
_symmetry_space_group_name_H-M "P M N 21"
_symmetry_group_IT_number 31
_symmetry_cell_setting 'orthorhombic'
loop_
_space_group_symop_operation_xyz
x,y,z
1/2-x,-y,1/2+z
-x,y,z
1/2+x,-y,1/2+z
loop_
_atom_site_type_symbol
_atom_site_label
_atom_site_fract_x
_atom_site_fract_y
_atom_site_fract_z
Si Si1 0.064970 0.865243 0.608520
Si Si2 0.337666 0.409667 0.428518
Si Si3 0.928057 0.738886 0.152612
Si Si4 0.809356 0.074679 0.102303
Si Si5 0.816831 0.186648 0.663618
Si Si6 0.401581 0.653977 0.929304
O O1 0.176120 0.437348 0.776713
O O2 0.072283 0.555541 0.555501
O O3 0.000000 0.906487 0.687710
O O4 0.124784 0.983196 0.689009
O O5 0.408251 0.383403 0.488964
O O6 0.308571 0.609521 0.557676
O O7 0.414966 0.493038 0.777917
O O8 0.310941 0.109130 0.452236
O O9 0.000000 0.818895 0.154244
O O10 0.874082 0.971281 0.175045
O O11 0.934184 0.056081 0.458948
O O12 0.747773 0.965728 0.176844
O O13 0.831804 0.292331 0.491585
#
# Coordination Sequence:
#
# PCOD9343436 Si02
#       6
#     4   4   4   4   4   4
#     4  10  22  37  61  95 129 167 215 267 322 377
#     4  10  26  44  65  98 129 173 216 266 330 390
#     4  10  24  43  67  95 134 173 219 269 326 392
#     4  10  26  41  68  95 132 169 219 261 333 383
#     4  10  26  42  72  93 137 165 225 269 328 386
#     4  10  24  39  67  96 127 171 218 268 323 382
#
# _framework density 25.458157
#
# number of rings (size 3 to 8) (size 9 to 14) (size 15 to 20)
#    2.000    0.000    0.000    1.500    9.333    2.667 
#    0.000    1.667    0.000    0.000    0.000    0.000 
#    0.000    0.000    0.000    0.000    0.000    0.000 
#
# Total GULP energy -133869.617798 kJ/mol
# GULP energy per Si atom -5577.900742 kJ/mol
# Density = 2.540021 g / cm^3
# Si number density = 25.458157 Si / 1000 Ang^3
#
#
#
# Elastic Constant Matrix: (Units=GPa)
#
#
# Indices 1 2 3 4 5 6 
#
# 1 170.0434 13.7862 44.7324 0.0000 0.0000 0.0000
# 2 13.7862 88.7047 -15.1543 0.0000 0.0000 0.0000
# 3 44.7324 -15.1543 64.5418 0.0000 0.0000 0.0000
# 4 0.0000 0.0000 0.0000 40.5048 0.0000 0.0000
# 5 0.0000 0.0000 0.0000 0.0000 22.2591 0.0000
# 6 0.0000 0.0000 0.0000 0.0000 0.0000 12.8799
#
#
#
# Elastic Compliance Matrix: (Units=1/GPa)
#
#
# Indices 1 2 3 4 5 6 
#
# 1 0.007569 -0.002159 -0.005753 0.000000 0.000000 0.000000
# 2 -0.002159 0.012360 0.004399 0.000000 0.000000 0.000000
# 3 -0.005753 0.004399 0.020514 0.000000 0.000000 0.000000
# 4 0.000000 0.000000 0.000000 0.024688 0.000000 0.000000
# 5 0.000000 0.000000 0.000000 0.000000 0.044926 0.000000
# 6 0.000000 0.000000 0.000000 0.000000 0.000000 0.077640
#
#
# Mechanical properties :
#
#
# Convention : Reuss Voigt Hill
#
# Bulk Modulus (GPa) = 29.92536 45.55759 37.74148
# Shear Modulus (GPa) = 24.28786 33.79047 29.03916
#
# Velocity S-wave (km/s) = 3.09209 3.64716 3.38103
# Velocity P-wave (km/s) = 4.95260 5.97240 5.48625
#
# Compressibility (1/GPa) = 0.03341647
#
# Stress axis : x y z
#
# Youngs Moduli (GPa) = 132.11161 80.90339 48.74716
#
# Poissons Ratio (x) = 0.17469 0.28045
# Poissons Ratio (y) = 0.28526 -0.21443
# Poissons Ratio (z) = 0.76006 -0.35587
#
# Static dielectric constant tensor:
#      x y z
#    x 2.025430 0.000000 0.000000 
#    y 0.000000 1.961860 0.000000 
#    z 0.000000 0.000000 2.162900 
# 
# From -- ./inp_files/3043.got.cif
#   From: 2010.05.17/outbox.cif.g08.bks.cpg/sg31_2_cif.got.tgz:3043.got - 2010.06.03 17:08:30.
