data_PCOD9343430
_publ_section_title
;
Structure prediction by ZEFSAII (Michael W. Deem and Ramdas Pophale) SiO2 
 PCOD9343430
Probable space group: P M N 21
;
_chemical_formula_sum "Si O2"
_cell_formula_units_Z 32
_cell_length_a 25.034911
_cell_length_b 11.356971
_cell_length_c 5.088523
_cell_angle_alpha 90.000000
_cell_angle_beta 90.000000
_cell_angle_gamma 90.000000
_cell_volume 1446.772718
_symmetry_space_group_name_H-M "P M N 21"
_symmetry_group_IT_number 31
_symmetry_cell_setting 'orthorhombic'
loop_
_space_group_symop_operation_xyz
x,y,z
1/2-x,-y,1/2+z
-x,y,z
1/2+x,-y,1/2+z
loop_
_atom_site_type_symbol
_atom_site_label
_atom_site_fract_x
_atom_site_fract_y
_atom_site_fract_z
Si Si1 0.375850 0.786122 0.198300
Si Si2 0.340323 0.256963 0.925577
Si Si3 0.737778 0.128440 0.560727
Si Si4 0.063326 0.610533 0.197391
Si Si5 0.938057 0.453957 0.715679
Si Si6 0.216152 0.505017 0.479983
Si Si7 0.812810 0.265652 0.207862
Si Si8 0.659275 0.020438 0.243986
O O1 0.414053 0.675829 0.231783
O O2 0.328484 0.755661 0.408055
O O3 0.358620 0.787645 0.894361
O O4 0.386863 0.923371 0.255762
O O5 0.287958 0.220666 0.758888
O O6 0.394388 0.287218 0.764716
O O7 0.321564 0.383902 0.036305
O O8 0.352385 0.145706 0.112701
O O9 0.758642 0.202184 0.307819
O O10 0.787763 0.043830 0.620641
O O11 0.685196 0.048605 0.523478
O O12 0.066277 0.514747 0.432218
O O13 0.000000 0.645825 0.175769
O O14 0.082596 0.544727 0.934544
O O15 0.000000 0.441769 0.779892
O O16 0.238510 0.464265 0.762216
O O17 0.189070 0.398300 0.319770
#
# Coordination Sequence:
#
# PCOD9343430 Si02
#       8
#     4   4   4   4   4   4   4   4
#     4  11  23  39  64  91 121 168 211 261 314 380
#     4  12  25  40  63  91 132 177 216 272 328 392
#     4  11  22  40  57  86 126 179 216 259 306 388
#     4  10  24  45  71  99 126 165 216 275 338 398
#     4  10  21  44  71  98 127 159 211 276 342 399
#     4  12  24  37  56  91 127 158 208 261 326 389
#     4  11  23  39  60  87 130 162 212 263 316 383
#     4  11  24  38  60  87 131 176 222 255 314 391
#
# _framework density 22.118195
#
# number of rings (size 3 to 8) (size 9 to 14) (size 15 to 20)
#    0.000    1.000    2.500    4.500    7.000    0.000 
#    0.000    0.625    0.000    0.750    0.000    0.000 
#    0.000    0.000    0.000    0.000    0.000    0.000 
#
# Total GULP energy -178468.715856 kJ/mol
# GULP energy per Si atom -5577.147370 kJ/mol
# Density = 2.206785 g / cm^3
# Si number density = 22.118195 Si / 1000 Ang^3
#
#
#
# Elastic Constant Matrix: (Units=GPa)
#
#
# Indices 1 2 3 4 5 6 
#
# 1 58.9573 30.8374 21.5180 0.0000 0.0000 0.0000
# 2 30.8374 121.6671 10.4497 0.0000 0.0000 0.0000
# 3 21.5180 10.4497 72.7039 0.0000 0.0000 0.0000
# 4 0.0000 0.0000 0.0000 32.5753 0.0000 0.0000
# 5 0.0000 0.0000 0.0000 0.0000 22.1038 0.0000
# 6 0.0000 0.0000 0.0000 0.0000 0.0000 33.6657
#
#
#
# Elastic Compliance Matrix: (Units=1/GPa)
#
#
# Indices 1 2 3 4 5 6 
#
# 1 0.021653 -0.004999 -0.005690 0.000000 0.000000 0.000000
# 2 -0.004999 0.009476 0.000118 0.000000 0.000000 0.000000
# 3 -0.005690 0.000118 0.015422 0.000000 0.000000 0.000000
# 4 0.000000 0.000000 0.000000 0.030698 0.000000 0.000000
# 5 0.000000 0.000000 0.000000 0.000000 0.045241 0.000000
# 6 0.000000 0.000000 0.000000 0.000000 0.000000 0.029704
#
#
# Mechanical properties :
#
#
# Convention : Reuss Voigt Hill
#
# Bulk Modulus (GPa) = 39.35888 42.10427 40.73157
# Shear Modulus (GPa) = 27.50174 30.37049 28.93612
#
# Velocity S-wave (km/s) = 3.53001 3.70956 3.62090
# Velocity P-wave (km/s) = 5.86925 6.11761 5.99471
#
# Compressibility (1/GPa) = 0.02540723
#
# Stress axis : x y z
#
# Youngs Moduli (GPa) = 46.18277 105.52766 64.84424
#
# Poissons Ratio (x) = 0.52758 0.36897
# Poissons Ratio (y) = 0.23089 -0.00763
# Poissons Ratio (z) = 0.26278 -0.01242
#
# Static dielectric constant tensor:
#      x y z
#    x 1.866790 0.000000 0.000000 
#    y 0.000000 1.902800 0.000000 
#    z 0.000000 0.000000 1.914280 
# 
# From -- ./inp_files/1146.got.cif
#   From: 2010.05.17/outbox.cif.g08.bks.cpg/sg31_1_cif.got.tgz:1146.got - 2010.06.03 17:08:30.
