data_PCOD9343590
_publ_section_title
;
Structure prediction by ZEFSAII (Michael W. Deem and Ramdas Pophale) SiO2 
 PCOD9343590
Probable space group: P M N 21
;
_chemical_formula_sum "Si O2"
_cell_formula_units_Z 24
_cell_length_a 26.639548
_cell_length_b 8.886547
_cell_length_c 5.031497
_cell_angle_alpha 90.000000
_cell_angle_beta 90.000000
_cell_angle_gamma 90.000000
_cell_volume 1191.124375
_symmetry_space_group_name_H-M "P M N 21"
_symmetry_group_IT_number 31
_symmetry_cell_setting 'orthorhombic'
loop_
_space_group_symop_operation_xyz
x,y,z
1/2-x,-y,1/2+z
-x,y,z
1/2+x,-y,1/2+z
loop_
_atom_site_type_symbol
_atom_site_label
_atom_site_fract_x
_atom_site_fract_y
_atom_site_fract_z
Si Si1 0.245271 0.605619 0.637850
Si Si2 0.897224 0.388636 0.775440
Si Si3 0.000000 0.028054 0.121676
Si Si4 0.891693 0.911835 0.276748
Si Si5 0.364124 0.274657 0.277093
Si Si6 0.652543 0.754784 0.778818
Si Si7 0.000000 0.231846 0.621531
O O1 0.248302 0.530793 0.348381
O O2 0.192450 0.685409 0.690723
O O3 0.291028 0.719637 0.688691
O O4 0.893310 0.567557 0.774518
O O5 0.857814 0.318721 0.565247
O O6 0.950727 0.326982 0.684615
O O7 0.883011 0.328249 0.065467
O O8 0.000000 0.170573 0.322422
O O9 0.948987 0.939632 0.186244
O O10 0.000000 0.089312 0.821673
O O11 0.888139 0.839273 0.566388
O O12 0.863219 0.071539 0.280115
O O13 0.866307 0.800133 0.065735
#
# Coordination Sequence:
#
# PCOD9343590 Si02
#       7
#     4   4   2   4   4   4   2
#     4  12  23  43  73  98 132 184 226 275 341 398
#     4  12  23  42  70  99 130 172 231 280 321 400
#     4  12  24  44  70  94 136 186 220 264 354 406
#     4  12  26  43  67 100 142 174 219 285 343 401
#     4  12  26  43  67 104 141 171 221 288 342 392
#     4  12  23  44  70 100 131 180 228 271 329 411
#     4  12  22  42  72 100 120 180 238 274 318 410
#
# _framework density 20.14903
#
# number of rings (size 3 to 8) (size 9 to 14) (size 15 to 20)
#    0.000    0.000    6.667    4.000    0.000    2.667 
#    0.000    0.000    0.000    0.000    0.000    0.000 
#    0.000    0.000    0.000    0.000    0.000    0.000 
#
# Total GULP energy -134409.434797 kJ/mol
# GULP energy per Si atom -5600.393117 kJ/mol
# Density = 2.010317 g / cm^3
# Si number density = 20.149030 Si / 1000 Ang^3
#
#
#
# Elastic Constant Matrix: (Units=GPa)
#
#
# Indices 1 2 3 4 5 6 
#
# 1 71.4394 24.9229 -17.9839 0.0000 0.0000 0.0000
# 2 24.9229 66.1577 -11.4438 0.0000 0.0000 0.0000
# 3 -17.9839 -11.4438 58.7911 0.0000 0.0000 0.0000
# 4 0.0000 0.0000 0.0000 30.6327 0.0000 0.0000
# 5 0.0000 0.0000 0.0000 0.0000 24.6574 0.0000
# 6 0.0000 0.0000 0.0000 0.0000 0.0000 19.9676
#
#
#
# Elastic Compliance Matrix: (Units=1/GPa)
#
#
# Indices 1 2 3 4 5 6 
#
# 1 0.017018 -0.005703 0.004096 0.000000 0.000000 0.000000
# 2 -0.005703 0.017553 0.001672 0.000000 0.000000 0.000000
# 3 0.004096 0.001672 0.018588 0.000000 0.000000 0.000000
# 4 0.000000 0.000000 0.000000 0.032645 0.000000 0.000000
# 5 0.000000 0.000000 0.000000 0.000000 0.040556 0.000000
# 6 0.000000 0.000000 0.000000 0.000000 0.000000 0.050081
#
#
# Mechanical properties :
#
#
# Convention : Reuss Voigt Hill
#
# Bulk Modulus (GPa) = 18.76522 20.81983 19.79253
# Shear Modulus (GPa) = 25.76344 28.44440 27.10392
#
# Velocity S-wave (km/s) = 3.57969 3.76134 3.67164
# Velocity P-wave (km/s) = 5.13994 5.40545 5.27437
#
# Compressibility (1/GPa) = 0.05329006
#
# Stress axis : x y z
#
# Youngs Moduli (GPa) = 58.75985 56.97042 53.79875
#
# Poissons Ratio (x) = 0.32488 -0.22035
# Poissons Ratio (y) = 0.33509 -0.08997
# Poissons Ratio (z) = -0.24067 -0.09527
#
# Static dielectric constant tensor:
#      x y z
#    x 1.705370 0.000000 0.000000 
#    y 0.000000 1.670870 0.000000 
#    z 0.000000 0.000000 1.677170 
# 
# From -- ./inp_files/1096.got.cif
#   From: 2010.05.17/outbox.cif.g08.bks.cpg/sg31_1_cif.got.tgz:1096.got - 2010.06.03 17:08:30.
