data_PCOD9343468
_publ_section_title
;
Structure prediction by ZEFSAII (Michael W. Deem and Ramdas Pophale) SiO2 
 PCOD9343468
Probable space group: P M N 21
;
_chemical_formula_sum "Si O2"
_cell_formula_units_Z 12
_cell_length_a 11.194629
_cell_length_b 4.802722
_cell_length_c 8.250856
_cell_angle_alpha 90.000000
_cell_angle_beta 90.000000
_cell_angle_gamma 90.000000
_cell_volume 443.604723
_symmetry_space_group_name_H-M "P M N 21"
_symmetry_group_IT_number 31
_symmetry_cell_setting 'orthorhombic'
loop_
_space_group_symop_operation_xyz
x,y,z
1/2-x,-y,1/2+z
-x,y,z
1/2+x,-y,1/2+z
loop_
_atom_site_type_symbol
_atom_site_label
_atom_site_fract_x
_atom_site_fract_y
_atom_site_fract_z
Si Si1 0.873088 0.387433 0.721910
Si Si2 0.634691 0.713021 0.730280
Si Si3 0.677742 0.132369 0.014337
O O1 0.744167 0.504257 0.779792
O O2 0.879878 0.574574 0.557812
O O3 0.000000 0.435925 0.807859
O O4 0.862120 0.072748 0.662183
O O5 0.500000 0.604513 0.720577
O O6 0.680980 0.825884 0.554017
O O7 0.640648 0.968261 0.855880
#
# Coordination Sequence:
#
# PCOD9343468 Si02
#       3
#     4   4   4
#     4  10  22  40  64  92 125 166 211 257 315 375
#     4  10  24  43  67  95 130 168 213 263 318 378
#     4  10  24  41  67  93 127 168 212 258 319 377
#
# _framework density 27.051110000000001
#
# number of rings (size 3 to 8) (size 9 to 14) (size 15 to 20)
#    2.000    0.000    0.000    3.000    4.667    2.667 
#    0.000    3.333    0.000    0.000    0.000    0.000 
#    0.000    0.000    0.000    0.000    0.000    0.000 
#
# Total GULP energy -66923.450377 kJ/mol
# GULP energy per Si atom -5576.954198 kJ/mol
# Density = 2.698954 g / cm^3
# Si number density = 27.051110 Si / 1000 Ang^3
#
#
#
# Elastic Constant Matrix: (Units=GPa)
#
#
# Indices 1 2 3 4 5 6 
#
# 1 300.9761 25.5889 44.9790 0.0000 0.0000 0.0000
# 2 25.5889 89.4483 -15.6857 0.0000 0.0000 0.0000
# 3 44.9790 -15.6857 55.8739 0.0000 0.0000 0.0000
# 4 0.0000 0.0000 0.0000 37.3879 0.0000 0.0000
# 5 0.0000 0.0000 0.0000 0.0000 23.4824 0.0000
# 6 0.0000 0.0000 0.0000 0.0000 0.0000 21.4101
#
#
#
# Elastic Compliance Matrix: (Units=1/GPa)
#
#
# Indices 1 2 3 4 5 6 
#
# 1 0.004039 -0.001815 -0.003761 0.000000 0.000000 0.000000
# 2 -0.001815 0.012574 0.004991 0.000000 0.000000 0.000000
# 3 -0.003761 0.004991 0.022326 0.000000 0.000000 0.000000
# 4 0.000000 0.000000 0.000000 0.026747 0.000000 0.000000
# 5 0.000000 0.000000 0.000000 0.000000 0.042585 0.000000
# 6 0.000000 0.000000 0.000000 0.000000 0.000000 0.046707
#
#
# Mechanical properties :
#
#
# Convention : Reuss Voigt Hill
#
# Bulk Modulus (GPa) = 26.47639 61.78474 44.13057
# Shear Modulus (GPa) = 29.63194 42.55050 36.09122
#
# Velocity S-wave (km/s) = 3.31328 3.97037 3.65661
# Velocity P-wave (km/s) = 4.94428 6.62631 5.84611
#
# Compressibility (1/GPa) = 0.03776950
#
# Stress axis : x y z
#
# Youngs Moduli (GPa) = 247.59478 79.52879 44.79064
#
# Poissons Ratio (x) = 0.14434 0.16845
# Poissons Ratio (y) = 0.44936 -0.22355
# Poissons Ratio (z) = 0.93116 -0.39693
#
# Static dielectric constant tensor:
#      x y z
#    x 2.216840 0.000000 0.000000 
#    y 0.000000 2.047770 0.000000 
#    z 0.000000 0.000000 2.288980 
# 
# From -- ./inp_files/1904.got.cif
#   From: 2010.05.17/outbox.cif.g08.bks.cpg/sg31_1_cif.got.tgz:1904.got - 2010.06.03 17:08:30.
