data_PCOD9343988
_publ_section_title
;
Structure prediction by ZEFSAII (Michael W. Deem and Ramdas Pophale) SiO2 
 PCOD9343988
Probable space group: P B A 2
;
_chemical_formula_sum "Si O2"
_cell_formula_units_Z 30
_cell_length_a 19.858803
_cell_length_b 12.067405
_cell_length_c 5.411428
_cell_angle_alpha 90.000000
_cell_angle_beta 90.000000
_cell_angle_gamma 90.000000
_cell_volume 1296.817435
_symmetry_space_group_name_H-M "P B A 2"
_symmetry_group_IT_number 32
_symmetry_cell_setting 'orthorhombic'
loop_
_space_group_symop_operation_xyz
x,y,z
-x,-y,z
1/2-x,1/2+y,z
1/2+x,1/2-y,z
loop_
_atom_site_type_symbol
_atom_site_label
_atom_site_fract_x
_atom_site_fract_y
_atom_site_fract_z
Si Si1 0.955935 0.764113 0.859010
Si Si2 0.250401 0.022071 0.549695
Si Si3 0.123679 0.884745 0.500351
Si Si4 0.699667 0.785904 0.862874
Si Si5 0.366302 0.049191 0.191646
Si Si6 0.819238 0.655431 0.911213
Si Si7 0.469391 0.202837 0.344929
Si Si8 0.500000 0.500000 0.773058
O O1 0.877295 0.738571 0.826866
O O2 0.992595 0.728559 0.602229
O O3 0.971020 0.893408 0.911756
O O4 0.985321 0.704117 0.101067
O O5 0.181772 0.973085 0.439840
O O6 0.290280 0.923051 0.692196
O O7 0.249327 0.126246 0.733983
O O8 0.297925 0.068221 0.338630
O O9 0.160734 0.800850 0.689627
O O10 0.087263 0.800601 0.312798
O O11 0.062424 0.953595 0.616148
O O12 0.752285 0.712919 0.023068
O O13 0.641452 0.864241 0.969110
O O14 0.429434 0.086656 0.351273
O O15 0.358081 0.926015 0.096484
#
# Coordination Sequence:
#
# PCOD9343988 Si02
#       8
#     4   4   4   4   4   4   4   2
#     4  11  26  48  70 102 142 186 236 290 353 427
#     4  10  22  41  69  97 133 181 237 288 353 414
#     4  10  21  43  69  98 138 181 231 289 351 422
#     4  10  21  44  66  97 141 179 232 301 352 413
#     4  11  23  41  65 102 127 185 234 281 360 411
#     4  10  25  42  66 101 139 180 236 296 346 418
#     4  11  25  46  70  97 143 187 227 291 352 428
#     4  10  22  44  72 100 136 186 232 280 360 424
#
# _framework density 23.133557
#
# number of rings (size 3 to 8) (size 9 to 14) (size 15 to 20)
#    0.000    1.600    1.333    2.400    5.600    2.667 
#   12.000    0.000    0.000    0.000    0.000    0.000 
#    0.000    0.000    0.000    0.000    0.000    0.000 
#
# Total GULP energy -167403.819120 kJ/mol
# GULP energy per Si atom -5580.127304 kJ/mol
# Density = 2.308090 g / cm^3
# Si number density = 23.133557 Si / 1000 Ang^3
#
#
#
# Elastic Constant Matrix: (Units=GPa)
#
#
# Indices 1 2 3 4 5 6 
#
# 1 130.1095 45.5044 16.5481 0.0000 0.0000 0.0000
# 2 45.5044 71.4244 6.7297 0.0000 0.0000 0.0000
# 3 16.5481 6.7297 49.2885 0.0000 0.0000 0.0000
# 4 0.0000 0.0000 0.0000 -41.0987 0.0000 0.0000
# 5 0.0000 0.0000 0.0000 0.0000 28.7376 0.0000
# 6 0.0000 0.0000 0.0000 0.0000 0.0000 30.6782
#
#
#
# Elastic Compliance Matrix: (Units=1/GPa)
#
#
# Indices 1 2 3 4 5 6 
#
# 1 0.010201 -0.006257 -0.002571 0.000000 0.000000 0.000000
# 2 -0.006257 0.018021 -0.000360 0.000000 0.000000 0.000000
# 3 -0.002571 -0.000360 0.021201 0.000000 0.000000 0.000000
# 4 0.000000 0.000000 0.000000 -0.024332 0.000000 0.000000
# 5 0.000000 0.000000 0.000000 0.000000 0.034798 0.000000
# 6 0.000000 0.000000 0.000000 0.000000 0.000000 0.032596
#
#
# Mechanical properties :
#
#
# Convention : Reuss Voigt Hill
#
# Bulk Modulus (GPa) = 32.20790 43.15408 37.68099
# Shear Modulus (GPa) = 41.25097 15.79945 28.52521
#
# Velocity S-wave (km/s) = 4.22734 2.61620 3.51531
# Velocity P-wave (km/s) = 6.14654 5.27454 5.72716
#
# Compressibility (1/GPa) = 0.03104828
#
# Stress axis : x y z
#
# Youngs Moduli (GPa) = 98.02916 55.49091 47.16785
#
# Poissons Ratio (x) = 0.34720 0.12125
# Poissons Ratio (y) = 0.61336 0.01697
# Poissons Ratio (z) = 0.25199 0.01997
#
# Static dielectric constant tensor:
#      x y z
#    x 1.823930 0.000000 0.000000 
#    y 0.000000 2.225480 0.000000 
#    z 0.000000 0.000000 1.968800 
# 
# From -- ./inp_files/1600.got.cif
#   From: 2010.05.17/outbox.cif.g08.bks.cpg/sg32_1_cif.got.tgz:1600.got - 2010.06.03 17:12:27.
