data_PCOD9343924
_publ_section_title
;
Structure prediction by ZEFSAII (Michael W. Deem and Ramdas Pophale) SiO2 
 PCOD9343924
Probable space group: P B A 2
;
_chemical_formula_sum "Si O2"
_cell_formula_units_Z 20
_cell_length_a 9.873866
_cell_length_b 14.341633
_cell_length_c 7.234479
_cell_angle_alpha 90.000000
_cell_angle_beta 90.000000
_cell_angle_gamma 90.000000
_cell_volume 1024.455490
_symmetry_space_group_name_H-M "P B A 2"
_symmetry_group_IT_number 32
_symmetry_cell_setting 'orthorhombic'
loop_
_space_group_symop_operation_xyz
x,y,z
-x,-y,z
1/2-x,1/2+y,z
1/2+x,1/2-y,z
loop_
_atom_site_type_symbol
_atom_site_label
_atom_site_fract_x
_atom_site_fract_y
_atom_site_fract_z
Si Si1 0.298017 0.110371 0.185470
Si Si2 1.000000 0.388279 0.864936
Si Si3 0.000000 0.892250 0.301514
Si Si4 0.701983 0.110371 0.185470
Si Si5 0.500000 0.203393 0.467795
O O1 0.137452 0.123821 0.187344
O O2 0.371722 0.165176 0.350551
O O3 0.324156 0.000000 0.215973
O O4 0.371101 0.135136 0.994046
O O5 1.000000 0.336386 0.672075
O O6 0.000000 0.500000 0.832300
O O7 0.128899 0.364864 0.994046
O O8 0.000000 0.815084 0.460744
O O9 0.862548 0.123821 0.187344
O O10 0.000000 0.000000 0.364557
O O11 0.628278 0.165176 0.350551
#
# Coordination Sequence:
#
# PCOD9343924 Si02
#       5
#     4   4   4   4   4
#     4   9  19  37  60  86 117 149 186 236 288 340
#     4   9  18  35  63  91 111 144 194 239 281 336
#     4  10  21  38  58  83 119 156 187 232 290 335
#     4   9  19  37  60  86 117 149 186 236 288 340
#     4  11  19  35  61  86 114 152 195 233 277 341
#
# _framework density 19.522566999999999
#
# number of rings (size 3 to 8) (size 9 to 14) (size 15 to 20)
#    0.000    2.400    0.000    4.200    0.000    0.000 
#    0.000   18.000    0.000   21.600    0.000    0.000 
#    0.000    0.000    0.000    0.000    0.000    0.000 
#
# Total GULP energy -111663.405735 kJ/mol
# GULP energy per Si atom -5583.170287 kJ/mol
# Density = 1.947813 g / cm^3
# Si number density = 19.522567 Si / 1000 Ang^3
#
#
#
# Elastic Constant Matrix: (Units=GPa)
#
#
# Indices 1 2 3 4 5 6 
#
# 1 175.4998 54.2436 73.1833 0.0000 0.0000 0.0000
# 2 54.2436 109.0782 83.7338 0.0000 0.0000 0.0000
# 3 73.1833 83.7338 167.7995 0.0000 0.0000 0.0000
# 4 0.0000 0.0000 0.0000 21.4497 0.0000 0.0000
# 5 0.0000 0.0000 0.0000 0.0000 0.8644 0.0000
# 6 0.0000 0.0000 0.0000 0.0000 0.0000 17.6409
#
#
#
# Elastic Compliance Matrix: (Units=1/GPa)
#
#
# Indices 1 2 3 4 5 6 
#
# 1 0.007199 -0.001896 -0.002193 0.000000 0.000000 0.000000
# 2 -0.001896 0.015360 -0.006838 0.000000 0.000000 0.000000
# 3 -0.002193 -0.006838 0.010328 0.000000 0.000000 0.000000
# 4 0.000000 0.000000 0.000000 0.046621 0.000000 0.000000
# 5 0.000000 0.000000 0.000000 0.000000 1.156902 0.000000
# 6 0.000000 0.000000 0.000000 0.000000 0.000000 0.056687
#
#
# Mechanical properties :
#
#
# Convention : Reuss Voigt Hill
#
# Bulk Modulus (GPa) = 90.64425 97.18879 93.91652
# Shear Modulus (GPa) = 3.79182 24.07210 13.93196
#
# Velocity S-wave (km/s) = 1.39517 3.51528 2.67429
# Velocity P-wave (km/s) = 7.00904 8.14660 7.59913
#
# Compressibility (1/GPa) = 0.01103214
#
# Stress axis : x y z
#
# Youngs Moduli (GPa) = 138.91358 65.10612 96.82223
#
# Poissons Ratio (x) = 0.12344 0.21238
# Poissons Ratio (y) = 0.26339 0.66204
# Poissons Ratio (z) = 0.30470 0.44517
#
# Static dielectric constant tensor:
#      x y z
#    x 1.714110 0.000000 0.000000 
#    y 0.000000 1.723370 0.000000 
#    z 0.000000 0.000000 1.606560 
# 
# From -- ./inp_files/807.got.cif
#   From: 2010.05.17/outbox.cif.g08.bks.cpg/sg32_1_cif.got.tgz:807.got - 2010.06.03 17:12:27.
