data_PCOD9343242
_publ_section_title
;
Structure prediction by ZEFSAII (Michael W. Deem and Ramdas Pophale) SiO2 
 PCOD9343242
Probable space group: P M N 21
;
_chemical_formula_sum "Si O2"
_cell_formula_units_Z 32
_cell_length_a 7.692685
_cell_length_b 15.434273
_cell_length_c 12.480778
_cell_angle_alpha 90.000000
_cell_angle_beta 90.000000
_cell_angle_gamma 90.000000
_cell_volume 1481.855258
_symmetry_space_group_name_H-M "P M N 21"
_symmetry_group_IT_number 31
_symmetry_cell_setting 'orthorhombic'
loop_
_space_group_symop_operation_xyz
x,y,z
1/2-x,-y,1/2+z
-x,y,z
1/2+x,-y,1/2+z
loop_
_atom_site_type_symbol
_atom_site_label
_atom_site_fract_x
_atom_site_fract_y
_atom_site_fract_z
Si Si1 0.299557 0.619034 0.368300
Si Si2 0.794366 0.427897 0.317447
Si Si3 0.210973 0.915260 0.824899
Si Si4 0.796962 0.757237 0.197357
Si Si5 0.703918 0.148301 0.105137
Si Si6 0.710779 0.256573 0.453996
Si Si7 0.211067 0.340811 0.105272
Si Si8 0.706620 0.110632 0.872409
O O1 0.500000 0.646657 0.367084
O O2 0.289991 0.515967 0.357708
O O3 0.214883 0.671186 0.270526
O O4 0.224984 0.642641 0.484996
O O5 0.764762 0.343357 0.390848
O O6 0.733018 0.407358 0.196651
O O7 0.000000 0.444075 0.313923
O O8 0.276532 0.907250 0.702608
O O9 0.267870 0.831622 0.893550
O O10 0.000000 0.913101 0.824099
O O11 0.267265 0.008283 0.866696
O O12 0.722218 0.834906 0.271424
O O13 0.000000 0.777530 0.180151
O O14 0.725460 0.744785 0.077504
O O15 0.500000 0.126368 0.096263
O O16 0.723802 0.247141 0.140442
O O17 0.781554 0.140330 0.986868
O O18 0.500000 0.257228 0.453242
O O19 0.000000 0.340908 0.104141
O O20 0.500000 0.129715 0.873529
#
# Coordination Sequence:
#
# PCOD9343242 Si02
#       8
#     4   4   4   4   4   4   4   4
#     4  11  24  41  62  90 120 156 198 243 296 354
#     4  11  24  41  62  90 120 156 198 243 296 354
#     4  10  22  38  59  87 117 154 196 242 293 349
#     4  10  22  41  62  86 120 159 198 243 296 353
#     4  10  20  38  62  85 112 151 202 247 290 346
#     4  10  22  41  62  86 120 159 198 243 296 353
#     4  10  22  40  62  87 116 151 196 247 296 346
#     4  10  22  38  59  87 117 154 196 242 293 349
#
# _framework density 21.594552
#
# number of rings (size 3 to 8) (size 9 to 14) (size 15 to 20)
#    0.000    1.750    2.500    0.750    3.500    3.500 
#    0.000    0.000    0.000    0.000    0.000    0.000 
#    0.000    0.000    0.000    0.000    0.000    0.000 
#
# Total GULP energy -178697.364411 kJ/mol
# GULP energy per Si atom -5584.292638 kJ/mol
# Density = 2.154540 g / cm^3
# Si number density = 21.594552 Si / 1000 Ang^3
#
#
#
# Elastic Constant Matrix: (Units=GPa)
#
#
# Indices 1 2 3 4 5 6 
#
# 1 36.2880 -17.6161 4.6778 0.0000 0.0000 0.0000
# 2 -17.6161 88.1267 21.6135 0.0000 0.0000 0.0000
# 3 4.6778 21.6135 129.3916 0.0000 0.0000 0.0000
# 4 0.0000 0.0000 0.0000 32.4782 0.0000 0.0000
# 5 0.0000 0.0000 0.0000 0.0000 -0.1091 0.0000
# 6 0.0000 0.0000 0.0000 0.0000 0.0000 27.0674
#
#
#
# Elastic Compliance Matrix: (Units=1/GPa)
#
#
# Indices 1 2 3 4 5 6 
#
# 1 0.031139 0.006778 -0.002258 0.000000 0.000000 0.000000
# 2 0.006778 0.013308 -0.002468 0.000000 0.000000 0.000000
# 3 -0.002258 -0.002468 0.008222 0.000000 0.000000 0.000000
# 4 0.000000 0.000000 0.000000 0.030790 0.000000 0.000000
# 5 0.000000 0.000000 0.000000 0.000000 -9.162904 0.000000
# 6 0.000000 0.000000 0.000000 0.000000 0.000000 0.036945
#
#
# Mechanical properties :
#
#
# Convention : Reuss Voigt Hill
#
# Bulk Modulus (GPa) = 17.61380 30.12851 23.87116
# Shear Modulus (GPa) = -0.55385 28.22937 13.83776
#
# Velocity S-wave (km/s) = -0.50699 3.61951 2.53415
# Velocity P-wave (km/s) = 2.79850 5.60803 4.43179
#
# Compressibility (1/GPa) = 0.05677366
#
# Stress axis : x y z
#
# Youngs Moduli (GPa) = 32.11409 75.14546 121.61973
#
# Poissons Ratio (x) = -0.50936 0.27462
# Poissons Ratio (y) = -0.21768 0.30015
# Poissons Ratio (z) = 0.07251 0.18545
#
# Static dielectric constant tensor:
#      x y z
#    x 1.812580 0.000000 0.000000 
#    y 0.000000 1.715840 0.000000 
#    z 0.000000 0.000000 1.802210 
# 
# From -- ./inp_files/3609.got.cif
#   From: 2010.05.17/outbox.cif.g08.bks.cpg/sg31_2_cif.got.tgz:3609.got - 2010.06.03 17:08:30.
