data_PCOD9343725
_publ_section_title
;
Structure prediction by ZEFSAII (Michael W. Deem and Ramdas Pophale) SiO2 
 PCOD9343725
Probable space group: P B A 2
;
_chemical_formula_sum "Si O2"
_cell_formula_units_Z 30
_cell_length_a 5.233349
_cell_length_b 15.307496
_cell_length_c 18.351643
_cell_angle_alpha 90.000000
_cell_angle_beta 90.000000
_cell_angle_gamma 90.000000
_cell_volume 1470.140374
_symmetry_space_group_name_H-M "P B A 2"
_symmetry_group_IT_number 32
_symmetry_cell_setting 'orthorhombic'
loop_
_space_group_symop_operation_xyz
x,y,z
-x,-y,z
1/2-x,1/2+y,z
1/2+x,1/2-y,z
loop_
_atom_site_type_symbol
_atom_site_label
_atom_site_fract_x
_atom_site_fract_y
_atom_site_fract_z
Si Si1 0.675596 0.307960 0.351400
Si Si2 0.945856 0.305912 0.778653
Si Si3 0.262937 0.690691 0.191837
Si Si4 0.248960 0.033225 0.573097
Si Si5 0.500000 0.000000 0.713087
Si Si6 0.437471 0.199268 0.954244
Si Si7 0.753297 0.443886 0.062205
Si Si8 0.181751 0.696817 0.503676
O O1 0.386895 0.270940 0.352509
O O2 0.715677 0.350989 0.272835
O O3 0.744764 0.352392 0.428107
O O4 0.689629 0.253385 0.755980
O O5 0.969796 0.407438 0.753686
O O6 0.937532 0.308612 0.866986
O O7 0.486901 0.763108 0.186403
O O8 0.801879 0.877214 0.127568
O O9 0.261411 0.136558 0.572486
O O10 0.500000 0.000000 0.533220
O O11 0.272046 0.992876 0.653691
O O12 0.000000 0.000000 0.535678
O O13 0.722495 0.228954 0.976032
O O14 0.344767 0.111369 0.992321
O O15 0.500000 0.500000 0.047231
O O16 0.000000 0.500000 0.084197
O O17 0.388598 0.774450 0.504657
#
# Coordination Sequence:
#
# PCOD9343725 Si02
#       8
#     4   4   4   4   2   4   4   4
#     4   8  16  30  53  81 105 143 198 242 289 340
#     4  10  24  42  66  94 120 159 207 246 302 369
#     4  10  19  36  58  78 111 157 195 239 291 350
#     4  10  23  39  53  84 117 155 188 231 300 366
#     4  10  26  42  66  88 134 154 202 256 308 366
#     4  10  21  42  62  85 114 152 199 238 284 354
#     4  12  24  36  55  89 120 150 192 241 298 351
#     4  10  19  35  59  84 111 148 200 252 285 351
#
# _framework density 20.406216000000001
#
# number of rings (size 3 to 8) (size 9 to 14) (size 15 to 20)
#    0.400    1.600    0.000    3.200    2.800    1.067 
#    0.000    1.333    0.000    0.000    0.000    0.000 
#    0.000    0.000    0.000    0.000    0.000    0.000 
#
# Total GULP energy -167096.449656 kJ/mol
# GULP energy per Si atom -5569.881655 kJ/mol
# Density = 2.035977 g / cm^3
# Si number density = 20.406216 Si / 1000 Ang^3
#
#
#
# Elastic Constant Matrix: (Units=GPa)
#
#
# Indices 1 2 3 4 5 6 
#
# 1 127.2476 29.4320 21.2793 0.0000 0.0000 0.0000
# 2 29.4320 79.2480 29.7341 0.0000 0.0000 0.0000
# 3 21.2793 29.7341 35.5805 0.0000 0.0000 0.0000
# 4 0.0000 0.0000 0.0000 13.8537 0.0000 0.0000
# 5 0.0000 0.0000 0.0000 0.0000 32.5666 0.0000
# 6 0.0000 0.0000 0.0000 0.0000 0.0000 21.6816
#
#
#
# Elastic Compliance Matrix: (Units=1/GPa)
#
#
# Indices 1 2 3 4 5 6 
#
# 1 0.008926 -0.001912 -0.003741 0.000000 0.000000 0.000000
# 2 -0.001912 0.018792 -0.014561 0.000000 0.000000 0.000000
# 3 -0.003741 -0.014561 0.042511 0.000000 0.000000 0.000000
# 4 0.000000 0.000000 0.000000 0.072183 0.000000 0.000000
# 5 0.000000 0.000000 0.000000 0.000000 0.030706 0.000000
# 6 0.000000 0.000000 0.000000 0.000000 0.000000 0.046122
#
#
# Mechanical properties :
#
#
# Convention : Reuss Voigt Hill
#
# Bulk Modulus (GPa) = 33.55448 44.77408 39.16428
# Shear Modulus (GPa) = 18.54590 24.39577 21.47084
#
# Velocity S-wave (km/s) = 3.01796 3.46136 3.24724
# Velocity P-wave (km/s) = 5.35005 6.16147 5.77004
#
# Compressibility (1/GPa) = 0.02980228
#
# Stress axis : x y z
#
# Youngs Moduli (GPa) = 112.02665 53.21474 23.52335
#
# Poissons Ratio (x) = 0.10172 0.08800
# Poissons Ratio (y) = 0.21414 0.34252
# Poissons Ratio (z) = 0.41911 0.77485
#
# Static dielectric constant tensor:
#      x y z
#    x 1.753530 0.000000 0.000000 
#    y 0.000000 1.759120 0.000000 
#    z 0.000000 0.000000 1.785120 
# 
# From -- ./inp_files/4270.got.cif
#   From: 2010.05.17/outbox.cif.g08.bks.cpg/sg32_3_cif.got.tgz:4270.got - 2010.06.03 17:12:27.
