data_PCOD9343446
_publ_section_title
;
Structure prediction by ZEFSAII (Michael W. Deem and Ramdas Pophale) SiO2 
 PCOD9343446
Probable space group: P M N 21
;
_chemical_formula_sum "Si O2"
_cell_formula_units_Z 32
_cell_length_a 7.536045
_cell_length_b 19.533772
_cell_length_c 7.984242
_cell_angle_alpha 90.000000
_cell_angle_beta 90.000000
_cell_angle_gamma 90.000000
_cell_volume 1175.339385
_symmetry_space_group_name_H-M "P M N 21"
_symmetry_group_IT_number 31
_symmetry_cell_setting 'orthorhombic'
loop_
_space_group_symop_operation_xyz
x,y,z
1/2-x,-y,1/2+z
-x,y,z
1/2+x,-y,1/2+z
loop_
_atom_site_type_symbol
_atom_site_label
_atom_site_fract_x
_atom_site_fract_y
_atom_site_fract_z
Si Si1 0.791233 0.264429 0.059330
Si Si2 0.217149 0.020709 0.460271
Si Si3 0.208184 0.607054 0.393873
Si Si4 0.793637 0.891053 0.289790
Si Si5 0.206469 0.136274 0.229031
Si Si6 0.785568 0.477886 0.562330
Si Si7 0.785545 0.775443 0.062424
Si Si8 0.790490 0.353253 0.366458
O O1 0.718146 0.187565 0.085914
O O2 0.713767 0.312211 0.208789
O O3 0.000000 0.255655 0.089512
O O4 0.776031 0.315630 0.904035
O O5 0.281868 0.060444 0.623532
O O6 0.284317 0.065816 0.300923
O O7 0.000000 0.021584 0.461810
O O8 0.277982 0.942374 0.432483
O O9 0.282109 0.554871 0.535724
O O10 0.238657 0.562712 0.228692
O O11 0.000000 0.614962 0.414678
O O12 0.716644 0.819121 0.222204
O O13 0.000000 0.880760 0.323638
O O14 0.220344 0.183888 0.397111
O O15 0.000000 0.123311 0.197624
O O16 0.717725 0.427136 0.415552
O O17 0.000000 0.480684 0.552140
O O18 0.732328 0.697888 0.024590
O O19 0.000000 0.777815 0.067898
O O20 0.000000 0.360737 0.337896
#
# Coordination Sequence:
#
# PCOD9343446 Si02
#       8
#     4   4   4   4   4   4   4   4
#     4   9  17  32  54  77 102 130 161 203 250 291
#     4   9  17  31  50  70  95 130 170 206 242 292
#     4  11  23  37  55  79 103 130 166 203 242 292
#     4   9  18  31  47  71 101 129 162 207 253 293
#     4   8  15  29  49  70  94 129 170 204 237 288
#     4  10  22  39  56  75 102 134 166 202 243 287
#     4   9  16  27  46  72 101 129 159 202 252 294
#     4   9  18  34  55  76  98 129 168 203 239 291
#
# _framework density 27.226179999999999
#
# number of rings (size 3 to 8) (size 9 to 14) (size 15 to 20)
#    0.000    2.750    0.000    2.250    0.000    5.500 
#    0.000    1.250    0.000    4.500    0.000    0.000 
#    0.000    0.000    0.000    0.000    0.000    0.000 
#
# Total GULP energy -178884.546604 kJ/mol
# GULP energy per Si atom -5590.142081 kJ/mol
# Density = 2.716421 g / cm^3
# Si number density = 27.226180 Si / 1000 Ang^3
#
#
#
# Elastic Constant Matrix: (Units=GPa)
#
#
# Indices 1 2 3 4 5 6 
#
# 1 107.5398 14.9116 5.5003 0.0000 0.0000 0.0000
# 2 14.9116 207.0942 7.8768 0.0000 0.0000 0.0000
# 3 5.5003 7.8768 82.9352 0.0000 0.0000 0.0000
# 4 0.0000 0.0000 0.0000 53.7522 0.0000 0.0000
# 5 0.0000 0.0000 0.0000 0.0000 -8.2655 0.0000
# 6 0.0000 0.0000 0.0000 0.0000 0.0000 30.1590
#
#
#
# Elastic Compliance Matrix: (Units=1/GPa)
#
#
# Indices 1 2 3 4 5 6 
#
# 1 0.009419 -0.000657 -0.000562 0.000000 0.000000 0.000000
# 2 -0.000657 0.004892 -0.000421 0.000000 0.000000 0.000000
# 3 -0.000562 -0.000421 0.012135 0.000000 0.000000 0.000000
# 4 0.000000 0.000000 0.000000 0.018604 0.000000 0.000000
# 5 0.000000 0.000000 0.000000 0.000000 -0.120985 0.000000
# 6 0.000000 0.000000 0.000000 0.000000 0.000000 0.033158
#
#
# Mechanical properties :
#
#
# Convention : Reuss Voigt Hill
#
# Bulk Modulus (GPa) = 43.16791 50.46074 46.81433
# Shear Modulus (GPa) = -157.35133 39.74783 -58.80175
#
# Velocity S-wave (km/s) = -7.61049 3.82502 -4.65235
# Velocity P-wave (km/s) = 7.83176 6.17105 3.40988
#
# Compressibility (1/GPa) = 0.02316535
#
# Stress axis : x y z
#
# Youngs Moduli (GPa) = 106.17162 204.41424 82.40700
#
# Poissons Ratio (x) = 0.13426 0.04634
# Poissons Ratio (y) = 0.06973 0.03470
# Poissons Ratio (z) = 0.05970 0.08607
#
# Static dielectric constant tensor:
#      x y z
#    x 2.028000 0.000000 0.000000 
#    y 0.000000 2.203700 0.000000 
#    z 0.000000 0.000000 2.293900 
# 
# From -- ./inp_files/1876.got.cif
#   From: 2010.05.17/outbox.cif.g08.bks.cpg/sg31_1_cif.got.tgz:1876.got - 2010.06.03 17:08:30.
