data_PCOD9343038
_publ_section_title
;
Structure prediction by ZEFSAII (Michael W. Deem and Ramdas Pophale) SiO2 
 PCOD9343038
Probable space group: P M N 21
;
_chemical_formula_sum "Si O2"
_cell_formula_units_Z 32
_cell_length_a 14.473660
_cell_length_b 6.822236
_cell_length_c 16.147611
_cell_angle_alpha 90.000000
_cell_angle_beta 90.000000
_cell_angle_gamma 90.000000
_cell_volume 1594.459101
_symmetry_space_group_name_H-M "P M N 21"
_symmetry_group_IT_number 31
_symmetry_cell_setting 'orthorhombic'
loop_
_space_group_symop_operation_xyz
x,y,z
1/2-x,-y,1/2+z
-x,y,z
1/2+x,-y,1/2+z
loop_
_atom_site_type_symbol
_atom_site_label
_atom_site_fract_x
_atom_site_fract_y
_atom_site_fract_z
Si Si1 0.599634 0.813768 0.222660
Si Si2 0.726749 0.746950 0.970963
Si Si3 0.814763 0.093819 0.885317
Si Si4 0.297870 0.246260 0.740682
Si Si5 0.606799 0.071399 0.065087
Si Si6 0.895584 0.396314 0.321802
Si Si7 0.774304 0.350662 0.039355
Si Si8 0.106155 0.114492 0.169861
O O1 0.500000 0.719302 0.205816
O O2 0.694092 0.689988 0.213189
O O3 0.609099 0.996153 0.160017
O O4 0.605640 0.887487 0.317248
O O5 0.803846 0.888220 0.931230
O O6 0.673954 0.634662 0.897249
O O7 0.654048 0.893345 0.014419
O O8 0.767587 0.583021 0.031328
O O9 0.725260 0.130664 0.826561
O O10 0.814826 0.262023 0.953962
O O11 0.362957 0.422863 0.765342
O O12 0.342378 0.093305 0.677446
O O13 0.500000 0.101680 0.041445
O O14 0.672237 0.257336 0.050943
O O15 0.894594 0.210155 0.261014
O O16 0.000000 0.427653 0.351852
O O17 0.837417 0.260255 0.111043
O O18 0.000000 0.092584 0.142605
#
# Coordination Sequence:
#
# PCOD9343038 Si02
#       8
#     4   4   4   4   4   4   4   4
#     4   9  18  37  62  85 113 154 198 234 284 347
#     4  11  21  38  58  88 121 156 189 244 300 341
#     4   9  20  36  60  85 116 157 192 240 289 342
#     4  10  19  40  61  83 114 150 194 237 294 339
#     4  10  22  38  59  88 119 153 193 240 293 350
#     4  11  22  36  60  91 117 154 201 241 291 352
#     4  11  22  39  59  85 121 156 194 237 295 355
#     4  11  24  40  61  87 119 156 195 247 294 350
#
# _framework density 20.069502
#
# number of rings (size 3 to 8) (size 9 to 14) (size 15 to 20)
#    0.750    1.000    3.750    0.750    1.750    1.500 
#    0.000    0.625    0.000    6.000    0.000    0.000 
#    0.000    0.000    0.000    0.000    0.000    0.000 
#
# Total GULP energy -178458.577586 kJ/mol
# GULP energy per Si atom -5576.830550 kJ/mol
# Density = 2.002382 g / cm^3
# Si number density = 20.069502 Si / 1000 Ang^3
#
#
#
# Elastic Constant Matrix: (Units=GPa)
#
#
# Indices 1 2 3 4 5 6 
#
# 1 78.0745 14.7869 5.9188 0.0000 0.0000 0.0000
# 2 14.7869 56.2198 -2.6436 0.0000 0.0000 0.0000
# 3 5.9188 -2.6436 61.8217 0.0000 0.0000 0.0000
# 4 0.0000 0.0000 0.0000 30.6605 0.0000 0.0000
# 5 0.0000 0.0000 0.0000 0.0000 13.0013 0.0000
# 6 0.0000 0.0000 0.0000 0.0000 0.0000 11.7569
#
#
#
# Elastic Compliance Matrix: (Units=1/GPa)
#
#
# Indices 1 2 3 4 5 6 
#
# 1 0.013610 -0.003648 -0.001459 0.000000 0.000000 0.000000
# 2 -0.003648 0.018801 0.001153 0.000000 0.000000 0.000000
# 3 -0.001459 0.001153 0.016365 0.000000 0.000000 0.000000
# 4 0.000000 0.000000 0.000000 0.032615 0.000000 0.000000
# 5 0.000000 0.000000 0.000000 0.000000 0.076915 0.000000
# 6 0.000000 0.000000 0.000000 0.000000 0.000000 0.085056
#
#
# Mechanical properties :
#
#
# Convention : Reuss Voigt Hill
#
# Bulk Modulus (GPa) = 24.46935 25.80448 25.13692
# Shear Modulus (GPa) = 18.87557 22.95401 20.91479
#
# Velocity S-wave (km/s) = 3.07010 3.38557 3.23169
# Velocity P-wave (km/s) = 4.97857 5.30738 5.14560
#
# Compressibility (1/GPa) = 0.04086745
#
# Stress axis : x y z
#
# Youngs Moduli (GPa) = 73.47616 53.18831 61.10772
#
# Poissons Ratio (x) = 0.19405 0.08916
# Poissons Ratio (y) = 0.26806 -0.07047
# Poissons Ratio (z) = 0.10720 -0.06134
#
# Static dielectric constant tensor:
#      x y z
#    x 1.709040 0.000000 0.000000 
#    y 0.000000 1.688190 0.000000 
#    z 0.000000 0.000000 1.738610 
# 
# From -- ./inp_files/6107.got.cif
#   From: 2010.05.17/outbox.cif.g08.bks.cpg/sg31_4_cif.got.tgz:6107.got - 2010.06.03 17:08:30.
