data_PCOD9343491
_publ_section_title
;
Structure prediction by ZEFSAII (Michael W. Deem and Ramdas Pophale) SiO2 
 PCOD9343491
Probable space group: P M N 21
;
_chemical_formula_sum "Si O2"
_cell_formula_units_Z 20
_cell_length_a 14.007064
_cell_length_b 10.739964
_cell_length_c 5.057604
_cell_angle_alpha 90.000000
_cell_angle_beta 90.000000
_cell_angle_gamma 90.000000
_cell_volume 760.842494
_symmetry_space_group_name_H-M "P M N 21"
_symmetry_group_IT_number 31
_symmetry_cell_setting 'orthorhombic'
loop_
_space_group_symop_operation_xyz
x,y,z
1/2-x,-y,1/2+z
-x,y,z
1/2+x,-y,1/2+z
loop_
_atom_site_type_symbol
_atom_site_label
_atom_site_fract_x
_atom_site_fract_y
_atom_site_fract_z
Si Si1 0.000000 0.644137 0.488360
Si Si2 0.500000 0.519059 0.466471
Si Si3 0.892302 0.192469 0.329193
Si Si4 0.801320 0.774305 0.624088
Si Si5 0.105488 0.017887 0.824921
Si Si6 0.213747 0.424559 0.870310
O O1 0.000000 0.521058 0.660296
O O2 0.093003 0.717256 0.592631
O O3 0.000000 0.595488 0.182771
O O4 0.395583 0.580950 0.469612
O O5 0.791390 0.262542 0.301037
O O6 0.895804 0.126642 0.610727
O O7 0.000000 0.248424 0.292465
O O8 0.881859 0.083341 0.107139
O O9 0.758762 0.713769 0.355034
O O10 0.822397 0.914053 0.719679
O O11 0.000000 0.959534 0.834078
O O12 0.271495 0.498758 0.101158
#
# Coordination Sequence:
#
# PCOD9343491 Si02
#       6
#     2   2   4   4   4   4
#     4  12  26  42  74  92 130 180 220 272 330 384
#     4  12  24  50  62  98 138 168 224 280 324 402
#     4  10  24  42  65  96 134 170 213 268 327 386
#     4  12  24  44  68 100 126 174 222 266 326 392
#     4  10  22  42  65  95 131 171 212 268 324 384
#     4  12  26  44  70  98 133 175 217 278 336 387
#
# _framework density 26.286650000000002
#
# number of rings (size 3 to 8) (size 9 to 14) (size 15 to 20)
#    0.000    0.800    5.000    1.200    1.400    6.400 
#    0.000    0.000    0.000    0.000    0.000    0.000 
#    0.000    0.000    0.000    0.000    0.000    0.000 
#
# Total GULP energy -111470.926133 kJ/mol
# GULP energy per Si atom -5573.546307 kJ/mol
# Density = 2.622682 g / cm^3
# Si number density = 26.286650 Si / 1000 Ang^3
#
#
#
# Elastic Constant Matrix: (Units=GPa)
#
#
# Indices 1 2 3 4 5 6 
#
# 1 273.0281 50.4713 36.5258 0.0000 0.0000 0.0000
# 2 50.4713 53.1684 27.2645 0.0000 0.0000 0.0000
# 3 36.5258 27.2645 102.0133 0.0000 0.0000 0.0000
# 4 0.0000 0.0000 0.0000 11.7558 0.0000 0.0000
# 5 0.0000 0.0000 0.0000 0.0000 17.1370 0.0000
# 6 0.0000 0.0000 0.0000 0.0000 0.0000 63.3274
#
#
#
# Elastic Compliance Matrix: (Units=1/GPa)
#
#
# Indices 1 2 3 4 5 6 
#
# 1 0.004468 -0.003964 -0.000540 0.000000 0.000000 0.000000
# 2 -0.003964 0.025312 -0.005346 0.000000 0.000000 0.000000
# 3 -0.000540 -0.005346 0.011425 0.000000 0.000000 0.000000
# 4 0.000000 0.000000 0.000000 0.085065 0.000000 0.000000
# 5 0.000000 0.000000 0.000000 0.000000 0.058353 0.000000
# 6 0.000000 0.000000 0.000000 0.000000 0.000000 0.015791
#
#
# Mechanical properties :
#
#
# Convention : Reuss Voigt Hill
#
# Bulk Modulus (GPa) = 46.50111 72.97034 59.73572
# Shear Modulus (GPa) = 21.99911 39.37392 30.68651
#
# Velocity S-wave (km/s) = 2.89605 3.87443 3.42040
# Velocity P-wave (km/s) = 5.37691 6.91626 6.19459
#
# Compressibility (1/GPa) = 0.02150486
#
# Stress axis : x y z
#
# Youngs Moduli (GPa) = 223.83000 39.50631 87.52894
#
# Poissons Ratio (x) = 0.15660 0.04728
# Poissons Ratio (y) = 0.88727 0.46791
# Poissons Ratio (z) = 0.12091 0.21119
#
# Static dielectric constant tensor:
#      x y z
#    x 2.144190 0.000000 0.000000 
#    y 0.000000 2.157350 0.000000 
#    z 0.000000 0.000000 2.015870 
# 
# From -- ./inp_files/583.got.cif
#   From: 2010.05.17/outbox.cif.g08.bks.cpg/sg31_1_cif.got.tgz:583.got - 2010.06.03 17:08:30.
