data_PCOD9343335
_publ_section_title
;
Structure prediction by ZEFSAII (Michael W. Deem and Ramdas Pophale) SiO2 
 PCOD9343335
Probable space group: P M N 21
;
_chemical_formula_sum "Si O2"
_cell_formula_units_Z 32
_cell_length_a 8.617100
_cell_length_b 16.109427
_cell_length_c 10.905651
_cell_angle_alpha 90.000000
_cell_angle_beta 90.000000
_cell_angle_gamma 90.000000
_cell_volume 1513.884775
_symmetry_space_group_name_H-M "P M N 21"
_symmetry_group_IT_number 31
_symmetry_cell_setting 'orthorhombic'
loop_
_space_group_symop_operation_xyz
x,y,z
1/2-x,-y,1/2+z
-x,y,z
1/2+x,-y,1/2+z
loop_
_atom_site_type_symbol
_atom_site_label
_atom_site_fract_x
_atom_site_fract_y
_atom_site_fract_z
Si Si1 0.327676 0.351224 0.375000
Si Si2 0.185233 0.239208 0.981098
Si Si3 0.823116 0.835535 0.968733
Si Si4 0.818488 0.398085 0.127964
Si Si5 0.187651 0.244405 0.703198
Si Si6 0.679034 0.576764 0.097457
Si Si7 0.818193 0.018271 0.323790
Si Si8 0.314694 0.075525 0.067694
O O1 0.500000 0.383138 0.406807
O O2 0.323982 0.254797 0.407353
O O3 0.289177 0.365159 0.235627
O O4 0.200184 0.396905 0.456623
O O5 0.236043 0.225764 0.841271
O O6 0.000000 0.225556 0.988064
O O7 0.212563 0.335321 0.015809
O O8 0.264020 0.171892 0.069541
O O9 0.763232 0.817812 0.105814
O O10 0.000000 0.868126 0.968665
O O11 0.712743 0.893653 0.889829
O O12 0.777997 0.494237 0.113256
O O13 0.000000 0.388921 0.158368
O O14 0.230170 0.339974 0.669738
O O15 0.000000 0.239257 0.692889
O O16 0.500000 0.560065 0.128725
O O17 0.745162 0.025807 0.187675
O O18 0.000000 0.001715 0.307504
O O19 0.757746 0.958144 0.433991
O O20 0.500000 0.069002 0.068679
#
# Coordination Sequence:
#
# PCOD9343335 Si02
#       8
#     4   4   4   4   4   4   4   4
#     4  10  21  38  58  82 116 154 199 253 306 366
#     4  10  23  42  64  90 127 172 212 262 323 384
#     4  10  21  38  64  94 123 160 206 259 313 373
#     4  11  23  37  58  87 120 160 205 253 312 376
#     4   9  20  39  62  90 126 168 212 259 317 382
#     4  10  21  37  59  88 120 159 205 256 310 372
#     4  11  25  44  68  98 133 173 213 264 326 389
#     4  11  26  45  67  99 133 170 220 272 323 388
#
# _framework density 21.137671999999998
#
# number of rings (size 3 to 8) (size 9 to 14) (size 15 to 20)
#    0.000    1.750    0.000    3.000    3.500    7.500 
#    0.000    0.000    0.000    0.000    0.000    0.000 
#    0.000    0.000    0.000    0.000    0.000    0.000 
#
# Total GULP energy -178669.359647 kJ/mol
# GULP energy per Si atom -5583.417489 kJ/mol
# Density = 2.108956 g / cm^3
# Si number density = 21.137672 Si / 1000 Ang^3
#
#
#
# Elastic Constant Matrix: (Units=GPa)
#
#
# Indices 1 2 3 4 5 6 
#
# 1 22.2798 18.6015 5.8462 0.0000 0.0000 0.0000
# 2 18.6015 57.9795 29.3753 0.0000 0.0000 0.0000
# 3 5.8462 29.3753 95.0439 0.0000 0.0000 0.0000
# 4 0.0000 0.0000 0.0000 7.5493 0.0000 0.0000
# 5 0.0000 0.0000 0.0000 0.0000 30.9155 0.0000
# 6 0.0000 0.0000 0.0000 0.0000 0.0000 20.0844
#
#
#
# Elastic Compliance Matrix: (Units=1/GPa)
#
#
# Indices 1 2 3 4 5 6 
#
# 1 0.061911 -0.021263 0.002764 0.000000 0.000000 0.000000
# 2 -0.021263 0.027752 -0.007270 0.000000 0.000000 0.000000
# 3 0.002764 -0.007270 0.012598 0.000000 0.000000 0.000000
# 4 0.000000 0.000000 0.000000 0.132462 0.000000 0.000000
# 5 0.000000 0.000000 0.000000 0.000000 0.032346 0.000000
# 6 0.000000 0.000000 0.000000 0.000000 0.000000 0.049790
#
#
# Mechanical properties :
#
#
# Convention : Reuss Voigt Hill
#
# Bulk Modulus (GPa) = 19.71463 31.43880 25.57672
# Shear Modulus (GPa) = 12.97670 19.80853 16.39262
#
# Velocity S-wave (km/s) = 2.48042 3.06456 2.78783
# Velocity P-wave (km/s) = 4.18931 5.23715 4.74226
#
# Compressibility (1/GPa) = 0.05072376
#
# Stress axis : x y z
#
# Youngs Moduli (GPa) = 16.15219 36.03293 79.37594
#
# Poissons Ratio (x) = 0.76617 -0.21936
# Poissons Ratio (y) = 0.34345 0.57703
# Poissons Ratio (z) = -0.04464 0.26194
#
# Static dielectric constant tensor:
#      x y z
#    x 1.729590 0.000000 0.000000 
#    y 0.000000 1.785860 0.000000 
#    z 0.000000 0.000000 1.752280 
# 
# From -- ./inp_files/3733.got.cif
#   From: 2010.05.17/outbox.cif.g08.bks.cpg/sg31_2_cif.got.tgz:3733.got - 2010.06.03 17:08:30.
