data_PCOD9343434
_publ_section_title
;
Structure prediction by ZEFSAII (Michael W. Deem and Ramdas Pophale) SiO2 
 PCOD9343434
Probable space group: P M N 21
;
_chemical_formula_sum "Si O2"
_cell_formula_units_Z 32
_cell_length_a 7.966610
_cell_length_b 14.835267
_cell_length_c 13.068358
_cell_angle_alpha 90.000000
_cell_angle_beta 90.000000
_cell_angle_gamma 90.000000
_cell_volume 1544.507236
_symmetry_space_group_name_H-M "P M N 21"
_symmetry_group_IT_number 31
_symmetry_cell_setting 'orthorhombic'
loop_
_space_group_symop_operation_xyz
x,y,z
1/2-x,-y,1/2+z
-x,y,z
1/2+x,-y,1/2+z
loop_
_atom_site_type_symbol
_atom_site_label
_atom_site_fract_x
_atom_site_fract_y
_atom_site_fract_z
Si Si1 0.201026 0.865884 0.268050
Si Si2 0.190380 0.832805 0.893637
Si Si3 0.692281 0.364609 0.293372
Si Si4 0.704600 0.448608 0.495326
Si Si5 0.199437 0.056744 0.199077
Si Si6 0.300418 0.355047 0.068663
Si Si7 0.197091 0.162934 0.998699
Si Si8 0.294411 0.261396 0.595204
O O1 0.235324 0.866683 0.388587
O O2 0.259249 0.778080 0.204456
O O3 0.000000 0.866945 0.256983
O O4 0.268478 0.956087 0.213499
O O5 0.183759 0.734331 0.841717
O O6 0.275431 0.894372 0.808461
O O7 0.000000 0.867298 0.907505
O O8 0.260978 0.808918 0.005860
O O9 0.500000 0.396177 0.276964
O O10 0.767312 0.426714 0.380883
O O11 0.773501 0.357350 0.183425
O O12 0.500000 0.448410 0.494862
O O13 0.766778 0.546276 0.525703
O O14 0.757509 0.363366 0.566115
O O15 0.000000 0.050229 0.183244
O O16 0.267310 0.112580 0.100917
O O17 0.500000 0.338186 0.072464
O O18 0.225705 0.269769 0.010631
O O19 0.000000 0.145270 0.996352
O O20 0.500000 0.262314 0.589744
#
# Coordination Sequence:
#
# PCOD9343434 Si02
#       8
#     4   4   4   4   4   4   4   4
#     4  10  22  40  59  84 120 158 192 237 292 349
#     4   9  16  32  60  83 104 145 193 235 282 342
#     4   8  16  32  53  78 107 142 188 236 284 338
#     4   9  18  35  57  83 112 149 194 241 290 346
#     4  10  22  37  56  85 118 148 187 241 292 335
#     4  11  21  36  58  85 114 151 192 239 292 346
#     4  11  24  41  59  86 119 154 194 239 288 344
#     4   8  17  35  60  84 112 151 194 238 290 344
#
# _framework density 20.718582000000001
#
# number of rings (size 3 to 8) (size 9 to 14) (size 15 to 20)
#    0.000    2.500    1.250    2.250    1.750    2.000 
#    0.000    7.500    0.000    0.000    0.000    0.000 
#    0.000    0.000    0.000    0.000    0.000    0.000 
#
# Total GULP energy -178354.717647 kJ/mol
# GULP energy per Si atom -5573.584926 kJ/mol
# Density = 2.067143 g / cm^3
# Si number density = 20.718582 Si / 1000 Ang^3
#
#
#
# Elastic Constant Matrix: (Units=GPa)
#
#
# Indices 1 2 3 4 5 6 
#
# 1 15.7061 -2.2223 4.0805 0.0000 0.0000 0.0000
# 2 -2.2223 87.5694 49.0674 0.0000 0.0000 0.0000
# 3 4.0805 49.0674 91.6836 0.0000 0.0000 0.0000
# 4 0.0000 0.0000 0.0000 12.4536 0.0000 0.0000
# 5 0.0000 0.0000 0.0000 0.0000 -11.2514 0.0000
# 6 0.0000 0.0000 0.0000 0.0000 0.0000 13.7285
#
#
#
# Elastic Compliance Matrix: (Units=1/GPa)
#
#
# Indices 1 2 3 4 5 6 
#
# 1 0.065756 0.004726 -0.005456 0.000000 0.000000 0.000000
# 2 0.004726 0.016650 -0.009121 0.000000 0.000000 0.000000
# 3 -0.005456 -0.009121 0.016031 0.000000 0.000000 0.000000
# 4 0.000000 0.000000 0.000000 0.080298 0.000000 0.000000
# 5 0.000000 0.000000 0.000000 0.000000 -0.088878 0.000000
# 6 0.000000 0.000000 0.000000 0.000000 0.000000 0.072841
#
#
# Mechanical properties :
#
#
# Convention : Reuss Voigt Hill
#
# Bulk Modulus (GPa) = 12.70083 32.97890 22.83986
# Shear Modulus (GPa) = 23.96402 12.58838 18.27620
#
# Velocity S-wave (km/s) = 3.40464 2.46761 2.97327
# Velocity P-wave (km/s) = 4.64746 4.90621 4.77858
#
# Compressibility (1/GPa) = 0.07873501
#
# Stress axis : x y z
#
# Youngs Moduli (GPa) = 15.20780 60.05895 62.37758
#
# Poissons Ratio (x) = -0.28382 0.34031
# Poissons Ratio (y) = -0.07187 0.56896
# Poissons Ratio (z) = 0.08297 0.54781
#
# Static dielectric constant tensor:
#      x y z
#    x 1.758140 0.000000 0.000000 
#    y 0.000000 1.742820 0.000000 
#    z 0.000000 0.000000 1.786180 
# 
# From -- ./inp_files/3568.got.cif
#   From: 2010.05.17/outbox.cif.g08.bks.cpg/sg31_2_cif.got.tgz:3568.got - 2010.06.03 17:08:30.
