data_PCOD9343137
_publ_section_title
;
Structure prediction by ZEFSAII (Michael W. Deem and Ramdas Pophale) SiO2 
 PCOD9343137
Probable space group: P M N 21
;
_chemical_formula_sum "Si O2"
_cell_formula_units_Z 24
_cell_length_a 8.434492
_cell_length_b 9.772173
_cell_length_c 15.625952
_cell_angle_alpha 90.000000
_cell_angle_beta 90.000000
_cell_angle_gamma 90.000000
_cell_volume 1287.942764
_symmetry_space_group_name_H-M "P M N 21"
_symmetry_group_IT_number 31
_symmetry_cell_setting 'orthorhombic'
loop_
_space_group_symop_operation_xyz
x,y,z
1/2-x,-y,1/2+z
-x,y,z
1/2+x,-y,1/2+z
loop_
_atom_site_type_symbol
_atom_site_label
_atom_site_fract_x
_atom_site_fract_y
_atom_site_fract_z
Si Si1 0.192912 0.153808 0.891250
Si Si2 0.689677 0.158847 0.389583
Si Si3 0.307864 0.852596 0.586413
Si Si4 0.309832 0.842825 0.080494
Si Si5 0.191437 0.345377 0.737570
Si Si6 0.189136 0.345966 0.237965
O O1 0.248584 0.261807 0.821049
O O2 0.000000 0.154696 0.889990
O O3 0.241786 0.997838 0.870445
O O4 0.240781 0.183600 0.989101
O O5 0.500000 0.163862 0.383033
O O6 0.738714 0.187552 0.487253
O O7 0.762155 0.264140 0.322854
O O8 0.500000 0.859957 0.587883
O O9 0.254496 0.742750 0.656263
O O10 0.242594 0.003751 0.605440
O O11 0.500000 0.839266 0.074795
O O12 0.256689 0.735918 0.152640
O O13 0.244526 0.501404 0.737796
O O14 0.000000 0.341933 0.738838
O O15 0.000000 0.353341 0.233398
#
# Coordination Sequence:
#
# PCOD9343137 Si02
#       6
#     4   4   4   4   4   4
#     4   8  16  34  58  80 101 135 183 223 262 322
#     4  10  20  37  60  81 105 142 185 228 279 329
#     4   9  19  36  57  80 108 143 181 222 270 323
#     4  10  20  35  57  85 112 139 180 229 271 320
#     4  10  21  36  54  78 111 148 181 217 268 328
#     4  11  23  36  52  80 115 147 184 227 268 318
#
# _framework density 18.634369
#
# number of rings (size 3 to 8) (size 9 to 14) (size 15 to 20)
#    0.000    2.333    0.000    3.500    0.000    5.333 
#    0.000    5.833    0.000    0.000    0.000    0.000 
#    0.000    0.000    0.000    0.000    0.000    0.000 
#
# Total GULP energy -133986.657716 kJ/mol
# GULP energy per Si atom -5582.777405 kJ/mol
# Density = 1.859196 g / cm^3
# Si number density = 18.634369 Si / 1000 Ang^3
#
#
#
# Elastic Constant Matrix: (Units=GPa)
#
#
# Indices 1 2 3 4 5 6 
#
# 1 7.8729 9.6626 6.6763 0.0000 0.0000 0.0000
# 2 9.6626 162.8400 120.1474 0.0000 0.0000 0.0000
# 3 6.6763 120.1474 124.6079 0.0000 0.0000 0.0000
# 4 0.0000 0.0000 0.0000 -5.4196 0.0000 0.0000
# 5 0.0000 0.0000 0.0000 0.0000 18.4319 0.0000
# 6 0.0000 0.0000 0.0000 0.0000 0.0000 29.7149
#
#
#
# Elastic Compliance Matrix: (Units=1/GPa)
#
#
# Indices 1 2 3 4 5 6 
#
# 1 0.137101 -0.009409 0.001727 0.000000 0.000000 0.000000
# 2 -0.009409 0.021925 -0.020636 0.000000 0.000000 0.000000
# 3 0.001727 -0.020636 0.027830 0.000000 0.000000 0.000000
# 4 0.000000 0.000000 0.000000 -0.184514 0.000000 0.000000
# 5 0.000000 0.000000 0.000000 0.000000 0.054254 0.000000
# 6 0.000000 0.000000 0.000000 0.000000 0.000000 0.033653
#
#
# Mechanical properties :
#
#
# Convention : Reuss Voigt Hill
#
# Bulk Modulus (GPa) = 7.67937 63.14374 35.41156
# Shear Modulus (GPa) = 26.27518 19.13441 22.70479
#
# Velocity S-wave (km/s) = 3.75912 3.20790 3.49440
# Velocity P-wave (km/s) = 4.79284 6.90507 5.94354
#
# Compressibility (1/GPa) = 0.13021900
#
# Stress axis : x y z
#
# Youngs Moduli (GPa) = 7.29389 45.60929 35.93205
#
# Poissons Ratio (x) = 0.42916 -0.06205
# Poissons Ratio (y) = 0.06863 0.74151
# Poissons Ratio (z) = -0.01260 0.94121
#
# Static dielectric constant tensor:
#      x y z
#    x 1.639760 0.000000 0.000000 
#    y 0.000000 1.609410 0.000000 
#    z 0.000000 0.000000 1.641740 
# 
# From -- ./inp_files/4736.got.cif
#   From: 2010.05.17/outbox.cif.g08.bks.cpg/sg31_3_cif.got.tgz:4736.got - 2010.06.03 17:08:30.
