data_PCOD9343478
_publ_section_title
;
Structure prediction by ZEFSAII (Michael W. Deem and Ramdas Pophale) SiO2 
 PCOD9343478
Probable space group: P M N 21
;
_chemical_formula_sum "Si O2"
_cell_formula_units_Z 32
_cell_length_a 15.894521
_cell_length_b 11.627313
_cell_length_c 8.124625
_cell_angle_alpha 90.000000
_cell_angle_beta 90.000000
_cell_angle_gamma 90.000000
_cell_volume 1501.516583
_symmetry_space_group_name_H-M "P M N 21"
_symmetry_group_IT_number 31
_symmetry_cell_setting 'orthorhombic'
loop_
_space_group_symop_operation_xyz
x,y,z
1/2-x,-y,1/2+z
-x,y,z
1/2+x,-y,1/2+z
loop_
_atom_site_type_symbol
_atom_site_label
_atom_site_fract_x
_atom_site_fract_y
_atom_site_fract_z
Si Si1 0.095992 0.317313 0.077320
Si Si2 0.094156 0.217256 0.708774
Si Si3 0.092854 0.770310 0.117734
Si Si4 0.343940 0.552845 0.090260
Si Si5 0.750821 0.080122 0.570013
Si Si6 0.404816 0.319072 0.241114
Si Si7 0.158245 0.545412 0.225953
Si Si8 0.247253 0.167860 0.196076
O O1 0.117549 0.451175 0.104497
O O2 0.166081 0.246962 0.174638
O O3 0.000000 0.297330 0.130882
O O4 0.103740 0.272240 0.890505
O O5 0.105305 0.328903 0.594005
O O6 0.167044 0.127817 0.664027
O O7 0.000000 0.168385 0.694825
O O8 0.166743 0.861231 0.142179
O O9 0.105355 0.661695 0.235501
O O10 0.000000 0.821485 0.132394
O O11 0.100102 0.712717 0.935148
O O12 0.385592 0.451630 0.198535
O O13 0.250944 0.575967 0.160836
O O14 0.335614 0.509386 0.905035
O O15 0.752840 0.121127 0.381853
O O16 0.745252 0.943521 0.581541
O O17 0.500000 0.291683 0.187140
O O18 0.330317 0.243544 0.163019
#
# Coordination Sequence:
#
# PCOD9343478 Si02
#       8
#     4   4   4   4   4   4   4   4
#     4  11  24  42  65  93 127 166 207 256 314 371
#     4  11  24  42  65  93 127 166 207 256 314 371
#     4  10  22  41  64  91 124 163 205 251 309 372
#     4  12  23  37  62  94 128 164 203 251 311 373
#     4  11  24  42  65  91 124 167 211 261 311 365
#     4  10  22  41  64  91 124 163 205 251 309 372
#     4  12  23  37  62  94 128 164 203 251 311 373
#     4  11  24  42  65  91 124 167 211 261 311 365
#
# _framework density 21.311786999999999
#
# number of rings (size 3 to 8) (size 9 to 14) (size 15 to 20)
#    0.000    1.000    2.500    4.500    0.000    7.500 
#    0.000    2.500    0.000    0.000    0.000    0.000 
#    0.000    0.000    0.000    0.000    0.000    0.000 
#
# Total GULP energy -179083.652854 kJ/mol
# GULP energy per Si atom -5596.364152 kJ/mol
# Density = 2.126328 g / cm^3
# Si number density = 21.311787 Si / 1000 Ang^3
#
#
#
# Elastic Constant Matrix: (Units=GPa)
#
#
# Indices 1 2 3 4 5 6 
#
# 1 162.8916 34.9943 9.7599 0.0000 0.0000 0.0000
# 2 34.9943 73.7517 -15.7556 0.0000 0.0000 0.0000
# 3 9.7599 -15.7556 35.1256 0.0000 0.0000 0.0000
# 4 0.0000 0.0000 0.0000 32.4677 0.0000 0.0000
# 5 0.0000 0.0000 0.0000 0.0000 1.6675 0.0000
# 6 0.0000 0.0000 0.0000 0.0000 0.0000 13.1632
#
#
#
# Elastic Compliance Matrix: (Units=1/GPa)
#
#
# Indices 1 2 3 4 5 6 
#
# 1 0.007303 -0.004312 -0.003963 0.000000 0.000000 0.000000
# 2 -0.004312 0.017542 0.009066 0.000000 0.000000 0.000000
# 3 -0.003963 0.009066 0.033637 0.000000 0.000000 0.000000
# 4 0.000000 0.000000 0.000000 0.030800 0.000000 0.000000
# 5 0.000000 0.000000 0.000000 0.000000 0.599713 0.000000
# 6 0.000000 0.000000 0.000000 0.000000 0.000000 0.075969
#
#
# Mechanical properties :
#
#
# Convention : Reuss Voigt Hill
#
# Bulk Modulus (GPa) = 16.64872 36.64068 26.64470
# Shear Modulus (GPa) = 6.38242 25.64436 16.01339
#
# Velocity S-wave (km/s) = 1.73242 3.47262 2.74412
# Velocity P-wave (km/s) = 3.43957 5.77137 4.75076
#
# Compressibility (1/GPa) = 0.06006468
#
# Stress axis : x y z
#
# Youngs Moduli (GPa) = 136.93357 57.00687 29.72902
#
# Poissons Ratio (x) = 0.24580 0.11782
# Poissons Ratio (y) = 0.59042 -0.26954
# Poissons Ratio (z) = 0.54269 -0.51685
#
# Static dielectric constant tensor:
#      x y z
#    x 1.757000 0.000000 0.000000 
#    y 0.000000 1.721680 0.000000 
#    z 0.000000 0.000000 1.796800 
# 
# From -- ./inp_files/2605.got.cif
#   From: 2010.05.17/outbox.cif.g08.bks.cpg/sg31_2_cif.got.tgz:2605.got - 2010.06.03 17:08:30.
