data_PCOD9343759
_publ_section_title
;
Structure prediction by ZEFSAII (Michael W. Deem and Ramdas Pophale) SiO2 
 PCOD9343759
Probable space group: P B A 2
;
_chemical_formula_sum "Si O2"
_cell_formula_units_Z 24
_cell_length_a 9.789869
_cell_length_b 16.756077
_cell_length_c 7.419012
_cell_angle_alpha 90.000000
_cell_angle_beta 90.000000
_cell_angle_gamma 90.000000
_cell_volume 1217.013236
_symmetry_space_group_name_H-M "P B A 2"
_symmetry_group_IT_number 32
_symmetry_cell_setting 'orthorhombic'
loop_
_space_group_symop_operation_xyz
x,y,z
-x,-y,z
1/2-x,1/2+y,z
1/2+x,1/2-y,z
loop_
_atom_site_type_symbol
_atom_site_label
_atom_site_fract_x
_atom_site_fract_y
_atom_site_fract_z
Si Si1 0.983427 0.649620 0.943910
Si Si2 0.585405 0.917863 0.302231
Si Si3 0.960034 0.831711 0.835878
Si Si4 0.213352 0.935590 0.802736
Si Si5 0.621581 0.452180 0.132936
Si Si6 0.697839 0.905939 0.670972
O O1 0.988381 0.739767 0.873897
O O2 0.841559 0.612339 0.878989
O O3 0.103022 0.600102 0.846626
O O4 0.011913 0.638500 0.155891
O O5 0.740996 0.935259 0.240312
O O6 0.605325 0.882895 0.501460
O O7 0.500000 0.000000 0.307048
O O8 0.829267 0.851220 0.710822
O O9 0.091550 0.876118 0.753304
O O10 0.928967 0.872519 0.030846
O O11 0.256225 0.001448 0.655503
O O12 0.157966 0.989465 0.966810
O O13 0.500000 0.500000 0.233248
#
# Coordination Sequence:
#
# PCOD9343759 Si02
#       6
#     4   4   4   4   4   4
#     4  12  21  40  63  92 127 163 205 268 322 380
#     4  12  22  39  67  98 123 165 218 266 316 381
#     4  10  22  39  64  89 126 169 204 257 329 377
#     4  10  19  38  65  87 120 168 213 254 314 375
#     4   9  19  37  60  89 118 162 211 252 307 378
#     4  11  23  41  63  91 122 165 216 260 311 384
#
# _framework density 19.720410999999999
#
# number of rings (size 3 to 8) (size 9 to 14) (size 15 to 20)
#    0.000    1.333    5.000    4.000    0.000    1.333 
#    3.000    0.000    3.667    0.000    0.000    0.000 
#    0.000    0.000    0.000    0.000    0.000    0.000 
#
# Total GULP energy -133957.722370 kJ/mol
# GULP energy per Si atom -5581.571765 kJ/mol
# Density = 1.967553 g / cm^3
# Si number density = 19.720411 Si / 1000 Ang^3
#
#
#
# Elastic Constant Matrix: (Units=GPa)
#
#
# Indices 1 2 3 4 5 6 
#
# 1 98.8541 18.4849 3.8987 0.0000 0.0000 0.0000
# 2 18.4849 90.7877 9.8431 0.0000 0.0000 0.0000
# 3 3.8987 9.8431 66.2449 0.0000 0.0000 0.0000
# 4 0.0000 0.0000 0.0000 9.0201 0.0000 0.0000
# 5 0.0000 0.0000 0.0000 0.0000 28.4009 0.0000
# 6 0.0000 0.0000 0.0000 0.0000 0.0000 21.3069
#
#
#
# Elastic Compliance Matrix: (Units=1/GPa)
#
#
# Indices 1 2 3 4 5 6 
#
# 1 0.010522 -0.002109 -0.000306 0.000000 0.000000 0.000000
# 2 -0.002109 0.011618 -0.001602 0.000000 0.000000 0.000000
# 3 -0.000306 -0.001602 0.015352 0.000000 0.000000 0.000000
# 4 0.000000 0.000000 0.000000 0.110864 0.000000 0.000000
# 5 0.000000 0.000000 0.000000 0.000000 0.035210 0.000000
# 6 0.000000 0.000000 0.000000 0.000000 0.000000 0.046933
#
#
# Mechanical properties :
#
#
# Convention : Reuss Voigt Hill
#
# Bulk Modulus (GPa) = 33.94739 35.59333 34.77036
# Shear Modulus (GPa) = 20.13265 26.65624 23.39444
#
# Velocity S-wave (km/s) = 3.19863 3.68055 3.44802
# Velocity P-wave (km/s) = 5.55818 6.01249 5.78979
#
# Compressibility (1/GPa) = 0.02945734
#
# Stress axis : x y z
#
# Youngs Moduli (GPa) = 95.03545 86.07440 65.13994
#
# Poissons Ratio (x) = 0.18155 0.01992
# Poissons Ratio (y) = 0.20045 0.10436
# Poissons Ratio (z) = 0.02907 0.13790
#
# Static dielectric constant tensor:
#      x y z
#    x 1.730950 0.000000 0.000000 
#    y 0.000000 1.693160 0.000000 
#    z 0.000000 0.000000 1.696200 
# 
# From -- ./inp_files/2404.got.cif
#   From: 2010.05.17/outbox.cif.g08.bks.cpg/sg32_2_cif.got.tgz:2404.got - 2010.06.03 17:12:27.
