data_PCOD9343645
_publ_section_title
;
Structure prediction by ZEFSAII (Michael W. Deem and Ramdas Pophale) SiO2 
 PCOD9343645
Probable space group: P B A 2
;
_chemical_formula_sum "Si O2"
_cell_formula_units_Z 24
_cell_length_a 18.496725
_cell_length_b 8.951548
_cell_length_c 5.814670
_cell_angle_alpha 90.000000
_cell_angle_beta 90.000000
_cell_angle_gamma 90.000000
_cell_volume 962.760041
_symmetry_space_group_name_H-M "P B A 2"
_symmetry_group_IT_number 32
_symmetry_cell_setting 'orthorhombic'
loop_
_space_group_symop_operation_xyz
x,y,z
-x,-y,z
1/2-x,1/2+y,z
1/2+x,1/2-y,z
loop_
_atom_site_type_symbol
_atom_site_label
_atom_site_fract_x
_atom_site_fract_y
_atom_site_fract_z
Si Si1 0.308689 0.346231 0.575090
Si Si2 0.737215 0.850955 0.942982
Si Si3 0.897758 0.348003 0.231957
Si Si4 0.304119 0.885990 0.196810
Si Si5 0.961886 0.834285 0.167911
Si Si6 0.076197 0.088939 0.671444
O O1 0.258254 0.224673 0.700846
O O2 0.368900 0.242634 0.450609
O O3 0.253460 0.418289 0.394388
O O4 0.356517 0.475625 0.690196
O O5 0.657633 0.795727 0.032039
O O6 0.727612 0.025885 0.972828
O O7 0.793742 0.783905 0.123809
O O8 0.877370 0.523793 0.249739
O O9 0.977088 0.293233 0.181351
O O10 0.921146 0.834365 0.417523
O O11 0.000000 0.000000 0.162842
O O12 0.927017 0.819437 0.911499
O O13 0.000000 0.000000 0.665980
#
# Coordination Sequence:
#
# PCOD9343645 Si02
#       6
#     4   4   4   4   4   4
#     4  11  19  34  53  78 118 148 187 239 289 356
#     4   9  20  34  51  75 110 147 186 228 281 338
#     4   9  19  33  48  77 114 138 186 223 283 349
#     4   9  22  33  52  78 111 149 186 229 283 342
#     4  10  17  30  47  79 108 141 177 235 289 332
#     4  10  19  28  52  79 110 145 180 234 303 327
#
# _framework density 24.928331
#
# number of rings (size 3 to 8) (size 9 to 14) (size 15 to 20)
#    1.000    1.333    3.333    2.000    4.667    0.000 
#    0.000    0.000    0.000    0.000    0.000    1.167 
#    0.000    0.000    0.000    0.000    0.000    0.000 
#
# Total GULP energy -133762.816476 kJ/mol
# GULP energy per Si atom -5573.450687 kJ/mol
# Density = 2.487159 g / cm^3
# Si number density = 24.928331 Si / 1000 Ang^3
#
#
#
# Elastic Constant Matrix: (Units=GPa)
#
#
# Indices 1 2 3 4 5 6 
#
# 1 103.1127 13.9118 25.1385 0.0000 0.0000 0.0000
# 2 13.9118 59.0450 8.4108 0.0000 0.0000 0.0000
# 3 25.1385 8.4108 126.2779 0.0000 0.0000 0.0000
# 4 0.0000 0.0000 0.0000 29.9606 0.0000 0.0000
# 5 0.0000 0.0000 0.0000 0.0000 19.5377 0.0000
# 6 0.0000 0.0000 0.0000 0.0000 0.0000 43.4417
#
#
#
# Elastic Compliance Matrix: (Units=1/GPa)
#
#
# Indices 1 2 3 4 5 6 
#
# 1 0.010466 -0.002190 -0.001938 0.000000 0.000000 0.000000
# 2 -0.002190 0.017557 -0.000733 0.000000 0.000000 0.000000
# 3 -0.001938 -0.000733 0.008354 0.000000 0.000000 0.000000
# 4 0.000000 0.000000 0.000000 0.033377 0.000000 0.000000
# 5 0.000000 0.000000 0.000000 0.000000 0.051183 0.000000
# 6 0.000000 0.000000 0.000000 0.000000 0.000000 0.023019
#
#
# Mechanical properties :
#
#
# Convention : Reuss Voigt Hill
#
# Bulk Modulus (GPa) = 37.51732 42.59530 40.05631
# Shear Modulus (GPa) = 30.75736 34.65296 32.70516
#
# Velocity S-wave (km/s) = 3.51640 3.73245 3.62604
# Velocity P-wave (km/s) = 5.61868 5.97488 5.79951
#
# Compressibility (1/GPa) = 0.02665436
#
# Stress axis : x y z
#
# Youngs Moduli (GPa) = 95.54769 56.95834 119.70862
#
# Poissons Ratio (x) = 0.12473 0.23195
# Poissons Ratio (y) = 0.20924 0.08780
# Poissons Ratio (z) = 0.18514 0.04177
#
# Static dielectric constant tensor:
#      x y z
#    x 1.983790 0.000000 0.000000 
#    y 0.000000 1.976660 0.000000 
#    z 0.000000 0.000000 2.034750 
# 
# From -- ./inp_files/1545.got.cif
#   From: 2010.05.17/outbox.cif.g08.bks.cpg/sg32_1_cif.got.tgz:1545.got - 2010.06.03 17:12:27.
