data_PCOD9343548
_publ_section_title
;
Structure prediction by ZEFSAII (Michael W. Deem and Ramdas Pophale) SiO2 
 PCOD9343548
Probable space group: P M N 21
;
_chemical_formula_sum "Si O2"
_cell_formula_units_Z 32
_cell_length_a 11.483848
_cell_length_b 18.962837
_cell_length_c 7.441137
_cell_angle_alpha 90.000000
_cell_angle_beta 90.000000
_cell_angle_gamma 90.000000
_cell_volume 1620.429153
_symmetry_space_group_name_H-M "P M N 21"
_symmetry_group_IT_number 31
_symmetry_cell_setting 'orthorhombic'
loop_
_space_group_symop_operation_xyz
x,y,z
1/2-x,-y,1/2+z
-x,y,z
1/2+x,-y,1/2+z
loop_
_atom_site_type_symbol
_atom_site_label
_atom_site_fract_x
_atom_site_fract_y
_atom_site_fract_z
Si Si1 0.867621 0.563619 0.125000
Si Si2 0.128846 0.772124 0.551319
Si Si3 0.290775 0.081034 0.946459
Si Si4 0.632379 0.936381 0.787493
Si Si5 0.136085 0.147426 0.626793
Si Si6 0.363914 0.352573 0.285701
Si Si7 0.209225 0.418965 0.966033
Si Si8 0.871154 0.272123 0.861175
O O1 0.794910 0.560946 0.305363
O O2 0.000000 0.580566 0.170854
O O3 0.825190 0.622334 0.982120
O O4 0.858487 0.488027 0.028507
O O5 0.132627 0.855834 0.528995
O O6 0.137644 0.730894 0.740947
O O7 0.250000 0.750000 0.456247
O O8 0.000000 0.748744 0.478558
O O9 0.205090 0.060946 0.107130
O O10 0.215445 0.110262 0.777859
O O11 0.358487 0.011972 0.883986
O O12 0.500000 0.919434 0.741638
O O13 0.674809 0.877666 0.930373
O O14 0.137644 0.230893 0.671548
O O15 0.000000 0.124709 0.644191
O O16 0.500000 0.375290 0.268302
O O17 0.284555 0.389737 0.134633
O O18 0.132627 0.355833 0.883497
O O19 0.000000 0.248743 0.933938
#
# Coordination Sequence:
#
# PCOD9343548 Si02
#       8
#     4   4   4   4   4   4   4   4
#     4  11  22  35  56  83 115 153 195 241 295 351
#     4   9  19  36  61  86 117 154 195 244 294 347
#     4  11  20  36  57  83 115 150 197 238 293 342
#     4  11  22  35  56  83 115 153 195 241 295 351
#     4   9  19  37  57  81 113 149 189 239 292 347
#     4   9  19  37  57  81 113 149 189 239 292 347
#     4  11  20  36  57  83 115 150 197 238 293 342
#     4   9  19  36  61  86 117 154 195 244 294 347
#
# _framework density 19.747852999999999
#
# number of rings (size 3 to 8) (size 9 to 14) (size 15 to 20)
#    0.000    2.000    2.500    1.500    0.000    2.000 
#    0.000    0.000    0.000    0.000    0.000    0.000 
#    0.000    0.000    0.000    0.000    0.000    0.000 
#
# Total GULP energy -178159.060447 kJ/mol
# GULP energy per Si atom -5567.470639 kJ/mol
# Density = 1.970291 g / cm^3
# Si number density = 19.747853 Si / 1000 Ang^3
#
#
#
# Elastic Constant Matrix: (Units=GPa)
#
#
# Indices 1 2 3 4 5 6 
#
# 1 78.9515 13.6896 16.2118 0.0000 0.0000 0.0000
# 2 13.6896 30.7997 -5.1505 0.0000 0.0000 0.0000
# 3 16.2118 -5.1505 49.6562 0.0000 0.0000 0.0000
# 4 0.0000 0.0000 0.0000 22.7476 0.0000 0.0000
# 5 0.0000 0.0000 0.0000 0.0000 6.0861 0.0000
# 6 0.0000 0.0000 0.0000 0.0000 0.0000 20.3447
#
#
#
# Elastic Compliance Matrix: (Units=1/GPa)
#
#
# Indices 1 2 3 4 5 6 
#
# 1 0.015186 -0.007712 -0.005758 0.000000 0.000000 0.000000
# 2 -0.007712 0.036958 0.006351 0.000000 0.000000 0.000000
# 3 -0.005758 0.006351 0.022677 0.000000 0.000000 0.000000
# 4 0.000000 0.000000 0.000000 0.043961 0.000000 0.000000
# 5 0.000000 0.000000 0.000000 0.000000 0.164310 0.000000
# 6 0.000000 0.000000 0.000000 0.000000 0.000000 0.049153
#
#
# Mechanical properties :
#
#
# Convention : Reuss Voigt Hill
#
# Bulk Modulus (GPa) = 16.50632 23.21214 19.85923
# Shear Modulus (GPa) = 13.63602 18.81278 16.22440
#
# Velocity S-wave (km/s) = 2.63060 3.08985 2.86943
# Velocity P-wave (km/s) = 4.19564 4.95069 4.58872
#
# Compressibility (1/GPa) = 0.06058285
#
# Stress axis : x y z
#
# Youngs Moduli (GPa) = 65.85205 27.05784 44.09743
#
# Poissons Ratio (x) = 0.20868 0.25390
# Poissons Ratio (y) = 0.50788 -0.28008
# Poissons Ratio (z) = 0.37916 -0.17185
#
# Static dielectric constant tensor:
#      x y z
#    x 1.714230 0.000000 0.000000 
#    y 0.000000 1.737240 0.000000 
#    z 0.000000 0.000000 1.663490 
# 
# From -- ./inp_files/2292.got.cif
#   From: 2010.05.17/outbox.cif.g08.bks.cpg/sg31_2_cif.got.tgz:2292.got - 2010.06.03 17:08:30.
