data_PCOD9343955
_publ_section_title
;
Structure prediction by ZEFSAII (Michael W. Deem and Ramdas Pophale) SiO2 
 PCOD9343955
Probable space group: P B A 2
;
_chemical_formula_sum "Si O2"
_cell_formula_units_Z 30
_cell_length_a 11.483588
_cell_length_b 8.261386
_cell_length_c 15.287792
_cell_angle_alpha 90.000000
_cell_angle_beta 90.000000
_cell_angle_gamma 90.000000
_cell_volume 1450.358226
_symmetry_space_group_name_H-M "P B A 2"
_symmetry_group_IT_number 32
_symmetry_cell_setting 'orthorhombic'
loop_
_space_group_symop_operation_xyz
x,y,z
-x,-y,z
1/2-x,1/2+y,z
1/2+x,1/2-y,z
loop_
_atom_site_type_symbol
_atom_site_label
_atom_site_fract_x
_atom_site_fract_y
_atom_site_fract_z
Si Si1 0.368243 0.061562 0.300450
Si Si2 0.000000 0.000000 0.509626
Si Si3 0.188103 0.125815 0.859298
Si Si4 0.123189 0.589031 0.099597
Si Si5 0.623722 0.085304 0.751413
Si Si6 0.912675 0.652427 0.555731
Si Si7 0.688079 0.623058 0.991309
Si Si8 0.787585 0.145641 0.410257
O O1 0.345844 0.114629 0.201103
O O2 0.349189 0.193246 0.376107
O O3 0.500000 0.000000 0.304812
O O4 0.276678 0.924242 0.325529
O O5 0.022473 0.171820 0.559226
O O6 0.887002 0.031567 0.449842
O O7 0.114853 0.239675 0.796519
O O8 0.280027 0.024877 0.800026
O O9 0.250406 0.251437 0.925019
O O10 0.128553 0.001824 0.925465
O O11 0.218472 0.477481 0.049586
O O12 0.113678 0.762970 0.053489
O O13 0.000000 0.500000 0.094218
O O14 0.646488 0.112180 0.648868
O O15 0.500000 0.000000 0.759784
O O16 0.812963 0.665253 0.482553
O O17 0.000000 0.500000 0.538140
#
# Coordination Sequence:
#
# PCOD9343955 Si02
#       8
#     4   2   4   4   4   4   4   4
#     4  11  24  40  67  97 129 174 224 277 338 392
#     4  12  26  42  70 102 126 194 230 268 352 404
#     4   9  20  39  66  95 126 168 211 266 325 397
#     4  10  21  40  65  93 129 169 213 274 329 394
#     4  10  23  43  65  97 133 169 220 275 328 391
#     4  11  26  46  69  99 137 181 231 279 342 401
#     4   9  19  39  63  93 128 165 214 254 333 399
#     4  12  23  44  66  94 136 173 222 283 328 406
#
# _framework density 20.684546999999998
#
# number of rings (size 3 to 8) (size 9 to 14) (size 15 to 20)
#    0.000    1.600    1.333    2.800    1.867    5.867 
#    4.800    6.667    0.000    0.000    0.000    0.000 
#    0.000    0.000    0.000    0.000    0.000    0.000 
#
# Total GULP energy -167452.935860 kJ/mol
# GULP energy per Si atom -5581.764529 kJ/mol
# Density = 2.063747 g / cm^3
# Si number density = 20.684547 Si / 1000 Ang^3
#
#
#
# Elastic Constant Matrix: (Units=GPa)
#
#
# Indices 1 2 3 4 5 6 
#
# 1 50.4985 32.7385 38.9420 0.0000 0.0000 0.0000
# 2 32.7385 133.8160 61.5057 0.0000 0.0000 0.0000
# 3 38.9420 61.5057 149.9329 0.0000 0.0000 0.0000
# 4 0.0000 0.0000 0.0000 111.3533 0.0000 0.0000
# 5 0.0000 0.0000 0.0000 0.0000 20.7102 0.0000
# 6 0.0000 0.0000 0.0000 0.0000 0.0000 39.5489
#
#
#
# Elastic Compliance Matrix: (Units=1/GPa)
#
#
# Indices 1 2 3 4 5 6 
#
# 1 0.026458 -0.004085 -0.005196 0.000000 0.000000 0.000000
# 2 -0.004085 0.009840 -0.002976 0.000000 0.000000 0.000000
# 3 -0.005196 -0.002976 0.009240 0.000000 0.000000 0.000000
# 4 0.000000 0.000000 0.000000 0.008980 0.000000 0.000000
# 5 0.000000 0.000000 0.000000 0.000000 0.048285 0.000000
# 6 0.000000 0.000000 0.000000 0.000000 0.000000 0.025285
#
#
# Mechanical properties :
#
#
# Convention : Reuss Voigt Hill
#
# Bulk Modulus (GPa) = 47.56337 66.73554 57.14945
# Shear Modulus (GPa) = 31.32639 47.72657 39.52648
#
# Velocity S-wave (km/s) = 3.89586 4.80870 4.37615
# Velocity P-wave (km/s) = 6.57887 7.94764 7.29543
#
# Compressibility (1/GPa) = 0.02102458
#
# Stress axis : x y z
#
# Youngs Moduli (GPa) = 37.79610 101.62637 108.22561
#
# Poissons Ratio (x) = 0.41510 0.56237
# Poissons Ratio (y) = 0.15438 0.32204
# Poissons Ratio (z) = 0.19640 0.30241
#
# Static dielectric constant tensor:
#      x y z
#    x 1.702830 0.000000 0.000000 
#    y 0.000000 1.292680 0.000000 
#    z 0.000000 0.000000 1.731390 
# 
# From -- ./inp_files/4167.got.cif
#   From: 2010.05.17/outbox.cif.g08.bks.cpg/sg32_3_cif.got.tgz:4167.got - 2010.06.03 17:12:27.
