data_PCOD9343689
_publ_section_title
;
Structure prediction by ZEFSAII (Michael W. Deem and Ramdas Pophale) SiO2 
 PCOD9343689
Probable space group: P B A 2
;
_chemical_formula_sum "Si O2"
_cell_formula_units_Z 28
_cell_length_a 9.485134
_cell_length_b 21.075142
_cell_length_c 5.068690
_cell_angle_alpha 90.000000
_cell_angle_beta 90.000000
_cell_angle_gamma 90.000000
_cell_volume 1013.233898
_symmetry_space_group_name_H-M "P B A 2"
_symmetry_group_IT_number 32
_symmetry_cell_setting 'orthorhombic'
loop_
_space_group_symop_operation_xyz
x,y,z
-x,-y,z
1/2-x,1/2+y,z
1/2+x,1/2-y,z
loop_
_atom_site_type_symbol
_atom_site_label
_atom_site_fract_x
_atom_site_fract_y
_atom_site_fract_z
Si Si1 0.683708 0.962466 0.801950
Si Si2 0.026144 0.230255 0.734833
Si Si3 0.303175 0.484909 0.304421
Si Si4 0.235719 0.355282 0.132467
Si Si5 0.389202 0.611575 0.497080
Si Si6 0.288419 0.723875 0.247744
Si Si7 0.542238 0.137394 0.634024
O O1 0.729908 0.015987 0.590552
O O2 0.810882 0.912027 0.760497
O O3 0.548534 0.924065 0.709091
O O4 0.689242 0.990139 0.091178
O O5 0.992586 0.161100 0.605450
O O6 0.154624 0.245392 0.532303
O O7 0.948887 0.297849 0.697388
O O8 0.091823 0.223832 0.022327
O O9 0.334271 0.414432 0.199881
O O10 0.408077 0.545027 0.347251
O O11 0.302952 0.284536 0.159313
O O12 0.104318 0.362382 0.338485
O O13 0.168118 0.358885 0.845969
O O14 0.273419 0.650087 0.318978
#
# Coordination Sequence:
#
# PCOD9343689 Si02
#       7
#     4   4   4   4   4   4   4
#     4  10  20  29  42  62  89 119 147 176 212 255
#     4   8  15  28  45  57  75 110 148 181 213 244
#     4  10  20  29  42  62  89 119 147 176 212 255
#     4  10  19  30  43  62  86 119 153 174 206 257
#     4   8  18  30  45  56  87 110 152 182 220 246
#     4   8  15  28  45  57  75 110 148 181 213 244
#     4  10  19  30  43  62  86 119 153 174 206 257
#
# _framework density 27.63429
#
# number of rings (size 3 to 8) (size 9 to 14) (size 15 to 20)
#    1.714    1.143    0.000    2.571    0.000    3.429 
#    0.000    0.000    0.000    0.000    0.000    0.000 
#    0.000    1.143    0.000    1.714    0.000    0.571 
#
# Total GULP energy -155877.780794 kJ/mol
# GULP energy per Si atom -5567.063600 kJ/mol
# Density = 2.757139 g / cm^3
# Si number density = 27.634290 Si / 1000 Ang^3
#
#
#
# Elastic Constant Matrix: (Units=GPa)
#
#
# Indices 1 2 3 4 5 6 
#
# 1 46.5568 33.1106 21.6900 0.0000 0.0000 0.0000
# 2 33.1106 225.2463 24.6041 0.0000 0.0000 0.0000
# 3 21.6900 24.6041 151.5360 0.0000 0.0000 0.0000
# 4 0.0000 0.0000 0.0000 56.4700 0.0000 0.0000
# 5 0.0000 0.0000 0.0000 0.0000 0.0945 0.0000
# 6 0.0000 0.0000 0.0000 0.0000 0.0000 22.5114
#
#
#
# Elastic Compliance Matrix: (Units=1/GPa)
#
#
# Indices 1 2 3 4 5 6 
#
# 1 0.025320 -0.003386 -0.003074 0.000000 0.000000 0.000000
# 2 -0.003386 0.004973 -0.000323 0.000000 0.000000 0.000000
# 3 -0.003074 -0.000323 0.007092 0.000000 0.000000 0.000000
# 4 0.000000 0.000000 0.000000 0.017709 0.000000 0.000000
# 5 0.000000 0.000000 0.000000 0.000000 10.577010 0.000000
# 6 0.000000 0.000000 0.000000 0.000000 0.000000 0.044422
#
#
# Mechanical properties :
#
#
# Convention : Reuss Voigt Hill
#
# Bulk Modulus (GPa) = 41.98605 64.68316 53.33460
# Shear Modulus (GPa) = 0.46738 38.74414 19.60576
#
# Velocity S-wave (km/s) = 0.41170 3.74843 2.66648
# Velocity P-wave (km/s) = 3.93096 6.49554 5.36863
#
# Compressibility (1/GPa) = 0.02381744
#
# Stress axis : x y z
#
# Youngs Moduli (GPa) = 39.49514 201.10279 141.01328
#
# Poissons Ratio (x) = 0.68095 0.43352
# Poissons Ratio (y) = 0.13373 0.04551
# Poissons Ratio (z) = 0.12142 0.06490
#
# Static dielectric constant tensor:
#      x y z
#    x 2.285660 0.000000 0.000000 
#    y 0.000000 2.463640 0.000000 
#    z 0.000000 0.000000 2.000430 
# 
# From -- ./inp_files/1315.got.cif
#   From: 2010.05.17/outbox.cif.g08.bks.cpg/sg32_1_cif.got.tgz:1315.got - 2010.06.03 17:12:27.
