data_PCOD9343108
_publ_section_title
;
Structure prediction by ZEFSAII (Michael W. Deem and Ramdas Pophale) SiO2 
 PCOD9343108
Probable space group: P M N 21
;
_chemical_formula_sum "Si O2"
_cell_formula_units_Z 32
_cell_length_a 8.634071
_cell_length_b 11.789885
_cell_length_c 16.737322
_cell_angle_alpha 90.000000
_cell_angle_beta 90.000000
_cell_angle_gamma 90.000000
_cell_volume 1703.770742
_symmetry_space_group_name_H-M "P M N 21"
_symmetry_group_IT_number 31
_symmetry_cell_setting 'orthorhombic'
loop_
_space_group_symop_operation_xyz
x,y,z
1/2-x,-y,1/2+z
-x,y,z
1/2+x,-y,1/2+z
loop_
_atom_site_type_symbol
_atom_site_label
_atom_site_fract_x
_atom_site_fract_y
_atom_site_fract_z
Si Si1 0.685642 0.430852 0.752780
Si Si2 0.673170 0.901213 0.192806
Si Si3 0.818971 0.710592 0.096969
Si Si4 0.814774 0.858076 0.650105
Si Si5 0.175168 0.236152 0.855911
Si Si6 0.314510 0.798850 0.936457
Si Si7 0.186646 0.942523 0.477617
Si Si8 0.313179 0.318108 0.276233
O O1 0.500000 0.433562 0.751058
O O2 0.736684 0.377132 0.666420
O O3 0.739810 0.348223 0.824333
O O4 0.753549 0.554175 0.768921
O O5 0.500000 0.894865 0.154556
O O6 0.790909 0.833075 0.137990
O O7 0.666170 0.839580 0.276394
O O8 0.709968 0.031870 0.205046
O O9 0.000000 0.690216 0.083009
O O10 0.733124 0.721109 0.012512
O O11 0.755942 0.900377 0.564460
O O12 0.755236 0.750010 0.697544
O O13 0.000000 0.840933 0.640711
O O14 0.261813 0.156689 0.918279
O O15 0.000000 0.262354 0.882766
O O16 0.500000 0.800183 0.929770
O O17 0.244633 0.745958 0.855769
O O18 0.261384 0.929875 0.953201
O O19 0.000000 0.947765 0.479593
O O20 0.500000 0.317215 0.277195
#
# Coordination Sequence:
#
# PCOD9343108 Si02
#       8
#     4   4   4   4   4   4   4   4
#     4  10  22  42  62  83 116 156 201 247 296 354
#     4   9  16  32  56  81 113 149 186 229 288 356
#     4  10  20  35  59  88 116 149 194 249 294 342
#     4   9  18  35  57  82 116 156 190 233 291 353
#     4  10  20  34  58  88 115 150 194 242 292 344
#     4  11  22  38  62  89 122 159 197 242 299 365
#     4  10  20  36  58  86 122 157 194 238 292 359
#     4  11  23  40  62  87 118 156 204 254 298 351
#
# _framework density 18.781870000000001
#
# number of rings (size 3 to 8) (size 9 to 14) (size 15 to 20)
#    0.000    2.000    1.250    2.625    0.000    4.000 
#    2.250    2.500    0.000    0.000    0.000    0.000 
#    0.000    0.000    0.000    0.000    0.000    0.000 
#
# Total GULP energy -178383.713317 kJ/mol
# GULP energy per Si atom -5574.491041 kJ/mol
# Density = 1.873912 g / cm^3
# Si number density = 18.781870 Si / 1000 Ang^3
#
#
#
# Elastic Constant Matrix: (Units=GPa)
#
#
# Indices 1 2 3 4 5 6 
#
# 1 40.9939 37.3892 27.1585 0.0000 0.0000 0.0000
# 2 37.3892 153.8328 79.5864 0.0000 0.0000 0.0000
# 3 27.1585 79.5864 94.6940 0.0000 0.0000 0.0000
# 4 0.0000 0.0000 0.0000 25.1667 0.0000 0.0000
# 5 0.0000 0.0000 0.0000 0.0000 22.6587 0.0000
# 6 0.0000 0.0000 0.0000 0.0000 0.0000 24.9444
#
#
#
# Elastic Compliance Matrix: (Units=1/GPa)
#
#
# Indices 1 2 3 4 5 6 
#
# 1 0.032504 -0.005445 -0.004746 0.000000 0.000000 0.000000
# 2 -0.005445 0.012414 -0.008872 0.000000 0.000000 0.000000
# 3 -0.004746 -0.008872 0.019378 0.000000 0.000000 0.000000
# 4 0.000000 0.000000 0.000000 0.039735 0.000000 0.000000
# 5 0.000000 0.000000 0.000000 0.000000 0.044133 0.000000
# 6 0.000000 0.000000 0.000000 0.000000 0.000000 0.040089
#
#
# Mechanical properties :
#
#
# Convention : Reuss Voigt Hill
#
# Bulk Modulus (GPa) = 38.21094 64.19876 51.20485
# Shear Modulus (GPa) = 21.26739 24.24641 22.75690
#
# Velocity S-wave (km/s) = 3.36867 3.59687 3.48464
# Velocity P-wave (km/s) = 5.95981 7.17673 6.59639
#
# Compressibility (1/GPa) = 0.02617052
#
# Stress axis : x y z
#
# Youngs Moduli (GPa) = 30.76531 80.55621 51.60530
#
# Poissons Ratio (x) = 0.43860 0.24493
# Poissons Ratio (y) = 0.16751 0.45782
# Poissons Ratio (z) = 0.14602 0.71467
#
# Static dielectric constant tensor:
#      x y z
#    x 1.667210 0.000000 0.000000 
#    y 0.000000 1.642270 0.000000 
#    z 0.000000 0.000000 1.677700 
# 
# From -- ./inp_files/4935.got.cif
#   From: 2010.05.17/outbox.cif.g08.bks.cpg/sg31_3_cif.got.tgz:4935.got - 2010.06.03 17:08:30.
