data_PCOD9343487
_publ_section_title
;
Structure prediction by ZEFSAII (Michael W. Deem and Ramdas Pophale) SiO2 
 PCOD9343487
Probable space group: P M N 21
;
_chemical_formula_sum "Si O2"
_cell_formula_units_Z 32
_cell_length_a 17.754722
_cell_length_b 14.172594
_cell_length_c 6.789122
_cell_angle_alpha 90.000000
_cell_angle_beta 90.000000
_cell_angle_gamma 90.000000
_cell_volume 1708.349936
_symmetry_space_group_name_H-M "P M N 21"
_symmetry_group_IT_number 31
_symmetry_cell_setting 'orthorhombic'
loop_
_space_group_symop_operation_xyz
x,y,z
1/2-x,-y,1/2+z
-x,y,z
1/2+x,-y,1/2+z
loop_
_atom_site_type_symbol
_atom_site_label
_atom_site_fract_x
_atom_site_fract_y
_atom_site_fract_z
Si Si1 0.154239 0.828374 0.786040
Si Si2 0.816547 0.673429 0.460306
Si Si3 0.086264 0.676563 0.070295
Si Si4 0.411294 0.466963 0.228960
Si Si5 0.816547 0.173429 0.460306
Si Si6 0.411294 0.966963 0.228960
Si Si7 0.586264 0.823437 0.570295
Si Si8 0.154239 0.328374 0.786040
O O1 0.176844 0.767167 0.594183
O O2 0.113081 0.924806 0.732884
O O3 0.101659 0.761495 0.918637
O O4 0.230049 0.847918 0.910118
O O5 0.859348 0.685565 0.254619
O O6 0.858691 0.590976 0.579727
O O7 0.730049 0.652082 0.410118
O O8 0.000000 0.677750 0.137083
O O9 0.099581 0.581749 0.942975
O O10 0.500000 0.456372 0.179270
O O11 0.386919 0.575194 0.232884
O O12 0.858691 0.090976 0.579727
O O13 0.859348 0.185565 0.254619
O O14 0.823156 0.267167 0.594183
O O15 0.500000 0.956372 0.179270
O O16 0.400419 0.918251 0.442975
O O17 0.500000 0.822250 0.637083
O O18 0.601659 0.738505 0.418637
#
# Coordination Sequence:
#
# PCOD9343487 Si02
#       8
#     4   4   4   4   4   4   4   4
#     4  11  23  40  64  92 124 162 204 249 306 361
#     4  11  23  39  63  93 124 160 205 251 302 360
#     4  10  22  42  63  89 125 159 200 252 302 362
#     4  10  24  41  62  90 123 161 205 254 304 359
#     4  11  23  39  63  93 124 160 205 251 302 360
#     4  10  24  41  62  90 123 161 205 254 304 359
#     4  10  22  42  63  89 125 159 200 252 302 362
#     4  11  23  40  64  92 124 162 204 249 306 361
#
# _framework density 18.731522999999999
#
# number of rings (size 3 to 8) (size 9 to 14) (size 15 to 20)
#    0.000    1.500    2.500    1.500    3.500    5.000 
#    0.000    0.000    0.000    0.000    0.000    0.000 
#    0.000    0.000    0.000    0.000    0.000    0.000 
#
# Total GULP energy -178796.056369 kJ/mol
# GULP energy per Si atom -5587.376762 kJ/mol
# Density = 1.868889 g / cm^3
# Si number density = 18.731523 Si / 1000 Ang^3
#
#
#
# Elastic Constant Matrix: (Units=GPa)
#
#
# Indices 1 2 3 4 5 6 
#
# 1 50.0726 5.9064 -2.3319 0.0000 0.0000 0.0000
# 2 5.9064 93.7688 6.3544 0.0000 0.0000 0.0000
# 3 -2.3319 6.3544 39.9524 0.0000 0.0000 0.0000
# 4 0.0000 0.0000 0.0000 10.1146 0.0000 0.0000
# 5 0.0000 0.0000 0.0000 0.0000 32.1596 0.0000
# 6 0.0000 0.0000 0.0000 0.0000 0.0000 28.4265
#
#
#
# Elastic Compliance Matrix: (Units=1/GPa)
#
#
# Indices 1 2 3 4 5 6 
#
# 1 0.020197 -0.001367 0.001396 0.000000 0.000000 0.000000
# 2 -0.001367 0.010873 -0.001809 0.000000 0.000000 0.000000
# 3 0.001396 -0.001809 0.025399 0.000000 0.000000 0.000000
# 4 0.000000 0.000000 0.000000 0.098867 0.000000 0.000000
# 5 0.000000 0.000000 0.000000 0.000000 0.031095 0.000000
# 6 0.000000 0.000000 0.000000 0.000000 0.000000 0.035178
#
#
# Mechanical properties :
#
#
# Convention : Reuss Voigt Hill
#
# Bulk Modulus (GPa) = 18.90001 22.62797 20.76399
# Shear Modulus (GPa) = 20.59253 25.73112 23.16183
#
# Velocity S-wave (km/s) = 3.31924 3.71034 3.52023
# Velocity P-wave (km/s) = 4.98013 5.51923 5.25659
#
# Compressibility (1/GPa) = 0.05291002
#
# Stress axis : x y z
#
# Youngs Moduli (GPa) = 49.51169 91.96905 39.37157
#
# Poissons Ratio (x) = 0.12571 -0.05497
# Poissons Ratio (y) = 0.06767 0.07123
# Poissons Ratio (z) = -0.06913 0.16639
#
# Static dielectric constant tensor:
#      x y z
#    x 1.641720 0.000000 0.000000 
#    y 0.000000 1.617430 0.000000 
#    z 0.000000 0.000000 1.628420 
# 
# From -- ./inp_files/863.got.cif
#   From: 2010.05.17/outbox.cif.g08.bks.cpg/sg31_1_cif.got.tgz:863.got - 2010.06.03 17:08:30.
