data_PCOD9343965
_publ_section_title
;
Structure prediction by ZEFSAII (Michael W. Deem and Ramdas Pophale) SiO2 
 PCOD9343965
Probable space group: P B A 2
;
_chemical_formula_sum "Si O2"
_cell_formula_units_Z 28
_cell_length_a 19.478768
_cell_length_b 8.620856
_cell_length_c 8.589959
_cell_angle_alpha 90.000000
_cell_angle_beta 90.000000
_cell_angle_gamma 90.000000
_cell_volume 1442.457303
_symmetry_space_group_name_H-M "P B A 2"
_symmetry_group_IT_number 32
_symmetry_cell_setting 'orthorhombic'
loop_
_space_group_symop_operation_xyz
x,y,z
-x,-y,z
1/2-x,1/2+y,z
1/2+x,1/2-y,z
loop_
_atom_site_type_symbol
_atom_site_label
_atom_site_fract_x
_atom_site_fract_y
_atom_site_fract_z
Si Si1 0.799870 0.101249 0.267900
Si Si2 0.679167 0.277313 0.432457
Si Si3 0.482897 0.679056 0.984126
Si Si4 0.265033 0.990123 0.945615
Si Si5 0.656720 0.301734 0.798768
Si Si6 0.881553 0.318566 0.046718
Si Si7 0.063770 0.402562 0.252887
O O1 0.752970 0.204088 0.383551
O O2 0.859531 0.199074 0.182602
O O3 0.825253 0.944719 0.349251
O O4 0.751456 0.051042 0.123938
O O5 0.667145 0.298496 0.614741
O O6 0.620707 0.161774 0.368454
O O7 0.500000 0.500000 0.004753
O O8 0.421147 0.700018 0.862121
O O9 0.555080 0.760495 0.944780
O O10 0.461721 0.759462 0.146967
O O11 0.194810 0.046138 0.866803
O O12 0.304852 0.849494 0.866691
O O13 0.315122 0.138999 0.947024
O O14 0.903745 0.476637 0.131048
O O15 0.000000 0.500000 0.323724
#
# Coordination Sequence:
#
# PCOD9343965 Si02
#       7
#     4   4   4   4   4   4   4
#     4  12  21  40  72  93 125 171 228 277 323 403
#     4  12  23  41  61  99 137 172 209 279 354 405
#     4  11  23  42  65  94 128 174 227 276 326 399
#     4  12  21  40  66  97 121 168 229 272 322 387
#     4  12  26  40  64 100 140 170 213 284 346 404
#     4  11  21  38  71  96 118 165 234 277 318 381
#     4  10  21  41  64  92 122 168 225 270 319 401
#
# _framework density 19.411318999999999
#
# number of rings (size 3 to 8) (size 9 to 14) (size 15 to 20)
#    0.000    0.571    5.714    3.429    0.000    0.000 
#    2.571    3.571    0.000    0.000    0.000    0.000 
#    0.000    0.000    0.000    0.000    0.000    0.000 
#
# Total GULP energy -156433.589204 kJ/mol
# GULP energy per Si atom -5586.913900 kJ/mol
# Density = 1.936714 g / cm^3
# Si number density = 19.411319 Si / 1000 Ang^3
#
#
#
# Elastic Constant Matrix: (Units=GPa)
#
#
# Indices 1 2 3 4 5 6 
#
# 1 119.2722 43.5424 40.5686 0.0000 0.0000 0.0000
# 2 43.5424 117.9204 48.0002 0.0000 0.0000 0.0000
# 3 40.5686 48.0002 88.1200 0.0000 0.0000 0.0000
# 4 0.0000 0.0000 0.0000 22.6025 0.0000 0.0000
# 5 0.0000 0.0000 0.0000 0.0000 19.2749 0.0000
# 6 0.0000 0.0000 0.0000 0.0000 0.0000 45.8638
#
#
#
# Elastic Compliance Matrix: (Units=1/GPa)
#
#
# Indices 1 2 3 4 5 6 
#
# 1 0.010462 -0.002445 -0.003485 0.000000 0.000000 0.000000
# 2 -0.002445 0.011468 -0.005121 0.000000 0.000000 0.000000
# 3 -0.003485 -0.005121 0.015742 0.000000 0.000000 0.000000
# 4 0.000000 0.000000 0.000000 0.044243 0.000000 0.000000
# 5 0.000000 0.000000 0.000000 0.000000 0.051881 0.000000
# 6 0.000000 0.000000 0.000000 0.000000 0.000000 0.021804
#
#
# Mechanical properties :
#
#
# Convention : Reuss Voigt Hill
#
# Bulk Modulus (GPa) = 64.22417 65.50389 64.86403
# Shear Modulus (GPa) = 27.33879 30.42833 28.88356
#
# Velocity S-wave (km/s) = 3.75693 3.96353 3.86161
# Velocity P-wave (km/s) = 7.20952 7.40031 7.30554
#
# Compressibility (1/GPa) = 0.01557046
#
# Stress axis : x y z
#
# Youngs Moduli (GPa) = 95.58459 87.20275 63.52413
#
# Poissons Ratio (x) = 0.21317 0.22137
# Poissons Ratio (y) = 0.23366 0.32531
# Poissons Ratio (z) = 0.33310 0.44657
#
# Static dielectric constant tensor:
#      x y z
#    x 1.743430 0.000000 0.000000 
#    y 0.000000 1.704360 0.000000 
#    z 0.000000 0.000000 1.620940 
# 
# From -- ./inp_files/2514.got.cif
#   From: 2010.05.17/outbox.cif.g08.bks.cpg/sg32_2_cif.got.tgz:2514.got - 2010.06.03 17:12:27.
