data_PCOD9343489
_publ_section_title
;
Structure prediction by ZEFSAII (Michael W. Deem and Ramdas Pophale) SiO2 
 PCOD9343489
Probable space group: P M N 21
;
_chemical_formula_sum "Si O2"
_cell_formula_units_Z 28
_cell_length_a 26.683692
_cell_length_b 5.124948
_cell_length_c 8.656996
_cell_angle_alpha 90.000000
_cell_angle_beta 90.000000
_cell_angle_gamma 90.000000
_cell_volume 1183.866139
_symmetry_space_group_name_H-M "P M N 21"
_symmetry_group_IT_number 31
_symmetry_cell_setting 'orthorhombic'
loop_
_space_group_symop_operation_xyz
x,y,z
1/2-x,-y,1/2+z
-x,y,z
1/2+x,-y,1/2+z
loop_
_atom_site_type_symbol
_atom_site_label
_atom_site_fract_x
_atom_site_fract_y
_atom_site_fract_z
Si Si1 0.500000 0.236461 0.485461
Si Si2 0.358033 0.134185 0.030694
Si Si3 0.500000 0.737789 0.698329
Si Si4 0.774639 0.492601 0.644683
Si Si5 0.153819 0.196649 0.817745
Si Si6 0.891823 0.715080 0.963436
Si Si7 0.800151 0.230228 0.340209
Si Si8 0.095562 0.534553 0.308041
O O1 0.500000 0.528628 0.556500
O O2 0.553001 0.207121 0.399369
O O3 0.500000 0.022824 0.623866
O O4 0.405421 0.265198 0.950501
O O5 0.319937 0.050277 0.892818
O O6 0.325616 0.341426 0.126594
O O7 0.367185 0.898686 0.149700
O O8 0.450516 0.662838 0.793353
O O9 0.789511 0.282229 0.776297
O O10 0.768273 0.338211 0.485822
O O11 0.731392 0.690864 0.691543
O O12 0.125655 0.437901 0.896871
O O13 0.146489 0.945960 0.925605
O O14 0.899838 0.685572 0.146127
O O15 0.852693 0.381137 0.327744
#
# Coordination Sequence:
#
# PCOD9343489 Si02
#       8
#     2   4   2   4   4   4   4   4
#     4  10  22  42  64 107 138 171 221 301 335 414
#     4  10  23  44  65  95 143 178 227 282 343 409
#     4  10  22  42  70  97 142 173 229 289 349 390
#     4  10  23  44  62 100 136 183 222 280 331 416
#     4  11  23  43  67  98 135 186 214 284 339 414
#     4  11  23  41  73  99 135 175 234 276 350 402
#     4  10  24  41  67  96 140 175 233 274 342 404
#     4  10  24  42  67 105 129 183 230 290 336 417
#
# _framework density 23.651319000000001
#
# number of rings (size 3 to 8) (size 9 to 14) (size 15 to 20)
#    0.000    1.714    1.429    1.714    8.000    4.571 
#    0.000    1.429    0.000    2.571    0.000    0.000 
#    0.000    0.000    0.000    0.000    0.000    0.000 
#
# Total GULP energy -156463.343387 kJ/mol
# GULP energy per Si atom -5587.976550 kJ/mol
# Density = 2.359749 g / cm^3
# Si number density = 23.651319 Si / 1000 Ang^3
#
#
#
# Elastic Constant Matrix: (Units=GPa)
#
#
# Indices 1 2 3 4 5 6 
#
# 1 58.2125 18.3271 27.8523 0.0000 0.0000 0.0000
# 2 18.3271 105.3234 16.3251 0.0000 0.0000 0.0000
# 3 27.8523 16.3251 40.0743 0.0000 0.0000 0.0000
# 4 0.0000 0.0000 0.0000 42.7000 0.0000 0.0000
# 5 0.0000 0.0000 0.0000 0.0000 16.1317 0.0000
# 6 0.0000 0.0000 0.0000 0.0000 0.0000 27.0896
#
#
#
# Elastic Compliance Matrix: (Units=1/GPa)
#
#
# Indices 1 2 3 4 5 6 
#
# 1 0.026068 -0.001844 -0.017367 0.000000 0.000000 0.000000
# 2 -0.001844 0.010265 -0.002900 0.000000 0.000000 0.000000
# 3 -0.017367 -0.002900 0.038205 0.000000 0.000000 0.000000
# 4 0.000000 0.000000 0.000000 0.023419 0.000000 0.000000
# 5 0.000000 0.000000 0.000000 0.000000 0.061990 0.000000
# 6 0.000000 0.000000 0.000000 0.000000 0.000000 0.036914
#
#
# Mechanical properties :
#
#
# Convention : Reuss Voigt Hill
#
# Bulk Modulus (GPa) = 32.98495 36.51324 34.74910
# Shear Modulus (GPa) = 19.90536 26.59130 23.24833
#
# Velocity S-wave (km/s) = 2.90421 3.35670 3.13862
# Velocity P-wave (km/s) = 5.02221 5.52222 5.27814
#
# Compressibility (1/GPa) = 0.03031685
#
# Stress axis : x y z
#
# Youngs Moduli (GPa) = 38.36087 97.41874 26.17463
#
# Poissons Ratio (x) = 0.17967 0.45456
# Poissons Ratio (y) = 0.07075 0.07590
# Poissons Ratio (z) = 0.66619 0.28250
#
# Static dielectric constant tensor:
#      x y z
#    x 1.894000 0.000000 0.000000 
#    y 0.000000 1.935020 0.000000 
#    z 0.000000 0.000000 1.944520 
# 
# From -- ./inp_files/3144.got.cif
#   From: 2010.05.17/outbox.cif.g08.bks.cpg/sg31_2_cif.got.tgz:3144.got - 2010.06.03 17:08:30.
