data_PCOD9343156
_publ_section_title
;
Structure prediction by ZEFSAII (Michael W. Deem and Ramdas Pophale) SiO2 
 PCOD9343156
Probable space group: P M N 21
;
_chemical_formula_sum "Si O2"
_cell_formula_units_Z 32
_cell_length_a 7.707766
_cell_length_b 12.933127
_cell_length_c 14.583113
_cell_angle_alpha 90.000000
_cell_angle_beta 90.000000
_cell_angle_gamma 90.000000
_cell_volume 1453.725153
_symmetry_space_group_name_H-M "P M N 21"
_symmetry_group_IT_number 31
_symmetry_cell_setting 'orthorhombic'
loop_
_space_group_symop_operation_xyz
x,y,z
1/2-x,-y,1/2+z
-x,y,z
1/2+x,-y,1/2+z
loop_
_atom_site_type_symbol
_atom_site_label
_atom_site_fract_x
_atom_site_fract_y
_atom_site_fract_z
Si Si1 0.708947 0.915550 0.665330
Si Si2 0.794529 0.176347 0.474537
Si Si3 0.708415 0.856782 0.179075
Si Si4 0.300834 0.420706 0.997800
Si Si5 0.289521 0.749519 0.352649
Si Si6 0.793976 0.317449 0.190692
Si Si7 0.286759 0.613015 0.883207
Si Si8 0.708358 0.955270 0.456865
O O1 0.500000 0.909867 0.665311
O O2 0.773886 0.801682 0.694742
O O3 0.770432 0.933654 0.560478
O O4 0.754184 0.025491 0.711339
O O5 0.720621 0.161324 0.576948
O O6 0.730099 0.276005 0.422006
O O7 0.000000 0.191677 0.483907
O O8 0.768188 0.067390 0.424709
O O9 0.500000 0.850819 0.176107
O O10 0.765764 0.766682 0.248013
O O11 0.500000 0.442829 0.020451
O O12 0.229171 0.368800 0.090664
O O13 0.288265 0.339609 0.914399
O O14 0.223065 0.524414 0.952594
O O15 0.500000 0.738898 0.357086
O O16 0.238557 0.858093 0.398002
O O17 0.730496 0.386661 0.276443
O O18 0.000000 0.307828 0.204201
O O19 0.500000 0.605807 0.883887
O O20 0.500000 0.957164 0.458491
#
# Coordination Sequence:
#
# PCOD9343156 Si02
#       8
#     4   4   4   4   4   4   4   4
#     4   9  17  31  53  78 108 145 185 226 275 334
#     4   9  18  35  55  79 111 146 185 230 285 336
#     4   9  19  32  52  82 116 152 186 227 278 332
#     4  11  23  39  59  86 115 145 192 249 283 320
#     4  10  20  36  55  79 115 158 190 223 282 346
#     4  10  20  39  61  80 108 152 191 226 286 353
#     4   9  21  39  59  82 112 149 190 234 284 341
#     4   9  17  31  50  76 109 143 181 227 277 332
#
# _framework density 22.012414
#
# number of rings (size 3 to 8) (size 9 to 14) (size 15 to 20)
#    0.000    2.500    1.250    0.375    1.750    2.500 
#    0.000    4.375    0.000    0.000    0.000    0.000 
#    0.000    0.000    0.000    0.000    0.000    0.000 
#
# Total GULP energy -178453.517749 kJ/mol
# GULP energy per Si atom -5576.672430 kJ/mol
# Density = 2.196231 g / cm^3
# Si number density = 22.012414 Si / 1000 Ang^3
#
#
#
# Elastic Constant Matrix: (Units=GPa)
#
#
# Indices 1 2 3 4 5 6 
#
# 1 27.2422 -3.0753 0.3887 0.0000 0.0000 0.0000
# 2 -3.0753 106.7551 29.3278 0.0000 0.0000 0.0000
# 3 0.3887 29.3278 63.4728 0.0000 0.0000 0.0000
# 4 0.0000 0.0000 0.0000 26.9007 0.0000 0.0000
# 5 0.0000 0.0000 0.0000 0.0000 7.8089 0.0000
# 6 0.0000 0.0000 0.0000 0.0000 0.0000 19.0608
#
#
#
# Elastic Compliance Matrix: (Units=1/GPa)
#
#
# Indices 1 2 3 4 5 6 
#
# 1 0.036865 0.001287 -0.000821 0.000000 0.000000 0.000000
# 2 0.001287 0.010774 -0.004986 0.000000 0.000000 0.000000
# 3 -0.000821 -0.004986 0.018064 0.000000 0.000000 0.000000
# 4 0.000000 0.000000 0.000000 0.037174 0.000000 0.000000
# 5 0.000000 0.000000 0.000000 0.000000 0.128060 0.000000
# 6 0.000000 0.000000 0.000000 0.000000 0.000000 0.052464
#
#
# Mechanical properties :
#
#
# Convention : Reuss Voigt Hill
#
# Bulk Modulus (GPa) = 17.64791 27.86141 22.75466
# Shear Modulus (GPa) = 16.06031 22.14266 19.10148
#
# Velocity S-wave (km/s) = 2.70405 3.17506 2.94897
# Velocity P-wave (km/s) = 4.21709 5.11136 4.68560
#
# Compressibility (1/GPa) = 0.05666393
#
# Stress axis : x y z
#
# Youngs Moduli (GPa) = 27.12613 92.81516 55.35983
#
# Poissons Ratio (x) = -0.11949 0.04543
# Poissons Ratio (y) = -0.03492 0.27603
# Poissons Ratio (z) = 0.02226 0.46278
#
# Static dielectric constant tensor:
#      x y z
#    x 1.815700 0.000000 0.000000 
#    y 0.000000 1.801680 0.000000 
#    z 0.000000 0.000000 1.840950 
# 
# From -- ./inp_files/5071.got.cif
#   From: 2010.05.17/outbox.cif.g08.bks.cpg/sg31_3_cif.got.tgz:5071.got - 2010.06.03 17:08:30.
