data_PCOD9343782
_publ_section_title
;
Structure prediction by ZEFSAII (Michael W. Deem and Ramdas Pophale) SiO2 
 PCOD9343782
Probable space group: P B A 2
;
_chemical_formula_sum "Si O2"
_cell_formula_units_Z 32
_cell_length_a 10.639822
_cell_length_b 17.040077
_cell_length_c 9.382366
_cell_angle_alpha 90.000000
_cell_angle_beta 90.000000
_cell_angle_gamma 90.000000
_cell_volume 1701.054726
_symmetry_space_group_name_H-M "P B A 2"
_symmetry_group_IT_number 32
_symmetry_cell_setting 'orthorhombic'
loop_
_space_group_symop_operation_xyz
x,y,z
-x,-y,z
1/2-x,1/2+y,z
1/2+x,1/2-y,z
loop_
_atom_site_type_symbol
_atom_site_label
_atom_site_fract_x
_atom_site_fract_y
_atom_site_fract_z
Si Si1 0.250000 0.665011 0.668100
Si Si2 0.014783 0.407196 0.331348
Si Si3 0.250000 0.342227 0.167139
Si Si4 0.481012 0.845078 0.643232
Si Si5 0.250000 0.177958 0.330748
Si Si6 0.485217 0.407196 0.331348
Si Si7 0.018988 0.845078 0.643232
Si Si8 0.250000 0.328302 0.829446
O O1 0.118073 0.620849 0.682462
O O2 0.250000 0.693828 0.502076
O O3 0.381926 0.620849 0.682462
O O4 0.250000 0.737277 0.777527
O O5 0.054244 0.373549 0.486136
O O6 0.878580 0.368901 0.299376
O O7 0.000000 0.500000 0.340201
O O8 0.123696 0.384632 0.221391
O O9 0.250000 0.257351 0.242130
O O10 0.376305 0.384632 0.221391
O O11 0.250000 0.334863 0.997621
O O12 0.500000 0.750000 0.639220
O O13 0.374124 0.863447 0.756470
O O14 0.121421 0.131098 0.299376
O O15 0.500000 0.500000 0.340201
O O16 0.445757 0.373549 0.486136
O O17 0.125876 0.863447 0.756470
#
# Coordination Sequence:
#
# PCOD9343782 Si02
#       8
#     4   4   4   4   4   4   4   4
#     4   8  16  31  53  79 107 135 183 244 279 312
#     4  11  22  38  61  88 116 151 193 242 291 338
#     4  12  23  37  58  85 120 157 191 232 284 352
#     4   9  17  34  57  82 109 142 190 242 283 331
#     4  10  21  38  61  88 113 148 200 246 284 332
#     4  11  22  38  61  88 116 151 193 242 291 338
#     4   9  17  34  57  82 109 142 190 242 283 331
#     4  10  20  32  54  84 112 146 188 232 283 338
#
# _framework density 18.811858999999998
#
# number of rings (size 3 to 8) (size 9 to 14) (size 15 to 20)
#    0.000    2.000    0.000    6.750    0.000    6.000 
#    0.000    1.250    0.000    9.000    0.000    0.000 
#    0.000    0.000    0.000    0.000    0.000    0.000 
#
# Total GULP energy -178583.167784 kJ/mol
# GULP energy per Si atom -5580.723993 kJ/mol
# Density = 1.876904 g / cm^3
# Si number density = 18.811859 Si / 1000 Ang^3
#
#
#
# Elastic Constant Matrix: (Units=GPa)
#
#
# Indices 1 2 3 4 5 6 
#
# 1 162.3478 32.2183 100.8830 0.0000 0.0000 0.0000
# 2 32.2183 73.7573 35.7508 0.0000 0.0000 0.0000
# 3 100.8830 35.7508 144.3654 0.0000 0.0000 0.0000
# 4 0.0000 0.0000 0.0000 -1.8113 0.0000 0.0000
# 5 0.0000 0.0000 0.0000 0.0000 -2.8119 0.0000
# 6 0.0000 0.0000 0.0000 0.0000 0.0000 18.0466
#
#
#
# Elastic Compliance Matrix: (Units=1/GPa)
#
#
# Indices 1 2 3 4 5 6 
#
# 1 0.010984 -0.001224 -0.007372 0.000000 0.000000 0.000000
# 2 -0.001224 0.015544 -0.002994 0.000000 0.000000 0.000000
# 3 -0.007372 -0.002994 0.012820 0.000000 0.000000 0.000000
# 4 0.000000 0.000000 0.000000 -0.552090 0.000000 0.000000
# 5 0.000000 0.000000 0.000000 0.000000 -0.355635 0.000000
# 6 0.000000 0.000000 0.000000 0.000000 0.000000 0.055412
#
#
# Mechanical properties :
#
#
# Convention : Reuss Voigt Hill
#
# Bulk Modulus (GPa) = 61.85487 79.79719 70.82603
# Shear Modulus (GPa) = -6.37434 16.79258 5.20912
#
# Velocity S-wave (km/s) = -1.84278 2.99098 1.66586
# Velocity P-wave (km/s) = 5.33145 7.37825 6.43673
#
# Compressibility (1/GPa) = 0.01616688
#
# Stress axis : x y z
#
# Youngs Moduli (GPa) = 91.04380 64.33398 78.00333
#
# Poissons Ratio (x) = 0.07877 0.57506
# Poissons Ratio (y) = 0.11148 0.23352
# Poissons Ratio (z) = 0.67120 0.19259
#
# Static dielectric constant tensor:
#      x y z
#    x 1.729620 0.000000 0.000000 
#    y 0.000000 1.628500 0.000000 
#    z 0.000000 0.000000 1.606430 
# 
# From -- ./inp_files/2916.got.cif
#   From: 2010.05.17/outbox.cif.g08.bks.cpg/sg32_2_cif.got.tgz:2916.got - 2010.06.03 17:12:27.
