data_PCOD9343980
_publ_section_title
;
Structure prediction by ZEFSAII (Michael W. Deem and Ramdas Pophale) SiO2 
 PCOD9343980
Probable space group: P B A 2
;
_chemical_formula_sum "Si O2"
_cell_formula_units_Z 18
_cell_length_a 8.044046
_cell_length_b 9.377493
_cell_length_c 9.545079
_cell_angle_alpha 90.000000
_cell_angle_beta 90.000000
_cell_angle_gamma 90.000000
_cell_volume 720.013802
_symmetry_space_group_name_H-M "P B A 2"
_symmetry_group_IT_number 32
_symmetry_cell_setting 'orthorhombic'
loop_
_space_group_symop_operation_xyz
x,y,z
-x,-y,z
1/2-x,1/2+y,z
1/2+x,1/2-y,z
loop_
_atom_site_type_symbol
_atom_site_label
_atom_site_fract_x
_atom_site_fract_y
_atom_site_fract_z
Si Si1 0.764411 0.061634 0.058030
Si Si2 0.233416 0.572467 0.657795
Si Si3 0.447520 0.312742 0.557926
Si Si4 0.000000 0.000000 0.305426
Si Si5 0.084077 0.680886 0.945787
O O1 0.886590 0.150175 0.955344
O O2 0.587858 0.133306 0.016855
O O3 0.852725 0.059795 0.208169
O O4 0.727211 0.895372 0.036905
O O5 0.296559 0.417742 0.608729
O O6 0.406304 0.660290 0.669853
O O7 0.119532 0.654484 0.545725
O O8 0.128380 0.607555 0.797106
O O9 0.527437 0.371492 0.415220
#
# Coordination Sequence:
#
# PCOD9343980 Si02
#       5
#     4   4   4   2   4
#     4  11  24  40  66  97 139 182 226 285 340 416
#     4  10  21  42  66 103 136 177 234 287 353 399
#     4  10  24  42  71  98 141 184 227 299 338 420
#     4  10  24  46  62  96 136 182 234 272 348 412
#     4  11  23  40  67 102 136 183 230 288 349 404
#
# _framework density 24.999524000000001
#
# number of rings (size 3 to 8) (size 9 to 14) (size 15 to 20)
#    0.000    1.778    0.000    4.000    0.000   13.333 
#    0.000    4.444    0.000    0.000    0.000    0.000 
#    0.000    0.000    0.000    0.000    0.000    0.000 
#
# Total GULP energy -100309.538511 kJ/mol
# GULP energy per Si atom -5572.752140 kJ/mol
# Density = 2.494262 g / cm^3
# Si number density = 24.999524 Si / 1000 Ang^3
#
#
#
# Elastic Constant Matrix: (Units=GPa)
#
#
# Indices 1 2 3 4 5 6 
#
# 1 143.2242 64.6956 57.2977 0.0000 0.0000 0.0000
# 2 64.6956 93.2389 14.7604 0.0000 0.0000 0.0000
# 3 57.2977 14.7604 127.0880 0.0000 0.0000 0.0000
# 4 0.0000 0.0000 0.0000 -5.4836 0.0000 0.0000
# 5 0.0000 0.0000 0.0000 0.0000 39.3682 0.0000
# 6 0.0000 0.0000 0.0000 0.0000 0.0000 60.3550
#
#
#
# Elastic Compliance Matrix: (Units=1/GPa)
#
#
# Indices 1 2 3 4 5 6 
#
# 1 0.012409 -0.007869 -0.004681 0.000000 0.000000 0.000000
# 2 -0.007869 0.015917 0.001699 0.000000 0.000000 0.000000
# 3 -0.004681 0.001699 0.009782 0.000000 0.000000 0.000000
# 4 0.000000 0.000000 0.000000 -0.182360 0.000000 0.000000
# 5 0.000000 0.000000 0.000000 0.000000 0.025401 0.000000
# 6 0.000000 0.000000 0.000000 0.000000 0.000000 0.016569
#
#
# Mechanical properties :
#
#
# Convention : Reuss Voigt Hill
#
# Bulk Modulus (GPa) = 60.95474 70.78427 65.86950
# Shear Modulus (GPa) = -66.56654 33.96772 -16.29941
#
# Velocity S-wave (km/s) = -5.16575 3.69010 -2.55618
# Velocity P-wave (km/s) = 3.33835 6.82140 4.20636
#
# Compressibility (1/GPa) = 0.01640562
#
# Stress axis : x y z
#
# Youngs Moduli (GPa) = 80.58447 62.82785 102.23353
#
# Poissons Ratio (x) = 0.49442 0.47853
# Poissons Ratio (y) = 0.63416 -0.17373
# Poissons Ratio (z) = 0.37720 -0.10677
#
# Static dielectric constant tensor:
#      x y z
#    x 2.053130 0.000000 0.000000 
#    y 0.000000 2.026680 0.000000 
#    z 0.000000 0.000000 2.049810 
# 
# From -- ./inp_files/2167.got.cif
#   From: 2010.05.17/outbox.cif.g08.bks.cpg/sg32_2_cif.got.tgz:2167.got - 2010.06.03 17:12:27.
