data_PCOD9343239
_publ_section_title
;
Structure prediction by ZEFSAII (Michael W. Deem and Ramdas Pophale) SiO2 
 PCOD9343239
Probable space group: P M N 21
;
_chemical_formula_sum "Si O2"
_cell_formula_units_Z 24
_cell_length_a 16.645854
_cell_length_b 7.555824
_cell_length_c 8.325795
_cell_angle_alpha 90.000000
_cell_angle_beta 90.000000
_cell_angle_gamma 90.000000
_cell_volume 1047.161406
_symmetry_space_group_name_H-M "P M N 21"
_symmetry_group_IT_number 31
_symmetry_cell_setting 'orthorhombic'
loop_
_space_group_symop_operation_xyz
x,y,z
1/2-x,-y,1/2+z
-x,y,z
1/2+x,-y,1/2+z
loop_
_atom_site_type_symbol
_atom_site_label
_atom_site_fract_x
_atom_site_fract_y
_atom_site_fract_z
Si Si1 0.170537 0.194481 0.404520
Si Si2 0.000000 0.178695 0.501302
Si Si3 0.328198 0.202944 0.908885
Si Si4 0.000000 0.682639 0.986151
Si Si5 0.839122 0.294787 0.049529
Si Si6 0.500000 0.231766 0.875151
Si Si7 0.835800 0.704592 0.048876
Si Si8 0.000000 0.273360 0.871598
O O1 0.172845 0.193545 0.213900
O O2 0.250547 0.288409 0.463542
O O3 0.083287 0.269233 0.449369
O O4 0.173572 0.996338 0.474594
O O5 0.000000 0.192158 0.693913
O O6 0.000000 0.984319 0.410103
O O7 0.414610 0.288675 0.950759
O O8 0.329933 0.195253 0.716119
O O9 0.244723 0.290167 0.955618
O O10 0.000000 0.707560 0.185705
O O11 0.913184 0.766400 0.946201
O O12 0.000000 0.489544 0.898222
O O13 0.854875 0.500224 0.088621
O O14 0.916577 0.221156 0.957161
#
# Coordination Sequence:
#
# PCOD9343239 Si02
#       8
#     4   2   4   2   4   2   4   2
#     4  11  22  37  59  88 120 161 203 251 310 369
#     4  10  21  37  60  89 122 160 207 258 308 367
#     4  10  20  38  60  85 118 157 202 253 305 368
#     4   8  18  37  61  85 119 162 202 250 313 375
#     4  11  22  37  59  88 120 161 203 251 310 369
#     4   8  18  37  61  85 119 162 202 250 313 375
#     4  10  20  38  60  85 118 157 202 253 305 368
#     4  10  21  37  60  89 122 160 207 258 308 367
#
# _framework density 22.919103
#
# number of rings (size 3 to 8) (size 9 to 14) (size 15 to 20)
#    0.000    2.000    0.000    3.500    0.000    2.667 
#    0.000    5.833    0.000    0.000    0.000    0.000 
#    0.000    0.000    0.000    0.000    0.000    0.000 
#
# Total GULP energy -133770.497748 kJ/mol
# GULP energy per Si atom -5573.770740 kJ/mol
# Density = 2.286694 g / cm^3
# Si number density = 22.919103 Si / 1000 Ang^3
#
#
#
# Elastic Constant Matrix: (Units=GPa)
#
#
# Indices 1 2 3 4 5 6 
#
# 1 233.2476 9.5756 25.9564 0.0000 0.0000 0.0000
# 2 9.5756 81.4898 3.5325 0.0000 0.0000 0.0000
# 3 25.9564 3.5325 32.3782 0.0000 0.0000 0.0000
# 4 0.0000 0.0000 0.0000 32.4126 0.0000 0.0000
# 5 0.0000 0.0000 0.0000 0.0000 72.4370 0.0000
# 6 0.0000 0.0000 0.0000 0.0000 0.0000 -17.0489
#
#
#
# Elastic Compliance Matrix: (Units=1/GPa)
#
#
# Indices 1 2 3 4 5 6 
#
# 1 0.004720 -0.000392 -0.003741 0.000000 0.000000 0.000000
# 2 -0.000392 0.012362 -0.001034 0.000000 0.000000 0.000000
# 3 -0.003741 -0.001034 0.033997 0.000000 0.000000 0.000000
# 4 0.000000 0.000000 0.000000 0.030852 0.000000 0.000000
# 5 0.000000 0.000000 0.000000 0.000000 0.013805 0.000000
# 6 0.000000 0.000000 0.000000 0.000000 0.000000 -0.058655
#
#
# Mechanical properties :
#
#
# Convention : Reuss Voigt Hill
#
# Bulk Modulus (GPa) = 24.54347 47.24940 35.89643
# Shear Modulus (GPa) = 81.97086 38.09688 60.03387
#
# Velocity S-wave (km/s) = 5.98690 4.08147 5.12354
# Velocity P-wave (km/s) = 7.65001 6.54765 7.12019
#
# Compressibility (1/GPa) = 0.04074403
#
# Stress axis : x y z
#
# Youngs Moduli (GPa) = 211.87856 80.89031 29.41464
#
# Poissons Ratio (x) = 0.03174 0.11003
# Poissons Ratio (y) = 0.08315 0.03042
# Poissons Ratio (z) = 0.79259 0.08365
#
# Static dielectric constant tensor:
#      x y z
#    x 1.953150 0.000000 0.000000 
#    y 0.000000 1.891750 0.000000 
#    z 0.000000 0.000000 1.806400 
# 
# From -- ./inp_files/2835.got.cif
#   From: 2010.05.17/outbox.cif.g08.bks.cpg/sg31_2_cif.got.tgz:2835.got - 2010.06.03 17:08:30.
