data_PCOD9343103
_publ_section_title
;
Structure prediction by ZEFSAII (Michael W. Deem and Ramdas Pophale) SiO2 
 PCOD9343103
Probable space group: P M N 21
;
_chemical_formula_sum "Si O2"
_cell_formula_units_Z 26
_cell_length_a 8.304340
_cell_length_b 7.432419
_cell_length_c 16.875898
_cell_angle_alpha 90.000000
_cell_angle_beta 90.000000
_cell_angle_gamma 90.000000
_cell_volume 1041.602944
_symmetry_space_group_name_H-M "P M N 21"
_symmetry_group_IT_number 31
_symmetry_cell_setting 'orthorhombic'
loop_
_space_group_symop_operation_xyz
x,y,z
1/2-x,-y,1/2+z
-x,y,z
1/2+x,-y,1/2+z
loop_
_atom_site_type_symbol
_atom_site_label
_atom_site_fract_x
_atom_site_fract_y
_atom_site_fract_z
Si Si1 0.677058 0.829489 0.699460
Si Si2 0.180283 0.021328 0.489720
Si Si3 0.688596 0.300898 0.600489
Si Si4 0.329207 0.656903 0.869259
Si Si5 0.000000 0.341576 0.711556
Si Si6 0.000000 0.608511 0.839948
Si Si7 0.000000 0.979628 0.766283
Si Si8 0.313748 0.660969 0.524599
O O1 0.500000 0.923114 0.699362
O O2 0.668980 0.696559 0.775091
O O3 0.697108 0.728248 0.616889
O O4 0.836723 0.942830 0.717177
O O5 0.298259 0.112736 0.553565
O O6 0.182295 0.149667 0.412981
O O7 0.000000 0.035075 0.523254
O O8 0.219246 0.813154 0.476543
O O9 0.500000 0.332075 0.624243
O O10 0.735741 0.454193 0.535993
O O11 0.833686 0.316450 0.663244
O O12 0.500000 0.573157 0.892022
O O13 0.164673 0.549767 0.879973
O O14 0.000000 0.191705 0.781541
O O15 0.000000 0.536132 0.750939
O O16 0.000000 0.827234 0.834453
O O17 0.500000 0.672775 0.503112
#
# Coordination Sequence:
#
# PCOD9343103 Si02
#       8
#     4   4   4   4   2   2   2   4
#     4   9  18  36  60  85 118 155 203 256 307 367
#     4  11  23  39  64  93 127 169 213 261 321 385
#     4  11  24  40  59  91 131 165 210 265 313 385
#     4   9  20  39  62  89 120 167 212 251 316 387
#     4  12  24  38  62  98 124 163 214 257 329 376
#     4  10  22  40  64  86 124 165 202 267 309 378
#     4  10  20  34  56  88 118 152 196 246 306 360
#     4  10  22  38  62  91 120 164 207 258 320 368
#
# _framework density 24.961525999999999
#
# number of rings (size 3 to 8) (size 9 to 14) (size 15 to 20)
#    0.000    1.846    0.769    3.231    4.308    3.692 
#    0.000    3.077    0.000    5.538    0.000    0.000 
#    0.000    0.000    0.000    0.000    0.000    0.000 
#
# Total GULP energy -145229.108123 kJ/mol
# GULP energy per Si atom -5585.734928 kJ/mol
# Density = 2.490471 g / cm^3
# Si number density = 24.961526 Si / 1000 Ang^3
#
#
#
# Elastic Constant Matrix: (Units=GPa)
#
#
# Indices 1 2 3 4 5 6 
#
# 1 206.4084 24.5569 16.1357 0.0000 0.0000 0.0000
# 2 24.5569 91.0508 -2.7423 0.0000 0.0000 0.0000
# 3 16.1357 -2.7423 57.7886 0.0000 0.0000 0.0000
# 4 0.0000 0.0000 0.0000 24.0584 0.0000 0.0000
# 5 0.0000 0.0000 0.0000 0.0000 26.3356 0.0000
# 6 0.0000 0.0000 0.0000 0.0000 0.0000 22.0836
#
#
#
# Elastic Compliance Matrix: (Units=1/GPa)
#
#
# Indices 1 2 3 4 5 6 
#
# 1 0.005132 -0.001429 -0.001501 0.000000 0.000000 0.000000
# 2 -0.001429 0.011397 0.000940 0.000000 0.000000 0.000000
# 3 -0.001501 0.000940 0.017768 0.000000 0.000000 0.000000
# 4 0.000000 0.000000 0.000000 0.041566 0.000000 0.000000
# 5 0.000000 0.000000 0.000000 0.000000 0.037971 0.000000
# 6 0.000000 0.000000 0.000000 0.000000 0.000000 0.045282
#
#
# Mechanical properties :
#
#
# Convention : Reuss Voigt Hill
#
# Bulk Modulus (GPa) = 32.98543 47.90537 40.44540
# Shear Modulus (GPa) = 28.86798 35.64869 32.25833
#
# Velocity S-wave (km/s) = 3.40442 3.78318 3.59879
# Velocity P-wave (km/s) = 5.35693 6.19004 5.78849
#
# Compressibility (1/GPa) = 0.03031642
#
# Stress axis : x y z
#
# Youngs Moduli (GPa) = 194.85032 87.74473 56.28059
#
# Poissons Ratio (x) = 0.12542 0.08447
# Poissons Ratio (y) = 0.27851 -0.05290
# Poissons Ratio (z) = 0.29244 -0.08247
#
# Static dielectric constant tensor:
#      x y z
#    x 1.996360 0.000000 0.000000 
#    y 0.000000 1.977220 0.000000 
#    z 0.000000 0.000000 2.016300 
# 
# From -- ./inp_files/5798.got.cif
#   From: 2010.05.17/outbox.cif.g08.bks.cpg/sg31_3_cif.got.tgz:5798.got - 2010.06.03 17:08:30.
