data_PCOD9343063
_publ_section_title
;
Structure prediction by ZEFSAII (Michael W. Deem and Ramdas Pophale) SiO2 
 PCOD9343063
Probable space group: P M N 21
;
_chemical_formula_sum "Si O2"
_cell_formula_units_Z 28
_cell_length_a 21.360664
_cell_length_b 8.382616
_cell_length_c 7.113182
_cell_angle_alpha 90.000000
_cell_angle_beta 90.000000
_cell_angle_gamma 90.000000
_cell_volume 1273.673877
_symmetry_space_group_name_H-M "P M N 21"
_symmetry_group_IT_number 31
_symmetry_cell_setting 'orthorhombic'
loop_
_space_group_symop_operation_xyz
x,y,z
1/2-x,-y,1/2+z
-x,y,z
1/2+x,-y,1/2+z
loop_
_atom_site_type_symbol
_atom_site_label
_atom_site_fract_x
_atom_site_fract_y
_atom_site_fract_z
Si Si1 0.189407 0.765828 0.038700
Si Si2 0.310109 0.965034 0.047514
Si Si3 0.267418 0.317087 0.954405
Si Si4 0.930577 0.878911 0.559410
Si Si5 0.864949 0.257374 0.870799
Si Si6 0.930330 0.975716 0.000953
Si Si7 0.365414 0.431749 0.189169
O O1 0.251734 0.862640 0.970723
O O2 0.209398 0.693023 0.239153
O O3 0.162026 0.653861 0.875594
O O4 0.129959 0.881830 0.077122
O O5 0.328986 0.872282 0.238361
O O6 0.379559 0.002995 0.965548
O O7 0.284967 0.146744 0.050635
O O8 0.193679 0.333621 0.977504
O O9 0.305370 0.456058 0.056417
O O10 0.907861 0.695047 0.575929
O O11 0.000000 0.891370 0.482788
O O12 0.932885 0.929434 0.778942
O O13 0.913098 0.162455 0.997985
O O14 0.893967 0.399367 0.747258
O O15 0.000000 0.941560 0.074221
#
# Coordination Sequence:
#
# PCOD9343063 Si02
#       7
#     4   4   4   4   4   4   4
#     4  10  20  36  56  83 111 146 191 232 285 331
#     4   9  18  33  54  78 108 140 187 235 266 321
#     4  10  21  35  55  78 113 147 184 240 274 330
#     4   8  16  33  55  79 108 147 186 225 275 333
#     4  10  20  33  54  86 114 147 189 228 289 341
#     4   9  17  33  57  82 111 147 194 238 274 330
#     4  10  22  35  53  84 117 150 181 228 291 346
#
# _framework density 21.983647999999999
#
# number of rings (size 3 to 8) (size 9 to 14) (size 15 to 20)
#    0.000    2.571    1.429    0.857    8.000    0.571 
#    0.000    4.286    0.000    0.000    0.000    4.000 
#    0.000    0.000    0.000    0.000    0.000    0.000 
#
# Total GULP energy -155889.247324 kJ/mol
# GULP energy per Si atom -5567.473119 kJ/mol
# Density = 2.193361 g / cm^3
# Si number density = 21.983648 Si / 1000 Ang^3
#
#
#
# Elastic Constant Matrix: (Units=GPa)
#
#
# Indices 1 2 3 4 5 6 
#
# 1 147.6410 28.0263 7.8326 0.0000 0.0000 0.0000
# 2 28.0263 66.1140 10.6086 0.0000 0.0000 0.0000
# 3 7.8326 10.6086 81.2805 0.0000 0.0000 0.0000
# 4 0.0000 0.0000 0.0000 17.3467 0.0000 0.0000
# 5 0.0000 0.0000 0.0000 0.0000 5.8011 0.0000
# 6 0.0000 0.0000 0.0000 0.0000 0.0000 14.0376
#
#
#
# Elastic Compliance Matrix: (Units=1/GPa)
#
#
# Indices 1 2 3 4 5 6 
#
# 1 0.007374 -0.003076 -0.000309 0.000000 0.000000 0.000000
# 2 -0.003076 0.016732 -0.001887 0.000000 0.000000 0.000000
# 3 -0.000309 -0.001887 0.012579 0.000000 0.000000 0.000000
# 4 0.000000 0.000000 0.000000 0.057648 0.000000 0.000000
# 5 0.000000 0.000000 0.000000 0.000000 0.172382 0.000000
# 6 0.000000 0.000000 0.000000 0.000000 0.000000 0.071237
#
#
# Mechanical properties :
#
#
# Convention : Reuss Voigt Hill
#
# Bulk Modulus (GPa) = 38.25594 43.10785 40.68190
# Shear Modulus (GPa) = 13.99736 24.00829 19.00282
#
# Velocity S-wave (km/s) = 2.52606 3.30827 2.94327
# Velocity P-wave (km/s) = 5.09389 5.85188 5.48600
#
# Compressibility (1/GPa) = 0.02613973
#
# Stress axis : x y z
#
# Youngs Moduli (GPa) = 135.62065 59.76492 79.49626
#
# Poissons Ratio (x) = 0.18384 0.02457
# Poissons Ratio (y) = 0.41718 0.15004
# Poissons Ratio (z) = 0.04191 0.11280
#
# Static dielectric constant tensor:
#      x y z
#    x 1.879220 0.000000 0.000000 
#    y 0.000000 1.878280 0.000000 
#    z 0.000000 0.000000 1.878340 
# 
# From -- ./inp_files/2957.got.cif
#   From: 2010.05.17/outbox.cif.g08.bks.cpg/sg31_2_cif.got.tgz:2957.got - 2010.06.03 17:08:30.
