data_PCOD9343699
_publ_section_title
;
Structure prediction by ZEFSAII (Michael W. Deem and Ramdas Pophale) SiO2 
 PCOD9343699
Probable space group: P B A 2
;
_chemical_formula_sum "Si O2"
_cell_formula_units_Z 24
_cell_length_a 8.401552
_cell_length_b 21.721521
_cell_length_c 5.309615
_cell_angle_alpha 90.000000
_cell_angle_beta 90.000000
_cell_angle_gamma 90.000000
_cell_volume 968.975472
_symmetry_space_group_name_H-M "P B A 2"
_symmetry_group_IT_number 32
_symmetry_cell_setting 'orthorhombic'
loop_
_space_group_symop_operation_xyz
x,y,z
-x,-y,z
1/2-x,1/2+y,z
1/2+x,1/2-y,z
loop_
_atom_site_type_symbol
_atom_site_label
_atom_site_fract_x
_atom_site_fract_y
_atom_site_fract_z
Si Si1 0.047401 0.663602 0.656980
Si Si2 0.088711 0.433361 0.018586
Si Si3 0.681913 0.026959 0.520481
Si Si4 0.662841 0.400702 0.474716
Si Si5 0.973553 0.838566 0.987238
Si Si6 0.766974 0.727863 0.824902
O O1 0.025657 0.619884 0.906299
O O2 0.872878 0.690957 0.624446
O O3 0.154079 0.624636 0.467962
O O4 0.150244 0.724463 0.694009
O O5 0.212033 0.443383 0.790650
O O6 0.000000 0.500000 0.044733
O O7 0.170553 0.426767 0.287607
O O8 0.808055 0.973422 0.475478
O O9 0.500000 0.000000 0.546821
O O10 0.585396 0.373674 0.731902
O O11 0.571789 0.376891 0.231900
O O12 0.878822 0.772780 0.989870
O O13 0.157160 0.819362 0.973925
#
# Coordination Sequence:
#
# PCOD9343699 Si02
#       6
#     4   4   4   4   4   4
#     4  10  20  39  64  96 126 164 215 263 318 383
#     4  10  19  33  59  92 121 150 206 260 308 362
#     4  10  19  32  57  94 115 151 203 254 313 357
#     4  11  21  38  65  92 125 159 210 265 314 379
#     4  10  23  39  61  87 126 166 206 260 320 382
#     4   9  22  41  61  91 126 170 209 259 320 385
#
# _framework density 24.768426000000002
#
# number of rings (size 3 to 8) (size 9 to 14) (size 15 to 20)
#    0.000    2.000    3.333    1.000    7.000    5.333 
#    0.000   10.000    0.000    6.000    0.000    0.000 
#    0.000    0.000    0.000    0.000    0.000    0.000 
#
# Total GULP energy -134056.393787 kJ/mol
# GULP energy per Si atom -5585.683074 kJ/mol
# Density = 2.471205 g / cm^3
# Si number density = 24.768426 Si / 1000 Ang^3
#
#
#
# Elastic Constant Matrix: (Units=GPa)
#
#
# Indices 1 2 3 4 5 6 
#
# 1 96.4152 24.1822 6.1762 0.0000 0.0000 0.0000
# 2 24.1822 93.7353 6.8038 0.0000 0.0000 0.0000
# 3 6.1762 6.8038 128.1275 0.0000 0.0000 0.0000
# 4 0.0000 0.0000 0.0000 1.5676 0.0000 0.0000
# 5 0.0000 0.0000 0.0000 0.0000 12.8429 0.0000
# 6 0.0000 0.0000 0.0000 0.0000 0.0000 23.7950
#
#
#
# Elastic Compliance Matrix: (Units=1/GPa)
#
#
# Indices 1 2 3 4 5 6 
#
# 1 0.011108 -0.002838 -0.000385 0.000000 0.000000 0.000000
# 2 -0.002838 0.011435 -0.000470 0.000000 0.000000 0.000000
# 3 -0.000385 -0.000470 0.007848 0.000000 0.000000 0.000000
# 4 0.000000 0.000000 0.000000 0.637903 0.000000 0.000000
# 5 0.000000 0.000000 0.000000 0.000000 0.077864 0.000000
# 6 0.000000 0.000000 0.000000 0.000000 0.000000 0.042026
#
#
# Mechanical properties :
#
#
# Convention : Reuss Voigt Hill
#
# Bulk Modulus (GPa) = 43.46862 43.62249 43.54555
# Shear Modulus (GPa) = 6.22480 26.38216 16.30348
#
# Velocity S-wave (km/s) = 1.58703 3.26721 2.56840
# Velocity P-wave (km/s) = 4.57672 5.64652 5.13953
#
# Compressibility (1/GPa) = 0.02300510
#
# Stress axis : x y z
#
# Youngs Moduli (GPa) = 90.02348 87.45391 127.41690
#
# Poissons Ratio (x) = 0.24818 0.04903
# Poissons Ratio (y) = 0.25547 0.05994
# Poissons Ratio (z) = 0.03464 0.04114
#
# Static dielectric constant tensor:
#      x y z
#    x 2.020890 0.000000 0.000000 
#    y 0.000000 2.187090 0.000000 
#    z 0.000000 0.000000 1.977570 
# 
# From -- ./inp_files/498.got.cif
#   From: 2010.05.17/outbox.cif.g08.bks.cpg/sg32_1_cif.got.tgz:498.got - 2010.06.03 17:12:27.
