data_PCOD9343293
_publ_section_title
;
Structure prediction by ZEFSAII (Michael W. Deem and Ramdas Pophale) SiO2 
 PCOD9343293
Probable space group: P M N 21
;
_chemical_formula_sum "Si O2"
_cell_formula_units_Z 32
_cell_length_a 7.397172
_cell_length_b 18.732012
_cell_length_c 10.234847
_cell_angle_alpha 90.000000
_cell_angle_beta 90.000000
_cell_angle_gamma 90.000000
_cell_volume 1418.180466
_symmetry_space_group_name_H-M "P M N 21"
_symmetry_group_IT_number 31
_symmetry_cell_setting 'orthorhombic'
loop_
_space_group_symop_operation_xyz
x,y,z
1/2-x,-y,1/2+z
-x,y,z
1/2+x,-y,1/2+z
loop_
_atom_site_type_symbol
_atom_site_label
_atom_site_fract_x
_atom_site_fract_y
_atom_site_fract_z
Si Si1 0.718151 0.965998 0.782390
Si Si2 0.789016 0.076366 0.004611
Si Si3 0.218151 0.465998 0.306935
Si Si4 0.280080 0.686957 0.696070
Si Si5 0.719920 0.813043 0.893254
Si Si6 0.210984 0.423634 0.584714
Si Si7 0.778781 0.265862 0.647799
Si Si8 0.278781 0.765861 0.441525
O O1 0.500000 0.968367 0.785417
O O2 0.782149 0.965142 0.632021
O O3 0.777942 0.890677 0.845112
O O4 0.776623 0.030869 0.873319
O O5 0.714985 0.155814 0.985927
O O6 0.000000 0.087690 0.033791
O O7 0.277942 0.390677 0.244213
O O8 0.282149 0.465142 0.457304
O O9 0.276623 0.530869 0.216006
O O10 0.000000 0.468367 0.303907
O O11 0.500000 0.686355 0.699026
O O12 0.223627 0.750000 0.794662
O O13 0.224034 0.708351 0.550157
O O14 0.500000 0.813645 0.890298
O O15 0.775966 0.791648 0.039167
O O16 0.285015 0.344186 0.603397
O O17 0.000000 0.412310 0.555533
O O18 0.719794 0.250000 0.794662
O O19 0.000000 0.266274 0.649136
O O20 0.500000 0.766274 0.440188
#
# Coordination Sequence:
#
# PCOD9343293 Si02
#       8
#     4   4   4   4   4   4   4   4
#     4  10  21  35  54  79 108 141 175 214 263 316
#     4  10  21  36  53  79 111 139 173 217 261 313
#     4  10  21  35  54  79 108 141 175 214 263 316
#     4   9  15  29  51  73  98 130 171 219 261 297
#     4   9  15  29  51  73  98 130 171 219 261 297
#     4  10  21  36  53  79 111 139 173 217 261 313
#     4   9  17  29  49  77 103 129 171 222 262 299
#     4   9  17  29  49  77 103 129 171 222 262 299
#
# _framework density 22.564122000000001
#
# number of rings (size 3 to 8) (size 9 to 14) (size 15 to 20)
#    0.000    2.500    2.500    0.000    3.500    1.000 
#    0.000    0.000    0.000    3.000    0.000    0.000 
#    0.000    0.000    0.000    0.000    0.000    0.000 
#
# Total GULP energy -178789.913346 kJ/mol
# GULP energy per Si atom -5587.184792 kJ/mol
# Density = 2.251277 g / cm^3
# Si number density = 22.564122 Si / 1000 Ang^3
#
#
#
# Elastic Constant Matrix: (Units=GPa)
#
#
# Indices 1 2 3 4 5 6 
#
# 1 68.4624 -6.6625 -4.6041 0.0000 0.0000 0.0000
# 2 -6.6625 24.1683 -10.9547 0.0000 0.0000 0.0000
# 3 -4.6041 -10.9547 134.1544 0.0000 0.0000 0.0000
# 4 0.0000 0.0000 0.0000 41.4931 0.0000 0.0000
# 5 0.0000 0.0000 0.0000 0.0000 5.1557 0.0000
# 6 0.0000 0.0000 0.0000 0.0000 0.0000 2.8420
#
#
#
# Elastic Compliance Matrix: (Units=1/GPa)
#
#
# Indices 1 2 3 4 5 6 
#
# 1 0.015111 0.004570 0.000892 0.000000 0.000000 0.000000
# 2 0.004570 0.044349 0.003778 0.000000 0.000000 0.000000
# 3 0.000892 0.003778 0.007793 0.000000 0.000000 0.000000
# 4 0.000000 0.000000 0.000000 0.024100 0.000000 0.000000
# 5 0.000000 0.000000 0.000000 0.000000 0.193960 0.000000
# 6 0.000000 0.000000 0.000000 0.000000 0.000000 0.351865
#
#
# Mechanical properties :
#
#
# Convention : Reuss Voigt Hill
#
# Bulk Modulus (GPa) = 11.66408 20.26030 15.96219
# Shear Modulus (GPa) = 7.72468 26.49857 17.11163
#
# Velocity S-wave (km/s) = 1.85226 3.43062 2.75681
# Velocity P-wave (km/s) = 3.12330 4.96897 4.15004
#
# Compressibility (1/GPa) = 0.08573331
#
# Stress axis : x y z
#
# Youngs Moduli (GPa) = 66.17585 22.54845 128.31660
#
# Poissons Ratio (x) = -0.10304 -0.11443
# Poissons Ratio (y) = -0.30242 -0.48481
# Poissons Ratio (z) = -0.05901 -0.08519
#
# Static dielectric constant tensor:
#      x y z
#    x 1.896520 0.000000 0.000000 
#    y 0.000000 1.772300 0.000000 
#    z 0.000000 0.000000 1.818230 
# 
# From -- ./inp_files/2288.got.cif
#   From: 2010.05.17/outbox.cif.g08.bks.cpg/sg31_2_cif.got.tgz:2288.got - 2010.06.03 17:08:30.
