data_PCOD9343029
_publ_section_title
;
Structure prediction by ZEFSAII (Michael W. Deem and Ramdas Pophale) SiO2 
 PCOD9343029
Probable space group: P M N 21
;
_chemical_formula_sum "Si O2"
_cell_formula_units_Z 28
_cell_length_a 13.065216
_cell_length_b 20.079785
_cell_length_c 5.150749
_cell_angle_alpha 90.000000
_cell_angle_beta 90.000000
_cell_angle_gamma 90.000000
_cell_volume 1351.282148
_symmetry_space_group_name_H-M "P M N 21"
_symmetry_group_IT_number 31
_symmetry_cell_setting 'orthorhombic'
loop_
_space_group_symop_operation_xyz
x,y,z
1/2-x,-y,1/2+z
-x,y,z
1/2+x,-y,1/2+z
loop_
_atom_site_type_symbol
_atom_site_label
_atom_site_fract_x
_atom_site_fract_y
_atom_site_fract_z
Si Si1 0.390709 0.986206 0.893800
Si Si2 0.213306 0.790186 0.001777
Si Si3 0.881002 0.724395 0.507239
Si Si4 0.220192 0.908668 0.655437
Si Si5 0.170039 0.572381 0.396231
Si Si6 0.884221 0.144229 0.760633
Si Si7 0.885779 0.487313 0.896434
O O1 0.500000 0.981122 0.753912
O O2 0.292100 0.971296 0.723443
O O3 0.389068 0.925683 0.102531
O O4 0.375174 0.058661 0.013765
O O5 0.185267 0.742930 0.761005
O O6 0.185944 0.864160 0.897093
O O7 0.153383 0.766673 0.256324
O O8 0.332847 0.799593 0.077691
O O9 0.865150 0.647437 0.434183
O O10 0.000000 0.737026 0.566811
O O11 0.300205 0.865588 0.485773
O O12 0.126352 0.526827 0.627143
O O13 0.293346 0.565276 0.409279
O O14 0.133371 0.540373 0.126610
O O15 0.000000 0.159575 0.845165
O O16 0.000000 0.459549 0.919430
#
# Coordination Sequence:
#
# PCOD9343029 Si02
#       7
#     4   4   4   4   4   4   4
#     4  10  21  34  59  90 117 153 194 253 321 378
#     4  11  25  43  61  91 125 166 216 265 302 372
#     4  12  24  43  65  90 128 174 216 258 313 373
#     4  11  20  40  61  90 128 154 205 259 314 390
#     4  10  22  37  63  97 129 168 215 254 305 376
#     4  10  21  42  66  87 118 162 205 255 318 382
#     4  10  19  37  63  97 133 167 205 260 315 359
#
# _framework density 20.721062
#
# number of rings (size 3 to 8) (size 9 to 14) (size 15 to 20)
#    0.000    1.429    2.857    3.000    0.000    1.714 
#    0.000    1.429    0.000    0.000    0.000    0.000 
#    0.000    0.000    0.000    0.000    0.000    0.000 
#
# Total GULP energy -156311.373510 kJ/mol
# GULP energy per Si atom -5582.549054 kJ/mol
# Density = 2.067390 g / cm^3
# Si number density = 20.721062 Si / 1000 Ang^3
#
#
#
# Elastic Constant Matrix: (Units=GPa)
#
#
# Indices 1 2 3 4 5 6 
#
# 1 102.9385 19.7122 21.2935 0.0000 0.0000 0.0000
# 2 19.7122 40.7244 4.9531 0.0000 0.0000 0.0000
# 3 21.2935 4.9531 72.1726 0.0000 0.0000 0.0000
# 4 0.0000 0.0000 0.0000 19.4152 0.0000 0.0000
# 5 0.0000 0.0000 0.0000 0.0000 25.1732 0.0000
# 6 0.0000 0.0000 0.0000 0.0000 0.0000 10.7659
#
#
#
# Elastic Compliance Matrix: (Units=1/GPa)
#
#
# Indices 1 2 3 4 5 6 
#
# 1 0.011311 -0.005112 -0.002986 0.000000 0.000000 0.000000
# 2 -0.005112 0.027072 -0.000350 0.000000 0.000000 0.000000
# 3 -0.002986 -0.000350 0.014761 0.000000 0.000000 0.000000
# 4 0.000000 0.000000 0.000000 0.051506 0.000000 0.000000
# 5 0.000000 0.000000 0.000000 0.000000 0.039725 0.000000
# 6 0.000000 0.000000 0.000000 0.000000 0.000000 0.092886
#
#
# Mechanical properties :
#
#
# Convention : Reuss Voigt Hill
#
# Bulk Modulus (GPa) = 27.58759 34.19479 30.89119
# Shear Modulus (GPa) = 18.78007 22.39598 20.58803
#
# Velocity S-wave (km/s) = 3.01379 3.29117 3.15553
# Velocity P-wave (km/s) = 5.04513 5.56602 5.31196
#
# Compressibility (1/GPa) = 0.03624818
#
# Stress axis : x y z
#
# Youngs Moduli (GPa) = 88.40813 36.93833 67.74713
#
# Poissons Ratio (x) = 0.18882 0.20232
# Poissons Ratio (y) = 0.45193 0.02369
# Poissons Ratio (z) = 0.26402 0.01292
#
# Static dielectric constant tensor:
#      x y z
#    x 1.700490 0.000000 0.000000 
#    y 0.000000 1.715330 0.000000 
#    z 0.000000 0.000000 1.790100 
# 
# From -- ./inp_files/420.got.cif
#   From: 2010.05.17/outbox.cif.g08.bks.cpg/sg31_1_cif.got.tgz:420.got - 2010.06.03 17:08:30.
