data_PCOD9343608
_publ_section_title
;
Structure prediction by ZEFSAII (Michael W. Deem and Ramdas Pophale) SiO2 
 PCOD9343608
Probable space group: P M N 21
;
_chemical_formula_sum "Si O2"
_cell_formula_units_Z 32
_cell_length_a 9.000000
_cell_length_b 12.000000
_cell_length_c 15.000000
_cell_angle_alpha 90.000000
_cell_angle_beta 90.000000
_cell_angle_gamma 90.000000
_cell_volume 1620.000000
_symmetry_space_group_name_H-M "P M N 21"
_symmetry_group_IT_number 31
_symmetry_cell_setting 'orthorhombic'
loop_
_space_group_symop_operation_xyz
x,y,z
1/2-x,-y,1/2+z
-x,y,z
1/2+x,-y,1/2+z
loop_
_atom_site_type_symbol
_atom_site_label
_atom_site_fract_x
_atom_site_fract_y
_atom_site_fract_z
Si Si1 0.819004 0.992201 0.297400
Si Si2 0.829209 0.242216 0.308397
Si Si3 0.820990 0.481572 0.300363
Si Si4 0.325725 0.024498 0.599361
Si Si5 0.818852 0.599573 0.480483
Si Si6 0.179481 0.855850 0.472319
Si Si7 0.664861 0.779286 0.017351
Si Si8 0.326202 0.560069 0.135379
O O1 0.763083 0.120014 0.294616
O O2 0.781690 0.944431 0.200479
O O3 0.000000 0.997019 0.305287
O O4 0.769506 0.921945 0.383101
O O5 0.761272 0.358088 0.275790
O O6 0.833710 0.256788 0.415101
O O7 0.000000 0.236266 0.274743
O O8 0.769732 0.527245 0.395585
O O9 0.769445 0.564152 0.223859
O O10 0.000000 0.474077 0.303600
O O11 0.500000 0.000658 0.599234
O O12 0.240576 0.919619 0.558373
O O13 0.285446 0.128374 0.537591
O O14 0.772360 0.727426 0.471809
O O15 0.772324 0.539239 0.571009
O O16 0.000000 0.597256 0.480100
O O17 0.000000 0.858239 0.473400
O O18 0.500000 0.829469 0.033552
O O19 0.683373 0.672702 0.078934
O O20 0.500000 0.542256 0.157228
#
# Coordination Sequence:
#
# PCOD9343608 Si02
#       8
#     4   4   4   4   4   4   4   4
#     4   9  19  34  55  79 107 144 185 223 268 328
#     4   9  16  33  59  79  99 140 194 228 258 323
#     4  10  20  35  59  84 106 144 192 233 271 326
#     4  11  23  36  55  87 117 139 179 242 286 316
#     4   9  19  36  58  82 110 147 192 226 262 331
#     4  10  20  38  60  78 107 154 191 218 266 339
#     4  10  19  37  62  79 104 150 195 226 269 337
#     4  10  21  37  56  84 116 146 182 232 280 326
#
# _framework density 19.753086
#
# number of rings (size 3 to 8) (size 9 to 14) (size 15 to 20)
#    0.000    2.250    2.500    0.375    3.500    0.500 
#    0.000    3.125    0.000    0.000    0.000    0.000 
#    0.000    0.000    0.000    0.000    0.000    0.000 
#
# Total GULP energy -178377.943281 kJ/mol
# GULP energy per Si atom -5574.310728 kJ/mol
# Density = 1.970813 g / cm^3
# Si number density = 19.753086 Si / 1000 Ang^3
#
#
#
# Elastic Constant Matrix: (Units=GPa)
#
#
# Indices 1 2 3 4 5 6 
#
# 1 3.7047 12.1489 4.9319 0.0000 0.0000 0.0000
# 2 12.1489 59.3283 -2.4134 0.0000 0.0000 0.0000
# 3 4.9319 -2.4134 53.4399 0.0000 0.0000 0.0000
# 4 0.0000 0.0000 0.0000 21.1546 0.0000 0.0000
# 5 0.0000 0.0000 0.0000 0.0000 22.2079 0.0000
# 6 0.0000 0.0000 0.0000 0.0000 0.0000 2.1493
#
#
#
# Elastic Compliance Matrix: (Units=1/GPa)
#
#
# Indices 1 2 3 4 5 6 
#
# 1 1.503885 -0.314180 -0.152981 0.000000 0.000000 0.000000
# 2 -0.314180 0.082522 0.032722 0.000000 0.000000 0.000000
# 3 -0.152981 0.032722 0.034309 0.000000 0.000000 0.000000
# 4 0.000000 0.000000 0.000000 0.047271 0.000000 0.000000
# 5 0.000000 0.000000 0.000000 0.000000 0.045029 0.000000
# 6 0.000000 0.000000 0.000000 0.000000 0.000000 0.465260
#
#
# Mechanical properties :
#
#
# Convention : Reuss Voigt Hill
#
# Bulk Modulus (GPa) = 1.33007 16.20085 8.76546
# Shear Modulus (GPa) = 1.51618 15.88940 8.70279
#
# Velocity S-wave (km/s) = 0.87706 2.83927 2.10127
# Velocity P-wave (km/s) = 1.30401 4.35524 3.21470
#
# Compressibility (1/GPa) = 0.75183894
#
# Stress axis : x y z
#
# Youngs Moduli (GPa) = 0.66494 12.11794 29.14693
#
# Poissons Ratio (x) = 3.80721 4.45893
# Poissons Ratio (y) = 0.20891 -0.95375
# Poissons Ratio (z) = 0.10172 -0.39653
#
# Static dielectric constant tensor:
#      x y z
#    x 1.666100 0.000000 0.000000 
#    y 0.000000 1.712160 0.000000 
#    z 0.000000 0.000000 1.677160 
# 
# From -- ./inp_files/5016.got.cif
#   From: 2010.05.17/outbox.ucp.g08.bks.cvg/sg31_3_cif.got.tgz:5016.got - 2010.06.11 10:34:26.
