data_PCOD9343597
_publ_section_title
;
Structure prediction by ZEFSAII (Michael W. Deem and Ramdas Pophale) SiO2 
 PCOD9343597
Probable space group: P M N 21
;
_chemical_formula_sum "Si O2"
_cell_formula_units_Z 32
_cell_length_a 7.398201
_cell_length_b 7.954228
_cell_length_c 19.436446
_cell_angle_alpha 90.000000
_cell_angle_beta 90.000000
_cell_angle_gamma 90.000000
_cell_volume 1143.776101
_symmetry_space_group_name_H-M "P M N 21"
_symmetry_group_IT_number 31
_symmetry_cell_setting 'orthorhombic'
loop_
_space_group_symop_operation_xyz
x,y,z
1/2-x,-y,1/2+z
-x,y,z
1/2+x,-y,1/2+z
loop_
_atom_site_type_symbol
_atom_site_label
_atom_site_fract_x
_atom_site_fract_y
_atom_site_fract_z
Si Si1 0.282947 0.781832 0.468650
Si Si2 0.278626 0.604536 0.340337
Si Si3 0.217053 0.718168 0.750936
Si Si4 0.213274 0.509859 0.130713
Si Si5 0.713275 0.990141 0.088874
Si Si6 0.278625 0.104537 0.379250
Si Si7 0.293554 0.832911 0.221965
Si Si8 0.793554 0.667088 0.997622
O O1 0.500000 0.775098 0.471017
O O2 0.232046 0.840256 0.544928
O O3 0.225665 0.939630 0.420731
O O4 0.223090 0.627912 0.419734
O O5 0.500000 0.607200 0.339205
O O6 0.225666 0.439630 0.298855
O O7 0.215582 0.760294 0.292665
O O8 0.267955 0.659745 0.674659
O O9 0.276910 0.872088 0.799853
O O10 0.000000 0.724902 0.748569
O O11 0.297167 0.660772 0.175682
O O12 0.282248 0.532064 0.052430
O O13 0.000000 0.543596 0.126416
O O14 0.500000 0.956405 0.093171
O O15 0.782248 0.967935 0.167157
O O16 0.797166 0.839227 0.043905
O O17 0.500000 0.107200 0.380381
O O18 0.215582 0.260294 0.426921
O O19 0.500000 0.883302 0.237621
O O20 0.000000 0.616698 0.981966
#
# Coordination Sequence:
#
# PCOD9343597 Si02
#       8
#     4   4   4   4   4   4   4   4
#     4   9  16  27  42  59  79 103 132 163 194 231
#     4   8  14  25  42  60  76  99 132 165 192 224
#     4   9  16  27  42  59  79 103 132 163 194 231
#     4   9  15  23  38  60  82 102 127 163 202 233
#     4   9  15  23  38  60  82 102 127 163 202 233
#     4   8  14  25  42  60  76  99 132 165 192 224
#     4   8  14  25  40  58  79 103 133 165 194 228
#     4   8  14  25  40  58  79 103 133 165 194 228
#
# _framework density 27.977502999999999
#
# number of rings (size 3 to 8) (size 9 to 14) (size 15 to 20)
#    0.000    3.500    0.000    2.250    0.000    1.000 
#    0.000    5.000    0.000    1.500    0.000    0.000 
#    0.000    0.000    0.000    0.000    0.000    2.250 
#
# Total GULP energy -178777.914810 kJ/mol
# GULP energy per Si atom -5586.809838 kJ/mol
# Density = 2.791382 g / cm^3
# Si number density = 27.977503 Si / 1000 Ang^3
#
#
#
# Elastic Constant Matrix: (Units=GPa)
#
#
# Indices 1 2 3 4 5 6 
#
# 1 99.5933 0.6590 3.0294 0.0000 0.0000 0.0000
# 2 0.6590 111.3316 19.3357 0.0000 0.0000 0.0000
# 3 3.0294 19.3357 235.0839 0.0000 0.0000 0.0000
# 4 0.0000 0.0000 0.0000 65.6699 0.0000 0.0000
# 5 0.0000 0.0000 0.0000 0.0000 15.1884 0.0000
# 6 0.0000 0.0000 0.0000 0.0000 0.0000 -12.3830
#
#
#
# Elastic Compliance Matrix: (Units=1/GPa)
#
#
# Indices 1 2 3 4 5 6 
#
# 1 0.010045 -0.000038 -0.000126 0.000000 0.000000 0.000000
# 2 -0.000038 0.009112 -0.000749 0.000000 0.000000 0.000000
# 3 -0.000126 -0.000749 0.004317 0.000000 0.000000 0.000000
# 4 0.000000 0.000000 0.000000 0.015228 0.000000 0.000000
# 5 0.000000 0.000000 0.000000 0.000000 0.065840 0.000000
# 6 0.000000 0.000000 0.000000 0.000000 0.000000 -0.080756
#
#
# Mechanical properties :
#
#
# Convention : Reuss Voigt Hill
#
# Bulk Modulus (GPa) = 46.19221 54.67299 50.43260
# Shear Modulus (GPa) = 152.30962 41.89404 97.10183
#
# Velocity S-wave (km/s) = 7.38635 3.87385 5.89767
# Velocity P-wave (km/s) = 9.44937 6.29231 8.02757
#
# Compressibility (1/GPa) = 0.02164867
#
# Stress axis : x y z
#
# Youngs Moduli (GPa) = 99.55273 109.73958 231.64043
#
# Poissons Ratio (x) = 0.00412 0.02927
# Poissons Ratio (y) = 0.00373 0.17350
# Poissons Ratio (z) = 0.01258 0.08220
#
# Static dielectric constant tensor:
#      x y z
#    x 2.515930 0.000000 0.000000 
#    y 0.000000 2.289130 0.000000 
#    z 0.000000 0.000000 2.179740 
# 
# From -- ./inp_files/5844.got.cif
#   From: 2010.05.17/outbox.cif.g08.bks.cpg/sg31_3_cif.got.tgz:5844.got - 2010.06.03 17:08:30.
