data_PCOD9343976
_publ_section_title
;
Structure prediction by ZEFSAII (Michael W. Deem and Ramdas Pophale) SiO2 
 PCOD9343976
Probable space group: P B A 2
;
_chemical_formula_sum "Si O2"
_cell_formula_units_Z 30
_cell_length_a 8.983566
_cell_length_b 11.561651
_cell_length_c 14.127242
_cell_angle_alpha 90.000000
_cell_angle_beta 90.000000
_cell_angle_gamma 90.000000
_cell_volume 1467.323939
_symmetry_space_group_name_H-M "P B A 2"
_symmetry_group_IT_number 32
_symmetry_cell_setting 'orthorhombic'
loop_
_space_group_symop_operation_xyz
x,y,z
-x,-y,z
1/2-x,1/2+y,z
1/2+x,1/2-y,z
loop_
_atom_site_type_symbol
_atom_site_label
_atom_site_fract_x
_atom_site_fract_y
_atom_site_fract_z
Si Si1 0.000000 0.000000 0.877010
Si Si2 0.830540 0.171925 0.016135
Si Si3 0.340730 0.710327 0.773921
Si Si4 0.053149 0.869281 0.225424
Si Si5 0.942436 0.371706 0.453313
Si Si6 0.048069 0.633822 0.671487
Si Si7 0.532257 0.134719 0.942051
Si Si8 0.695247 0.247104 0.341176
O O1 0.917857 0.906511 0.811278
O O2 0.108414 0.928349 0.946299
O O3 0.901696 0.160780 0.118806
O O4 0.654166 0.155102 0.023808
O O5 0.885552 0.292500 0.969070
O O6 0.174171 0.676104 0.745093
O O7 0.415120 0.774524 0.684850
O O8 0.379237 0.805062 0.854954
O O9 0.192887 0.845788 0.294847
O O10 0.914261 0.793530 0.260536
O O11 0.000000 0.000000 0.230144
O O12 0.899656 0.358739 0.563154
O O13 0.805069 0.341513 0.386073
O O14 0.000000 0.500000 0.438397
O O15 0.084022 0.295016 0.423091
O O16 0.000000 0.500000 0.689071
O O17 0.500000 0.000000 0.927196
#
# Coordination Sequence:
#
# PCOD9343976 Si02
#       8
#     2   4   4   4   4   4   4   4
#     4  10  24  40  64  88 134 170 216 266 322 378
#     4  11  24  42  63  95 130 174 220 274 321 383
#     4  11  24  42  63  95 126 173 217 265 322 386
#     4  11  22  40  64  94 129 169 218 268 320 392
#     4  10  21  42  64  94 128 166 208 270 331 385
#     4  11  25  41  68  95 132 168 222 271 325 399
#     4  11  26  42  66  91 131 174 220 271 329 383
#     4  10  22  39  66  94 128 169 214 264 332 392
#
# _framework density 20.445381000000001
#
# number of rings (size 3 to 8) (size 9 to 14) (size 15 to 20)
#    0.000    1.333    0.667    4.400    9.333    1.067 
#    0.000    3.333    2.933    0.000    0.000    0.000 
#    0.000    0.000    0.000    0.000    0.000    0.000 
#
# Total GULP energy -167590.278794 kJ/mol
# GULP energy per Si atom -5586.342626 kJ/mol
# Density = 2.039885 g / cm^3
# Si number density = 20.445381 Si / 1000 Ang^3
#
#
#
# Elastic Constant Matrix: (Units=GPa)
#
#
# Indices 1 2 3 4 5 6 
#
# 1 112.9542 44.3284 37.4928 0.0000 0.0000 0.0000
# 2 44.3284 125.4536 43.1178 0.0000 0.0000 0.0000
# 3 37.4928 43.1178 88.6183 0.0000 0.0000 0.0000
# 4 0.0000 0.0000 0.0000 25.2510 0.0000 0.0000
# 5 0.0000 0.0000 0.0000 0.0000 34.8333 0.0000
# 6 0.0000 0.0000 0.0000 0.0000 0.0000 24.6092
#
#
#
# Elastic Compliance Matrix: (Units=1/GPa)
#
#
# Indices 1 2 3 4 5 6 
#
# 1 0.011040 -0.002757 -0.003330 0.000000 0.000000 0.000000
# 2 -0.002757 0.010260 -0.003826 0.000000 0.000000 0.000000
# 3 -0.003330 -0.003826 0.014555 0.000000 0.000000 0.000000
# 4 0.000000 0.000000 0.000000 0.039602 0.000000 0.000000
# 5 0.000000 0.000000 0.000000 0.000000 0.028708 0.000000
# 6 0.000000 0.000000 0.000000 0.000000 0.000000 0.040635
#
#
# Mechanical properties :
#
#
# Convention : Reuss Voigt Hill
#
# Bulk Modulus (GPa) = 62.38070 64.10046 63.24058
# Shear Modulus (GPa) = 29.41727 30.41117 29.91422
#
# Velocity S-wave (km/s) = 3.79730 3.86091 3.82924
# Velocity P-wave (km/s) = 7.05713 7.16210 7.10981
#
# Compressibility (1/GPa) = 0.01603060
#
# Stress axis : x y z
#
# Youngs Moduli (GPa) = 90.57825 97.46568 68.70707
#
# Poissons Ratio (x) = 0.26867 0.22877
# Poissons Ratio (y) = 0.24969 0.26286
# Poissons Ratio (z) = 0.30159 0.37289
#
# Static dielectric constant tensor:
#      x y z
#    x 1.767230 0.000000 0.000000 
#    y 0.000000 1.697120 0.000000 
#    z 0.000000 0.000000 1.752150 
# 
# From -- ./inp_files/4127.got.cif
#   From: 2010.05.17/outbox.cif.g08.bks.cpg/sg32_3_cif.got.tgz:4127.got - 2010.06.03 17:12:27.
