data_PCOD9343877
_publ_section_title
;
Structure prediction by ZEFSAII (Michael W. Deem and Ramdas Pophale) SiO2 
 PCOD9343877
Probable space group: P B A 2
;
_chemical_formula_sum "Si O2"
_cell_formula_units_Z 26
_cell_length_a 9.827761
_cell_length_b 13.550926
_cell_length_c 9.077093
_cell_angle_alpha 90.000000
_cell_angle_beta 90.000000
_cell_angle_gamma 90.000000
_cell_volume 1208.844239
_symmetry_space_group_name_H-M "P B A 2"
_symmetry_group_IT_number 32
_symmetry_cell_setting 'orthorhombic'
loop_
_space_group_symop_operation_xyz
x,y,z
-x,-y,z
1/2-x,1/2+y,z
1/2+x,1/2-y,z
loop_
_atom_site_type_symbol
_atom_site_label
_atom_site_fract_x
_atom_site_fract_y
_atom_site_fract_z
Si Si1 0.385217 0.802239 0.610290
Si Si2 0.000000 0.000000 0.563326
Si Si3 0.500000 0.500000 0.049346
Si Si4 0.776696 0.990482 0.820548
Si Si5 0.500000 0.000000 0.719423
Si Si6 0.708708 0.215079 0.923093
Si Si7 0.542059 0.722245 0.115985
Si Si8 0.611434 0.700112 0.440352
O O1 0.418244 0.917623 0.631419
O O2 0.339963 0.748703 0.762464
O O3 0.526638 0.757530 0.562525
O O4 0.268291 0.793755 0.487905
O O5 0.869947 0.984017 0.673250
O O6 0.951800 0.090748 0.462384
O O7 0.544072 0.601495 0.125881
O O8 0.621805 0.456612 0.947993
O O9 0.745492 0.102710 0.875462
O O10 0.624460 0.947884 0.806023
O O11 0.594051 0.231365 0.047173
O O12 0.843809 0.253697 0.999232
O O13 0.579973 0.748748 0.282938
#
# Coordination Sequence:
#
# PCOD9343877 Si02
#       8
#     4   2   2   4   2   4   4   4
#     4  11  25  41  67  98 128 176 229 279 335 396
#     4  11  21  42  62  96 138 176 222 278 334 404
#     4   9  21  38  62  90 124 178 212 270 332 406
#     4   9  20  37  63  92 124 165 224 277 325 380
#     4  10  20  42  60  98 126 162 216 294 320 388
#     4  10  21  41  61  92 123 171 219 276 318 395
#     4  11  23  41  63  91 135 169 222 270 340 398
#     4  12  25  41  64  99 134 180 219 279 342 405
#
# _framework density 21.508147999999998
#
# number of rings (size 3 to 8) (size 9 to 14) (size 15 to 20)
#    0.000    1.538    3.077    2.308    6.462    2.462 
#    0.000    0.000    0.000   12.000    0.000    0.000 
#    0.000    0.000    0.000    0.000    0.000    0.000 
#
# Total GULP energy -144861.516315 kJ/mol
# GULP energy per Si atom -5571.596781 kJ/mol
# Density = 2.145919 g / cm^3
# Si number density = 21.508148 Si / 1000 Ang^3
#
#
#
# Elastic Constant Matrix: (Units=GPa)
#
#
# Indices 1 2 3 4 5 6 
#
# 1 126.6338 -2.2285 9.1353 0.0000 0.0000 0.0000
# 2 -2.2285 33.9619 6.4337 0.0000 0.0000 0.0000
# 3 9.1353 6.4337 82.8302 0.0000 0.0000 0.0000
# 4 0.0000 0.0000 0.0000 14.0209 0.0000 0.0000
# 5 0.0000 0.0000 0.0000 0.0000 25.9477 0.0000
# 6 0.0000 0.0000 0.0000 0.0000 0.0000 33.0175
#
#
#
# Elastic Compliance Matrix: (Units=1/GPa)
#
#
# Indices 1 2 3 4 5 6 
#
# 1 0.007976 0.000700 -0.000934 0.000000 0.000000 0.000000
# 2 0.000700 0.029946 -0.002403 0.000000 0.000000 0.000000
# 3 -0.000934 -0.002403 0.012363 0.000000 0.000000 0.000000
# 4 0.000000 0.000000 0.000000 0.071322 0.000000 0.000000
# 5 0.000000 0.000000 0.000000 0.000000 0.038539 0.000000
# 6 0.000000 0.000000 0.000000 0.000000 0.000000 0.030287
#
#
# Mechanical properties :
#
#
# Convention : Reuss Voigt Hill
#
# Bulk Modulus (GPa) = 22.21677 30.01188 26.11432
# Shear Modulus (GPa) = 23.72918 29.93624 26.83271
#
# Velocity S-wave (km/s) = 3.32515 3.73481 3.53591
# Velocity P-wave (km/s) = 5.00939 5.70810 5.37012
#
# Compressibility (1/GPa) = 0.04501105
#
# Stress axis : x y z
#
# Youngs Moduli (GPa) = 125.36828 33.39345 80.88923
#
# Poissons Ratio (x) = -0.02339 0.07556
# Poissons Ratio (y) = -0.08780 0.19440
# Poissons Ratio (z) = 0.11711 0.08025
#
# Static dielectric constant tensor:
#      x y z
#    x 1.789090 0.000000 0.000000 
#    y 0.000000 2.135050 0.000000 
#    z 0.000000 0.000000 1.802110 
# 
# From -- ./inp_files/2430.got.cif
#   From: 2010.05.17/outbox.cif.g08.bks.cpg/sg32_2_cif.got.tgz:2430.got - 2010.06.03 17:12:27.
