data_PCOD9343509
_publ_section_title
;
Structure prediction by ZEFSAII (Michael W. Deem and Ramdas Pophale) SiO2 
 PCOD9343509
Probable space group: P M N 21
;
_chemical_formula_sum "Si O2"
_cell_formula_units_Z 20
_cell_length_a 27.722942
_cell_length_b 5.004011
_cell_length_c 5.413922
_cell_angle_alpha 90.000000
_cell_angle_beta 90.000000
_cell_angle_gamma 90.000000
_cell_volume 751.051238
_symmetry_space_group_name_H-M "P M N 21"
_symmetry_group_IT_number 31
_symmetry_cell_setting 'orthorhombic'
loop_
_space_group_symop_operation_xyz
x,y,z
1/2-x,-y,1/2+z
-x,y,z
1/2+x,-y,1/2+z
loop_
_atom_site_type_symbol
_atom_site_label
_atom_site_fract_x
_atom_site_fract_y
_atom_site_fract_z
Si Si1 0.500000 0.971810 0.044140
Si Si2 0.258096 0.330286 0.153618
Si Si3 0.859727 0.660203 0.459850
Si Si4 0.000000 0.520707 0.200005
Si Si5 0.658907 0.861240 0.638521
Si Si6 0.421856 0.629976 0.316730
O O1 0.454566 0.864675 0.202785
O O2 0.500000 0.261942 0.918567
O O3 0.500000 0.773685 0.812075
O O4 0.253419 0.476469 0.418055
O O5 0.313466 0.245562 0.119237
O O6 0.216638 0.106214 0.119310
O O7 0.846335 0.382421 0.329930
O O8 0.905624 0.589083 0.619573
O O9 0.865831 0.880651 0.251561
O O10 0.047102 0.519664 0.026138
O O11 0.628142 0.759162 0.408812
#
# Coordination Sequence:
#
# PCOD9343509 Si02
#       6
#     2   4   4   2   4   4
#     4  11  28  51  83 116 157 203 268 345 419 490
#     4  10  22  48  76 116 168 224 278 342 406 488
#     4  11  26  46  77 114 162 215 272 329 402 489
#     4  11  28  51  83 116 157 203 268 345 419 490
#     4  11  26  46  77 114 162 215 272 329 402 489
#     4  11  26  52  82 118 158 212 270 337 416 494
#
# _framework density 26.629339999999999
#
# number of rings (size 3 to 8) (size 9 to 14) (size 15 to 20)
#    0.000    1.200    2.000    1.200    0.000   20.800 
#    0.000    3.000    0.000    0.000    0.000    0.000 
#    0.000    0.000    0.000    0.000    0.000    0.000 
#
# Total GULP energy -112214.360880 kJ/mol
# GULP energy per Si atom -5610.718044 kJ/mol
# Density = 2.656873 g / cm^3
# Si number density = 26.629340 Si / 1000 Ang^3
#
#
#
# Elastic Constant Matrix: (Units=GPa)
#
#
# Indices 1 2 3 4 5 6 
#
# 1 192.6161 -15.6001 37.4674 0.0000 0.0000 0.0000
# 2 -15.6001 177.7492 24.6391 0.0000 0.0000 0.0000
# 3 37.4674 24.6391 91.2411 0.0000 0.0000 0.0000
# 4 0.0000 0.0000 0.0000 46.9783 0.0000 0.0000
# 5 0.0000 0.0000 0.0000 0.0000 150.8891 0.0000
# 6 0.0000 0.0000 0.0000 0.0000 0.0000 29.5029
#
#
#
# Elastic Compliance Matrix: (Units=1/GPa)
#
#
# Indices 1 2 3 4 5 6 
#
# 1 0.005768 0.000867 -0.002603 0.000000 0.000000 0.000000
# 2 0.000867 0.005975 -0.001970 0.000000 0.000000 0.000000
# 3 -0.002603 -0.001970 0.012561 0.000000 0.000000 0.000000
# 4 0.000000 0.000000 0.000000 0.021286 0.000000 0.000000
# 5 0.000000 0.000000 0.000000 0.000000 0.006627 0.000000
# 6 0.000000 0.000000 0.000000 0.000000 0.000000 0.033895
#
#
# Mechanical properties :
#
#
# Convention : Reuss Voigt Hill
#
# Bulk Modulus (GPa) = 59.19535 61.62437 60.40986
# Shear Modulus (GPa) = 50.42644 73.14739 61.78692
#
# Velocity S-wave (km/s) = 4.35632 5.24675 4.82213
# Velocity P-wave (km/s) = 6.89790 7.73927 7.33066
#
# Compressibility (1/GPa) = 0.01689322
#
# Stress axis : x y z
#
# Youngs Moduli (GPa) = 173.36471 167.36359 79.61371
#
# Poissons Ratio (x) = -0.14511 0.20722
# Poissons Ratio (y) = -0.15031 0.15680
# Poissons Ratio (z) = 0.45123 0.32963
#
# Static dielectric constant tensor:
#      x y z
#    x 2.026810 0.000000 0.000000 
#    y 0.000000 1.990590 0.000000 
#    z 0.000000 0.000000 2.058560 
# 
# From -- ./inp_files/1316.got.cif
#   From: 2010.05.17/outbox.cif.g08.bks.cpg/sg31_1_cif.got.tgz:1316.got - 2010.06.03 17:08:30.
