data_PCOD9343905
_publ_section_title
;
Structure prediction by ZEFSAII (Michael W. Deem and Ramdas Pophale) SiO2 
 PCOD9343905
Probable space group: P B A 2
;
_chemical_formula_sum "Si O2"
_cell_formula_units_Z 26
_cell_length_a 15.326142
_cell_length_b 7.672984
_cell_length_c 11.609946
_cell_angle_alpha 90.000000
_cell_angle_beta 90.000000
_cell_angle_gamma 90.000000
_cell_volume 1365.297633
_symmetry_space_group_name_H-M "P B A 2"
_symmetry_group_IT_number 32
_symmetry_cell_setting 'orthorhombic'
loop_
_space_group_symop_operation_xyz
x,y,z
-x,-y,z
1/2-x,1/2+y,z
1/2+x,1/2-y,z
loop_
_atom_site_type_symbol
_atom_site_label
_atom_site_fract_x
_atom_site_fract_y
_atom_site_fract_z
Si Si1 1.000000 0.788034 0.881210
Si Si2 0.500000 0.000000 0.689213
Si Si3 0.101392 0.500000 0.467689
Si Si4 0.394197 0.301442 0.309430
Si Si5 0.848299 0.792333 0.055508
Si Si6 0.848300 0.207669 0.055508
Si Si7 0.105804 0.198558 0.309429
O O1 1.000000 0.672799 0.766688
O O2 0.083052 0.736967 0.959444
O O3 0.000000 0.000000 0.862108
O O4 0.916946 0.736968 0.959443
O O5 0.584539 0.000000 0.604072
O O6 0.138026 0.674372 0.410394
O O7 0.138026 0.325628 0.410393
O O8 0.000000 0.500000 0.425599
O O9 0.367106 0.226772 0.184713
O O10 0.361796 0.500000 0.322912
O O11 0.500000 0.312165 0.309365
O O12 0.749999 0.750002 0.022628
O O13 0.867105 0.726774 0.184712
O O14 0.859919 0.000001 0.064718
#
# Coordination Sequence:
#
# PCOD9343905 Si02
#       7
#     4   2   4   4   4   4   4
#     4  10  22  39  55  81 121 150 195 240 280 338
#     4  10  22  34  58  86 100 158 212 232 274 328
#     4   8  18  31  50  87 102 138 192 231 270 335
#     4   9  16  31  54  79 114 142 170 227 289 342
#     4  10  21  35  56  90 117 150 185 231 299 357
#     4  10  21  35  56  90 117 150 185 231 299 357
#     4   9  16  31  54  79 114 142 170 227 289 342
#
# _framework density 19.043465999999999
#
# number of rings (size 3 to 8) (size 9 to 14) (size 15 to 20)
#    0.462    2.154    1.538    0.000    4.308    1.231 
#    0.000    0.000    0.000    1.846    0.000    0.000 
#    0.000    0.000    0.000    0.000    0.000    0.000 
#
# Total GULP energy -144820.572966 kJ/mol
# GULP energy per Si atom -5570.022037 kJ/mol
# Density = 1.900012 g / cm^3
# Si number density = 19.043466 Si / 1000 Ang^3
#
#
#
# Elastic Constant Matrix: (Units=GPa)
#
#
# Indices 1 2 3 4 5 6 
#
# 1 69.8216 20.0682 42.4789 0.0000 0.0000 0.0000
# 2 20.0682 89.7105 72.6011 0.0000 0.0000 0.0000
# 3 42.4789 72.6011 159.1669 0.0000 0.0000 0.0000
# 4 0.0000 0.0000 0.0000 38.9302 0.0000 0.0000
# 5 0.0000 0.0000 0.0000 0.0000 -4.2566 0.0000
# 6 0.0000 0.0000 0.0000 0.0000 0.0000 14.4854
#
#
#
# Elastic Compliance Matrix: (Units=1/GPa)
#
#
# Indices 1 2 3 4 5 6 
#
# 1 0.017101 -0.000209 -0.004469 0.000000 0.000000 0.000000
# 2 -0.000209 0.017672 -0.008005 0.000000 0.000000 0.000000
# 3 -0.004469 -0.008005 0.011127 0.000000 0.000000 0.000000
# 4 0.000000 0.000000 0.000000 0.025687 0.000000 0.000000
# 5 0.000000 0.000000 0.000000 0.000000 -0.234929 0.000000
# 6 0.000000 0.000000 0.000000 0.000000 0.000000 0.069035
#
#
# Mechanical properties :
#
#
# Convention : Reuss Voigt Hill
#
# Bulk Modulus (GPa) = 48.69907 65.44392 57.07150
# Shear Modulus (GPa) = -80.51949 22.06851 -29.22549
#
# Velocity S-wave (km/s) = -6.50951 3.40788 -3.92174
# Velocity P-wave (km/s) = 5.55610 7.06576 3.08665
#
# Compressibility (1/GPa) = 0.02053427
#
# Stress axis : x y z
#
# Youngs Moduli (GPa) = 58.47625 56.58659 89.87470
#
# Poissons Ratio (x) = 0.01184 0.40161
# Poissons Ratio (y) = 0.01223 0.71944
# Poissons Ratio (z) = 0.26130 0.45297
#
# Static dielectric constant tensor:
#      x y z
#    x 1.651450 0.000000 0.000000 
#    y 0.000000 1.717160 0.000000 
#    z 0.000000 0.000000 1.650580 
# 
# From -- ./inp_files/3916.got.cif
#   From: 2010.05.17/outbox.cif.g08.bks.cpg/sg32_2_cif.got.tgz:3916.got - 2010.06.03 17:12:27.
