data_PCOD9343132
_publ_section_title
;
Structure prediction by ZEFSAII (Michael W. Deem and Ramdas Pophale) SiO2 
 PCOD9343132
Probable space group: P M N 21
;
_chemical_formula_sum "Si O2"
_cell_formula_units_Z 32
_cell_length_a 9.175816
_cell_length_b 11.480160
_cell_length_c 16.133819
_cell_angle_alpha 90.000000
_cell_angle_beta 90.000000
_cell_angle_gamma 90.000000
_cell_volume 1699.533844
_symmetry_space_group_name_H-M "P M N 21"
_symmetry_group_IT_number 31
_symmetry_cell_setting 'orthorhombic'
loop_
_space_group_symop_operation_xyz
x,y,z
1/2-x,-y,1/2+z
-x,y,z
1/2+x,-y,1/2+z
loop_
_atom_site_type_symbol
_atom_site_label
_atom_site_fract_x
_atom_site_fract_y
_atom_site_fract_z
Si Si1 0.672928 0.513896 0.611200
Si Si2 0.665653 0.070619 0.971581
Si Si3 0.670175 0.791231 0.607191
Si Si4 0.833214 0.828564 0.285426
Si Si5 0.831107 0.851277 0.922648
Si Si6 0.667587 0.049078 0.235750
Si Si7 0.175949 0.418419 0.776114
Si Si8 0.823184 0.582402 0.931035
O O1 0.500000 0.486557 0.621600
O O2 0.688497 0.653034 0.608982
O O3 0.762169 0.466029 0.689174
O O4 0.721015 0.464762 0.521505
O O5 0.500000 0.072699 0.003057
O O6 0.663474 0.117356 0.877701
O O7 0.731486 0.940756 0.973261
O O8 0.768876 0.155447 0.022736
O O9 0.500000 0.817914 0.616662
O O10 0.760242 0.854489 0.678435
O O11 0.742165 0.710076 0.287177
O O12 0.000000 0.806981 0.258910
O O13 0.756534 0.928825 0.231525
O O14 0.829344 0.900475 0.829063
O O15 0.779987 0.717619 0.922504
O O16 0.000000 0.855020 0.951658
O O17 0.500000 0.028297 0.213585
O O18 0.222792 0.501731 0.853375
O O19 0.000000 0.414717 0.774844
O O20 0.000000 0.579904 0.929356
#
# Coordination Sequence:
#
# PCOD9343132 Si02
#       8
#     4   4   4   4   4   4   4   4
#     4  10  22  39  58  83 115 152 196 240 284 344
#     4  10  21  36  56  82 112 145 185 236 286 339
#     4  11  22  36  56  81 112 150 189 233 288 345
#     4  10  21  38  58  82 113 149 189 233 286 344
#     4   9  18  35  58  81 107 143 187 233 286 344
#     4  10  20  35  57  83 110 142 185 238 289 341
#     4  11  22  38  61  87 117 154 195 240 290 343
#     4   9  19  37  60  83 112 153 194 233 281 340
#
# _framework density 18.828693000000001
#
# number of rings (size 3 to 8) (size 9 to 14) (size 15 to 20)
#    0.000    2.000    0.000    3.375    0.000    6.000 
#    0.000    6.875    0.000    0.000    0.000    0.000 
#    0.000    0.000    0.000    0.000    0.000    0.000 
#
# Total GULP energy -178646.348635 kJ/mol
# GULP energy per Si atom -5582.698395 kJ/mol
# Density = 1.878584 g / cm^3
# Si number density = 18.828693 Si / 1000 Ang^3
#
#
#
# Elastic Constant Matrix: (Units=GPa)
#
#
# Indices 1 2 3 4 5 6 
#
# 1 90.2331 58.9402 36.0950 0.0000 0.0000 0.0000
# 2 58.9402 122.8172 38.1068 0.0000 0.0000 0.0000
# 3 36.0950 38.1068 71.1369 0.0000 0.0000 0.0000
# 4 0.0000 0.0000 0.0000 26.7973 0.0000 0.0000
# 5 0.0000 0.0000 0.0000 0.0000 30.7969 0.0000
# 6 0.0000 0.0000 0.0000 0.0000 0.0000 30.1355
#
#
#
# Elastic Compliance Matrix: (Units=1/GPa)
#
#
# Indices 1 2 3 4 5 6 
#
# 1 0.017667 -0.006833 -0.005304 0.000000 0.000000 0.000000
# 2 -0.006833 0.012408 -0.003180 0.000000 0.000000 0.000000
# 3 -0.005304 -0.003180 0.018452 0.000000 0.000000 0.000000
# 4 0.000000 0.000000 0.000000 0.037317 0.000000 0.000000
# 5 0.000000 0.000000 0.000000 0.000000 0.032471 0.000000
# 6 0.000000 0.000000 0.000000 0.000000 0.000000 0.033183
#
#
# Mechanical properties :
#
#
# Convention : Reuss Voigt Hill
#
# Bulk Modulus (GPa) = 55.88524 61.16348 58.52436
# Shear Modulus (GPa) = 26.58203 27.61562 27.09882
#
# Velocity S-wave (km/s) = 3.76145 3.83388 3.79783
# Velocity P-wave (km/s) = 6.97208 7.22169 7.09799
#
# Compressibility (1/GPa) = 0.01789381
#
# Stress axis : x y z
#
# Youngs Moduli (GPa) = 56.60131 80.59417 54.19441
#
# Poissons Ratio (x) = 0.55069 0.28746
# Poissons Ratio (y) = 0.38675 0.17232
# Poissons Ratio (z) = 0.30023 0.25626
#
# Static dielectric constant tensor:
#      x y z
#    x 1.640300 0.000000 0.000000 
#    y 0.000000 1.622210 0.000000 
#    z 0.000000 0.000000 1.664180 
# 
# From -- ./inp_files/5104.got.cif
#   From: 2010.05.17/outbox.cif.g08.bks.cpg/sg31_3_cif.got.tgz:5104.got - 2010.06.03 17:08:30.
