data_PCOD9343933
_publ_section_title
;
Structure prediction by ZEFSAII (Michael W. Deem and Ramdas Pophale) SiO2 
 PCOD9343933
Probable space group: P B A 2
;
_chemical_formula_sum "Si O2"
_cell_formula_units_Z 30
_cell_length_a 17.900746
_cell_length_b 13.873908
_cell_length_c 6.821146
_cell_angle_alpha 90.000000
_cell_angle_beta 90.000000
_cell_angle_gamma 90.000000
_cell_volume 1694.054140
_symmetry_space_group_name_H-M "P B A 2"
_symmetry_group_IT_number 32
_symmetry_cell_setting 'orthorhombic'
loop_
_space_group_symop_operation_xyz
x,y,z
-x,-y,z
1/2-x,1/2+y,z
1/2+x,1/2-y,z
loop_
_atom_site_type_symbol
_atom_site_label
_atom_site_fract_x
_atom_site_fract_y
_atom_site_fract_z
Si Si1 0.969541 0.823669 0.088240
Si Si2 0.648744 0.232641 0.337959
Si Si3 0.875360 0.058790 0.574302
Si Si4 0.859888 0.179691 0.964501
Si Si5 0.865319 0.846839 0.735541
Si Si6 0.000000 0.000000 0.308481
Si Si7 0.759254 0.354217 0.057943
Si Si8 0.749753 0.059115 0.244489
O O1 0.931941 0.750118 0.239642
O O2 0.057637 0.823626 0.055934
O O3 0.950234 0.930541 0.173011
O O4 0.928869 0.809576 0.881904
O O5 0.647065 0.273876 0.557103
O O6 0.707412 0.298213 0.215482
O O7 0.680584 0.126025 0.307592
O O8 0.803729 0.051548 0.433244
O O9 0.887479 0.952752 0.663456
O O10 0.865467 0.138146 0.743296
O O11 0.948879 0.069668 0.439940
O O12 0.828166 0.286966 0.996658
O O13 0.801312 0.112097 0.081293
O O14 0.791334 0.861703 0.864331
O O15 0.775009 0.457469 0.153813
#
# Coordination Sequence:
#
# PCOD9343933 Si02
#       8
#     4   4   4   4   4   2   4   4
#     4  11  22  36  53  87 118 152 191 237 303 358
#     4  10  22  37  57  83 115 154 192 243 286 352
#     4  12  20  33  57  88 118 151 185 238 306 358
#     4  11  23  36  58  85 117 152 192 240 298 358
#     4  11  19  36  57  82 120 147 188 237 300 351
#     4  12  20  34  54  88 126 152 184 246 310 370
#     4  10  21  39  56  83 113 152 196 240 287 349
#     4  11  21  39  59  83 115 152 202 238 290 348
#
# _framework density 17.708998000000001
#
# number of rings (size 3 to 8) (size 9 to 14) (size 15 to 20)
#    0.000    1.067    5.333    3.200    0.000    0.000 
#    0.000    0.667    0.000    0.000    0.000    0.000 
#    0.000    0.000    0.000    0.000    0.000    0.000 
#
# Total GULP energy -167443.507147 kJ/mol
# GULP energy per Si atom -5581.450238 kJ/mol
# Density = 1.766869 g / cm^3
# Si number density = 17.708998 Si / 1000 Ang^3
#
#
#
# Elastic Constant Matrix: (Units=GPa)
#
#
# Indices 1 2 3 4 5 6 
#
# 1 61.9371 40.3069 35.6630 0.0000 0.0000 0.0000
# 2 40.3069 106.1709 45.3376 0.0000 0.0000 0.0000
# 3 35.6630 45.3376 123.6123 0.0000 0.0000 0.0000
# 4 0.0000 0.0000 0.0000 21.4676 0.0000 0.0000
# 5 0.0000 0.0000 0.0000 0.0000 14.9726 0.0000
# 6 0.0000 0.0000 0.0000 0.0000 0.0000 29.8518
#
#
#
# Elastic Compliance Matrix: (Units=1/GPa)
#
#
# Indices 1 2 3 4 5 6 
#
# 1 0.023058 -0.007011 -0.004081 0.000000 0.000000 0.000000
# 2 -0.007011 0.013300 -0.002855 0.000000 0.000000 0.000000
# 3 -0.004081 -0.002855 0.010314 0.000000 0.000000 0.000000
# 4 0.000000 0.000000 0.000000 0.046582 0.000000 0.000000
# 5 0.000000 0.000000 0.000000 0.000000 0.066789 0.000000
# 6 0.000000 0.000000 0.000000 0.000000 0.000000 0.033499
#
#
# Mechanical properties :
#
#
# Convention : Reuss Voigt Hill
#
# Bulk Modulus (GPa) = 53.25505 59.37058 56.31281
# Shear Modulus (GPa) = 21.95924 24.61926 23.28925
#
# Velocity S-wave (km/s) = 3.52519 3.73260 3.63038
# Velocity P-wave (km/s) = 6.83424 7.22322 7.03142
#
# Compressibility (1/GPa) = 0.01877756
#
# Stress axis : x y z
#
# Youngs Moduli (GPa) = 43.36942 75.18961 96.95200
#
# Poissons Ratio (x) = 0.52716 0.39565
# Poissons Ratio (y) = 0.30406 0.27682
# Poissons Ratio (z) = 0.17698 0.21468
#
# Static dielectric constant tensor:
#      x y z
#    x 1.616850 0.000000 0.000000 
#    y 0.000000 1.611270 0.000000 
#    z 0.000000 0.000000 1.644050 
# 
# From -- ./inp_files/1281.got.cif
#   From: 2010.05.17/outbox.cif.g08.bks.cpg/sg32_1_cif.got.tgz:1281.got - 2010.06.03 17:12:27.
