data_PCOD9343012
_publ_section_title
;
Structure prediction by ZEFSAII (Michael W. Deem and Ramdas Pophale) SiO2 
 PCOD9343012
Probable space group: P M N 21
;
_chemical_formula_sum "Si O2"
_cell_formula_units_Z 24
_cell_length_a 15.375503
_cell_length_b 7.888138
_cell_length_c 9.302713
_cell_angle_alpha 90.000000
_cell_angle_beta 90.000000
_cell_angle_gamma 90.000000
_cell_volume 1128.271076
_symmetry_space_group_name_H-M "P M N 21"
_symmetry_group_IT_number 31
_symmetry_cell_setting 'orthorhombic'
loop_
_space_group_symop_operation_xyz
x,y,z
1/2-x,-y,1/2+z
-x,y,z
1/2+x,-y,1/2+z
loop_
_atom_site_type_symbol
_atom_site_label
_atom_site_fract_x
_atom_site_fract_y
_atom_site_fract_z
Si Si1 0.594728 0.277750 0.401610
Si Si2 0.094365 0.111135 0.862835
Si Si3 0.675994 0.488169 0.640488
Si Si4 0.222931 0.204069 0.297332
Si Si5 0.728350 0.305892 0.924795
Si Si6 0.319978 0.990342 0.082017
O O1 0.500000 0.309795 0.333971
O O2 0.606736 0.397273 0.538896
O O3 0.682297 0.296596 0.308011
O O4 0.597418 0.075702 0.434734
O O5 0.175863 0.221316 0.910827
O O6 0.000000 0.188452 0.890101
O O7 0.107405 0.072119 0.692699
O O8 0.657438 0.665609 0.722765
O O9 0.700467 0.362941 0.768456
O O10 0.755328 0.538635 0.533400
O O11 0.200408 0.142432 0.456687
O O12 0.241953 0.044294 0.192474
O O13 0.666080 0.165954 0.995928
#
# Coordination Sequence:
#
# PCOD9343012 Si02
#       6
#     4   4   4   4   4   4
#     4  10  20  38  59  85 121 156 195 247 300 355
#     4  10  22  39  63  90 118 157 204 250 298 358
#     4  11  23  36  59  93 120 158 197 249 300 362
#     4  10  20  37  61  89 115 157 207 244 293 353
#     4  11  22  36  63  89 121 156 208 245 296 357
#     4  10  19  36  63  88 113 156 205 251 281 359
#
# _framework density 21.271481999999999
#
# number of rings (size 3 to 8) (size 9 to 14) (size 15 to 20)
#    0.000    1.667    5.000    1.000    0.000    0.667 
#    0.000    1.667    0.000    2.000    0.000    0.000 
#    0.000    0.000    0.000    0.000    0.000    0.000 
#
# Total GULP energy -133740.815006 kJ/mol
# GULP energy per Si atom -5572.533959 kJ/mol
# Density = 2.122307 g / cm^3
# Si number density = 21.271482 Si / 1000 Ang^3
#
#
#
# Elastic Constant Matrix: (Units=GPa)
#
#
# Indices 1 2 3 4 5 6 
#
# 1 23.6657 5.1323 23.1465 0.0000 0.0000 0.0000
# 2 5.1323 71.4167 45.9795 0.0000 0.0000 0.0000
# 3 23.1465 45.9795 120.6277 0.0000 0.0000 0.0000
# 4 0.0000 0.0000 0.0000 59.8704 0.0000 0.0000
# 5 0.0000 0.0000 0.0000 0.0000 13.6143 0.0000
# 6 0.0000 0.0000 0.0000 0.0000 0.0000 9.5218
#
#
#
# Elastic Compliance Matrix: (Units=1/GPa)
#
#
# Indices 1 2 3 4 5 6 
#
# 1 0.052710 0.003610 -0.011490 0.000000 0.000000 0.000000
# 2 0.003610 0.018803 -0.007860 0.000000 0.000000 0.000000
# 3 -0.011490 -0.007860 0.013491 0.000000 0.000000 0.000000
# 4 0.000000 0.000000 0.000000 0.016703 0.000000 0.000000
# 5 0.000000 0.000000 0.000000 0.000000 0.073452 0.000000
# 6 0.000000 0.000000 0.000000 0.000000 0.000000 0.105022
#
#
# Mechanical properties :
#
#
# Convention : Reuss Voigt Hill
#
# Bulk Modulus (GPa) = 18.68334 40.46962 29.57648
# Shear Modulus (GPa) = 15.17435 26.03143 20.60289
#
# Velocity S-wave (km/s) = 2.67379 3.50204 3.11556
# Velocity P-wave (km/s) = 4.28189 5.95138 5.18428
#
# Compressibility (1/GPa) = 0.05352363
#
# Stress axis : x y z
#
# Youngs Moduli (GPa) = 18.97157 53.18235 74.12544
#
# Poissons Ratio (x) = -0.19197 0.85171
# Poissons Ratio (y) = -0.06848 0.58261
# Poissons Ratio (z) = 0.21799 0.41800
#
# Static dielectric constant tensor:
#      x y z
#    x 1.760190 0.000000 0.000000 
#    y 0.000000 1.872640 0.000000 
#    z 0.000000 0.000000 1.792580 
# 
# From -- ./inp_files/2773.got.cif
#   From: 2010.05.17/outbox.cif.g08.bks.cpg/sg31_2_cif.got.tgz:2773.got - 2010.06.03 17:08:30.
