data_PCOD9343275
_publ_section_title
;
Structure prediction by ZEFSAII (Michael W. Deem and Ramdas Pophale) SiO2 
 PCOD9343275
Probable space group: P M N 21
;
_chemical_formula_sum "Si O2"
_cell_formula_units_Z 24
_cell_length_a 12.368722
_cell_length_b 14.024900
_cell_length_c 5.443956
_cell_angle_alpha 90.000000
_cell_angle_beta 90.000000
_cell_angle_gamma 90.000000
_cell_volume 944.363533
_symmetry_space_group_name_H-M "P M N 21"
_symmetry_group_IT_number 31
_symmetry_cell_setting 'orthorhombic'
loop_
_space_group_symop_operation_xyz
x,y,z
1/2-x,-y,1/2+z
-x,y,z
1/2+x,-y,1/2+z
loop_
_atom_site_type_symbol
_atom_site_label
_atom_site_fract_x
_atom_site_fract_y
_atom_site_fract_z
Si Si1 0.128099 0.130007 0.824820
Si Si2 0.113412 0.481087 0.993697
Si Si3 0.274317 0.242501 0.181347
Si Si4 0.824651 0.389820 0.495965
Si Si5 0.500000 0.300189 0.207121
Si Si6 0.812217 0.925773 0.998920
Si Si7 0.500000 0.183413 0.713769
O O1 0.189710 0.092016 0.581986
O O2 0.000000 0.149012 0.799357
O O3 0.149243 0.033685 0.982774
O O4 0.194124 0.215684 0.959119
O O5 0.122773 0.411152 0.759240
O O6 0.214972 0.549216 0.010004
O O7 0.000000 0.536266 0.954920
O O8 0.112883 0.429137 0.256540
O O9 0.205548 0.283747 0.411762
O O10 0.369415 0.323670 0.157172
O O11 0.326560 0.142004 0.262699
O O12 0.500000 0.256446 0.481894
O O13 0.500000 0.231979 0.970702
O O14 0.892476 0.877794 0.191604
#
# Coordination Sequence:
#
# PCOD9343275 Si02
#       7
#     4   4   4   4   2   4   2
#     4  12  25  41  64  92 129 181 230 281 338 400
#     4  10  22  45  71  98 138 180 214 272 344 411
#     4  11  25  42  65 100 131 174 229 286 331 406
#     4  10  24  42  69 104 136 171 228 274 333 408
#     4  10  22  38  68  92 130 166 213 281 336 374
#     4  11  23  42  62  89 133 174 231 280 336 390
#     4  10  20  40  64  88 122 174 215 275 332 376
#
# _framework density 25.413943
#
# number of rings (size 3 to 8) (size 9 to 14) (size 15 to 20)
#    0.000    1.333    4.167    0.500    3.500    2.000 
#    1.500    0.000    0.000    0.000    0.000    0.000 
#    0.000    0.000    0.000    0.000    0.000    0.000 
#
# Total GULP energy -133786.448067 kJ/mol
# GULP energy per Si atom -5574.435336 kJ/mol
# Density = 2.535610 g / cm^3
# Si number density = 25.413943 Si / 1000 Ang^3
#
#
#
# Elastic Constant Matrix: (Units=GPa)
#
#
# Indices 1 2 3 4 5 6 
#
# 1 172.7134 1.1049 17.4786 0.0000 0.0000 0.0000
# 2 1.1049 35.9818 -0.1979 0.0000 0.0000 0.0000
# 3 17.4786 -0.1979 105.3557 0.0000 0.0000 0.0000
# 4 0.0000 0.0000 0.0000 27.3232 0.0000 0.0000
# 5 0.0000 0.0000 0.0000 0.0000 14.9935 0.0000
# 6 0.0000 0.0000 0.0000 0.0000 0.0000 74.9144
#
#
#
# Elastic Compliance Matrix: (Units=1/GPa)
#
#
# Indices 1 2 3 4 5 6 
#
# 1 0.005890 -0.000186 -0.000978 0.000000 0.000000 0.000000
# 2 -0.000186 0.027798 0.000083 0.000000 0.000000 0.000000
# 3 -0.000978 0.000083 0.009654 0.000000 0.000000 0.000000
# 4 0.000000 0.000000 0.000000 0.036599 0.000000 0.000000
# 5 0.000000 0.000000 0.000000 0.000000 0.066695 0.000000
# 6 0.000000 0.000000 0.000000 0.000000 0.000000 0.013349
#
#
# Mechanical properties :
#
#
# Convention : Reuss Voigt Hill
#
# Bulk Modulus (GPa) = 24.28321 38.98024 31.63173
# Shear Modulus (GPa) = 28.42959 43.15726 35.79342
#
# Velocity S-wave (km/s) = 3.34827 4.12536 3.75696
# Velocity P-wave (km/s) = 4.95214 6.16951 5.59404
#
# Compressibility (1/GPa) = 0.04118072
#
# Stress axis : x y z
#
# Youngs Moduli (GPa) = 169.77775 35.97384 103.58422
#
# Poissons Ratio (x) = 0.00670 0.10126
# Poissons Ratio (y) = 0.03162 -0.00861
# Poissons Ratio (z) = 0.16596 -0.00299
#
# Static dielectric constant tensor:
#      x y z
#    x 2.103360 0.000000 0.000000 
#    y 0.000000 2.108450 0.000000 
#    z 0.000000 0.000000 2.061360 
# 
# From -- ./inp_files/389.got.cif
#   From: 2010.05.17/outbox.cif.g08.bks.cpg/sg31_1_cif.got.tgz:389.got - 2010.06.03 17:08:30.
