data_PCOD9343479
_publ_section_title
;
Structure prediction by ZEFSAII (Michael W. Deem and Ramdas Pophale) SiO2 
 PCOD9343479
Probable space group: P M N 21
;
_chemical_formula_sum "Si O2"
_cell_formula_units_Z 32
_cell_length_a 29.574784
_cell_length_b 9.248754
_cell_length_c 5.043968
_cell_angle_alpha 90.000000
_cell_angle_beta 90.000000
_cell_angle_gamma 90.000000
_cell_volume 1379.676072
_symmetry_space_group_name_H-M "P M N 21"
_symmetry_group_IT_number 31
_symmetry_cell_setting 'orthorhombic'
loop_
_space_group_symop_operation_xyz
x,y,z
1/2-x,-y,1/2+z
-x,y,z
1/2+x,-y,1/2+z
loop_
_atom_site_type_symbol
_atom_site_label
_atom_site_fract_x
_atom_site_fract_y
_atom_site_fract_z
Si Si1 0.087227 0.618115 0.646480
Si Si2 0.671817 0.298539 0.437375
Si Si3 0.723039 0.528780 0.713127
Si Si4 0.447132 0.212820 0.649235
Si Si5 0.676296 0.037004 0.731544
Si Si6 0.250798 0.181241 0.100488
Si Si7 0.446045 0.706914 0.282768
Si Si8 0.585641 0.889011 0.781636
O O1 0.140009 0.636277 0.716018
O O2 0.077650 0.679402 0.355637
O O3 0.071073 0.454398 0.704549
O O4 0.063181 0.727352 0.855092
O O5 0.682354 0.422976 0.646564
O O6 0.650545 0.151705 0.548680
O O7 0.721263 0.239754 0.352584
O O8 0.734576 0.522381 0.024270
O O9 0.717059 0.683567 0.575316
O O10 0.500000 0.232459 0.698991
O O11 0.436507 0.043799 0.705883
O O12 0.706097 0.134862 0.928216
O O13 0.716186 0.949072 0.591802
O O14 0.638399 0.929320 0.840570
O O15 0.500000 0.700373 0.335023
O O16 0.421208 0.777688 0.537611
O O17 0.436173 0.814277 0.037427
#
# Coordination Sequence:
#
# PCOD9343479 Si02
#       8
#     4   4   4   4   4   4   4   4
#     4  12  27  46  76 109 146 188 240 309 358 439
#     4  11  24  45  67 101 142 181 241 295 350 421
#     4  10  22  41  65  92 129 181 230 275 336 401
#     4  12  24  46  76 108 139 186 238 299 374 441
#     4  12  24  44  70 101 145 185 246 289 369 418
#     4  11  24  43  69  98 141 196 229 296 348 430
#     4  12  27  52  75 107 149 197 242 302 381 451
#     4  12  28  47  76 110 150 190 247 309 362 445
#
# _framework density 23.193849
#
# number of rings (size 3 to 8) (size 9 to 14) (size 15 to 20)
#    0.000    0.500    3.750    4.500    3.500    0.000 
#    9.000    0.000    0.000    0.000    0.000    0.000 
#    0.000    0.000    0.000    0.000    0.000    0.000 
#
# Total GULP energy -178565.593243 kJ/mol
# GULP energy per Si atom -5580.174789 kJ/mol
# Density = 2.314106 g / cm^3
# Si number density = 23.193849 Si / 1000 Ang^3
#
#
#
# Elastic Constant Matrix: (Units=GPa)
#
#
# Indices 1 2 3 4 5 6 
#
# 1 97.2990 28.4180 -3.5049 0.0000 0.0000 0.0000
# 2 28.4180 137.1534 9.0146 0.0000 0.0000 0.0000
# 3 -3.5049 9.0146 66.5005 0.0000 0.0000 0.0000
# 4 0.0000 0.0000 0.0000 35.0495 0.0000 0.0000
# 5 0.0000 0.0000 0.0000 0.0000 34.0609 0.0000
# 6 0.0000 0.0000 0.0000 0.0000 0.0000 34.3722
#
#
#
# Elastic Compliance Matrix: (Units=1/GPa)
#
#
# Indices 1 2 3 4 5 6 
#
# 1 0.010992 -0.002336 0.000896 0.000000 0.000000 0.000000
# 2 -0.002336 0.007853 -0.001188 0.000000 0.000000 0.000000
# 3 0.000896 -0.001188 0.015246 0.000000 0.000000 0.000000
# 4 0.000000 0.000000 0.000000 0.028531 0.000000 0.000000
# 5 0.000000 0.000000 0.000000 0.000000 0.029359 0.000000
# 6 0.000000 0.000000 0.000000 0.000000 0.000000 0.029093
#
#
# Mechanical properties :
#
#
# Convention : Reuss Voigt Hill
#
# Bulk Modulus (GPa) = 34.68000 40.97867 37.82934
# Shear Modulus (GPa) = 36.78020 38.49821 37.63921
#
# Velocity S-wave (km/s) = 3.98650 4.07854 4.03278
# Velocity P-wave (km/s) = 6.01450 6.31550 6.16684
#
# Compressibility (1/GPa) = 0.02883507
#
# Stress axis : x y z
#
# Youngs Moduli (GPa) = 90.97283 127.33524 65.59222
#
# Poissons Ratio (x) = 0.29752 -0.05878
# Poissons Ratio (y) = 0.21256 0.07790
# Poissons Ratio (z) = -0.08152 0.15124
#
# Static dielectric constant tensor:
#      x y z
#    x 1.928880 0.000000 0.000000 
#    y 0.000000 2.071490 0.000000 
#    z 0.000000 0.000000 1.921080 
# 
# From -- ./inp_files/1373.got.cif
#   From: 2010.05.17/outbox.cif.g08.bks.cpg/sg31_1_cif.got.tgz:1373.got - 2010.06.03 17:08:30.
