data_PCOD9343857
_publ_section_title
;
Structure prediction by ZEFSAII (Michael W. Deem and Ramdas Pophale) SiO2 
 PCOD9343857
Probable space group: P B A 2
;
_chemical_formula_sum "Si O2"
_cell_formula_units_Z 30
_cell_length_a 8.074133
_cell_length_b 15.043304
_cell_length_c 10.974019
_cell_angle_alpha 90.000000
_cell_angle_beta 90.000000
_cell_angle_gamma 90.000000
_cell_volume 1332.922315
_symmetry_space_group_name_H-M "P B A 2"
_symmetry_group_IT_number 32
_symmetry_cell_setting 'orthorhombic'
loop_
_space_group_symop_operation_xyz
x,y,z
-x,-y,z
1/2-x,1/2+y,z
1/2+x,1/2-y,z
loop_
_atom_site_type_symbol
_atom_site_label
_atom_site_fract_x
_atom_site_fract_y
_atom_site_fract_z
Si Si1 0.916274 0.260093 0.941760
Si Si2 0.686508 0.143484 0.051245
Si Si3 0.240833 0.053655 0.981436
Si Si4 0.000000 0.000000 0.185124
Si Si5 0.242896 0.366901 0.559956
Si Si6 0.305988 0.033646 0.712201
Si Si7 0.154013 0.429244 0.296556
Si Si8 0.573045 0.777938 0.661650
O O1 0.845778 0.356385 0.983294
O O2 0.899963 0.242461 0.798625
O O3 0.869824 0.180710 0.031240
O O4 0.107834 0.284163 0.961983
O O5 0.625270 0.142416 0.189151
O O6 0.673158 0.041574 0.010239
O O7 0.204945 0.042856 0.837698
O O8 0.105073 0.057885 0.086997
O O9 0.843179 0.035845 0.265093
O O10 0.272723 0.460742 0.624778
O O11 0.164909 0.387102 0.429408
O O12 0.393783 0.298779 0.563973
O O13 0.111071 0.313807 0.642423
O O14 0.500000 0.000000 0.736435
O O15 0.320888 0.130951 0.652835
O O16 0.000000 0.500000 0.291812
#
# Coordination Sequence:
#
# PCOD9343857 Si02
#       8
#     4   4   4   2   4   4   4   4
#     4  11  22  38  67 100 142 177 228 296 362 424
#     4  11  23  38  64  99 135 186 230 285 353 419
#     4  10  20  39  64  95 136 173 222 286 354 421
#     4  10  24  44  72 104 134 174 242 296 344 426
#     4  11  23  45  66  99 138 189 238 292 353 423
#     4   9  18  38  69  95 135 188 228 277 369 428
#     4  11  25  49  73 100 141 191 240 292 346 435
#     4  10  21  40  65 100 136 176 235 294 351 432
#
# _framework density 22.506938999999999
#
# number of rings (size 3 to 8) (size 9 to 14) (size 15 to 20)
#    0.000    1.600    0.000    7.200    3.733    1.600 
#    9.600    1.333    0.000    0.000    0.000    0.000 
#    0.000    0.000    0.000    0.000    0.000    0.000 
#
# Total GULP energy -167126.463585 kJ/mol
# GULP energy per Si atom -5570.882120 kJ/mol
# Density = 2.245571 g / cm^3
# Si number density = 22.506939 Si / 1000 Ang^3
#
#
#
# Elastic Constant Matrix: (Units=GPa)
#
#
# Indices 1 2 3 4 5 6 
#
# 1 41.5699 6.4413 10.0748 0.0000 0.0000 0.0000
# 2 6.4413 79.2714 29.5586 0.0000 0.0000 0.0000
# 3 10.0748 29.5586 109.2816 0.0000 0.0000 0.0000
# 4 0.0000 0.0000 0.0000 31.9851 0.0000 0.0000
# 5 0.0000 0.0000 0.0000 0.0000 32.9278 0.0000
# 6 0.0000 0.0000 0.0000 0.0000 0.0000 45.4489
#
#
#
# Elastic Compliance Matrix: (Units=1/GPa)
#
#
# Indices 1 2 3 4 5 6 
#
# 1 0.024723 -0.001289 -0.001931 0.000000 0.000000 0.000000
# 2 -0.001289 0.014097 -0.003694 0.000000 0.000000 0.000000
# 3 -0.001931 -0.003694 0.010328 0.000000 0.000000 0.000000
# 4 0.000000 0.000000 0.000000 0.031265 0.000000 0.000000
# 5 0.000000 0.000000 0.000000 0.000000 0.030370 0.000000
# 6 0.000000 0.000000 0.000000 0.000000 0.000000 0.022003
#
#
# Mechanical properties :
#
#
# Convention : Reuss Voigt Hill
#
# Bulk Modulus (GPa) = 28.31194 35.80803 32.05999
# Shear Modulus (GPa) = 31.56834 34.34224 32.95529
#
# Velocity S-wave (km/s) = 3.74920 3.91045 3.83067
# Velocity P-wave (km/s) = 5.59897 6.02770 5.81729
#
# Compressibility (1/GPa) = 0.03532078
#
# Stress axis : x y z
#
# Youngs Moduli (GPa) = 40.44738 70.93655 96.82551
#
# Poissons Ratio (x) = 0.09144 0.18693
# Poissons Ratio (y) = 0.05214 0.35769
# Poissons Ratio (z) = 0.07809 0.26205
#
# Static dielectric constant tensor:
#      x y z
#    x 1.737310 0.000000 0.000000 
#    y 0.000000 1.840550 0.000000 
#    z 0.000000 0.000000 1.796400 
# 
# From -- ./inp_files/3749.got.cif
#   From: 2010.05.17/outbox.cif.g08.bks.cpg/sg32_2_cif.got.tgz:3749.got - 2010.06.03 17:12:27.
