data_PCOD9343277
_publ_section_title
;
Structure prediction by ZEFSAII (Michael W. Deem and Ramdas Pophale) SiO2 
 PCOD9343277
Probable space group: P M N 21
;
_chemical_formula_sum "Si O2"
_cell_formula_units_Z 16
_cell_length_a 12.298736
_cell_length_b 7.629991
_cell_length_c 8.459326
_cell_angle_alpha 90.000000
_cell_angle_beta 90.000000
_cell_angle_gamma 90.000000
_cell_volume 793.816765
_symmetry_space_group_name_H-M "P M N 21"
_symmetry_group_IT_number 31
_symmetry_cell_setting 'orthorhombic'
loop_
_space_group_symop_operation_xyz
x,y,z
1/2-x,-y,1/2+z
-x,y,z
1/2+x,-y,1/2+z
loop_
_atom_site_type_symbol
_atom_site_label
_atom_site_fract_x
_atom_site_fract_y
_atom_site_fract_z
Si Si1 0.224342 0.624918 0.341050
Si Si2 0.175314 0.001225 0.345891
Si Si3 0.374294 0.862285 0.498172
Si Si4 0.624180 0.669340 0.037003
O O1 0.317150 0.675225 0.470056
O O2 0.163040 0.450698 0.390265
O O3 0.145584 0.795425 0.350836
O O4 0.290828 0.632922 0.177666
O O5 0.145414 0.074898 0.175814
O O6 0.129563 0.129798 0.478791
O O7 0.304902 0.988194 0.381678
O O8 0.500000 0.859406 0.460089
O O9 0.500000 0.627403 0.081968
#
# Coordination Sequence:
#
# PCOD9343277 Si02
#       4
#     4   4   4   4
#     4  10  23  42  62  95 132 159 218 261 303 392
#     4  10  21  42  63  93 128 157 219 260 309 388
#     4  10  20  40  65  88 125 166 202 261 319 364
#     4  12  24  42  68  94 129 172 209 264 323 370
#
# _framework density 20.155785000000002
#
# number of rings (size 3 to 8) (size 9 to 14) (size 15 to 20)
#    1.500    0.000    2.500    3.000    0.000    2.000 
#    0.000    7.500    0.000    0.000    0.000    0.000 
#    0.000    0.000    0.000    0.000    0.000    0.000 
#
# Total GULP energy -89104.759255 kJ/mol
# GULP energy per Si atom -5569.047453 kJ/mol
# Density = 2.010991 g / cm^3
# Si number density = 20.155785 Si / 1000 Ang^3
#
#
#
# Elastic Constant Matrix: (Units=GPa)
#
#
# Indices 1 2 3 4 5 6 
#
# 1 82.7110 32.7066 2.8415 0.0000 0.0000 0.0000
# 2 32.7066 81.2513 26.5728 0.0000 0.0000 0.0000
# 3 2.8415 26.5728 55.6832 0.0000 0.0000 0.0000
# 4 0.0000 0.0000 0.0000 28.9375 0.0000 0.0000
# 5 0.0000 0.0000 0.0000 0.0000 3.3887 0.0000
# 6 0.0000 0.0000 0.0000 0.0000 0.0000 13.1358
#
#
#
# Elastic Compliance Matrix: (Units=1/GPa)
#
#
# Indices 1 2 3 4 5 6 
#
# 1 0.014656 -0.006701 0.002450 0.000000 0.000000 0.000000
# 2 -0.006701 0.017647 -0.008080 0.000000 0.000000 0.000000
# 3 0.002450 -0.008080 0.021689 0.000000 0.000000 0.000000
# 4 0.000000 0.000000 0.000000 0.034557 0.000000 0.000000
# 5 0.000000 0.000000 0.000000 0.000000 0.295099 0.000000
# 6 0.000000 0.000000 0.000000 0.000000 0.000000 0.076128
#
#
# Mechanical properties :
#
#
# Convention : Reuss Voigt Hill
#
# Bulk Modulus (GPa) = 34.09306 38.20970 36.15138
# Shear Modulus (GPa) = 10.11706 19.59404 14.85555
#
# Velocity S-wave (km/s) = 2.24284 3.12128 2.71779
# Velocity P-wave (km/s) = 4.86401 5.65581 5.27479
#
# Compressibility (1/GPa) = 0.02933148
#
# Stress axis : x y z
#
# Youngs Moduli (GPa) = 68.23237 56.66645 46.10546
#
# Poissons Ratio (x) = 0.37970 -0.11295
# Poissons Ratio (y) = 0.45720 0.37251
# Poissons Ratio (z) = -0.16716 0.45784
#
# Static dielectric constant tensor:
#      x y z
#    x 1.750740 0.000000 0.000000 
#    y 0.000000 1.751890 0.000000 
#    z 0.000000 0.000000 1.733430 
# 
# From -- ./inp_files/1950.got.cif
#   From: 2010.05.17/outbox.cif.g08.bks.cpg/sg31_1_cif.got.tgz:1950.got - 2010.06.03 17:08:30.
