data_PCOD9343245
_publ_section_title
;
Structure prediction by ZEFSAII (Michael W. Deem and Ramdas Pophale) SiO2 
 PCOD9343245
Probable space group: P M N 21
;
_chemical_formula_sum "Si O2"
_cell_formula_units_Z 32
_cell_length_a 24.383738
_cell_length_b 8.960484
_cell_length_c 5.506209
_cell_angle_alpha 90.000000
_cell_angle_beta 90.000000
_cell_angle_gamma 90.000000
_cell_volume 1203.052123
_symmetry_space_group_name_H-M "P M N 21"
_symmetry_group_IT_number 31
_symmetry_cell_setting 'orthorhombic'
loop_
_space_group_symop_operation_xyz
x,y,z
1/2-x,-y,1/2+z
-x,y,z
1/2+x,-y,1/2+z
loop_
_atom_site_type_symbol
_atom_site_label
_atom_site_fract_x
_atom_site_fract_y
_atom_site_fract_z
Si Si1 0.813094 0.566195 0.788230
Si Si2 0.353162 0.756663 0.836929
Si Si3 0.233718 0.697192 0.287080
Si Si4 0.057363 0.273087 0.725591
Si Si5 0.436843 0.211635 0.824759
Si Si6 0.675958 0.050332 0.029079
Si Si7 0.400775 0.506971 0.592378
Si Si8 0.604233 0.000382 0.448711
O O1 0.797737 0.626449 0.524282
O O2 0.789587 0.397241 0.786575
O O3 0.876727 0.573819 0.853827
O O4 0.788243 0.659849 0.016741
O O5 0.395020 0.699497 0.038321
O O6 0.348160 0.600809 0.696724
O O7 0.314023 0.873696 0.971818
O O8 0.377948 0.876415 0.647083
O O9 0.223493 0.865444 0.380038
O O10 0.061019 0.368152 0.972509
O O11 0.000000 0.304172 0.603821
O O12 0.065778 0.098321 0.776614
O O13 0.500000 0.191797 0.915126
O O14 0.382580 0.131630 0.943953
O O15 0.424974 0.386148 0.773270
O O16 0.431144 0.130350 0.563904
O O17 0.660017 0.050634 0.313755
#
# Coordination Sequence:
#
# PCOD9343245 Si02
#       8
#     4   4   4   4   4   4   4   4
#     4  10  22  39  67  97 127 160 206 262 324 382
#     4   9  22  37  56  80 117 163 206 252 314 370
#     4  10  21  40  67  99 123 161 209 260 322 385
#     4  10  21  37  57  81 115 168 213 252 311 381
#     4  11  22  34  55  89 123 158 204 259 314 370
#     4  10  20  38  63  86 121 160 209 262 312 377
#     4  11  22  38  58  85 126 162 202 262 318 383
#     4   9  20  37  57  81 114 158 211 261 305 362
#
# _framework density 26.599014
#
# number of rings (size 3 to 8) (size 9 to 14) (size 15 to 20)
#    0.000    2.000    1.250    1.500    3.500    8.500 
#    0.000    0.000    8.250    0.000    0.000    0.000 
#    0.000    0.000    0.000    0.000    0.000    0.000 
#
# Total GULP energy -178233.551844 kJ/mol
# GULP energy per Si atom -5569.798495 kJ/mol
# Density = 2.653847 g / cm^3
# Si number density = 26.599014 Si / 1000 Ang^3
#
#
#
# Elastic Constant Matrix: (Units=GPa)
#
#
# Indices 1 2 3 4 5 6 
#
# 1 77.5410 20.9984 20.3131 0.0000 0.0000 0.0000
# 2 20.9984 127.1201 38.3313 0.0000 0.0000 0.0000
# 3 20.3131 38.3313 86.4830 0.0000 0.0000 0.0000
# 4 0.0000 0.0000 0.0000 50.4523 0.0000 0.0000
# 5 0.0000 0.0000 0.0000 0.0000 -2.9109 0.0000
# 6 0.0000 0.0000 0.0000 0.0000 0.0000 -19.3912
#
#
#
# Elastic Compliance Matrix: (Units=1/GPa)
#
#
# Indices 1 2 3 4 5 6 
#
# 1 0.013993 -0.001524 -0.002611 0.000000 0.000000 0.000000
# 2 -0.001524 0.009246 -0.003740 0.000000 0.000000 0.000000
# 3 -0.002611 -0.003740 0.013834 0.000000 0.000000 0.000000
# 4 0.000000 0.000000 0.000000 0.019821 0.000000 0.000000
# 5 0.000000 0.000000 0.000000 0.000000 -0.343541 0.000000
# 6 0.000000 0.000000 0.000000 0.000000 0.000000 -0.051570
#
#
# Mechanical properties :
#
#
# Convention : Reuss Voigt Hill
#
# Bulk Modulus (GPa) = 46.89889 50.04774 48.47331
# Shear Modulus (GPa) = -15.85498 19.73014 1.93758
#
# Velocity S-wave (km/s) = -2.44411 2.72649 0.85441
# Velocity P-wave (km/s) = 3.11531 5.36359 4.38596
#
# Compressibility (1/GPa) = 0.02132247
#
# Stress axis : x y z
#
# Youngs Moduli (GPa) = 71.46337 108.15349 72.28570
#
# Poissons Ratio (x) = 0.16484 0.18875
# Poissons Ratio (y) = 0.10892 0.27036
# Poissons Ratio (z) = 0.18660 0.40451
#
# Static dielectric constant tensor:
#      x y z
#    x 2.161210 0.000000 0.000000 
#    y 0.000000 2.142590 0.000000 
#    z 0.000000 0.000000 2.226190 
# 
# From -- ./inp_files/1379.got.cif
#   From: 2010.05.17/outbox.cif.g08.bks.cpg/sg31_1_cif.got.tgz:1379.got - 2010.06.03 17:08:30.
