data_PCOD9343265
_publ_section_title
;
Structure prediction by ZEFSAII (Michael W. Deem and Ramdas Pophale) SiO2 
 PCOD9343265
Probable space group: P M N 21
;
_chemical_formula_sum "Si O2"
_cell_formula_units_Z 32
_cell_length_a 8.703483
_cell_length_b 14.769306
_cell_length_c 12.733768
_cell_angle_alpha 90.000000
_cell_angle_beta 90.000000
_cell_angle_gamma 90.000000
_cell_volume 1636.854614
_symmetry_space_group_name_H-M "P M N 21"
_symmetry_group_IT_number 31
_symmetry_cell_setting 'orthorhombic'
loop_
_space_group_symop_operation_xyz
x,y,z
1/2-x,-y,1/2+z
-x,y,z
1/2+x,-y,1/2+z
loop_
_atom_site_type_symbol
_atom_site_label
_atom_site_fract_x
_atom_site_fract_y
_atom_site_fract_z
Si Si1 0.184383 0.768386 0.262020
Si Si2 0.681931 0.140986 0.218825
Si Si3 0.813886 0.550053 0.868132
Si Si4 0.671803 0.134911 0.465628
Si Si5 0.316950 0.663684 0.673629
Si Si6 0.685007 0.647283 0.433395
Si Si7 0.823661 0.665699 0.059783
Si Si8 0.820499 0.054982 0.658049
O O1 0.242061 0.732024 0.373126
O O2 0.243670 0.697903 0.171344
O O3 0.240559 0.868261 0.229366
O O4 0.000000 0.768016 0.257189
O O5 0.500000 0.154049 0.195196
O O6 0.696314 0.125549 0.343243
O O7 0.769722 0.231876 0.189257
O O8 0.737940 0.047403 0.168496
O O9 0.754839 0.603186 0.766366
O O10 0.772596 0.444629 0.872071
O O11 0.000000 0.558165 0.869265
O O12 0.755287 0.594108 0.978124
O O13 0.500000 0.101251 0.493214
O O14 0.672922 0.240918 0.494153
O O15 0.793255 0.086555 0.539162
O O16 0.500000 0.653955 0.680315
O O17 0.268317 0.638065 0.555156
O O18 0.500000 0.656308 0.431245
O O19 0.000000 0.636300 0.081043
O O20 0.000000 0.054025 0.685409
#
# Coordination Sequence:
#
# PCOD9343265 Si02
#       8
#     4   4   4   4   4   4   4   4
#     4  10  21  38  61  86 118 159 202 245 295 356
#     4  10  21  39  61  84 116 160 201 244 301 360
#     4  10  20  39  63  84 114 157 198 240 297 360
#     4   9  17  34  56  79 110 151 197 240 293 355
#     4  11  24  40  60  91 125 154 197 253 302 355
#     4  10  24  41  59  86 124 164 197 244 305 356
#     4   8  15  31  58  82 103 143 190 238 286 338
#     4  10  21  36  58  88 120 154 200 252 301 356
#
# _framework density 19.549689000000001
#
# number of rings (size 3 to 8) (size 9 to 14) (size 15 to 20)
#    0.000    2.250    1.250    1.875    1.750    4.000 
#    0.000    4.375    0.000    0.000    0.000    0.000 
#    0.000    0.000    0.000    0.000    0.000    0.000 
#
# Total GULP energy -178473.780857 kJ/mol
# GULP energy per Si atom -5577.305652 kJ/mol
# Density = 1.950519 g / cm^3
# Si number density = 19.549689 Si / 1000 Ang^3
#
#
#
# Elastic Constant Matrix: (Units=GPa)
#
#
# Indices 1 2 3 4 5 6 
#
# 1 24.3149 23.3341 15.0323 0.0000 0.0000 0.0000
# 2 23.3341 95.5869 32.3920 0.0000 0.0000 0.0000
# 3 15.0323 32.3920 43.3197 0.0000 0.0000 0.0000
# 4 0.0000 0.0000 0.0000 22.3442 0.0000 0.0000
# 5 0.0000 0.0000 0.0000 0.0000 27.6068 0.0000
# 6 0.0000 0.0000 0.0000 0.0000 0.0000 8.2984
#
#
#
# Elastic Compliance Matrix: (Units=1/GPa)
#
#
# Indices 1 2 3 4 5 6 
#
# 1 0.058654 -0.009940 -0.012921 0.000000 0.000000 0.000000
# 2 -0.009940 0.015697 -0.008288 0.000000 0.000000 0.000000
# 3 -0.012921 -0.008288 0.033765 0.000000 0.000000 0.000000
# 4 0.000000 0.000000 0.000000 0.044754 0.000000 0.000000
# 5 0.000000 0.000000 0.000000 0.000000 0.036223 0.000000
# 6 0.000000 0.000000 0.000000 0.000000 0.000000 0.120506
#
#
# Mechanical properties :
#
#
# Convention : Reuss Voigt Hill
#
# Bulk Modulus (GPa) = 21.82528 33.85983 27.84255
# Shear Modulus (GPa) = 12.91427 17.81407 15.36417
#
# Velocity S-wave (km/s) = 2.57298 3.02192 2.80644
# Velocity P-wave (km/s) = 4.47383 5.43447 4.97738
#
# Compressibility (1/GPa) = 0.04581842
#
# Stress axis : x y z
#
# Youngs Moduli (GPa) = 17.04917 63.70777 29.61634
#
# Poissons Ratio (x) = 0.63323 0.38267
# Poissons Ratio (y) = 0.16946 0.24546
# Poissons Ratio (z) = 0.22029 0.52801
#
# Static dielectric constant tensor:
#      x y z
#    x 1.678060 0.000000 0.000000 
#    y 0.000000 1.676770 0.000000 
#    z 0.000000 0.000000 1.697560 
# 
# From -- ./inp_files/3616.got.cif
#   From: 2010.05.17/outbox.cif.g08.bks.cpg/sg31_2_cif.got.tgz:3616.got - 2010.06.03 17:08:30.
