data_PCOD9343723
_publ_section_title
;
Structure prediction by ZEFSAII (Michael W. Deem and Ramdas Pophale) SiO2 
 PCOD9343723
Probable space group: P B A 2
;
_chemical_formula_sum "Si O2"
_cell_formula_units_Z 32
_cell_length_a 7.855177
_cell_length_b 14.099389
_cell_length_c 12.854600
_cell_angle_alpha 90.000000
_cell_angle_beta 90.000000
_cell_angle_gamma 90.000000
_cell_volume 1423.688036
_symmetry_space_group_name_H-M "P B A 2"
_symmetry_group_IT_number 32
_symmetry_cell_setting 'orthorhombic'
loop_
_space_group_symop_operation_xyz
x,y,z
-x,-y,z
1/2-x,1/2+y,z
1/2+x,1/2-y,z
loop_
_atom_site_type_symbol
_atom_site_label
_atom_site_fract_x
_atom_site_fract_y
_atom_site_fract_z
Si Si1 0.583577 0.311084 0.185910
Si Si2 0.772445 0.313879 0.399506
Si Si3 0.216577 0.689977 0.628405
Si Si4 0.693266 0.456622 0.023350
Si Si5 0.294649 0.895456 0.181088
Si Si6 0.654815 0.105683 0.401402
Si Si7 0.162865 0.395485 0.628973
Si Si8 0.188397 0.042949 0.786434
O O1 0.666058 0.338703 0.297094
O O2 0.683136 0.361152 0.091400
O O3 0.586295 0.197094 0.176865
O O4 0.393920 0.350732 0.180215
O O5 0.702858 0.334835 0.515356
O O6 0.774016 0.198927 0.397627
O O7 0.961741 0.355486 0.397439
O O8 0.217924 0.803255 0.637822
O O9 0.312056 0.640641 0.723107
O O10 0.025890 0.648641 0.631524
O O11 0.500000 0.500000 0.021664
O O12 0.804975 0.532061 0.087044
O O13 0.748294 0.443943 0.904674
O O14 0.315273 0.946544 0.292972
O O15 0.683778 0.059237 0.513454
O O16 0.200002 0.469627 0.718880
O O17 0.000000 0.000000 0.788725
#
# Coordination Sequence:
#
# PCOD9343723 Si02
#       8
#     4   4   4   4   4   4   4   4
#     4  10  19  35  57  81 110 142 178 221 271 325
#     4   9  17  31  53  82 113 141 174 218 270 329
#     4  10  21  38  59  85 116 148 184 229 280 333
#     4   9  22  40  55  76 108 145 186 229 270 321
#     4  10  19  35  57  81 110 142 178 221 271 325
#     4   9  17  31  53  82 113 141 174 218 270 329
#     4  10  21  38  59  85 116 148 184 229 280 333
#     4  11  23  40  59  80 110 149 194 237 278 327
#
# _framework density 22.476834
#
# number of rings (size 3 to 8) (size 9 to 14) (size 15 to 20)
#    0.000    2.250    0.000    4.125    0.000    5.000 
#    0.000   12.500    0.000    0.000    0.000    0.000 
#    0.000    0.000    0.000    0.000    0.000    0.000 
#
# Total GULP energy -178879.707137 kJ/mol
# GULP energy per Si atom -5589.990848 kJ/mol
# Density = 2.242568 g / cm^3
# Si number density = 22.476834 Si / 1000 Ang^3
#
#
#
# Elastic Constant Matrix: (Units=GPa)
#
#
# Indices 1 2 3 4 5 6 
#
# 1 56.4362 4.9469 22.1477 0.0000 0.0000 0.0000
# 2 4.9469 77.8290 49.9050 0.0000 0.0000 0.0000
# 3 22.1477 49.9050 216.6871 0.0000 0.0000 0.0000
# 4 0.0000 0.0000 0.0000 32.3340 0.0000 0.0000
# 5 0.0000 0.0000 0.0000 0.0000 24.5029 0.0000
# 6 0.0000 0.0000 0.0000 0.0000 0.0000 25.6553
#
#
#
# Elastic Compliance Matrix: (Units=1/GPa)
#
#
# Indices 1 2 3 4 5 6 
#
# 1 0.018460 0.000043 -0.001897 0.000000 0.000000 0.000000
# 2 0.000043 0.015075 -0.003476 0.000000 0.000000 0.000000
# 3 -0.001897 -0.003476 0.005609 0.000000 0.000000 0.000000
# 4 0.000000 0.000000 0.000000 0.030927 0.000000 0.000000
# 5 0.000000 0.000000 0.000000 0.000000 0.040811 0.000000
# 6 0.000000 0.000000 0.000000 0.000000 0.000000 0.038978
#
#
# Mechanical properties :
#
#
# Convention : Reuss Voigt Hill
#
# Bulk Modulus (GPa) = 35.10751 56.10571 45.60661
# Shear Modulus (GPa) = 29.40902 34.76196 32.08549
#
# Velocity S-wave (km/s) = 3.62113 3.93691 3.78231
# Velocity P-wave (km/s) = 5.75645 6.75880 6.27767
#
# Compressibility (1/GPa) = 0.02848393
#
# Stress axis : x y z
#
# Youngs Moduli (GPa) = 54.17212 66.33504 178.27135
#
# Poissons Ratio (x) = -0.00284 0.33812
# Poissons Ratio (y) = -0.00232 0.61972
# Poissons Ratio (z) = 0.10274 0.23060
#
# Static dielectric constant tensor:
#      x y z
#    x 1.867170 0.000000 0.000000 
#    y 0.000000 1.859420 0.000000 
#    z 0.000000 0.000000 1.834620 
# 
# From -- ./inp_files/3760.got.cif
#   From: 2010.05.17/outbox.cif.g08.bks.cpg/sg32_2_cif.got.tgz:3760.got - 2010.06.03 17:12:27.
