data_PCOD9343586
_publ_section_title
;
Structure prediction by ZEFSAII (Michael W. Deem and Ramdas Pophale) SiO2 
 PCOD9343586
Probable space group: P M N 21
;
_chemical_formula_sum "Si O2"
_cell_formula_units_Z 20
_cell_length_a 25.214413
_cell_length_b 4.976109
_cell_length_c 4.795214
_cell_angle_alpha 90.000000
_cell_angle_beta 90.000000
_cell_angle_gamma 90.000000
_cell_volume 601.653906
_symmetry_space_group_name_H-M "P M N 21"
_symmetry_group_IT_number 31
_symmetry_cell_setting 'orthorhombic'
loop_
_space_group_symop_operation_xyz
x,y,z
1/2-x,-y,1/2+z
-x,y,z
1/2+x,-y,1/2+z
loop_
_atom_site_type_symbol
_atom_site_label
_atom_site_fract_x
_atom_site_fract_y
_atom_site_fract_z
Si Si1 0.084545 0.331944 0.189190
Si Si2 0.836157 0.952366 0.082409
Si Si3 0.000000 0.156077 0.790959
Si Si4 0.329616 0.480338 0.115563
Si Si5 0.000000 0.760014 0.290087
Si Si6 0.751542 0.237033 0.855143
O O1 0.138267 0.373319 0.377068
O O2 0.048133 0.552877 0.337388
O O3 0.103314 0.022368 0.165391
O O4 0.051790 0.322414 0.892232
O O5 0.846768 0.710790 0.864075
O O6 0.821582 0.231629 0.848197
O O7 0.765243 0.992914 0.093761
O O8 0.000000 0.028778 0.484350
O O9 0.000000 0.890940 0.985124
O O10 0.262080 0.502345 0.109438
O O11 0.316406 0.217413 0.877415
#
# Coordination Sequence:
#
# PCOD9343586 Si02
#       6
#     4   4   2   4   2   4
#     4  11  28  46  80 118 146 214 282 343 436 514
#     4  12  25  43  70 106 158 207 266 336 404 508
#     4  11  28  57  82 114 162 207 274 369 436 511
#     4  12  25  43  70 106 158 207 266 336 404 508
#     4  11  28  57  82 114 162 207 274 369 436 511
#     4  12  24  44  64 106 158 208 258 316 404 490
#
# _framework density 33.241700000000002
#
# number of rings (size 3 to 8) (size 9 to 14) (size 15 to 20)
#    0.000    0.400    4.000    3.600    2.800    6.400 
#    0.000    0.000    0.000    0.000    0.000    0.000 
#    0.000    0.000    0.000    0.000    0.000    0.000 
#
# Total GULP energy -111458.254156 kJ/mol
# GULP energy per Si atom -5572.912708 kJ/mol
# Density = 3.316604 g / cm^3
# Si number density = 33.241700 Si / 1000 Ang^3
#
#
#
# Elastic Constant Matrix: (Units=GPa)
#
#
# Indices 1 2 3 4 5 6 
#
# 1 88.4801 57.0532 2.7119 0.0000 0.0000 0.0000
# 2 57.0532 263.7407 75.9220 0.0000 0.0000 0.0000
# 3 2.7119 75.9220 233.9784 0.0000 0.0000 0.0000
# 4 0.0000 0.0000 0.0000 102.8665 0.0000 0.0000
# 5 0.0000 0.0000 0.0000 0.0000 29.4456 0.0000
# 6 0.0000 0.0000 0.0000 0.0000 0.0000 55.4452
#
#
#
# Elastic Compliance Matrix: (Units=1/GPa)
#
#
# Indices 1 2 3 4 5 6 
#
# 1 0.013289 -0.003122 0.000859 0.000000 0.000000 0.000000
# 2 -0.003122 0.004916 -0.001559 0.000000 0.000000 0.000000
# 3 0.000859 -0.001559 0.004770 0.000000 0.000000 0.000000
# 4 0.000000 0.000000 0.000000 0.009721 0.000000 0.000000
# 5 0.000000 0.000000 0.000000 0.000000 0.033961 0.000000
# 6 0.000000 0.000000 0.000000 0.000000 0.000000 0.018036
#
#
# Mechanical properties :
#
#
# Convention : Reuss Voigt Hill
#
# Bulk Modulus (GPa) = 65.22924 95.28595 80.25760
# Shear Modulus (GPa) = 51.31045 67.58560 59.44802
#
# Velocity S-wave (km/s) = 3.93307 4.51395 4.23348
# Velocity P-wave (km/s) = 6.34750 7.47626 6.93488
#
# Compressibility (1/GPa) = 0.01533055
#
# Stress axis : x y z
#
# Youngs Moduli (GPa) = 75.25183 203.42992 209.65366
#
# Poissons Ratio (x) = 0.63509 -0.18009
# Poissons Ratio (y) = 0.23493 0.32682
# Poissons Ratio (z) = -0.06464 0.31712
#
# Static dielectric constant tensor:
#      x y z
#    x 2.841690 0.000000 0.000000 
#    y 0.000000 2.877840 0.000000 
#    z 0.000000 0.000000 2.690730 
# 
# From -- ./inp_files/1217.got.cif
#   From: 2010.05.17/outbox.cif.g08.bks.cpg/sg31_1_cif.got.tgz:1217.got - 2010.06.03 17:08:30.
