data_PCOD9343926
_publ_section_title
;
Structure prediction by ZEFSAII (Michael W. Deem and Ramdas Pophale) SiO2 
 PCOD9343926
Probable space group: P B A 2
;
_chemical_formula_sum "Si O2"
_cell_formula_units_Z 28
_cell_length_a 24.204531
_cell_length_b 8.699792
_cell_length_c 6.219057
_cell_angle_alpha 90.000000
_cell_angle_beta 90.000000
_cell_angle_gamma 90.000000
_cell_volume 1309.574104
_symmetry_space_group_name_H-M "P B A 2"
_symmetry_group_IT_number 32
_symmetry_cell_setting 'orthorhombic'
loop_
_space_group_symop_operation_xyz
x,y,z
-x,-y,z
1/2-x,1/2+y,z
1/2+x,1/2-y,z
loop_
_atom_site_type_symbol
_atom_site_label
_atom_site_fract_x
_atom_site_fract_y
_atom_site_fract_z
Si Si1 0.759919 0.089866 0.087920
Si Si2 0.196025 0.168040 0.387543
Si Si3 0.044568 0.383544 0.845784
Si Si4 0.717407 0.842055 0.764786
Si Si5 0.990485 0.180561 0.499572
Si Si6 0.107095 0.606703 0.509016
Si Si7 0.090086 0.321834 0.258293
O O1 0.724095 0.202119 0.236824
O O2 0.795157 0.988358 0.254105
O O3 0.791727 0.193067 0.913154
O O4 0.723859 0.978417 0.936772
O O5 0.227438 0.166963 0.615965
O O6 0.132338 0.216389 0.390346
O O7 0.088830 0.308289 0.003277
O O8 0.000000 0.500000 0.953776
O O9 0.074616 0.495032 0.675688
O O10 0.012182 0.248120 0.725854
O O11 0.667537 0.865391 0.600236
O O12 0.927907 0.239301 0.476143
O O13 0.028979 0.273118 0.332198
O O14 0.000000 0.000000 0.479383
O O15 0.106174 0.498411 0.301721
#
# Coordination Sequence:
#
# PCOD9343926 Si02
#       7
#     4   4   4   4   4   4   4
#     4  10  23  39  58  90 121 156 205 244 298 363
#     4  11  23  39  61  91 120 157 205 245 296 363
#     4   9  19  38  60  81 109 150 196 240 287 348
#     4  11  22  40  62  86 124 161 193 253 305 343
#     4  10  23  38  56  88 119 147 191 241 295 354
#     4  10  21  38  61  84 112 155 199 237 291 359
#     4  11  21  38  62  84 115 154 195 240 289 352
#
# _framework density 21.380996
#
# number of rings (size 3 to 8) (size 9 to 14) (size 15 to 20)
#    0.000    1.714    0.000    5.571    0.000    8.571 
#    0.000    1.429    0.000    0.000    0.000    0.000 
#    0.000    0.000    0.000    0.000    0.000    0.000 
#
# Total GULP energy -156359.249849 kJ/mol
# GULP energy per Si atom -5584.258923 kJ/mol
# Density = 2.133233 g / cm^3
# Si number density = 21.380996 Si / 1000 Ang^3
#
#
#
# Elastic Constant Matrix: (Units=GPa)
#
#
# Indices 1 2 3 4 5 6 
#
# 1 27.0486 -14.9748 -13.2740 0.0000 0.0000 0.0000
# 2 -14.9748 90.8036 6.3156 0.0000 0.0000 0.0000
# 3 -13.2740 6.3156 57.1503 0.0000 0.0000 0.0000
# 4 0.0000 0.0000 0.0000 26.0798 0.0000 0.0000
# 5 0.0000 0.0000 0.0000 0.0000 23.1277 0.0000
# 6 0.0000 0.0000 0.0000 0.0000 0.0000 20.1001
#
#
#
# Elastic Compliance Matrix: (Units=1/GPa)
#
#
# Indices 1 2 3 4 5 6 
#
# 1 0.045578 0.006833 0.009831 0.000000 0.000000 0.000000
# 2 0.006833 0.012122 0.000247 0.000000 0.000000 0.000000
# 3 0.009831 0.000247 0.019754 0.000000 0.000000 0.000000
# 4 0.000000 0.000000 0.000000 0.038344 0.000000 0.000000
# 5 0.000000 0.000000 0.000000 0.000000 0.043238 0.000000
# 6 0.000000 0.000000 0.000000 0.000000 0.000000 0.049751
#
#
# Mechanical properties :
#
#
# Convention : Reuss Voigt Hill
#
# Bulk Modulus (GPa) = 8.98665 14.57067 11.77866
# Shear Modulus (GPa) = 23.57857 26.99056 25.28457
#
# Velocity S-wave (km/s) = 3.32442 3.55683 3.44259
# Velocity P-wave (km/s) = 4.35292 4.86802 4.61766
#
# Compressibility (1/GPa) = 0.11127616
#
# Stress axis : x y z
#
# Youngs Moduli (GPa) = 21.94051 82.49214 50.62313
#
# Poissons Ratio (x) = -0.56364 -0.49768
# Poissons Ratio (y) = -0.14991 -0.01252
# Poissons Ratio (z) = -0.21570 -0.02041
#
# Static dielectric constant tensor:
#      x y z
#    x 1.792610 0.000000 0.000000 
#    y 0.000000 1.782470 0.000000 
#    z 0.000000 0.000000 1.763980 
# 
# From -- ./inp_files/561.got.cif
#   From: 2010.05.17/outbox.cif.g08.bks.cpg/sg32_1_cif.got.tgz:561.got - 2010.06.03 17:12:27.
