data_PCOD9343987
_publ_section_title
;
Structure prediction by ZEFSAII (Michael W. Deem and Ramdas Pophale) SiO2 
 PCOD9343987
Probable space group: P B A 2
;
_chemical_formula_sum "Si O2"
_cell_formula_units_Z 32
_cell_length_a 14.608734
_cell_length_b 19.484281
_cell_length_c 5.126967
_cell_angle_alpha 90.000000
_cell_angle_beta 90.000000
_cell_angle_gamma 90.000000
_cell_volume 1459.343365
_symmetry_space_group_name_H-M "P B A 2"
_symmetry_group_IT_number 32
_symmetry_cell_setting 'orthorhombic'
loop_
_space_group_symop_operation_xyz
x,y,z
-x,-y,z
1/2-x,1/2+y,z
1/2+x,1/2-y,z
loop_
_atom_site_type_symbol
_atom_site_label
_atom_site_fract_x
_atom_site_fract_y
_atom_site_fract_z
Si Si1 0.527021 0.215862 0.742350
Si Si2 0.593111 0.463381 0.595674
Si Si3 0.952035 0.571663 0.857716
Si Si4 0.698643 0.231987 0.131803
Si Si5 0.933589 0.821185 0.368214
Si Si6 0.394263 0.321262 0.011528
Si Si7 0.659340 0.088291 0.357648
Si Si8 0.327946 0.472885 0.071479
O O1 0.491752 0.139228 0.772185
O O2 0.549087 0.242664 0.456779
O O3 0.622488 0.218093 0.905279
O O4 0.456623 0.274622 0.826325
O O5 0.500000 0.500000 0.691148
O O6 0.581456 0.381799 0.571565
O O7 0.667609 0.480044 0.816389
O O8 0.611726 0.494137 0.306240
O O9 0.866711 0.573866 0.654905
O O10 0.000000 0.500000 0.818477
O O11 0.925884 0.580686 0.160146
O O12 0.663472 0.306657 0.226719
O O13 0.804887 0.226179 0.054859
O O14 0.695631 0.165893 0.325715
O O15 0.028620 0.838516 0.228666
O O16 0.356707 0.397630 0.957995
O O17 0.733725 0.039422 0.224397
#
# Coordination Sequence:
#
# PCOD9343987 Si02
#       8
#     4   4   4   4   4   4   4   4
#     4  10  22  40  65  94 127 171 220 275 334 392
#     4  12  24  39  64  96 136 175 214 269 334 395
#     4  11  22  42  69  94 126 168 216 277 336 391
#     4   9  21  40  65  90 127 172 226 271 327 396
#     4  11  22  40  64  92 134 172 218 280 329 397
#     4  10  22  41  65  95 126 179 224 270 328 409
#     4  10  21  43  67  91 125 170 224 265 327 404
#     4  11  24  42  64  95 130 176 222 265 323 408
#
# _framework density 21.927669000000002
#
# number of rings (size 3 to 8) (size 9 to 14) (size 15 to 20)
#    0.000    1.500    2.500    2.250    3.500    1.000 
#    2.250    2.500    0.000    0.000    0.000    0.000 
#    0.000    0.000    0.000    0.000    0.000    0.000 
#
# Total GULP energy -178177.798037 kJ/mol
# GULP energy per Si atom -5568.056189 kJ/mol
# Density = 2.187776 g / cm^3
# Si number density = 21.927669 Si / 1000 Ang^3
#
#
#
# Elastic Constant Matrix: (Units=GPa)
#
#
# Indices 1 2 3 4 5 6 
#
# 1 68.2842 12.9915 5.4027 0.0000 0.0000 0.0000
# 2 12.9915 90.3323 12.0439 0.0000 0.0000 0.0000
# 3 5.4027 12.0439 56.0855 0.0000 0.0000 0.0000
# 4 0.0000 0.0000 0.0000 -8.6488 0.0000 0.0000
# 5 0.0000 0.0000 0.0000 0.0000 9.0410 0.0000
# 6 0.0000 0.0000 0.0000 0.0000 0.0000 17.6294
#
#
#
# Elastic Compliance Matrix: (Units=1/GPa)
#
#
# Indices 1 2 3 4 5 6 
#
# 1 0.015113 -0.002038 -0.001018 0.000000 0.000000 0.000000
# 2 -0.002038 0.011671 -0.002310 0.000000 0.000000 0.000000
# 3 -0.001018 -0.002310 0.018424 0.000000 0.000000 0.000000
# 4 0.000000 0.000000 0.000000 -0.115623 0.000000 0.000000
# 5 0.000000 0.000000 0.000000 0.000000 0.110607 0.000000
# 6 0.000000 0.000000 0.000000 0.000000 0.000000 0.056724
#
#
# Mechanical properties :
#
#
# Convention : Reuss Voigt Hill
#
# Bulk Modulus (GPa) = 29.00547 30.61982 29.81265
# Shear Modulus (GPa) = 41.96739 15.88857 28.92798
#
# Velocity S-wave (km/s) = 4.37956 2.69474 3.63608
# Velocity P-wave (km/s) = 6.23142 4.86585 5.59049
#
# Compressibility (1/GPa) = 0.03447625
#
# Stress axis : x y z
#
# Youngs Moduli (GPa) = 66.16845 85.68028 54.27680
#
# Poissons Ratio (x) = 0.17460 0.05527
# Poissons Ratio (y) = 0.13484 0.12538
# Poissons Ratio (z) = 0.06738 0.19792
#
# Static dielectric constant tensor:
#      x y z
#    x 1.901320 0.000000 0.000000 
#    y 0.000000 1.926940 0.000000 
#    z 0.000000 0.000000 1.900910 
# 
# From -- ./inp_files/1312.got.cif
#   From: 2010.05.17/outbox.cif.g08.bks.cpg/sg32_1_cif.got.tgz:1312.got - 2010.06.03 17:12:27.
