data_PCOD9343697
_publ_section_title
;
Structure prediction by ZEFSAII (Michael W. Deem and Ramdas Pophale) SiO2 
 PCOD9343697
Probable space group: P B A 2
;
_chemical_formula_sum "Si O2"
_cell_formula_units_Z 30
_cell_length_a 14.920023
_cell_length_b 14.931379
_cell_length_c 5.555448
_cell_angle_alpha 90.000000
_cell_angle_beta 90.000000
_cell_angle_gamma 90.000000
_cell_volume 1237.623362
_symmetry_space_group_name_H-M "P B A 2"
_symmetry_group_IT_number 32
_symmetry_cell_setting 'orthorhombic'
loop_
_space_group_symop_operation_xyz
x,y,z
-x,-y,z
1/2-x,1/2+y,z
1/2+x,1/2-y,z
loop_
_atom_site_type_symbol
_atom_site_label
_atom_site_fract_x
_atom_site_fract_y
_atom_site_fract_z
Si Si1 0.757573 0.174402 0.910830
Si Si2 0.714972 0.387408 0.434578
Si Si3 0.258485 0.122246 0.927847
Si Si4 0.966669 0.347141 0.879775
Si Si5 0.611299 0.105959 0.221316
Si Si6 0.843625 0.211761 0.409173
Si Si7 0.500000 0.000000 0.497017
Si Si8 0.550629 0.268209 0.521315
O O1 0.716289 0.276698 0.909213
O O2 0.808720 0.163322 0.656479
O O3 0.675998 0.110953 0.993826
O O4 0.817423 0.168809 0.153722
O O5 0.738465 0.432925 0.687116
O O6 0.788052 0.305333 0.420906
O O7 0.613326 0.353018 0.476197
O O8 0.725133 0.425848 0.168024
O O9 0.362048 0.151867 0.924175
O O10 0.985370 0.414641 0.663559
O O11 0.018791 0.258518 0.791641
O O12 0.012366 0.385213 0.113394
O O13 0.614223 0.190426 0.401701
O O14 0.596578 0.016461 0.369102
O O15 0.950833 0.224057 0.408504
#
# Coordination Sequence:
#
# PCOD9343697 Si02
#       8
#     4   4   4   4   4   4   2   4
#     4  10  19  33  51  73 108 140 194 223 274 339
#     4  10  19  32  45  81 104 145 189 215 279 341
#     4  10  19  33  51  73 108 140 194 223 274 339
#     4  11  21  35  53  73 109 157 191 237 281 347
#     4  11  21  35  53  73 109 157 191 237 281 347
#     4  10  19  32  45  81 104 145 189 215 279 341
#     4  10  26  36  48  82 104 158 206 234 294 346
#     4  11  20  29  56  74 116 151 182 231 286 356
#
# _framework density 24.240010000000002
#
# number of rings (size 3 to 8) (size 9 to 14) (size 15 to 20)
#    0.000    1.600    5.333    3.600    3.733    0.000 
#    0.000    0.000    0.000    0.000    0.000    0.000 
#    0.000    1.067    2.133    0.000    0.000    0.000 
#
# Total GULP energy -167297.927535 kJ/mol
# GULP energy per Si atom -5576.597585 kJ/mol
# Density = 2.418484 g / cm^3
# Si number density = 24.240010 Si / 1000 Ang^3
#
#
#
# Elastic Constant Matrix: (Units=GPa)
#
#
# Indices 1 2 3 4 5 6 
#
# 1 122.8796 12.9080 29.5394 0.0000 0.0000 0.0000
# 2 12.9080 22.5672 10.1905 0.0000 0.0000 0.0000
# 3 29.5394 10.1905 167.8782 0.0000 0.0000 0.0000
# 4 0.0000 0.0000 0.0000 17.5538 0.0000 0.0000
# 5 0.0000 0.0000 0.0000 0.0000 41.5467 0.0000
# 6 0.0000 0.0000 0.0000 0.0000 0.0000 16.9180
#
#
#
# Elastic Compliance Matrix: (Units=1/GPa)
#
#
# Indices 1 2 3 4 5 6 
#
# 1 0.008924 -0.004519 -0.001296 0.000000 0.000000 0.000000
# 2 -0.004519 0.047849 -0.002109 0.000000 0.000000 0.000000
# 3 -0.001296 -0.002109 0.006313 0.000000 0.000000 0.000000
# 4 0.000000 0.000000 0.000000 0.056968 0.000000 0.000000
# 5 0.000000 0.000000 0.000000 0.000000 0.024069 0.000000
# 6 0.000000 0.000000 0.000000 0.000000 0.000000 0.059109
#
#
# Mechanical properties :
#
#
# Convention : Reuss Voigt Hill
#
# Bulk Modulus (GPa) = 21.16971 46.51121 33.84046
# Shear Modulus (GPa) = 21.29225 32.58284 26.93755
#
# Velocity S-wave (km/s) = 2.96698 3.67028 3.33721
# Velocity P-wave (km/s) = 4.52655 6.09842 5.37031
#
# Compressibility (1/GPa) = 0.04723730
#
# Stress axis : x y z
#
# Youngs Moduli (GPa) = 112.05328 20.89888 158.40889
#
# Poissons Ratio (x) = 0.09445 0.20529
# Poissons Ratio (y) = 0.50641 0.33414
# Poissons Ratio (z) = 0.14522 0.04408
#
# Static dielectric constant tensor:
#      x y z
#    x 2.005270 0.000000 0.000000 
#    y 0.000000 2.059080 0.000000 
#    z 0.000000 0.000000 2.049110 
# 
# From -- ./inp_files/1276.got.cif
#   From: 2010.05.17/outbox.cif.g08.bks.cpg/sg32_1_cif.got.tgz:1276.got - 2010.06.03 17:12:27.
