data_PCOD9343998
_publ_section_title
;
Structure prediction by ZEFSAII (Michael W. Deem and Ramdas Pophale) SiO2 
 PCOD9343998
Probable space group: P B A 2
;
_chemical_formula_sum "Si O2"
_cell_formula_units_Z 20
_cell_length_a 8.658366
_cell_length_b 12.597250
_cell_length_c 7.741896
_cell_angle_alpha 90.000000
_cell_angle_beta 90.000000
_cell_angle_gamma 90.000000
_cell_volume 844.420992
_symmetry_space_group_name_H-M "P B A 2"
_symmetry_group_IT_number 32
_symmetry_cell_setting 'orthorhombic'
loop_
_space_group_symop_operation_xyz
x,y,z
-x,-y,z
1/2-x,1/2+y,z
1/2+x,1/2-y,z
loop_
_atom_site_type_symbol
_atom_site_label
_atom_site_fract_x
_atom_site_fract_y
_atom_site_fract_z
Si Si1 0.173611 0.872846 0.727540
Si Si2 0.340793 0.611317 0.603906
Si Si3 0.006268 0.627647 0.724906
Si Si4 0.858912 0.267448 0.046725
Si Si5 0.073757 0.111980 0.208490
O O1 0.339272 0.843839 0.642414
O O2 0.189430 0.829030 0.920653
O O3 0.001878 0.837641 0.668556
O O4 0.165216 0.999164 0.704355
O O5 0.170741 0.657846 0.638249
O O6 0.365752 0.593145 0.401492
O O7 0.028089 0.665117 0.923238
O O8 0.000000 0.500000 0.723034
O O9 0.716897 0.342049 0.098722
O O10 0.947283 0.206926 0.200352
O O11 0.000000 0.000000 0.148134
#
# Coordination Sequence:
#
# PCOD9343998 Si02
#       5
#     4   4   4   4   4
#     4  10  21  46  74 107 142 207 265 314 382 492
#     4  10  23  48  76 105 157 203 254 328 404 455
#     4  10  23  45  76 110 145 203 275 317 377 497
#     4  12  26  46  78 115 154 211 271 321 409 486
#     4  12  28  51  75 116 170 207 255 356 413 467
#
# _framework density 23.684867000000001
#
# number of rings (size 3 to 8) (size 9 to 14) (size 15 to 20)
#    0.000    1.200    4.000    1.200    8.400    1.600 
#    3.600    3.000    0.000    0.000    0.000    0.000 
#    0.000    0.000    0.000    0.000    0.000    0.000 
#
# Total GULP energy -111584.426638 kJ/mol
# GULP energy per Si atom -5579.221332 kJ/mol
# Density = 2.363096 g / cm^3
# Si number density = 23.684867 Si / 1000 Ang^3
#
#
#
# Elastic Constant Matrix: (Units=GPa)
#
#
# Indices 1 2 3 4 5 6 
#
# 1 264.5700 107.4745 40.6383 0.0000 0.0000 0.0000
# 2 107.4745 107.7463 26.9067 0.0000 0.0000 0.0000
# 3 40.6383 26.9067 73.1783 0.0000 0.0000 0.0000
# 4 0.0000 0.0000 0.0000 -84.8647 0.0000 0.0000
# 5 0.0000 0.0000 0.0000 0.0000 34.9949 0.0000
# 6 0.0000 0.0000 0.0000 0.0000 0.0000 66.1209
#
#
#
# Elastic Compliance Matrix: (Units=1/GPa)
#
#
# Indices 1 2 3 4 5 6 
#
# 1 0.006472 -0.006121 -0.001344 0.000000 0.000000 0.000000
# 2 -0.006121 0.016007 -0.002487 0.000000 0.000000 0.000000
# 3 -0.001344 -0.002487 0.015326 0.000000 0.000000 0.000000
# 4 0.000000 0.000000 0.000000 -0.011783 0.000000 0.000000
# 5 0.000000 0.000000 0.000000 0.000000 0.028576 0.000000
# 6 0.000000 0.000000 0.000000 0.000000 0.000000 0.015124
#
#
# Mechanical properties :
#
#
# Convention : Reuss Voigt Hill
#
# Bulk Modulus (GPa) = 55.85589 88.39263 72.12426
# Shear Modulus (GPa) = 52.30598 21.28189 36.79394
#
# Velocity S-wave (km/s) = 4.70447 3.00082 3.94570
# Velocity P-wave (km/s) = 7.28996 7.02908 7.16071
#
# Compressibility (1/GPa) = 0.01790321
#
# Stress axis : x y z
#
# Youngs Moduli (GPa) = 154.50130 62.47222 65.24901
#
# Poissons Ratio (x) = 0.38236 0.08769
# Poissons Ratio (y) = 0.94563 0.16225
# Poissons Ratio (z) = 0.20764 0.15535
#
# Static dielectric constant tensor:
#      x y z
#    x 1.979030 0.000000 0.000000 
#    y 0.000000 2.022840 0.000000 
#    z 0.000000 0.000000 1.850310 
# 
# From -- ./inp_files/2234.got.cif
#   From: 2010.05.17/outbox.cif.g08.bks.cpg/sg32_2_cif.got.tgz:2234.got - 2010.06.03 17:12:27.
