data_PCOD9343279
_publ_section_title
;
Structure prediction by ZEFSAII (Michael W. Deem and Ramdas Pophale) SiO2 
 PCOD9343279
Probable space group: P M N 21
;
_chemical_formula_sum "Si O2"
_cell_formula_units_Z 32
_cell_length_a 8.670499
_cell_length_b 12.305207
_cell_length_c 15.638622
_cell_angle_alpha 90.000000
_cell_angle_beta 90.000000
_cell_angle_gamma 90.000000
_cell_volume 1668.520315
_symmetry_space_group_name_H-M "P M N 21"
_symmetry_group_IT_number 31
_symmetry_cell_setting 'orthorhombic'
loop_
_space_group_symop_operation_xyz
x,y,z
1/2-x,-y,1/2+z
-x,y,z
1/2+x,-y,1/2+z
loop_
_atom_site_type_symbol
_atom_site_label
_atom_site_fract_x
_atom_site_fract_y
_atom_site_fract_z
Si Si1 0.682065 0.970750 0.665890
Si Si2 0.685292 0.643239 0.996160
Si Si3 0.176698 0.734808 0.398325
Si Si4 0.683209 0.958000 0.343471
Si Si5 0.812365 0.510514 0.652211
Si Si6 0.178784 0.753267 0.600769
Si Si7 0.813754 0.886978 0.000590
Si Si8 0.316932 0.509130 0.348461
O O1 0.500000 0.985814 0.680734
O O2 0.774391 0.994796 0.751686
O O3 0.729452 0.049890 0.587728
O O4 0.717649 0.847901 0.638447
O O5 0.500000 0.644375 0.996799
O O6 0.739298 0.576649 0.080987
O O7 0.746303 0.766140 0.996858
O O8 0.740301 0.577569 0.912315
O O9 0.236771 0.841396 0.351514
O O10 0.180911 0.760718 0.498721
O O11 0.278472 0.629330 0.381367
O O12 0.000000 0.709956 0.374517
O O13 0.500000 0.943714 0.352479
O O14 0.734667 0.039195 0.419523
O O15 0.769447 0.632286 0.624884
O O16 0.761951 0.494236 0.749886
O O17 0.000000 0.505613 0.651376
O O18 0.000000 0.767046 0.629476
O O19 0.000000 0.879602 0.998472
O O20 0.500000 0.489525 0.349116
#
# Coordination Sequence:
#
# PCOD9343279 Si02
#       8
#     4   4   4   4   4   4   4   4
#     4  11  24  42  63  94 127 157 207 262 309 367
#     4  11  23  42  64  90 124 162 207 256 307 367
#     4  11  22  40  66  93 123 159 209 266 312 362
#     4  11  24  43  65  90 125 168 209 251 312 377
#     4   9  21  41  62  88 121 161 204 247 300 368
#     4  10  20  40  66  88 119 162 206 254 313 370
#     4  10  24  44  62  87 126 166 204 254 310 370
#     4  11  23  40  64  92 125 165 208 252 309 373
#
# _framework density 19.178668999999999
#
# number of rings (size 3 to 8) (size 9 to 14) (size 15 to 20)
#    0.000    1.500    2.500    1.875    3.500    2.500 
#    0.000    2.500    0.000    0.000    0.000    0.000 
#    0.000    0.000    0.000    0.000    0.000    0.000 
#
# Total GULP energy -178788.668220 kJ/mol
# GULP energy per Si atom -5587.145882 kJ/mol
# Density = 1.913502 g / cm^3
# Si number density = 19.178669 Si / 1000 Ang^3
#
#
#
# Elastic Constant Matrix: (Units=GPa)
#
#
# Indices 1 2 3 4 5 6 
#
# 1 18.4253 -4.4427 7.9363 0.0000 0.0000 0.0000
# 2 -4.4427 65.7019 -0.4462 0.0000 0.0000 0.0000
# 3 7.9363 -0.4462 77.0797 0.0000 0.0000 0.0000
# 4 0.0000 0.0000 0.0000 26.5249 0.0000 0.0000
# 5 0.0000 0.0000 0.0000 0.0000 26.7004 0.0000
# 6 0.0000 0.0000 0.0000 0.0000 0.0000 26.2385
#
#
#
# Elastic Compliance Matrix: (Units=1/GPa)
#
#
# Indices 1 2 3 4 5 6 
#
# 1 0.057757 0.003865 -0.005924 0.000000 0.000000 0.000000
# 2 0.003865 0.015480 -0.000308 0.000000 0.000000 0.000000
# 3 -0.005924 -0.000308 0.013582 0.000000 0.000000 0.000000
# 4 0.000000 0.000000 0.000000 0.037700 0.000000 0.000000
# 5 0.000000 0.000000 0.000000 0.000000 0.037453 0.000000
# 6 0.000000 0.000000 0.000000 0.000000 0.000000 0.038112
#
#
# Mechanical properties :
#
#
# Convention : Reuss Voigt Hill
#
# Bulk Modulus (GPa) = 12.18274 18.58907 15.38590
# Shear Modulus (GPa) = 21.53505 26.43672 23.98588
#
# Velocity S-wave (km/s) = 3.35455 3.71677 3.54030
# Velocity P-wave (km/s) = 4.62278 5.30403 4.97508
#
# Compressibility (1/GPa) = 0.08208335
#
# Stress axis : x y z
#
# Youngs Moduli (GPa) = 17.31388 64.60146 73.62799
#
# Poissons Ratio (x) = -0.24970 0.43620
# Poissons Ratio (y) = -0.06692 0.02270
# Poissons Ratio (z) = 0.10257 0.01992
#
# Static dielectric constant tensor:
#      x y z
#    x 1.663720 0.000000 0.000000 
#    y 0.000000 1.654110 0.000000 
#    z 0.000000 0.000000 1.676210 
# 
# From -- ./inp_files/4955.got.cif
#   From: 2010.05.17/outbox.cif.g08.bks.cpg/sg31_3_cif.got.tgz:4955.got - 2010.06.03 17:08:30.
