data_PCOD9343625
_publ_section_title
;
Structure prediction by ZEFSAII (Michael W. Deem and Ramdas Pophale) SiO2 
 PCOD9343625
Probable space group: P M N 21
;
_chemical_formula_sum "Si O2"
_cell_formula_units_Z 32
_cell_length_a 9.000000
_cell_length_b 12.000000
_cell_length_c 15.000000
_cell_angle_alpha 90.000000
_cell_angle_beta 90.000000
_cell_angle_gamma 90.000000
_cell_volume 1620.000000
_symmetry_space_group_name_H-M "P M N 21"
_symmetry_group_IT_number 31
_symmetry_cell_setting 'orthorhombic'
loop_
_space_group_symop_operation_xyz
x,y,z
1/2-x,-y,1/2+z
-x,y,z
1/2+x,-y,1/2+z
loop_
_atom_site_type_symbol
_atom_site_label
_atom_site_fract_x
_atom_site_fract_y
_atom_site_fract_z
Si Si1 0.325450 0.203386 0.766700
Si Si2 0.329393 0.807524 0.924423
Si Si3 0.828165 0.326381 0.608179
Si Si4 0.677237 0.413321 0.089578
Si Si5 0.176077 0.009374 0.005614
Si Si6 0.176007 0.992828 0.695449
Si Si7 0.323839 0.259888 0.255392
Si Si8 0.176067 0.261327 0.942744
O O1 0.500000 0.192128 0.775244
O O2 0.279093 0.267798 0.677730
O O3 0.257672 0.269858 0.849077
O O4 0.252264 0.081233 0.760210
O O5 0.500000 0.840108 0.909323
O O6 0.269351 0.732293 0.844775
O O7 0.319733 0.737871 0.015069
O O8 0.230181 0.917932 0.935077
O O9 0.792474 0.455958 0.595471
O O10 0.000000 0.317618 0.640362
O O11 0.500000 0.398331 0.075031
O O12 0.714621 0.350833 0.181602
O O13 0.764301 0.351301 0.011826
O O14 0.000000 0.998640 0.019262
O O15 0.262219 0.985225 0.096894
O O16 0.208651 0.136193 0.978133
O O17 0.206435 0.864283 0.717916
O O18 0.000000 0.010816 0.697808
O O19 0.500000 0.267260 0.273900
O O20 0.000000 0.270847 0.931550
#
# Coordination Sequence:
#
# PCOD9343625 Si02
#       8
#     4   4   4   4   4   4   4   4
#     4  12  25  40  63  92 124 164 207 250 302 370
#     4  11  23  38  61  90 123 162 200 248 304 365
#     4  10  23  43  64  88 122 162 206 259 310 356
#     4  10  22  43  66  89 120 162 210 256 306 363
#     4  11  22  37  61  92 124 159 199 247 304 369
#     4  11  21  37  62  91 124 158 197 249 309 366
#     4  10  22  39  62  90 122 159 198 250 305 363
#     4  11  24  41  63  92 127 162 201 255 308 362
#
# _framework density 19.753086
#
# number of rings (size 3 to 8) (size 9 to 14) (size 15 to 20)
#    0.000    1.250    2.500    3.375    0.000    8.000 
#    0.000    2.500    0.000    0.000    0.000    0.000 
#    0.000    0.000    0.000    0.000    0.000    0.000 
#
# Total GULP energy -178949.730778 kJ/mol
# GULP energy per Si atom -5592.179087 kJ/mol
# Density = 1.970813 g / cm^3
# Si number density = 19.753086 Si / 1000 Ang^3
#
#
#
# Elastic Constant Matrix: (Units=GPa)
#
#
# Indices 1 2 3 4 5 6 
#
# 1 33.9483 38.1872 38.7559 0.0000 0.0000 0.0000
# 2 38.1872 78.9969 7.5834 0.0000 0.0000 0.0000
# 3 38.7559 7.5834 71.8869 0.0000 0.0000 0.0000
# 4 0.0000 0.0000 0.0000 -3.2933 0.0000 0.0000
# 5 0.0000 0.0000 0.0000 0.0000 24.5960 0.0000
# 6 0.0000 0.0000 0.0000 0.0000 0.0000 24.1548
#
#
#
# Elastic Compliance Matrix: (Units=1/GPa)
#
#
# Indices 1 2 3 4 5 6 
#
# 1 -0.550899 0.240227 0.271661 0.000000 0.000000 0.000000
# 2 0.240227 -0.091966 -0.119811 0.000000 0.000000 0.000000
# 3 0.271661 -0.119811 -0.119909 0.000000 0.000000 0.000000
# 4 0.000000 0.000000 0.000000 -0.303649 0.000000 0.000000
# 5 0.000000 0.000000 0.000000 0.000000 0.040657 0.000000
# 6 0.000000 0.000000 0.000000 0.000000 0.000000 0.041400
#
#
# Mechanical properties :
#
#
# Convention : Reuss Voigt Hill
#
# Bulk Modulus (GPa) = 46.77106 39.32056 43.04581
# Shear Modulus (GPa) = -2.83866 15.77855 6.46995
#
# Velocity S-wave (km/s) = -1.20008 2.82935 1.81177
# Velocity P-wave (km/s) = 4.67001 5.53380 5.12015
#
# Compressibility (1/GPa) = 0.02138074
#
# Stress axis : x y z
#
# Youngs Moduli (GPa) = -1.81522 -10.87359 -8.33963
#
# Poissons Ratio (x) = 2.61213 2.26555
# Poissons Ratio (y) = 0.43606 -0.99918
# Poissons Ratio (z) = 0.49312 -1.30277
#
# Static dielectric constant tensor:
#      x y z
#    x 1.661410 0.000000 0.000000 
#    y 0.000000 1.662840 0.000000 
#    z 0.000000 0.000000 1.717050 
# 
# From -- ./inp_files/4889.got.cif
#   From: 2010.05.17/outbox.ucp.g08.bks.cvg/sg31_3_cif.got.tgz:4889.got - 2010.06.11 10:34:26.
