data_PCOD9343126
_publ_section_title
;
Structure prediction by ZEFSAII (Michael W. Deem and Ramdas Pophale) SiO2 
 PCOD9343126
Probable space group: P M N 21
;
_chemical_formula_sum "Si O2"
_cell_formula_units_Z 24
_cell_length_a 7.481091
_cell_length_b 14.929535
_cell_length_c 8.466625
_cell_angle_alpha 90.000000
_cell_angle_beta 90.000000
_cell_angle_gamma 90.000000
_cell_volume 945.630657
_symmetry_space_group_name_H-M "P M N 21"
_symmetry_group_IT_number 31
_symmetry_cell_setting 'orthorhombic'
loop_
_space_group_symop_operation_xyz
x,y,z
1/2-x,-y,1/2+z
-x,y,z
1/2+x,-y,1/2+z
loop_
_atom_site_type_symbol
_atom_site_label
_atom_site_fract_x
_atom_site_fract_y
_atom_site_fract_z
Si Si1 0.715358 0.537494 0.643020
Si Si2 0.780779 0.296581 0.331978
Si Si3 0.204911 0.199681 0.643146
Si Si4 0.790022 0.632676 0.311816
Si Si5 0.207510 0.131125 0.145895
Si Si6 0.282559 0.964398 0.333687
O O1 0.500000 0.533189 0.648793
O O2 0.776558 0.604647 0.782350
O O3 0.764207 0.583577 0.478611
O O4 0.781684 0.437797 0.680794
O O5 0.716681 0.254403 0.496270
O O6 0.719863 0.226905 0.196829
O O7 0.000000 0.297892 0.334791
O O8 0.206437 0.269902 0.788637
O O9 0.282034 0.105507 0.699389
O O10 0.000000 0.180885 0.601135
O O11 0.000000 0.646016 0.288844
O O12 0.000000 0.146003 0.109324
O O13 0.220830 0.063680 0.293738
O O14 0.283895 0.077519 0.997641
O O15 0.500000 0.966015 0.334479
#
# Coordination Sequence:
#
# PCOD9343126 Si02
#       6
#     4   4   4   4   4   4
#     4  10  21  38  58  80 111 148 183 222 272 330
#     4   9  18  35  59  82 104 141 188 225 269 332
#     4  10  20  37  60  81 108 147 185 223 273 332
#     4  11  23  37  57  86 114 143 184 229 271 318
#     4  10  20  35  56  81 109 141 183 233 275 320
#     4  10  21  36  56  82 110 146 187 224 274 334
#
# _framework density 25.379885000000002
#
# number of rings (size 3 to 8) (size 9 to 14) (size 15 to 20)
#    0.000    2.000    0.000    3.500    0.000    8.000 
#    0.000    4.167    0.000    0.000    0.000    0.000 
#    0.000    0.000    0.000    0.000    0.000    0.000 
#
# Total GULP energy -134289.728930 kJ/mol
# GULP energy per Si atom -5595.405372 kJ/mol
# Density = 2.532212 g / cm^3
# Si number density = 25.379885 Si / 1000 Ang^3
#
#
#
# Elastic Constant Matrix: (Units=GPa)
#
#
# Indices 1 2 3 4 5 6 
#
# 1 85.6470 -3.0547 -7.5516 0.0000 0.0000 0.0000
# 2 -3.0547 110.4595 -14.9254 0.0000 0.0000 0.0000
# 3 -7.5516 -14.9254 65.9265 0.0000 0.0000 0.0000
# 4 0.0000 0.0000 0.0000 45.2356 0.0000 0.0000
# 5 0.0000 0.0000 0.0000 0.0000 16.8757 0.0000
# 6 0.0000 0.0000 0.0000 0.0000 0.0000 9.5735
#
#
#
# Elastic Compliance Matrix: (Units=1/GPa)
#
#
# Indices 1 2 3 4 5 6 
#
# 1 0.011825 0.000526 0.001474 0.000000 0.000000 0.000000
# 2 0.000526 0.009362 0.002180 0.000000 0.000000 0.000000
# 3 0.001474 0.002180 0.015831 0.000000 0.000000 0.000000
# 4 0.000000 0.000000 0.000000 0.022106 0.000000 0.000000
# 5 0.000000 0.000000 0.000000 0.000000 0.059257 0.000000
# 6 0.000000 0.000000 0.000000 0.000000 0.000000 0.104455
#
#
# Mechanical properties :
#
#
# Convention : Reuss Voigt Hill
#
# Bulk Modulus (GPa) = 22.03789 23.44105 22.73947
# Shear Modulus (GPa) = 21.77685 33.50796 27.64241
#
# Velocity S-wave (km/s) = 2.93240 3.63748 3.30380
# Velocity P-wave (km/s) = 4.49081 5.18631 4.85104
#
# Compressibility (1/GPa) = 0.04537639
#
# Stress axis : x y z
#
# Youngs Moduli (GPa) = 84.57005 106.81270 63.16837
#
# Poissons Ratio (x) = -0.05620 -0.09308
# Poissons Ratio (y) = -0.04449 -0.13770
# Poissons Ratio (z) = -0.12462 -0.23283
#
# Static dielectric constant tensor:
#      x y z
#    x 1.942100 0.000000 0.000000 
#    y 0.000000 1.939070 0.000000 
#    z 0.000000 0.000000 2.063910 
# 
# From -- ./inp_files/1694.got.cif
#   From: 2010.05.17/outbox.cif.g08.bks.cpg/sg31_1_cif.got.tgz:1694.got - 2010.06.03 17:08:30.
