data_PCOD9343400
_publ_section_title
;
Structure prediction by ZEFSAII (Michael W. Deem and Ramdas Pophale) SiO2 
 PCOD9343400
Probable space group: P M N 21
;
_chemical_formula_sum "Si O2"
_cell_formula_units_Z 32
_cell_length_a 22.592271
_cell_length_b 6.272813
_cell_length_c 11.127516
_cell_angle_alpha 90.000000
_cell_angle_beta 90.000000
_cell_angle_gamma 90.000000
_cell_volume 1576.959200
_symmetry_space_group_name_H-M "P M N 21"
_symmetry_group_IT_number 31
_symmetry_cell_setting 'orthorhombic'
loop_
_space_group_symop_operation_xyz
x,y,z
1/2-x,-y,1/2+z
-x,y,z
1/2+x,-y,1/2+z
loop_
_atom_site_type_symbol
_atom_site_label
_atom_site_fract_x
_atom_site_fract_y
_atom_site_fract_z
Si Si1 0.066006 0.807135 0.331520
Si Si2 0.774475 0.191782 0.069990
Si Si3 0.168722 0.806019 0.934529
Si Si4 0.851873 0.553495 0.162668
Si Si5 0.564833 0.449140 0.077049
Si Si6 0.728665 0.503273 0.872364
Si Si7 0.871838 0.168511 0.462119
Si Si8 0.842199 0.856151 0.683049
O O1 0.096021 0.622453 0.251850
O O2 0.061735 0.710548 0.464557
O O3 0.000000 0.859797 0.288445
O O4 0.105629 0.017300 0.353819
O O5 0.832587 0.321020 0.113493
O O6 0.729322 0.156722 0.178583
O O7 0.735206 0.328757 0.976428
O O8 0.791743 0.979665 0.001698
O O9 0.208001 0.616283 0.877833
O O10 0.139045 0.914770 0.818909
O O11 0.135964 0.694859 0.045072
O O12 0.793445 0.598200 0.246929
O O13 0.500000 0.448401 0.137504
O O14 0.619861 0.356914 0.153000
O O15 0.578451 0.676499 0.017525
O O16 0.679830 0.677078 0.913181
O O17 0.853891 0.024334 0.576361
#
# Coordination Sequence:
#
# PCOD9343400 Si02
#       8
#     4   4   4   4   4   4   4   4
#     4  10  22  39  63  92 120 156 206 261 307 361
#     4  11  23  37  58  90 121 162 200 251 305 369
#     4  11  26  37  59  88 126 170 197 248 308 375
#     4  11  24  39  60  87 128 159 204 246 309 374
#     4  10  21  39  64  92 120 155 204 260 309 357
#     4  11  21  36  59  92 121 156 199 249 304 365
#     4  11  20  36  64  92 120 155 198 256 314 356
#     4  11  22  39  59  89 126 159 205 245 308 371
#
# _framework density 20.292217999999998
#
# number of rings (size 3 to 8) (size 9 to 14) (size 15 to 20)
#    0.000    1.250    5.000    1.125    3.500    2.500 
#    0.000    0.625    0.000    0.750    0.000    0.000 
#    0.000    0.000    0.000    0.000    0.000    0.000 
#
# Total GULP energy -178220.488609 kJ/mol
# GULP energy per Si atom -5569.390269 kJ/mol
# Density = 2.024603 g / cm^3
# Si number density = 20.292218 Si / 1000 Ang^3
#
#
#
# Elastic Constant Matrix: (Units=GPa)
#
#
# Indices 1 2 3 4 5 6 
#
# 1 55.4011 7.4034 -1.2181 0.0000 0.0000 0.0000
# 2 7.4034 43.9773 -7.4439 0.0000 0.0000 0.0000
# 3 -1.2181 -7.4439 84.9135 0.0000 0.0000 0.0000
# 4 0.0000 0.0000 0.0000 16.2202 0.0000 0.0000
# 5 0.0000 0.0000 0.0000 0.0000 10.6917 0.0000
# 6 0.0000 0.0000 0.0000 0.0000 0.0000 11.7934
#
#
#
# Elastic Compliance Matrix: (Units=1/GPa)
#
#
# Indices 1 2 3 4 5 6 
#
# 1 0.018466 -0.003110 -0.000008 0.000000 0.000000 0.000000
# 2 -0.003110 0.023605 0.002025 0.000000 0.000000 0.000000
# 3 -0.000008 0.002025 0.011954 0.000000 0.000000 0.000000
# 4 0.000000 0.000000 0.000000 0.061651 0.000000 0.000000
# 5 0.000000 0.000000 0.000000 0.000000 0.093531 0.000000
# 6 0.000000 0.000000 0.000000 0.000000 0.000000 0.084793
#
#
# Mechanical properties :
#
#
# Convention : Reuss Voigt Hill
#
# Bulk Modulus (GPa) = 19.29044 20.19718 19.74381
# Shear Modulus (GPa) = 15.95071 20.11110 18.03091
#
# Velocity S-wave (km/s) = 2.80670 3.15155 2.98411
# Velocity P-wave (km/s) = 4.47553 4.81848 4.65017
#
# Compressibility (1/GPa) = 0.05183914
#
# Stress axis : x y z
#
# Youngs Moduli (GPa) = 54.15471 42.36340 83.65349
#
# Poissons Ratio (x) = 0.13175 0.00065
# Poissons Ratio (y) = 0.16842 -0.16938
# Poissons Ratio (z) = 0.00042 -0.08578
#
# Static dielectric constant tensor:
#      x y z
#    x 1.767380 0.000000 0.000000 
#    y 0.000000 1.770620 0.000000 
#    z 0.000000 0.000000 1.786580 
# 
# From -- ./inp_files/4563.got.cif
#   From: 2010.05.17/outbox.cif.g08.bks.cpg/sg31_3_cif.got.tgz:4563.got - 2010.06.03 17:08:30.
