data_PCOD9343233
_publ_section_title
;
Structure prediction by ZEFSAII (Michael W. Deem and Ramdas Pophale) SiO2 
 PCOD9343233
Probable space group: P M N 21
;
_chemical_formula_sum "Si O2"
_cell_formula_units_Z 32
_cell_length_a 8.702802
_cell_length_b 7.526371
_cell_length_c 22.862227
_cell_angle_alpha 90.000000
_cell_angle_beta 90.000000
_cell_angle_gamma 90.000000
_cell_volume 1497.487679
_symmetry_space_group_name_H-M "P M N 21"
_symmetry_group_IT_number 31
_symmetry_cell_setting 'orthorhombic'
loop_
_space_group_symop_operation_xyz
x,y,z
1/2-x,-y,1/2+z
-x,y,z
1/2+x,-y,1/2+z
loop_
_atom_site_type_symbol
_atom_site_label
_atom_site_fract_x
_atom_site_fract_y
_atom_site_fract_z
Si Si1 0.818165 0.732579 0.193130
Si Si2 0.813034 0.463529 0.448598
Si Si3 0.181020 0.593493 0.749709
Si Si4 0.182501 0.131938 0.161748
Si Si5 0.676418 0.052971 0.040516
Si Si6 0.314371 0.819273 0.855827
Si Si7 0.677086 0.637241 0.071835
Si Si8 0.813375 0.832294 0.409549
O O1 0.745732 0.605229 0.241657
O O2 0.768179 0.939065 0.188363
O O3 0.774737 0.645189 0.130545
O O4 0.000000 0.733133 0.200871
O O5 0.772138 0.283698 0.415463
O O6 0.762911 0.472957 0.516149
O O7 0.760958 0.629277 0.409301
O O8 0.000000 0.467098 0.451670
O O9 0.249813 0.704352 0.803324
O O10 0.000000 0.584843 0.754454
O O11 0.230477 0.710334 0.693707
O O12 0.222162 0.127133 0.093205
O O13 0.000000 0.150600 0.170698
O O14 0.500000 0.116172 0.048106
O O15 0.674373 0.840230 0.048298
O O16 0.724321 0.101821 0.975156
O O17 0.500000 0.819460 0.850854
O O18 0.260109 0.022487 0.862725
O O19 0.500000 0.587306 0.085734
O O20 0.000000 0.831271 0.405357
#
# Coordination Sequence:
#
# PCOD9343233 Si02
#       8
#     4   4   4   4   4   4   4   4
#     4  10  22  40  61  88 121 157 197 245 302 360
#     4   9  17  30  53  84 114 149 193 235 283 344
#     4  12  26  42  62  86 116 160 207 254 301 356
#     4  10  22  40  61  88 121 157 197 245 302 360
#     4   9  16  30  54  85 120 153 189 236 287 344
#     4  10  20  38  58  80 114 154 199 248 287 342
#     4   9  16  30  54  85 120 153 189 236 287 344
#     4   9  17  30  53  84 114 149 193 235 283 344
#
# _framework density 21.369123999999999
#
# number of rings (size 3 to 8) (size 9 to 14) (size 15 to 20)
#    0.000    2.250    1.250    1.875    1.750    2.500 
#    0.000    3.750    0.000    1.500    0.000    0.000 
#    0.000    0.000    0.000    0.000    0.000    0.000 
#
# Total GULP energy -178686.292322 kJ/mol
# GULP energy per Si atom -5583.946635 kJ/mol
# Density = 2.132049 g / cm^3
# Si number density = 21.369124 Si / 1000 Ang^3
#
#
#
# Elastic Constant Matrix: (Units=GPa)
#
#
# Indices 1 2 3 4 5 6 
#
# 1 25.7420 9.6294 -8.9347 0.0000 0.0000 0.0000
# 2 9.6294 68.2051 -10.9928 0.0000 0.0000 0.0000
# 3 -8.9347 -10.9928 2.7718 0.0000 0.0000 0.0000
# 4 0.0000 0.0000 0.0000 22.0455 0.0000 0.0000
# 5 0.0000 0.0000 0.0000 0.0000 22.0949 0.0000
# 6 0.0000 0.0000 0.0000 0.0000 0.0000 20.0554
#
#
#
# Elastic Compliance Matrix: (Units=1/GPa)
#
#
# Indices 1 2 3 4 5 6 
#
# 1 -0.033201 -0.034816 -0.245100 0.000000 0.000000 0.000000
# 2 -0.034816 0.004127 -0.095861 0.000000 0.000000 0.000000
# 3 -0.245100 -0.095861 -0.809474 0.000000 0.000000 0.000000
# 4 0.000000 0.000000 0.000000 0.045361 0.000000 0.000000
# 5 0.000000 0.000000 0.000000 0.000000 0.045259 0.000000
# 6 0.000000 0.000000 0.000000 0.000000 0.000000 0.049862
#
#
# Mechanical properties :
#
#
# Convention : Reuss Voigt Hill
#
# Bulk Modulus (GPa) = -0.62889 8.45807 3.91459
# Shear Modulus (GPa) = -10.49216 19.97364 4.74074
#
# Velocity S-wave (km/s) = -2.21825 3.06060 1.49108
# Velocity P-wave (km/s) = 2.61835 4.05664 2.19096
#
# Compressibility (1/GPa) = -1.59010184
#
# Stress axis : x y z
#
# Youngs Moduli (GPa) = -30.11973 242.30483 -1.23537
#
# Poissons Ratio (x) = 8.43607 -0.30279
# Poissons Ratio (y) = -1.04865 -0.11842
# Poissons Ratio (z) = -7.38236 23.22747
#
# Static dielectric constant tensor:
#      x y z
#    x 1.723310 0.000000 0.000000 
#    y 0.000000 1.819220 0.000000 
#    z 0.000000 0.000000 1.791240 
# 
# From -- ./inp_files/6470.got.cif
#   From: 2010.05.17/outbox.cif.g08.bks.cpg/sg31_4_cif.got.tgz:6470.got - 2010.06.03 17:08:30.
