data_PCOD9343507
_publ_section_title
;
Structure prediction by ZEFSAII (Michael W. Deem and Ramdas Pophale) SiO2 
 PCOD9343507
Probable space group: P M N 21
;
_chemical_formula_sum "Si O2"
_cell_formula_units_Z 20
_cell_length_a 14.984931
_cell_length_b 7.183591
_cell_length_c 6.782626
_cell_angle_alpha 90.000000
_cell_angle_beta 90.000000
_cell_angle_gamma 90.000000
_cell_volume 730.119950
_symmetry_space_group_name_H-M "P M N 21"
_symmetry_group_IT_number 31
_symmetry_cell_setting 'orthorhombic'
loop_
_space_group_symop_operation_xyz
x,y,z
1/2-x,-y,1/2+z
-x,y,z
1/2+x,-y,1/2+z
loop_
_atom_site_type_symbol
_atom_site_label
_atom_site_fract_x
_atom_site_fract_y
_atom_site_fract_z
Si Si1 0.000000 0.909191 0.950980
Si Si2 0.000000 0.525505 0.820818
Si Si3 0.799710 0.211130 0.266297
Si Si4 0.000000 0.322491 0.212976
Si Si5 0.135117 0.851563 0.300634
Si Si6 0.165987 0.515593 0.554606
Si Si7 0.000000 0.080118 0.567194
O O1 0.000000 0.747175 0.791950
O O2 0.000000 0.086734 0.804191
O O3 0.916914 0.873128 0.094571
O O4 0.093749 0.473284 0.721257
O O5 0.000000 0.482680 0.051978
O O6 0.795363 0.323280 0.473114
O O7 0.900799 0.235419 0.181041
O O8 0.780304 0.991032 0.280725
O O9 0.735549 0.333677 0.133363
O O10 0.000000 0.279507 0.450366
O O11 0.131546 0.636055 0.365559
O O12 0.082264 0.964737 0.473367
#
# Coordination Sequence:
#
# PCOD9343507 Si02
#       7
#     2   2   4   2   4   4   2
#     4  11  20  42  80 105 145 193 254 305 377 470
#     4  12  23  42  78 105 143 206 243 310 398 437
#     4  11  26  47  68 107 146 190 251 304 378 455
#     4  10  22  46  69 104 147 189 248 311 380 455
#     4  10  23  45  72 104 145 190 248 310 373 450
#     4  12  25  47  72 105 153 194 253 319 373 466
#     4   9  19  44  67 112 139 182 251 300 361 468
#
# _framework density 27.392762000000001
#
# number of rings (size 3 to 8) (size 9 to 14) (size 15 to 20)
#    0.000    1.200    2.000    4.200    0.000    3.200 
#   36.000    0.000    0.000    0.000    0.000    0.000 
#    0.000    0.000    0.000    0.000    0.000    0.000 
#
# Total GULP energy -111588.380059 kJ/mol
# GULP energy per Si atom -5579.419003 kJ/mol
# Density = 2.733041 g / cm^3
# Si number density = 27.392762 Si / 1000 Ang^3
#
#
#
# Elastic Constant Matrix: (Units=GPa)
#
#
# Indices 1 2 3 4 5 6 
#
# 1 51.5169 -12.6699 30.9850 0.0000 0.0000 0.0000
# 2 -12.6699 125.7898 45.9561 0.0000 0.0000 0.0000
# 3 30.9850 45.9561 164.0851 0.0000 0.0000 0.0000
# 4 0.0000 0.0000 0.0000 67.3285 0.0000 0.0000
# 5 0.0000 0.0000 0.0000 0.0000 38.7587 0.0000
# 6 0.0000 0.0000 0.0000 0.0000 0.0000 26.4855
#
#
#
# Elastic Compliance Matrix: (Units=1/GPa)
#
#
# Indices 1 2 3 4 5 6 
#
# 1 0.024021 0.004541 -0.005808 0.000000 0.000000 0.000000
# 2 0.004541 0.009715 -0.003578 0.000000 0.000000 0.000000
# 3 -0.005808 -0.003578 0.008193 0.000000 0.000000 0.000000
# 4 0.000000 0.000000 0.000000 0.014853 0.000000 0.000000
# 5 0.000000 0.000000 0.000000 0.000000 0.025801 0.000000
# 6 0.000000 0.000000 0.000000 0.000000 0.000000 0.037757
#
#
# Mechanical properties :
#
#
# Convention : Reuss Voigt Hill
#
# Bulk Modulus (GPa) = 31.01819 52.21492 41.61656
# Shear Modulus (GPa) = 35.51763 44.98923 40.25343
#
# Velocity S-wave (km/s) = 3.60475 4.05702 3.83755
# Velocity P-wave (km/s) = 5.35478 6.40694 5.90434
#
# Compressibility (1/GPa) = 0.03223915
#
# Stress axis : x y z
#
# Youngs Moduli (GPa) = 41.62988 102.93882 122.05014
#
# Poissons Ratio (x) = -0.46748 0.70886
# Poissons Ratio (y) = -0.18906 0.43674
# Poissons Ratio (z) = 0.24179 0.36835
#
# Static dielectric constant tensor:
#      x y z
#    x 2.233540 0.000000 0.000000 
#    y 0.000000 2.181130 0.000000 
#    z 0.000000 0.000000 2.159720 
# 
# From -- ./inp_files/788.got.cif
#   From: 2010.05.17/outbox.cif.g08.bks.cpg/sg31_1_cif.got.tgz:788.got - 2010.06.03 17:08:30.
