data_PCOD9343514
_publ_section_title
;
Structure prediction by ZEFSAII (Michael W. Deem and Ramdas Pophale) SiO2 
 PCOD9343514
Probable space group: P M N 21
;
_chemical_formula_sum "Si O2"
_cell_formula_units_Z 20
_cell_length_a 14.626816
_cell_length_b 7.246513
_cell_length_c 9.507002
_cell_angle_alpha 90.000000
_cell_angle_beta 90.000000
_cell_angle_gamma 90.000000
_cell_volume 1007.679583
_symmetry_space_group_name_H-M "P M N 21"
_symmetry_group_IT_number 31
_symmetry_cell_setting 'orthorhombic'
loop_
_space_group_symop_operation_xyz
x,y,z
1/2-x,-y,1/2+z
-x,y,z
1/2+x,-y,1/2+z
loop_
_atom_site_type_symbol
_atom_site_label
_atom_site_fract_x
_atom_site_fract_y
_atom_site_fract_z
Si Si1 0.303422 0.131533 0.786660
Si Si2 0.000000 0.859651 0.357480
Si Si3 0.500000 0.525301 0.680387
Si Si4 0.000000 0.657363 0.895602
Si Si5 0.000000 0.557684 0.576573
Si Si6 0.341792 0.550068 0.874238
Si Si7 0.691434 0.152755 0.452361
O O1 0.402715 0.047322 0.832286
O O2 0.306837 0.344580 0.836549
O O3 0.297142 0.122270 0.618893
O O4 0.223482 0.024102 0.864814
O O5 0.000000 0.764494 0.510343
O O6 0.000000 0.683604 0.248654
O O7 0.500000 0.499542 0.515637
O O8 0.407950 0.609338 0.745070
O O9 0.910526 0.781278 0.919382
O O10 0.000000 0.568914 0.742030
O O11 0.089657 0.465167 0.507637
O O12 0.259355 0.684253 0.904532
#
# Coordination Sequence:
#
# PCOD9343514 Si02
#       7
#     4   2   2   2   2   4   4
#     4  10  23  41  64  96 124 169 216 255 317 383
#     4   8  16  42  60  77 132 166 191 258 321 372
#     4   8  16  41  62  89 121 167 206 249 318 377
#     4  12  22  38  62  96 131 163 206 274 318 357
#     4   8  20  35  64  96 120 158 209 263 317 360
#     4   9  21  44  66  87 127 171 207 254 324 383
#     4  12  25  40  68  93 130 169 214 260 317 378
#
# _framework density 19.847579
#
# number of rings (size 3 to 8) (size 9 to 14) (size 15 to 20)
#    0.000    2.800    4.000    0.000    8.400    1.600 
#    0.000    3.000    0.000    0.000    0.000    0.000 
#    0.000    0.000    0.000    0.000    0.000    0.000 
#
# Total GULP energy -111629.126106 kJ/mol
# GULP energy per Si atom -5581.456305 kJ/mol
# Density = 1.980241 g / cm^3
# Si number density = 19.847579 Si / 1000 Ang^3
#
#
#
# Elastic Constant Matrix: (Units=GPa)
#
#
# Indices 1 2 3 4 5 6 
#
# 1 146.1303 42.3298 47.3762 0.0000 0.0000 0.0000
# 2 42.3298 57.0854 21.2220 0.0000 0.0000 0.0000
# 3 47.3762 21.2220 159.4954 0.0000 0.0000 0.0000
# 4 0.0000 0.0000 0.0000 11.6256 0.0000 0.0000
# 5 0.0000 0.0000 0.0000 0.0000 6.8963 0.0000
# 6 0.0000 0.0000 0.0000 0.0000 0.0000 -4.8283
#
#
#
# Elastic Compliance Matrix: (Units=1/GPa)
#
#
# Indices 1 2 3 4 5 6 
#
# 1 0.009247 -0.006140 -0.001930 0.000000 0.000000 0.000000
# 2 -0.006140 0.022506 -0.001171 0.000000 0.000000 0.000000
# 3 -0.001930 -0.001171 0.006999 0.000000 0.000000 0.000000
# 4 0.000000 0.000000 0.000000 0.086017 0.000000 0.000000
# 5 0.000000 0.000000 0.000000 0.000000 0.145006 0.000000
# 6 0.000000 0.000000 0.000000 0.000000 0.000000 -0.207111
#
#
# Mechanical properties :
#
#
# Convention : Reuss Voigt Hill
#
# Bulk Modulus (GPa) = 49.33153 64.95189 57.14171
# Shear Modulus (GPa) = 56.88161 19.52424 38.20292
#
# Velocity S-wave (km/s) = 5.35924 3.13982 4.39203
# Velocity P-wave (km/s) = 7.95012 6.77798 7.38733
#
# Compressibility (1/GPa) = 0.02027101
#
# Stress axis : x y z
#
# Youngs Moduli (GPa) = 108.13897 44.43358 142.88140
#
# Poissons Ratio (x) = 0.27281 0.27575
# Poissons Ratio (y) = 0.66393 0.16729
# Poissons Ratio (z) = 0.20870 0.05202
#
# Static dielectric constant tensor:
#      x y z
#    x 1.720630 0.000000 0.000000 
#    y 0.000000 1.712700 0.000000 
#    z 0.000000 0.000000 1.687070 
# 
# From -- ./inp_files/2413.got.cif
#   From: 2010.05.17/outbox.cif.g08.bks.cpg/sg31_2_cif.got.tgz:2413.got - 2010.06.03 17:08:30.
