data_PCOD9343171
_publ_section_title
;
Structure prediction by ZEFSAII (Michael W. Deem and Ramdas Pophale) SiO2 
 PCOD9343171
Probable space group: P M N 21
;
_chemical_formula_sum "Si O2"
_cell_formula_units_Z 32
_cell_length_a 7.554047
_cell_length_b 8.042906
_cell_length_c 24.293520
_cell_angle_alpha 90.000000
_cell_angle_beta 90.000000
_cell_angle_gamma 90.000000
_cell_volume 1475.989004
_symmetry_space_group_name_H-M "P M N 21"
_symmetry_group_IT_number 31
_symmetry_cell_setting 'orthorhombic'
loop_
_space_group_symop_operation_xyz
x,y,z
1/2-x,-y,1/2+z
-x,y,z
1/2+x,-y,1/2+z
loop_
_atom_site_type_symbol
_atom_site_label
_atom_site_fract_x
_atom_site_fract_y
_atom_site_fract_z
Si Si1 0.708490 0.962142 0.862360
Si Si2 0.287782 0.274207 0.929889
Si Si3 0.712615 0.783934 0.557103
Si Si4 0.282385 0.602211 0.870611
Si Si5 0.291826 0.924223 0.244418
Si Si6 0.782666 0.521005 0.131931
Si Si7 0.294784 0.102269 0.620367
Si Si8 0.711890 0.464228 0.754545
O O1 0.500000 0.963276 0.874659
O O2 0.779891 0.787318 0.884123
O O3 0.783579 0.126920 0.890891
O O4 0.726726 0.971180 0.796401
O O5 0.500000 0.279807 0.922405
O O6 0.222948 0.454787 0.910585
O O7 0.250605 0.234414 0.992954
O O8 0.500000 0.786590 0.564515
O O9 0.776212 0.621451 0.590262
O O10 0.783121 0.956276 0.582856
O O11 0.500000 0.604645 0.870645
O O12 0.223040 0.555733 0.808806
O O13 0.500000 0.946596 0.239395
O O14 0.212059 0.955182 0.184208
O O15 0.250903 0.731907 0.258525
O O16 0.721042 0.709415 0.118377
O O17 0.724909 0.480084 0.194404
O O18 0.000000 0.525435 0.132176
O O19 0.500000 0.119625 0.604422
O O20 0.500000 0.482630 0.754521
#
# Coordination Sequence:
#
# PCOD9343171 Si02
#       8
#     4   4   4   4   4   4   4   4
#     4  10  20  36  59  81 107 148 192 229 269 327
#     4  10  21  38  55  79 113 145 182 228 275 326
#     4  10  21  36  57  81 105 144 189 226 271 324
#     4   9  18  33  58  85 103 137 190 230 267 323
#     4  11  21  33  53  84 120 147 176 225 286 335
#     4   8  16  31  53  81 105 131 177 228 266 312
#     4   9  19  36  57  78 106 145 187 227 269 326
#     4   9  16  33  58  81 109 143 181 225 271 329
#
# _framework density 21.680377
#
# number of rings (size 3 to 8) (size 9 to 14) (size 15 to 20)
#    0.000    2.500    1.250    1.875    1.750    2.000 
#    0.000    3.750    0.000    0.000    0.000    0.000 
#    0.000    0.000    0.000    0.000    0.000    0.000 
#
# Total GULP energy -178640.462433 kJ/mol
# GULP energy per Si atom -5582.514451 kJ/mol
# Density = 2.163103 g / cm^3
# Si number density = 21.680377 Si / 1000 Ang^3
#
#
#
# Elastic Constant Matrix: (Units=GPa)
#
#
# Indices 1 2 3 4 5 6 
#
# 1 48.1171 24.9039 1.9675 0.0000 0.0000 0.0000
# 2 24.9039 -49.2227 -54.9113 0.0000 0.0000 0.0000
# 3 1.9675 -54.9113 23.4890 0.0000 0.0000 0.0000
# 4 0.0000 0.0000 0.0000 19.9676 0.0000 0.0000
# 5 0.0000 0.0000 0.0000 0.0000 18.3370 0.0000
# 6 0.0000 0.0000 0.0000 0.0000 0.0000 -9.0011
#
#
#
# Elastic Compliance Matrix: (Units=1/GPa)
#
#
# Indices 1 2 3 4 5 6 
#
# 1 0.018920 0.003143 0.005763 0.000000 0.000000 0.000000
# 2 0.003143 -0.005109 -0.012206 0.000000 0.000000 0.000000
# 3 0.005763 -0.012206 0.013555 0.000000 0.000000 0.000000
# 4 0.000000 0.000000 0.000000 0.050081 0.000000 0.000000
# 5 0.000000 0.000000 0.000000 0.000000 0.054534 0.000000
# 6 0.000000 0.000000 0.000000 0.000000 0.000000 -0.111097
#
#
# Mechanical properties :
#
#
# Convention : Reuss Voigt Hill
#
# Bulk Modulus (GPa) = 48.15227 -3.74404 22.20411
# Shear Modulus (GPa) = 145.31875 9.22226 77.27051
#
# Velocity S-wave (km/s) = 8.19593 2.06470 5.97646
# Velocity P-wave (km/s) = 10.57462 1.98829 7.60841
#
# Compressibility (1/GPa) = 0.02076745
#
# Stress axis : x y z
#
# Youngs Moduli (GPa) = 52.85375 -195.74357 73.77112
#
# Poissons Ratio (x) = 0.61527 -0.42516
# Poissons Ratio (y) = -0.16613 0.90046
# Poissons Ratio (z) = -0.30461 -2.38928
#
# Static dielectric constant tensor:
#      x y z
#    x 1.816000 0.000000 0.000000 
#    y 0.000000 1.805150 0.000000 
#    z 0.000000 0.000000 1.750390 
# 
# From -- ./inp_files/6501.got.cif
#   From: 2010.05.17/outbox.cif.g08.bks.cpg/sg31_4_cif.got.tgz:6501.got - 2010.06.03 17:08:30.
