data_PCOD9343105
_publ_section_title
;
Structure prediction by ZEFSAII (Michael W. Deem and Ramdas Pophale) SiO2 
 PCOD9343105
Probable space group: P M N 21
;
_chemical_formula_sum "Si O2"
_cell_formula_units_Z 32
_cell_length_a 16.331978
_cell_length_b 17.048884
_cell_length_c 5.212951
_cell_angle_alpha 90.000000
_cell_angle_beta 90.000000
_cell_angle_gamma 90.000000
_cell_volume 1451.504494
_symmetry_space_group_name_H-M "P M N 21"
_symmetry_group_IT_number 31
_symmetry_cell_setting 'orthorhombic'
loop_
_space_group_symop_operation_xyz
x,y,z
1/2-x,-y,1/2+z
-x,y,z
1/2+x,-y,1/2+z
loop_
_atom_site_type_symbol
_atom_site_label
_atom_site_fract_x
_atom_site_fract_y
_atom_site_fract_z
Si Si1 0.766486 0.689939 0.735930
Si Si2 0.591017 0.119728 0.832165
Si Si3 0.792473 0.467405 0.467725
Si Si4 0.335983 0.837803 0.726068
Si Si5 0.587818 0.273083 0.547595
Si Si6 0.675131 0.063155 0.323086
Si Si7 0.093486 0.099727 0.729677
Si Si8 0.592325 0.402978 0.925399
O O1 0.719005 0.623001 0.894959
O O2 0.703638 0.754966 0.639596
O O3 0.832573 0.643143 0.561540
O O4 0.828459 0.740891 0.905885
O O5 0.500000 0.088663 0.779331
O O6 0.589669 0.212790 0.782297
O O7 0.649810 0.081637 0.616608
O O8 0.614860 0.106179 0.123046
O O9 0.762032 0.485795 0.754986
O O10 0.881057 0.506786 0.431392
O O11 0.263532 0.902693 0.750849
O O12 0.399001 0.861760 0.507529
O O13 0.377835 0.841764 0.004814
O O14 0.500000 0.258763 0.416738
O O15 0.590388 0.362463 0.646352
O O16 0.656194 0.973439 0.249290
O O17 0.000000 0.073472 0.681675
O O18 0.500000 0.392431 0.029113
#
# Coordination Sequence:
#
# PCOD9343105 Si02
#       8
#     4   4   4   4   4   4   4   4
#     4  11  22  39  65  92 133 174 220 264 332 380
#     4  11  22  35  59  97 135 173 208 263 330 402
#     4  10  21  38  63  91 127 171 216 253 312 388
#     4  12  26  43  72  98 131 167 227 275 327 392
#     4  10  20  34  57  92 134 171 206 257 332 396
#     4  12  23  43  68  95 128 166 222 275 332 387
#     4  12  27  48  68  93 128 176 220 274 333 391
#     4  10  21  38  62  96 134 170 213 267 330 392
#
# _framework density 22.046092000000002
#
# number of rings (size 3 to 8) (size 9 to 14) (size 15 to 20)
#    0.000    1.000    2.500    4.875    1.750    0.000 
#    0.000    1.250    0.000    0.000    0.000    0.000 
#    0.000    0.000    0.000    0.000    0.000    0.000 
#
# Total GULP energy -178662.783496 kJ/mol
# GULP energy per Si atom -5583.211984 kJ/mol
# Density = 2.199591 g / cm^3
# Si number density = 22.046092 Si / 1000 Ang^3
#
#
#
# Elastic Constant Matrix: (Units=GPa)
#
#
# Indices 1 2 3 4 5 6 
#
# 1 77.1982 25.3619 16.2867 0.0000 0.0000 0.0000
# 2 25.3619 82.5114 9.3590 0.0000 0.0000 0.0000
# 3 16.2867 9.3590 53.4602 0.0000 0.0000 0.0000
# 4 0.0000 0.0000 0.0000 33.2932 0.0000 0.0000
# 5 0.0000 0.0000 0.0000 0.0000 29.0360 0.0000
# 6 0.0000 0.0000 0.0000 0.0000 0.0000 20.5519
#
#
#
# Elastic Compliance Matrix: (Units=1/GPa)
#
#
# Indices 1 2 3 4 5 6 
#
# 1 0.015158 -0.004219 -0.003879 0.000000 0.000000 0.000000
# 2 -0.004219 0.013539 -0.001085 0.000000 0.000000 0.000000
# 3 -0.003879 -0.001085 0.020077 0.000000 0.000000 0.000000
# 4 0.000000 0.000000 0.000000 0.030036 0.000000 0.000000
# 5 0.000000 0.000000 0.000000 0.000000 0.034440 0.000000
# 6 0.000000 0.000000 0.000000 0.000000 0.000000 0.048657
#
#
# Mechanical properties :
#
#
# Convention : Reuss Voigt Hill
#
# Bulk Modulus (GPa) = 32.88603 35.02058 33.95331
# Shear Modulus (GPa) = 26.25892 27.38702 26.82297
#
# Velocity S-wave (km/s) = 3.45496 3.52840 3.49187
# Velocity P-wave (km/s) = 5.55563 5.70255 5.62957
#
# Compressibility (1/GPa) = 0.03040804
#
# Stress axis : x y z
#
# Youngs Moduli (GPa) = 65.97065 73.85802 49.80756
#
# Poissons Ratio (x) = 0.31163 0.19322
# Poissons Ratio (y) = 0.27835 0.05404
# Poissons Ratio (z) = 0.25592 0.08013
#
# Static dielectric constant tensor:
#      x y z
#    x 1.796710 0.000000 0.000000 
#    y 0.000000 1.843980 0.000000 
#    z 0.000000 0.000000 1.844200 
# 
# From -- ./inp_files/671.got.cif
#   From: 2010.05.17/outbox.cif.g08.bks.cpg/sg31_1_cif.got.tgz:671.got - 2010.06.03 17:08:30.
