data_PCOD9343217
_publ_section_title
;
Structure prediction by ZEFSAII (Michael W. Deem and Ramdas Pophale) SiO2 
 PCOD9343217
Probable space group: P M N 21
;
_chemical_formula_sum "Si O2"
_cell_formula_units_Z 24
_cell_length_a 12.715066
_cell_length_b 11.623514
_cell_length_c 8.297313
_cell_angle_alpha 90.000000
_cell_angle_beta 90.000000
_cell_angle_gamma 90.000000
_cell_volume 1226.290984
_symmetry_space_group_name_H-M "P M N 21"
_symmetry_group_IT_number 31
_symmetry_cell_setting 'orthorhombic'
loop_
_space_group_symop_operation_xyz
x,y,z
1/2-x,-y,1/2+z
-x,y,z
1/2+x,-y,1/2+z
loop_
_atom_site_type_symbol
_atom_site_label
_atom_site_fract_x
_atom_site_fract_y
_atom_site_fract_z
Si Si1 0.117111 0.700273 0.916410
Si Si2 0.621476 0.054456 0.591264
Si Si3 0.122871 0.374159 0.845781
Si Si4 0.383869 0.297103 0.030368
Si Si5 0.241183 0.494452 0.555582
Si Si6 0.219865 0.133312 0.861088
O O1 0.120651 0.706440 0.723691
O O2 0.000000 0.654323 0.960330
O O3 0.124931 0.825443 0.994384
O O4 0.210400 0.620444 0.980006
O O5 0.500000 0.039328 0.649449
O O6 0.712269 0.066726 0.726279
O O7 0.652825 0.952825 0.469792
O O8 0.192223 0.452339 0.724292
O O9 0.147736 0.241129 0.806129
O O10 0.000000 0.396811 0.826202
O O11 0.163587 0.413356 0.024271
O O12 0.500000 0.272012 0.971602
O O13 0.351544 0.426802 0.980561
O O14 0.306781 0.201770 0.963613
#
# Coordination Sequence:
#
# PCOD9343217 Si02
#       6
#     4   4   4   4   4   4
#     4  10  20  37  60  86 120 163 205 252 310 371
#     4  11  23  41  65  93 125 165 214 261 313 375
#     4  11  23  41  63  93 129 166 211 259 316 378
#     4  10  21  38  62  88 122 164 208 256 312 374
#     4  11  20  36  62  90 124 165 200 254 309 377
#     4  11  23  41  66  90 128 165 212 262 316 369
#
# _framework density 19.571211999999999
#
# number of rings (size 3 to 8) (size 9 to 14) (size 15 to 20)
#    0.000    1.333    3.333    3.000    0.000    0.000 
#    0.000    5.000    0.000    0.000    0.000    0.000 
#    0.000    0.000    0.000    0.000    0.000    0.000 
#
# Total GULP energy -133694.540488 kJ/mol
# GULP energy per Si atom -5570.605854 kJ/mol
# Density = 1.952667 g / cm^3
# Si number density = 19.571212 Si / 1000 Ang^3
#
#
#
# Elastic Constant Matrix: (Units=GPa)
#
#
# Indices 1 2 3 4 5 6 
#
# 1 100.0864 16.5791 42.9261 0.0000 0.0000 0.0000
# 2 16.5791 77.6272 19.0963 0.0000 0.0000 0.0000
# 3 42.9261 19.0963 48.2517 0.0000 0.0000 0.0000
# 4 0.0000 0.0000 0.0000 36.1046 0.0000 0.0000
# 5 0.0000 0.0000 0.0000 0.0000 26.8072 0.0000
# 6 0.0000 0.0000 0.0000 0.0000 0.0000 25.8219
#
#
#
# Elastic Compliance Matrix: (Units=1/GPa)
#
#
# Indices 1 2 3 4 5 6 
#
# 1 0.016156 0.000094 -0.014410 0.000000 0.000000 0.000000
# 2 0.000094 0.014272 -0.005732 0.000000 0.000000 0.000000
# 3 -0.014410 -0.005732 0.035813 0.000000 0.000000 0.000000
# 4 0.000000 0.000000 0.000000 0.027697 0.000000 0.000000
# 5 0.000000 0.000000 0.000000 0.000000 0.037303 0.000000
# 6 0.000000 0.000000 0.000000 0.000000 0.000000 0.038727
#
#
# Mechanical properties :
#
#
# Convention : Reuss Voigt Hill
#
# Bulk Modulus (GPa) = 38.24852 42.57426 40.41139
# Shear Modulus (GPa) = 22.85394 27.57098 25.21246
#
# Velocity S-wave (km/s) = 3.42092 3.75741 3.59310
# Velocity P-wave (km/s) = 5.93205 6.37376 6.15687
#
# Compressibility (1/GPa) = 0.02614480
#
# Stress axis : x y z
#
# Youngs Moduli (GPa) = 61.89573 70.06688 27.92268
#
# Poissons Ratio (x) = -0.00662 0.40238
# Poissons Ratio (y) = -0.00584 0.16006
# Poissons Ratio (z) = 0.89194 0.40165
#
# Static dielectric constant tensor:
#      x y z
#    x 1.701850 0.000000 0.000000 
#    y 0.000000 1.685300 0.000000 
#    z 0.000000 0.000000 1.733190 
# 
# From -- ./inp_files/2076.got.cif
#   From: 2010.05.17/outbox.cif.g08.bks.cpg/sg31_2_cif.got.tgz:2076.got - 2010.06.03 17:08:30.
