data_PCOD9343760
_publ_section_title
;
Structure prediction by ZEFSAII (Michael W. Deem and Ramdas Pophale) SiO2 
 PCOD9343760
Probable space group: P B A 2
;
_chemical_formula_sum "Si O2"
_cell_formula_units_Z 32
_cell_length_a 5.252756
_cell_length_b 30.175856
_cell_length_c 8.885355
_cell_angle_alpha 90.000000
_cell_angle_beta 90.000000
_cell_angle_gamma 90.000000
_cell_volume 1408.385711
_symmetry_space_group_name_H-M "P B A 2"
_symmetry_group_IT_number 32
_symmetry_cell_setting 'orthorhombic'
loop_
_space_group_symop_operation_xyz
x,y,z
-x,-y,z
1/2-x,1/2+y,z
1/2+x,1/2-y,z
loop_
_atom_site_type_symbol
_atom_site_label
_atom_site_fract_x
_atom_site_fract_y
_atom_site_fract_z
Si Si1 0.432406 0.454588 0.860700
Si Si2 0.182194 0.462255 0.174044
Si Si3 0.486079 0.862746 0.464154
Si Si4 0.352734 0.865069 0.795419
Si Si5 0.189539 0.773189 0.760753
Si Si6 0.521042 0.400177 0.323234
Si Si7 0.800368 0.730776 0.399900
Si Si8 0.697641 0.893182 0.043514
O O1 0.500000 0.500000 0.773127
O O2 0.268935 0.414356 0.790560
O O3 0.275982 0.472516 0.005619
O O4 0.673410 0.428498 0.930026
O O5 0.426750 0.448664 0.270916
O O6 0.000000 0.500000 0.235416
O O7 0.006635 0.419065 0.147109
O O8 0.505250 0.857016 0.642498
O O9 0.214077 0.883178 0.420731
O O10 0.459413 0.814784 0.386688
O O11 0.725772 0.891705 0.416385
O O12 0.151860 0.825014 0.795597
O O13 0.534094 0.861414 0.939624
O O14 0.957434 0.744542 0.820310
O O15 0.229530 0.766709 0.579483
O O16 0.584941 0.377702 0.159881
O O17 0.011092 0.765741 0.339501
#
# Coordination Sequence:
#
# PCOD9343760 Si02
#       8
#     4   4   4   4   4   4   4   4
#     4  10  20  35  65  97 130 164 221 275 317 378
#     4  10  19  38  65  93 118 161 221 270 301 366
#     4  11  23  40  63  95 135 163 209 267 332 391
#     4  10  24  37  67  99 130 175 215 269 339 396
#     4   9  19  35  58  91 128 163 214 268 316 383
#     4  11  23  40  63  94 125 169 207 270 318 384
#     4   9  17  33  58  88 117 162 213 260 307 375
#     4  10  21  40  65  92 123 164 225 260 320 380
#
# _framework density 22.721050000000002
#
# number of rings (size 3 to 8) (size 9 to 14) (size 15 to 20)
#    0.000    2.000    2.500    0.750    3.500    2.000 
#    0.000    0.000    5.500    4.500    0.000    0.000 
#    0.000    0.000    0.000    0.000    0.000    0.000 
#
# Total GULP energy -178324.967660 kJ/mol
# GULP energy per Si atom -5572.655239 kJ/mol
# Density = 2.266934 g / cm^3
# Si number density = 22.721050 Si / 1000 Ang^3
#
#
#
# Elastic Constant Matrix: (Units=GPa)
#
#
# Indices 1 2 3 4 5 6 
#
# 1 117.0008 4.2100 4.6446 0.0000 0.0000 0.0000
# 2 4.2100 52.4085 -0.7152 0.0000 0.0000 0.0000
# 3 4.6446 -0.7152 29.0358 0.0000 0.0000 0.0000
# 4 0.0000 0.0000 0.0000 27.3780 0.0000 0.0000
# 5 0.0000 0.0000 0.0000 0.0000 -2.3993 0.0000
# 6 0.0000 0.0000 0.0000 0.0000 0.0000 32.0255
#
#
#
# Elastic Compliance Matrix: (Units=1/GPa)
#
#
# Indices 1 2 3 4 5 6 
#
# 1 0.008628 -0.000712 -0.001398 0.000000 0.000000 0.000000
# 2 -0.000712 0.019146 0.000586 0.000000 0.000000 0.000000
# 3 -0.001398 0.000586 0.034678 0.000000 0.000000 0.000000
# 4 0.000000 0.000000 0.000000 0.036526 0.000000 0.000000
# 5 0.000000 0.000000 0.000000 0.000000 -0.416797 0.000000
# 6 0.000000 0.000000 0.000000 0.000000 0.000000 0.031225
#
#
# Mechanical properties :
#
#
# Convention : Reuss Voigt Hill
#
# Bulk Modulus (GPa) = 16.83395 23.85819 20.34607
# Shear Modulus (GPa) = -18.95780 24.08788 2.56504
#
# Velocity S-wave (km/s) = -2.89168 3.25954 1.06366
# Velocity P-wave (km/s) = 1.92978 4.96884 3.23769
#
# Compressibility (1/GPa) = 0.05940377
#
# Stress axis : x y z
#
# Youngs Moduli (GPa) = 115.90087 52.22998 28.83649
#
# Poissons Ratio (x) = 0.03720 0.04031
# Poissons Ratio (y) = 0.08254 -0.01688
# Poissons Ratio (z) = 0.16200 -0.03058
#
# Static dielectric constant tensor:
#      x y z
#    x 1.909690 0.000000 0.000000 
#    y 0.000000 1.944340 0.000000 
#    z 0.000000 0.000000 1.857680 
# 
# From -- ./inp_files/2079.got.cif
#   From: 2010.05.17/outbox.cif.g08.bks.cpg/sg32_2_cif.got.tgz:2079.got - 2010.06.03 17:12:27.
