data_PCOD9343175
_publ_section_title
;
Structure prediction by ZEFSAII (Michael W. Deem and Ramdas Pophale) SiO2 
 PCOD9343175
Probable space group: P M N 21
;
_chemical_formula_sum "Si O2"
_cell_formula_units_Z 24
_cell_length_a 7.949217
_cell_length_b 13.521070
_cell_length_c 11.606177
_cell_angle_alpha 90.000000
_cell_angle_beta 90.000000
_cell_angle_gamma 90.000000
_cell_volume 1247.454182
_symmetry_space_group_name_H-M "P M N 21"
_symmetry_group_IT_number 31
_symmetry_cell_setting 'orthorhombic'
loop_
_space_group_symop_operation_xyz
x,y,z
1/2-x,-y,1/2+z
-x,y,z
1/2+x,-y,1/2+z
loop_
_atom_site_type_symbol
_atom_site_label
_atom_site_fract_x
_atom_site_fract_y
_atom_site_fract_z
Si Si1 0.814263 0.841563 0.795630
Si Si2 0.500000 0.832112 0.262903
Si Si3 0.799178 0.351484 0.419847
Si Si4 0.500000 0.690681 0.487810
Si Si5 0.691363 0.280261 0.668767
Si Si6 0.000000 0.983719 0.926297
Si Si7 0.805203 0.579156 0.391513
Si Si8 0.000000 0.123655 0.144662
O O1 0.772433 0.731368 0.835188
O O2 0.667373 0.885154 0.719347
O O3 0.000000 0.843033 0.739248
O O4 0.842395 0.910505 0.908268
O O5 0.500000 0.760547 0.374787
O O6 0.667051 0.802356 0.192765
O O7 0.500000 0.940751 0.317639
O O8 0.724228 0.331281 0.546247
O O9 0.766493 0.463184 0.379571
O O10 0.000000 0.338299 0.426649
O O11 0.668583 0.625991 0.477587
O O12 0.500000 0.765002 0.593832
O O13 0.500000 0.241595 0.672951
O O14 0.708456 0.361998 0.770643
O O15 0.000000 0.046280 0.040876
O O16 0.000000 0.589107 0.430526
#
# Coordination Sequence:
#
# PCOD9343175 Si02
#       8
#     4   2   4   2   4   2   4   2
#     4  10  24  44  61  94 123 160 210 258 313 384
#     4   9  18  41  56  86 119 145 208 256 301 367
#     4  11  21  39  60  86 130 162 201 261 304 367
#     4   9  20  35  64  84 119 167 192 259 299 357
#     4  10  20  36  59  88 118 164 204 247 310 361
#     4   9  24  45  66  92 124 159 210 261 317 385
#     4   9  21  37  56  89 127 162 215 246 295 376
#     4  11  22  47  66  92 132 161 206 266 327 363
#
# _framework density 19.239183000000001
#
# number of rings (size 3 to 8) (size 9 to 14) (size 15 to 20)
#    0.500    1.667    1.667    0.500    2.333    3.333 
#    3.000    3.333    0.000    0.000    0.000    0.000 
#    0.000    0.000    0.000    0.000    0.000    0.000 
#
# Total GULP energy -133859.629033 kJ/mol
# GULP energy per Si atom -5577.484543 kJ/mol
# Density = 1.919539 g / cm^3
# Si number density = 19.239183 Si / 1000 Ang^3
#
#
#
# Elastic Constant Matrix: (Units=GPa)
#
#
# Indices 1 2 3 4 5 6 
#
# 1 127.8169 36.4618 37.4232 0.0000 0.0000 0.0000
# 2 36.4618 74.4669 3.8044 0.0000 0.0000 0.0000
# 3 37.4232 3.8044 49.2564 0.0000 0.0000 0.0000
# 4 0.0000 0.0000 0.0000 24.0619 0.0000 0.0000
# 5 0.0000 0.0000 0.0000 0.0000 13.4412 0.0000
# 6 0.0000 0.0000 0.0000 0.0000 0.0000 2.9598
#
#
#
# Elastic Compliance Matrix: (Units=1/GPa)
#
#
# Indices 1 2 3 4 5 6 
#
# 1 0.011878 -0.005376 -0.008609 0.000000 0.000000 0.000000
# 2 -0.005376 0.015915 0.002855 0.000000 0.000000 0.000000
# 3 -0.008609 0.002855 0.026622 0.000000 0.000000 0.000000
# 4 0.000000 0.000000 0.000000 0.041559 0.000000 0.000000
# 5 0.000000 0.000000 0.000000 0.000000 0.074398 0.000000
# 6 0.000000 0.000000 0.000000 0.000000 0.000000 0.337861
#
#
# Mechanical properties :
#
#
# Convention : Reuss Voigt Hill
#
# Bulk Modulus (GPa) = 31.09878 45.21322 38.15600
# Shear Modulus (GPa) = 9.23852 19.68264 14.46058
#
# Velocity S-wave (km/s) = 2.19371 3.20198 2.74455
# Velocity P-wave (km/s) = 4.75561 6.10097 5.46981
#
# Compressibility (1/GPa) = 0.03215560
#
# Stress axis : x y z
#
# Youngs Moduli (GPa) = 84.18939 62.83289 37.56242
#
# Poissons Ratio (x) = 0.33779 0.32338
# Poissons Ratio (y) = 0.45261 -0.10725
# Poissons Ratio (z) = 0.72481 -0.17941
#
# Static dielectric constant tensor:
#      x y z
#    x 1.684510 0.000000 0.000000 
#    y 0.000000 1.664470 0.000000 
#    z 0.000000 0.000000 1.656880 
# 
# From -- ./inp_files/3492.got.cif
#   From: 2010.05.17/outbox.cif.g08.bks.cpg/sg31_2_cif.got.tgz:3492.got - 2010.06.03 17:08:30.
