data_PCOD9343935
_publ_section_title
;
Structure prediction by ZEFSAII (Michael W. Deem and Ramdas Pophale) SiO2 
 PCOD9343935
Probable space group: P B A 2
;
_chemical_formula_sum "Si O2"
_cell_formula_units_Z 16
_cell_length_a 13.222328
_cell_length_b 8.464056
_cell_length_c 6.646819
_cell_angle_alpha 90.000000
_cell_angle_beta 90.000000
_cell_angle_gamma 90.000000
_cell_volume 743.875589
_symmetry_space_group_name_H-M "P B A 2"
_symmetry_group_IT_number 32
_symmetry_cell_setting 'orthorhombic'
loop_
_space_group_symop_operation_xyz
x,y,z
-x,-y,z
1/2-x,1/2+y,z
1/2+x,1/2-y,z
loop_
_atom_site_type_symbol
_atom_site_label
_atom_site_fract_x
_atom_site_fract_y
_atom_site_fract_z
Si Si1 0.803162 0.897333 0.444650
Si Si2 0.602620 0.595958 0.109991
Si Si3 0.014127 0.317695 0.422502
Si Si4 0.637646 0.704576 0.686992
O O1 0.706606 0.828081 0.561514
O O2 0.872692 0.743952 0.411606
O O3 0.815860 0.987529 0.229779
O O4 0.848999 0.030153 0.593131
O O5 0.500000 0.500000 0.045960
O O6 0.554899 0.718955 0.268328
O O7 0.652922 0.684228 0.923114
O O8 0.974308 0.267976 0.642357
O O9 0.000000 0.500000 0.385652
#
# Coordination Sequence:
#
# PCOD9343935 Si02
#       4
#     4   4   4   4
#     4  10  22  38  58  87 121 156 203 258 304 364
#     4   9  20  39  61  86 122 163 203 252 310 369
#     4  10  21  39  60  86 121 157 200 252 305 367
#     4  11  21  38  61  87 119 160 203 250 309 370
#
# _framework density 21.508972
#
# number of rings (size 3 to 8) (size 9 to 14) (size 15 to 20)
#    0.000    2.000    0.000    5.250    0.000    5.000 
#    0.000    7.500    0.000    0.000    0.000    0.000 
#    0.000    0.000    0.000    0.000    0.000    0.000 
#
# Total GULP energy -89180.648620 kJ/mol
# GULP energy per Si atom -5573.790539 kJ/mol
# Density = 2.146002 g / cm^3
# Si number density = 21.508972 Si / 1000 Ang^3
#
#
#
# Elastic Constant Matrix: (Units=GPa)
#
#
# Indices 1 2 3 4 5 6 
#
# 1 43.9494 13.3722 31.2903 0.0000 0.0000 0.0000
# 2 13.3722 72.5355 -10.5440 0.0000 0.0000 0.0000
# 3 31.2903 -10.5440 96.5595 0.0000 0.0000 0.0000
# 4 0.0000 0.0000 0.0000 20.5709 0.0000 0.0000
# 5 0.0000 0.0000 0.0000 0.0000 17.8998 0.0000
# 6 0.0000 0.0000 0.0000 0.0000 0.0000 28.9624
#
#
#
# Elastic Compliance Matrix: (Units=1/GPa)
#
#
# Indices 1 2 3 4 5 6 
#
# 1 0.033488 -0.007876 -0.011712 0.000000 0.000000 0.000000
# 2 -0.007876 0.015861 0.004284 0.000000 0.000000 0.000000
# 3 -0.011712 0.004284 0.014619 0.000000 0.000000 0.000000
# 4 0.000000 0.000000 0.000000 0.048612 0.000000 0.000000
# 5 0.000000 0.000000 0.000000 0.000000 0.055867 0.000000
# 6 0.000000 0.000000 0.000000 0.000000 0.000000 0.034528
#
#
# Mechanical properties :
#
#
# Convention : Reuss Voigt Hill
#
# Bulk Modulus (GPa) = 29.97506 31.25348 30.61427
# Shear Modulus (GPa) = 20.43287 25.41502 22.92395
#
# Velocity S-wave (km/s) = 3.08550 3.44117 3.26818
# Velocity P-wave (km/s) = 5.16334 5.50916 5.33905
#
# Compressibility (1/GPa) = 0.03336107
#
# Stress axis : x y z
#
# Youngs Moduli (GPa) = 29.86104 63.04714 68.40193
#
# Poissons Ratio (x) = 0.49657 0.80113
# Poissons Ratio (y) = 0.23519 -0.29305
# Poissons Ratio (z) = 0.34973 -0.27011
#
# Static dielectric constant tensor:
#      x y z
#    x 1.886350 0.000000 0.000000 
#    y 0.000000 1.760740 0.000000 
#    z 0.000000 0.000000 1.783160 
# 
# From -- ./inp_files/341.got.cif
#   From: 2010.05.17/outbox.cif.g08.bks.cpg/sg32_1_cif.got.tgz:341.got - 2010.06.03 17:12:27.
