data_PCOD9343748
_publ_section_title
;
Structure prediction by ZEFSAII (Michael W. Deem and Ramdas Pophale) SiO2 
 PCOD9343748
Probable space group: P B A 2
;
_chemical_formula_sum "Si O2"
_cell_formula_units_Z 32
_cell_length_a 5.270812
_cell_length_b 13.941243
_cell_length_c 19.005790
_cell_angle_alpha 90.000000
_cell_angle_beta 90.000000
_cell_angle_gamma 90.000000
_cell_volume 1396.577206
_symmetry_space_group_name_H-M "P B A 2"
_symmetry_group_IT_number 32
_symmetry_cell_setting 'orthorhombic'
loop_
_space_group_symop_operation_xyz
x,y,z
-x,-y,z
1/2-x,1/2+y,z
1/2+x,1/2-y,z
loop_
_atom_site_type_symbol
_atom_site_label
_atom_site_fract_x
_atom_site_fract_y
_atom_site_fract_z
Si Si1 0.250138 0.935751 0.682690
Si Si2 0.741016 0.686942 0.977944
Si Si3 0.194906 0.813727 0.821367
Si Si4 0.763647 0.312944 0.327913
Si Si5 0.871168 0.365352 0.482712
Si Si6 0.552620 0.610723 0.120660
Si Si7 0.368660 0.353521 0.540350
Si Si8 0.447181 0.111701 0.182562
O O1 0.247541 0.886246 0.758577
O O2 0.225242 0.857291 0.620406
O O3 0.500000 0.000000 0.673101
O O4 0.000000 0.000000 0.677840
O O5 0.522681 0.769081 0.982118
O O6 0.715814 0.642956 0.899953
O O7 0.672252 0.620202 0.043501
O O8 0.415282 0.732859 0.815837
O O9 0.482086 0.269079 0.327314
O O10 0.797536 0.367566 0.401490
O O11 0.828526 0.374487 0.259301
O O12 0.642516 0.400686 0.530907
O O13 0.902479 0.253231 0.508078
O O14 0.149980 0.404963 0.495579
O O15 0.500000 0.500000 0.137801
O O16 0.268029 0.651380 0.129430
O O17 0.768345 0.652472 0.172744
O O18 0.500000 0.000000 0.168490
#
# Coordination Sequence:
#
# PCOD9343748 Si02
#       8
#     4   4   4   4   4   4   4   4
#     4  12  26  42  62  97 133 161 207 264 309 368
#     4  10  21  38  62  91 125 150 204 259 298 345
#     4  10  23  42  65  93 124 173 208 249 312 383
#     4  12  21  37  60  90 116 148 205 256 301 354
#     4  10  19  37  61  88 108 153 204 252 288 382
#     4  10  21  39  59  84 119 165 203 238 302 373
#     4  10  20  36  61  83 118 152 195 253 302 351
#     4  10  23  39  56  84 123 160 200 245 304 372
#
# _framework density 22.913163000000001
#
# number of rings (size 3 to 8) (size 9 to 14) (size 15 to 20)
#    0.000    1.500    2.500    3.000    3.500    3.500 
#    0.000    3.750    0.000    0.000    0.000    0.000 
#    0.000    0.000    0.000    0.000    0.000    0.000 
#
# Total GULP energy -178780.227502 kJ/mol
# GULP energy per Si atom -5586.882109 kJ/mol
# Density = 2.286101 g / cm^3
# Si number density = 22.913163 Si / 1000 Ang^3
#
#
#
# Elastic Constant Matrix: (Units=GPa)
#
#
# Indices 1 2 3 4 5 6 
#
# 1 125.5700 6.7534 25.7210 0.0000 0.0000 0.0000
# 2 6.7534 33.8448 -3.2039 0.0000 0.0000 0.0000
# 3 25.7210 -3.2039 136.0523 0.0000 0.0000 0.0000
# 4 0.0000 0.0000 0.0000 20.3075 0.0000 0.0000
# 5 0.0000 0.0000 0.0000 0.0000 37.2548 0.0000
# 6 0.0000 0.0000 0.0000 0.0000 0.0000 25.8417
#
#
#
# Elastic Compliance Matrix: (Units=1/GPa)
#
#
# Indices 1 2 3 4 5 6 
#
# 1 0.008396 -0.001830 -0.001630 0.000000 0.000000 0.000000
# 2 -0.001830 0.030011 0.001053 0.000000 0.000000 0.000000
# 3 -0.001630 0.001053 0.007683 0.000000 0.000000 0.000000
# 4 0.000000 0.000000 0.000000 0.049243 0.000000 0.000000
# 5 0.000000 0.000000 0.000000 0.000000 0.026842 0.000000
# 6 0.000000 0.000000 0.000000 0.000000 0.000000 0.038697
#
#
# Mechanical properties :
#
#
# Convention : Reuss Voigt Hill
#
# Bulk Modulus (GPa) = 24.22734 39.33424 31.78079
# Shear Modulus (GPa) = 27.86353 34.42725 31.14539
#
# Velocity S-wave (km/s) = 3.49097 3.88043 3.69084
# Velocity P-wave (km/s) = 5.18128 6.10581 5.66244
#
# Compressibility (1/GPa) = 0.04127568
#
# Stress axis : x y z
#
# Youngs Moduli (GPa) = 119.10366 33.32072 130.15526
#
# Poissons Ratio (x) = 0.06097 0.21220
# Poissons Ratio (y) = 0.21792 -0.13701
# Poissons Ratio (z) = 0.19418 -0.03507
#
# Static dielectric constant tensor:
#      x y z
#    x 1.908490 0.000000 0.000000 
#    y 0.000000 1.582960 0.000000 
#    z 0.000000 0.000000 1.838860 
# 
# From -- ./inp_files/4220.got.cif
#   From: 2010.05.17/outbox.cif.g08.bks.cpg/sg32_3_cif.got.tgz:4220.got - 2010.06.03 17:12:27.
