data_PCOD9343513
_publ_section_title
;
Structure prediction by ZEFSAII (Michael W. Deem and Ramdas Pophale) SiO2 
 PCOD9343513
Probable space group: P M N 21
;
_chemical_formula_sum "Si O2"
_cell_formula_units_Z 32
_cell_length_a 32.588523
_cell_length_b 5.307995
_cell_length_c 8.615207
_cell_angle_alpha 90.000000
_cell_angle_beta 90.000000
_cell_angle_gamma 90.000000
_cell_volume 1490.256070
_symmetry_space_group_name_H-M "P M N 21"
_symmetry_group_IT_number 31
_symmetry_cell_setting 'orthorhombic'
loop_
_space_group_symop_operation_xyz
x,y,z
1/2-x,-y,1/2+z
-x,y,z
1/2+x,-y,1/2+z
loop_
_atom_site_type_symbol
_atom_site_label
_atom_site_fract_x
_atom_site_fract_y
_atom_site_fract_z
Si Si1 0.232475 0.922049 0.909860
Si Si2 0.194772 0.413213 0.052657
Si Si3 0.386181 0.858539 0.035952
Si Si4 0.689096 0.624698 0.906015
Si Si5 0.451695 0.943989 0.783354
Si Si6 0.881923 0.435048 0.851878
Si Si7 0.321845 0.230328 0.148324
Si Si8 0.048617 0.565011 0.082382
O O1 0.280848 0.867571 0.904389
O O2 0.209665 0.944756 0.743118
O O3 0.213758 0.658847 0.971686
O O4 0.219875 0.163027 0.008392
O O5 0.194655 0.477159 0.233818
O O6 0.149052 0.347775 0.988303
O O7 0.359213 0.661866 0.936824
O O8 0.426367 0.927115 0.941996
O O9 0.391603 0.760398 0.212465
O O10 0.353330 0.081403 0.041738
O O11 0.700800 0.445099 0.049771
O O12 0.500000 0.969283 0.816541
O O13 0.439520 0.186982 0.680824
O O14 0.445906 0.687616 0.685041
O O15 0.853594 0.641859 0.768342
O O16 0.922780 0.537541 0.931980
O O17 0.000000 0.585303 0.044493
#
# Coordination Sequence:
#
# PCOD9343513 Si02
#       8
#     4   4   4   4   4   4   4   4
#     4  11  25  44  64  89 134 168 223 277 337 384
#     4  11  25  42  64  95 123 174 219 275 327 392
#     4  11  24  41  66  94 134 173 219 270 332 393
#     4  11  26  39  67  92 127 174 226 272 334 392
#     4  10  24  44  69  99 134 170 215 270 326 397
#     4  10  23  41  64  94 132 171 214 271 325 396
#     4  10  24  43  60  96 131 176 217 280 324 398
#     4  10  23  44  71 101 131 168 216 269 325 396
#
# _framework density 21.472819999999999
#
# number of rings (size 3 to 8) (size 9 to 14) (size 15 to 20)
#    0.000    1.500    1.250    1.500   12.250    1.500 
#    0.000    0.625    0.000    0.000    0.000    0.000 
#    0.000    0.000    0.000    0.000    0.000    0.000 
#
# Total GULP energy -178717.195868 kJ/mol
# GULP energy per Si atom -5584.912371 kJ/mol
# Density = 2.142395 g / cm^3
# Si number density = 21.472820 Si / 1000 Ang^3
#
#
#
# Elastic Constant Matrix: (Units=GPa)
#
#
# Indices 1 2 3 4 5 6 
#
# 1 92.8017 33.0774 51.3399 0.0000 0.0000 0.0000
# 2 33.0774 93.6686 19.5902 0.0000 0.0000 0.0000
# 3 51.3399 19.5902 75.0159 0.0000 0.0000 0.0000
# 4 0.0000 0.0000 0.0000 20.6059 0.0000 0.0000
# 5 0.0000 0.0000 0.0000 0.0000 36.3408 0.0000
# 6 0.0000 0.0000 0.0000 0.0000 0.0000 14.9514
#
#
#
# Elastic Compliance Matrix: (Units=1/GPa)
#
#
# Indices 1 2 3 4 5 6 
#
# 1 0.018763 -0.004168 -0.011753 0.000000 0.000000 0.000000
# 2 -0.004168 0.012219 -0.000338 0.000000 0.000000 0.000000
# 3 -0.011753 -0.000338 0.021462 0.000000 0.000000 0.000000
# 4 0.000000 0.000000 0.000000 0.048530 0.000000 0.000000
# 5 0.000000 0.000000 0.000000 0.000000 0.027517 0.000000
# 6 0.000000 0.000000 0.000000 0.000000 0.000000 0.066884
#
#
# Mechanical properties :
#
#
# Convention : Reuss Voigt Hill
#
# Bulk Modulus (GPa) = 50.18607 52.16680 51.17644
# Shear Modulus (GPa) = 21.31882 24.87820 23.09851
#
# Velocity S-wave (km/s) = 3.15434 3.40750 3.28336
# Velocity P-wave (km/s) = 6.05715 6.31098 6.18537
#
# Compressibility (1/GPa) = 0.01992585
#
# Stress axis : x y z
#
# Youngs Moduli (GPa) = 53.29611 81.84304 46.59324
#
# Poissons Ratio (x) = 0.34111 0.54760
# Poissons Ratio (y) = 0.22213 0.01577
# Poissons Ratio (z) = 0.62638 0.02770
#
# Static dielectric constant tensor:
#      x y z
#    x 1.767660 0.000000 0.000000 
#    y 0.000000 1.854250 0.000000 
#    z 0.000000 0.000000 1.818130 
# 
# From -- ./inp_files/3199.got.cif
#   From: 2010.05.17/outbox.cif.g08.bks.cpg/sg31_2_cif.got.tgz:3199.got - 2010.06.03 17:08:30.
