data_PCOD9343693
_publ_section_title
;
Structure prediction by ZEFSAII (Michael W. Deem and Ramdas Pophale) SiO2 
 PCOD9343693
Probable space group: P B A 2
;
_chemical_formula_sum "Si O2"
_cell_formula_units_Z 28
_cell_length_a 20.069668
_cell_length_b 10.534439
_cell_length_c 5.018220
_cell_angle_alpha 90.000000
_cell_angle_beta 90.000000
_cell_angle_gamma 90.000000
_cell_volume 1060.965588
_symmetry_space_group_name_H-M "P B A 2"
_symmetry_group_IT_number 32
_symmetry_cell_setting 'orthorhombic'
loop_
_space_group_symop_operation_xyz
x,y,z
-x,-y,z
1/2-x,1/2+y,z
1/2+x,1/2-y,z
loop_
_atom_site_type_symbol
_atom_site_label
_atom_site_fract_x
_atom_site_fract_y
_atom_site_fract_z
Si Si1 0.151684 0.106135 0.845690
Si Si2 0.287127 0.290030 0.482264
Si Si3 0.070140 0.625937 0.019022
Si Si4 0.289495 0.106468 0.982777
Si Si5 0.006784 0.323031 0.528612
Si Si6 0.149669 0.281299 0.345030
Si Si7 0.418885 0.378203 0.714706
O O1 0.155387 0.163176 0.550638
O O2 0.088724 0.013174 0.851450
O O3 0.219940 0.033597 0.935328
O O4 0.145465 0.222136 0.052076
O O5 0.292707 0.178267 0.264025
O O6 0.217808 0.358366 0.401346
O O7 0.354763 0.368483 0.517497
O O8 0.280548 0.216305 0.761082
O O9 0.136879 0.546555 0.953269
O O10 0.045221 0.619536 0.318087
O O11 0.008006 0.621024 0.817861
O O12 0.090751 0.770843 0.941969
O O13 0.983529 0.175060 0.560008
O O14 0.080276 0.342264 0.425078
#
# Coordination Sequence:
#
# PCOD9343693 Si02
#       7
#     4   4   4   4   4   4   4
#     4  10  21  30  48  67 104 122 165 194 258 288
#     4   9  17  31  51  61  96 121 168 201 237 276
#     4   9  17  30  48  64  90 124 166 198 232 292
#     4   9  15  31  46  68  85 125 157 212 235 278
#     4  10  19  31  48  65  97 128 169 189 246 297
#     4  10  21  34  44  73  97 133 155 208 243 301
#     4   9  20  31  48  71  91 135 164 200 237 304
#
# _framework density 26.391051999999998
#
# number of rings (size 3 to 8) (size 9 to 14) (size 15 to 20)
#    0.857    1.714    1.429    0.857    2.000    0.571 
#    0.000    0.000    0.000    0.000    0.000    1.000 
#    0.000    2.286    0.000    0.000    0.000    0.143 
#
# Total GULP energy -156348.382242 kJ/mol
# GULP energy per Si atom -5583.870794 kJ/mol
# Density = 2.633098 g / cm^3
# Si number density = 26.391052 Si / 1000 Ang^3
#
#
#
# Elastic Constant Matrix: (Units=GPa)
#
#
# Indices 1 2 3 4 5 6 
#
# 1 150.2426 23.9547 -4.3632 0.0000 0.0000 0.0000
# 2 23.9547 50.8495 15.0256 0.0000 0.0000 0.0000
# 3 -4.3632 15.0256 96.3915 0.0000 0.0000 0.0000
# 4 0.0000 0.0000 0.0000 160.7485 0.0000 0.0000
# 5 0.0000 0.0000 0.0000 0.0000 48.4781 0.0000
# 6 0.0000 0.0000 0.0000 0.0000 0.0000 28.8820
#
#
#
# Elastic Compliance Matrix: (Units=1/GPa)
#
#
# Indices 1 2 3 4 5 6 
#
# 1 0.007271 -0.003693 0.000905 0.000000 0.000000 0.000000
# 2 -0.003693 0.022491 -0.003673 0.000000 0.000000 0.000000
# 3 0.000905 -0.003673 0.010988 0.000000 0.000000 0.000000
# 4 0.000000 0.000000 0.000000 0.006221 0.000000 0.000000
# 5 0.000000 0.000000 0.000000 0.000000 0.020628 0.000000
# 6 0.000000 0.000000 0.000000 0.000000 0.000000 0.034624
#
#
# Mechanical properties :
#
#
# Convention : Reuss Voigt Hill
#
# Bulk Modulus (GPa) = 35.93533 40.74642 38.34088
# Shear Modulus (GPa) = 40.18655 65.14614 52.66635
#
# Velocity S-wave (km/s) = 3.90646 4.97378 4.47208
# Velocity P-wave (km/s) = 5.83037 6.96116 6.42071
#
# Compressibility (1/GPa) = 0.02782776
#
# Stress axis : x y z
#
# Youngs Moduli (GPa) = 137.53410 44.46269 91.00949
#
# Poissons Ratio (x) = 0.16418 -0.08234
# Poissons Ratio (y) = 0.50786 0.33428
# Poissons Ratio (z) = -0.12443 0.16331
#
# Static dielectric constant tensor:
#      x y z
#    x 2.024280 0.000000 0.000000 
#    y 0.000000 1.891630 0.000000 
#    z 0.000000 0.000000 1.963670 
# 
# From -- ./inp_files/1504.got.cif
#   From: 2010.05.17/outbox.cif.g08.bks.cpg/sg32_1_cif.got.tgz:1504.got - 2010.06.03 17:12:27.
