data_PCOD9343634
_publ_section_title
;
Structure prediction by ZEFSAII (Michael W. Deem and Ramdas Pophale) SiO2 
 PCOD9343634
Probable space group: P B A 2
;
_chemical_formula_sum "Si O2"
_cell_formula_units_Z 28
_cell_length_a 8.579981
_cell_length_b 22.910164
_cell_length_c 5.384584
_cell_angle_alpha 90.000000
_cell_angle_beta 90.000000
_cell_angle_gamma 90.000000
_cell_volume 1058.441064
_symmetry_space_group_name_H-M "P B A 2"
_symmetry_group_IT_number 32
_symmetry_cell_setting 'orthorhombic'
loop_
_space_group_symop_operation_xyz
x,y,z
-x,-y,z
1/2-x,1/2+y,z
1/2+x,1/2-y,z
loop_
_atom_site_type_symbol
_atom_site_label
_atom_site_fract_x
_atom_site_fract_y
_atom_site_fract_z
Si Si1 0.399728 0.830732 0.799460
Si Si2 0.101844 0.247403 0.207410
Si Si3 0.180981 0.973551 0.633420
Si Si4 0.362704 0.089391 0.553119
Si Si5 0.706302 0.364968 0.046394
Si Si6 0.352808 0.260866 0.567332
Si Si7 0.093113 0.938519 0.139857
O O1 0.471466 0.887756 0.662919
O O2 0.531555 0.783016 0.705801
O O3 0.224759 0.814270 0.713264
O O4 0.401211 0.812575 0.093355
O O5 0.181801 0.203882 0.017032
O O6 0.934656 0.226683 0.301558
O O7 0.198715 0.232126 0.454665
O O8 0.310236 0.021665 0.559137
O O9 0.174324 0.930445 0.401623
O O10 0.000000 0.000000 0.652311
O O11 0.204569 0.946048 0.904343
O O12 0.315719 0.114408 0.279402
O O13 0.256017 0.111580 0.780931
O O14 0.538457 0.391398 0.101610
O O15 0.000000 0.000000 0.159991
#
# Coordination Sequence:
#
# PCOD9343634 Si02
#       7
#     4   4   4   4   4   4   4
#     4  11  23  39  58  82 117 158 199 249 293 355
#     4  11  23  39  58  82 117 158 199 249 293 355
#     4  10  16  30  48  77 121 144 178 240 299 354
#     4  12  21  33  56  86 118 157 190 238 307 362
#     4  12  21  33  56  86 118 157 190 238 307 362
#     4  10  22  40  56  78 116 148 202 244 290 340
#     4  10  16  30  48  77 121 144 178 240 299 354
#
# _framework density 26.454000000000001
#
# number of rings (size 3 to 8) (size 9 to 14) (size 15 to 20)
#    0.000    1.143    7.143    2.571    4.000    0.000 
#    0.000    0.000    0.000    0.000    0.000    1.000 
#    0.000    0.000    0.000    0.000    0.000    0.000 
#
# Total GULP energy -156152.138325 kJ/mol
# GULP energy per Si atom -5576.862083 kJ/mol
# Density = 2.639379 g / cm^3
# Si number density = 26.454000 Si / 1000 Ang^3
#
#
#
# Elastic Constant Matrix: (Units=GPa)
#
#
# Indices 1 2 3 4 5 6 
#
# 1 77.6698 8.9715 19.0139 0.0000 0.0000 0.0000
# 2 8.9715 42.2453 7.1030 0.0000 0.0000 0.0000
# 3 19.0139 7.1030 136.2988 0.0000 0.0000 0.0000
# 4 0.0000 0.0000 0.0000 18.1466 0.0000 0.0000
# 5 0.0000 0.0000 0.0000 0.0000 49.1321 0.0000
# 6 0.0000 0.0000 0.0000 0.0000 0.0000 30.3107
#
#
#
# Elastic Compliance Matrix: (Units=1/GPa)
#
#
# Indices 1 2 3 4 5 6 
#
# 1 0.013606 -0.002593 -0.001763 0.000000 0.000000 0.000000
# 2 -0.002593 0.024375 -0.000909 0.000000 0.000000 0.000000
# 3 -0.001763 -0.000909 0.007630 0.000000 0.000000 0.000000
# 4 0.000000 0.000000 0.000000 0.055107 0.000000 0.000000
# 5 0.000000 0.000000 0.000000 0.000000 0.020353 0.000000
# 6 0.000000 0.000000 0.000000 0.000000 0.000000 0.032992
#
#
# Mechanical properties :
#
#
# Convention : Reuss Voigt Hill
#
# Bulk Modulus (GPa) = 28.50477 36.26564 32.38520
# Shear Modulus (GPa) = 28.36309 34.25960 31.31134
#
# Velocity S-wave (km/s) = 3.27795 3.60260 3.44410
# Velocity P-wave (km/s) = 5.01250 5.57169 5.29948
#
# Compressibility (1/GPa) = 0.03508185
#
# Stress axis : x y z
#
# Youngs Moduli (GPa) = 73.49640 41.02617 131.05983
#
# Poissons Ratio (x) = 0.10638 0.23105
# Poissons Ratio (y) = 0.19058 0.11907
# Poissons Ratio (z) = 0.12957 0.03727
#
# Static dielectric constant tensor:
#      x y z
#    x 2.227220 0.000000 0.000000 
#    y 0.000000 2.321390 0.000000 
#    z 0.000000 0.000000 2.164490 
# 
# From -- ./inp_files/566.got.cif
#   From: 2010.05.17/outbox.cif.g08.bks.cpg/sg32_1_cif.got.tgz:566.got - 2010.06.03 17:12:27.
