data_PCOD9343195
_publ_section_title
;
Structure prediction by ZEFSAII (Michael W. Deem and Ramdas Pophale) SiO2 
 PCOD9343195
Probable space group: P M N 21
;
_chemical_formula_sum "Si O2"
_cell_formula_units_Z 18
_cell_length_a 11.061166
_cell_length_b 8.896780
_cell_length_c 6.747438
_cell_angle_alpha 90.000000
_cell_angle_beta 90.000000
_cell_angle_gamma 90.000000
_cell_volume 664.007010
_symmetry_space_group_name_H-M "P M N 21"
_symmetry_group_IT_number 31
_symmetry_cell_setting 'orthorhombic'
loop_
_space_group_symop_operation_xyz
x,y,z
1/2-x,-y,1/2+z
-x,y,z
1/2+x,-y,1/2+z
loop_
_atom_site_type_symbol
_atom_site_label
_atom_site_fract_x
_atom_site_fract_y
_atom_site_fract_z
Si Si1 0.500000 0.307184 0.909101
Si Si2 0.500000 0.969039 0.882619
Si Si3 0.000000 0.883751 0.792402
Si Si4 0.752167 0.177698 0.474655
Si Si5 0.865177 0.283379 0.850098
Si Si6 0.294048 0.492401 0.025467
O O1 0.500000 0.143123 0.809043
O O2 0.500000 0.262667 0.144323
O O3 0.386637 0.413467 0.872494
O O4 0.628441 0.883929 0.858195
O O5 0.500000 0.993800 0.119596
O O6 0.124582 0.891988 0.913079
O O7 0.785990 0.172053 0.711315
O O8 0.734840 0.355796 0.443245
O O9 0.867918 0.428506 0.701820
O O10 0.000000 0.234398 0.899513
O O11 0.798259 0.353336 0.038541
#
# Coordination Sequence:
#
# PCOD9343195 Si02
#       6
#     2   2   2   4   4   4
#     4  10  21  40  65  96 125 174 214 276 326 394
#     4  10  23  43  63  90 137 182 208 274 336 397
#     4  10  24  41  72  88 138 166 232 268 340 385
#     4  10  21  41  67  95 128 182 210 277 332 395
#     4  10  21  37  64  90 134 163 215 273 337 378
#     4  10  20  36  69  91 131 161 225 274 332 379
#
# _framework density 27.108149999999998
#
# number of rings (size 3 to 8) (size 9 to 14) (size 15 to 20)
#    2.000    0.000    2.222    2.000    1.556    2.667 
#    2.000    1.111    2.444    0.000    0.000    0.000 
#    0.000    0.000    0.000    0.000    0.000    0.000 
#
# Total GULP energy -100213.442576 kJ/mol
# GULP energy per Si atom -5567.413476 kJ/mol
# Density = 2.704645 g / cm^3
# Si number density = 27.108150 Si / 1000 Ang^3
#
#
#
# Elastic Constant Matrix: (Units=GPa)
#
#
# Indices 1 2 3 4 5 6 
#
# 1 198.1126 37.3735 30.0527 0.0000 0.0000 0.0000
# 2 37.3735 94.0037 1.0018 0.0000 0.0000 0.0000
# 3 30.0527 1.0018 85.8097 0.0000 0.0000 0.0000
# 4 0.0000 0.0000 0.0000 47.4336 0.0000 0.0000
# 5 0.0000 0.0000 0.0000 0.0000 28.4388 0.0000
# 6 0.0000 0.0000 0.0000 0.0000 0.0000 52.1048
#
#
#
# Elastic Compliance Matrix: (Units=1/GPa)
#
#
# Indices 1 2 3 4 5 6 
#
# 1 0.005780 -0.002277 -0.001998 0.000000 0.000000 0.000000
# 2 -0.002277 0.011536 0.000663 0.000000 0.000000 0.000000
# 3 -0.001998 0.000663 0.012346 0.000000 0.000000 0.000000
# 4 0.000000 0.000000 0.000000 0.021082 0.000000 0.000000
# 5 0.000000 0.000000 0.000000 0.000000 0.035163 0.000000
# 6 0.000000 0.000000 0.000000 0.000000 0.000000 0.019192
#
#
# Mechanical properties :
#
#
# Convention : Reuss Voigt Hill
#
# Bulk Modulus (GPa) = 44.56702 57.19801 50.88251
# Shear Modulus (GPa) = 41.73542 46.22864 43.98203
#
# Velocity S-wave (km/s) = 3.92802 4.13406 4.03235
# Velocity P-wave (km/s) = 6.08675 6.62820 6.36324
#
# Compressibility (1/GPa) = 0.02243812
#
# Stress axis : x y z
#
# Youngs Moduli (GPa) = 173.00451 86.68515 81.00031
#
# Poissons Ratio (x) = 0.19736 0.16182
# Poissons Ratio (y) = 0.39389 -0.05368
# Poissons Ratio (z) = 0.34563 -0.05745
#
# Static dielectric constant tensor:
#      x y z
#    x 2.136400 0.000000 0.000000 
#    y 0.000000 2.063200 0.000000 
#    z 0.000000 0.000000 2.208510 
# 
# From -- ./inp_files/2042.got.cif
#   From: 2010.05.17/outbox.cif.g08.bks.cpg/sg31_2_cif.got.tgz:2042.got - 2010.06.03 17:08:30.
