data_PCOD9343268
_publ_section_title
;
Structure prediction by ZEFSAII (Michael W. Deem and Ramdas Pophale) SiO2 
 PCOD9343268
Probable space group: P M N 21
;
_chemical_formula_sum "Si O2"
_cell_formula_units_Z 24
_cell_length_a 15.730343
_cell_length_b 8.573840
_cell_length_c 9.218249
_cell_angle_alpha 90.000000
_cell_angle_beta 90.000000
_cell_angle_gamma 90.000000
_cell_volume 1243.260118
_symmetry_space_group_name_H-M "P M N 21"
_symmetry_group_IT_number 31
_symmetry_cell_setting 'orthorhombic'
loop_
_space_group_symop_operation_xyz
x,y,z
1/2-x,-y,1/2+z
-x,y,z
1/2+x,-y,1/2+z
loop_
_atom_site_type_symbol
_atom_site_label
_atom_site_fract_x
_atom_site_fract_y
_atom_site_fract_z
Si Si1 0.677471 0.690802 0.481620
Si Si2 0.661799 0.321166 0.481924
Si Si3 0.000000 0.806029 0.817206
Si Si4 0.000000 0.135471 0.977476
Si Si5 0.000000 0.159690 0.318280
Si Si6 0.000000 0.833539 0.473049
Si Si7 0.685012 0.812478 0.799031
Si Si8 0.332512 0.187388 0.800970
O O1 0.668422 0.506293 0.497152
O O2 0.585699 0.767217 0.449010
O O3 0.706777 0.762173 0.635680
O O4 0.747485 0.733936 0.362456
O O5 0.583217 0.277840 0.379335
O O6 0.746817 0.253399 0.409494
O O7 0.649930 0.241284 0.637801
O O8 0.000000 0.810311 0.644049
O O9 0.000000 0.980148 0.883148
O O10 0.000000 0.096989 0.150930
O O11 0.910778 0.247754 0.332067
O O12 0.000000 0.017306 0.430448
O O13 0.914047 0.770640 0.399162
O O14 0.680394 0.000269 0.806163
#
# Coordination Sequence:
#
# PCOD9343268 Si02
#       8
#     4   4   2   2   2   2   4   4
#     4  11  23  40  61  92 128 161 203 260 314 362
#     4  12  24  39  61  92 127 164 204 259 316 364
#     4  12  23  39  64  91 120 162 211 254 306 375
#     4  10  21  40  65  88 117 162 209 254 308 374
#     4   8  18  37  61  87 115 150 201 256 302 353
#     4  10  22  38  62  90 116 150 205 262 300 352
#     4  10  20  39  63  90 120 162 211 253 303 371
#     4  11  22  40  64  90 122 164 209 255 307 371
#
# _framework density 19.304086000000002
#
# number of rings (size 3 to 8) (size 9 to 14) (size 15 to 20)
#    0.000    1.333    0.000    8.000    0.000    4.000 
#    0.000    2.500    0.000    6.000    0.000    0.000 
#    0.000    0.000    0.000    0.000    0.000    0.000 
#
# Total GULP energy -134175.079015 kJ/mol
# GULP energy per Si atom -5590.628292 kJ/mol
# Density = 1.926015 g / cm^3
# Si number density = 19.304086 Si / 1000 Ang^3
#
#
#
# Elastic Constant Matrix: (Units=GPa)
#
#
# Indices 1 2 3 4 5 6 
#
# 1 120.3258 20.3091 69.1107 0.0000 0.0000 0.0000
# 2 20.3091 84.0333 12.1630 0.0000 0.0000 0.0000
# 3 69.1107 12.1630 128.4188 0.0000 0.0000 0.0000
# 4 0.0000 0.0000 0.0000 18.7125 0.0000 0.0000
# 5 0.0000 0.0000 0.0000 0.0000 27.8968 0.0000
# 6 0.0000 0.0000 0.0000 0.0000 0.0000 4.4221
#
#
#
# Elastic Compliance Matrix: (Units=1/GPa)
#
#
# Indices 1 2 3 4 5 6 
#
# 1 0.012369 -0.002054 -0.006462 0.000000 0.000000 0.000000
# 2 -0.002054 0.012407 -0.000070 0.000000 0.000000 0.000000
# 3 -0.006462 -0.000070 0.011271 0.000000 0.000000 0.000000
# 4 0.000000 0.000000 0.000000 0.053440 0.000000 0.000000
# 5 0.000000 0.000000 0.000000 0.000000 0.035846 0.000000
# 6 0.000000 0.000000 0.000000 0.000000 0.000000 0.226135
#
#
# Mechanical properties :
#
#
# Convention : Reuss Voigt Hill
#
# Bulk Modulus (GPa) = 52.97908 59.54929 56.26418
# Shear Modulus (GPa) = 13.33577 25.61929 19.47753
#
# Velocity S-wave (km/s) = 2.63121 3.64695 3.17990
# Velocity P-wave (km/s) = 6.06095 6.97486 6.53390
#
# Compressibility (1/GPa) = 0.01887537
#
# Stress axis : x y z
#
# Youngs Moduli (GPa) = 80.84718 80.60267 88.72114
#
# Poissons Ratio (x) = 0.16556 0.57332
# Poissons Ratio (y) = 0.16606 0.00618
# Poissons Ratio (z) = 0.52244 0.00561
#
# Static dielectric constant tensor:
#      x y z
#    x 1.685160 0.000000 0.000000 
#    y 0.000000 1.642570 0.000000 
#    z 0.000000 0.000000 1.643370 
# 
# From -- ./inp_files/2486.got.cif
#   From: 2010.05.17/outbox.cif.g08.bks.cpg/sg31_2_cif.got.tgz:2486.got - 2010.06.03 17:08:30.
