data_PCOD9343415
_publ_section_title
;
Structure prediction by ZEFSAII (Michael W. Deem and Ramdas Pophale) SiO2 
 PCOD9343415
Probable space group: P M N 21
;
_chemical_formula_sum "Si O2"
_cell_formula_units_Z 24
_cell_length_a 22.970064
_cell_length_b 5.404119
_cell_length_c 8.686277
_cell_angle_alpha 90.000000
_cell_angle_beta 90.000000
_cell_angle_gamma 90.000000
_cell_volume 1078.253269
_symmetry_space_group_name_H-M "P M N 21"
_symmetry_group_IT_number 31
_symmetry_cell_setting 'orthorhombic'
loop_
_space_group_symop_operation_xyz
x,y,z
1/2-x,-y,1/2+z
-x,y,z
1/2+x,-y,1/2+z
loop_
_atom_site_type_symbol
_atom_site_label
_atom_site_fract_x
_atom_site_fract_y
_atom_site_fract_z
Si Si1 0.168521 0.455509 0.957530
Si Si2 0.847120 0.729484 0.540804
Si Si3 0.932420 0.409092 0.749519
Si Si4 0.566714 0.901832 0.946913
Si Si5 0.218244 0.957982 0.808732
Si Si6 0.671155 0.658848 0.808422
O O1 0.101223 0.391356 0.910851
O O2 0.189008 0.726448 0.900333
O O3 0.200912 0.225344 0.872430
O O4 0.177877 0.447918 0.139215
O O5 0.890212 0.598876 0.662057
O O6 0.806674 0.917206 0.635973
O O7 0.811660 0.525086 0.447056
O O8 0.893753 0.858410 0.430883
O O9 0.931238 0.179227 0.628403
O O10 0.000000 0.482404 0.763028
O O11 0.500000 0.926591 0.903690
O O12 0.603778 0.710783 0.846808
O O13 0.286641 0.896995 0.811388
#
# Coordination Sequence:
#
# PCOD9343415 Si02
#       6
#     4   4   4   4   4   4
#     4  11  25  43  65 102 132 172 220 282 333 394
#     4  10  21  41  64  96 124 182 218 278 324 412
#     4   9  19  39  65  91 127 174 225 269 325 403
#     4  10  21  40  66  93 128 176 227 270 329 405
#     4  11  25  43  67  95 137 177 224 265 340 409
#     4  11  26  38  67  95 137 167 222 280 343 387
#
# _framework density 22.258219
#
# number of rings (size 3 to 8) (size 9 to 14) (size 15 to 20)
#    0.000    1.667    1.667    1.500    7.000    1.333 
#    0.000    0.000    0.000    0.000    0.000    0.000 
#    0.000    0.000    0.000    0.000    0.000    0.000 
#
# Total GULP energy -133949.976663 kJ/mol
# GULP energy per Si atom -5581.249028 kJ/mol
# Density = 2.220756 g / cm^3
# Si number density = 22.258219 Si / 1000 Ang^3
#
#
#
# Elastic Constant Matrix: (Units=GPa)
#
#
# Indices 1 2 3 4 5 6 
#
# 1 135.1111 7.7155 21.0206 0.0000 0.0000 0.0000
# 2 7.7155 60.8330 -2.0051 0.0000 0.0000 0.0000
# 3 21.0206 -2.0051 71.4757 0.0000 0.0000 0.0000
# 4 0.0000 0.0000 0.0000 23.8295 0.0000 0.0000
# 5 0.0000 0.0000 0.0000 0.0000 28.9817 0.0000
# 6 0.0000 0.0000 0.0000 0.0000 0.0000 19.1407
#
#
#
# Elastic Compliance Matrix: (Units=1/GPa)
#
#
# Indices 1 2 3 4 5 6 
#
# 1 0.007825 -0.001069 -0.002331 0.000000 0.000000 0.000000
# 2 -0.001069 0.016600 0.000780 0.000000 0.000000 0.000000
# 3 -0.002331 0.000780 0.014698 0.000000 0.000000 0.000000
# 4 0.000000 0.000000 0.000000 0.041965 0.000000 0.000000
# 5 0.000000 0.000000 0.000000 0.000000 0.034504 0.000000
# 6 0.000000 0.000000 0.000000 0.000000 0.000000 0.052245
#
#
# Mechanical properties :
#
#
# Convention : Reuss Voigt Hill
#
# Bulk Modulus (GPa) = 29.51401 35.65353 32.58377
# Shear Modulus (GPa) = 27.11907 30.43632 28.77769
#
# Velocity S-wave (km/s) = 3.49432 3.70187 3.59960
# Velocity P-wave (km/s) = 5.43774 5.85873 5.65216
#
# Compressibility (1/GPa) = 0.03388222
#
# Stress axis : x y z
#
# Youngs Moduli (GPa) = 127.79421 60.24174 68.03523
#
# Poissons Ratio (x) = 0.06442 0.15861
# Poissons Ratio (y) = 0.13665 -0.05308
# Poissons Ratio (z) = 0.29793 -0.04700
#
# Static dielectric constant tensor:
#      x y z
#    x 1.804230 0.000000 0.000000 
#    y 0.000000 1.905020 0.000000 
#    z 0.000000 0.000000 1.886060 
# 
# From -- ./inp_files/3031.got.cif
#   From: 2010.05.17/outbox.cif.g08.bks.cpg/sg31_2_cif.got.tgz:3031.got - 2010.06.03 17:08:30.
