data_PCOD9343244
_publ_section_title
;
Structure prediction by ZEFSAII (Michael W. Deem and Ramdas Pophale) SiO2 
 PCOD9343244
Probable space group: P M N 21
;
_chemical_formula_sum "Si O2"
_cell_formula_units_Z 24
_cell_length_a 15.312680
_cell_length_b 9.134237
_cell_length_c 7.527566
_cell_angle_alpha 90.000000
_cell_angle_beta 90.000000
_cell_angle_gamma 90.000000
_cell_volume 1052.878008
_symmetry_space_group_name_H-M "P M N 21"
_symmetry_group_IT_number 31
_symmetry_cell_setting 'orthorhombic'
loop_
_space_group_symop_operation_xyz
x,y,z
1/2-x,-y,1/2+z
-x,y,z
1/2+x,-y,1/2+z
loop_
_atom_site_type_symbol
_atom_site_label
_atom_site_fract_x
_atom_site_fract_y
_atom_site_fract_z
Si Si1 0.000000 0.176807 0.536830
Si Si2 0.320878 0.179095 0.117334
Si Si3 0.170103 0.546746 0.858966
Si Si4 0.000000 0.670563 0.043958
Si Si5 0.500000 0.062888 0.267997
Si Si6 0.816395 0.308765 0.583780
Si Si7 0.804233 0.941594 0.222734
Si Si8 0.500000 0.069190 0.730003
O O1 0.911290 0.266824 0.510356
O O2 0.000000 0.112849 0.740537
O O3 0.000000 0.039864 0.400268
O O4 0.331135 0.341941 0.191181
O O5 0.410218 0.103197 0.173717
O O6 0.242758 0.097317 0.219462
O O7 0.309235 0.140884 0.911338
O O8 0.169097 0.386834 0.774276
O O9 0.086995 0.584197 0.985554
O O10 0.258382 0.583898 0.963356
O O11 0.000000 0.821575 0.929238
O O12 0.000000 0.749973 0.237906
O O13 0.756579 0.165173 0.607698
O O14 0.902719 0.963126 0.154682
#
# Coordination Sequence:
#
# PCOD9343244 Si02
#       8
#     2   4   4   2   2   4   4   2
#     4  12  23  44  66 102 136 178 220 286 351 402
#     4  11  22  39  64  96 131 174 225 279 340 402
#     4  11  24  45  64  98 133 182 229 271 343 411
#     4  10  23  40  67  99 132 176 226 285 335 405
#     4  10  20  38  62  91 133 163 219 271 345 395
#     4  12  25  44  67  96 140 182 227 278 342 410
#     4  12  22  38  65  97 130 176 222 290 335 398
#     4  12  22  38  65 100 135 163 235 290 337 402
#
# _framework density 22.794664999999998
#
# number of rings (size 3 to 8) (size 9 to 14) (size 15 to 20)
#    0.000    0.667    5.000    3.500    2.333    0.000 
#    0.000    3.333    0.000    0.000    0.000    0.000 
#    0.000    0.000    0.000    0.000    0.000    0.000 
#
# Total GULP energy -133911.713705 kJ/mol
# GULP energy per Si atom -5579.654738 kJ/mol
# Density = 2.274278 g / cm^3
# Si number density = 22.794665 Si / 1000 Ang^3
#
#
#
# Elastic Constant Matrix: (Units=GPa)
#
#
# Indices 1 2 3 4 5 6 
#
# 1 205.3129 31.4832 17.6026 0.0000 0.0000 0.0000
# 2 31.4832 51.1699 -12.9195 0.0000 0.0000 0.0000
# 3 17.6026 -12.9195 38.9465 0.0000 0.0000 0.0000
# 4 0.0000 0.0000 0.0000 45.3746 0.0000 0.0000
# 5 0.0000 0.0000 0.0000 0.0000 21.2506 0.0000
# 6 0.0000 0.0000 0.0000 0.0000 0.0000 148.8887
#
#
#
# Elastic Compliance Matrix: (Units=1/GPa)
#
#
# Indices 1 2 3 4 5 6 
#
# 1 0.005965 -0.004748 -0.004271 0.000000 0.000000 0.000000
# 2 -0.004748 0.025109 0.010475 0.000000 0.000000 0.000000
# 3 -0.004271 0.010475 0.031082 0.000000 0.000000 0.000000
# 4 0.000000 0.000000 0.000000 0.022039 0.000000 0.000000
# 5 0.000000 0.000000 0.000000 0.000000 0.047058 0.000000
# 6 0.000000 0.000000 0.000000 0.000000 0.000000 0.006716
#
#
# Mechanical properties :
#
#
# Convention : Reuss Voigt Hill
#
# Bulk Modulus (GPa) = 15.36863 40.86243 28.11553
# Shear Modulus (GPa) = 31.89876 60.38697 46.14286
#
# Velocity S-wave (km/s) = 3.74491 5.15259 4.50408
# Velocity P-wave (km/s) = 5.04539 7.30508 6.27774
#
# Compressibility (1/GPa) = 0.06506762
#
# Stress axis : x y z
#
# Youngs Moduli (GPa) = 167.64629 39.82605 32.17332
#
# Poissons Ratio (x) = 0.18911 0.13742
# Poissons Ratio (y) = 0.79606 -0.33703
# Poissons Ratio (z) = 0.71604 -0.41720
#
# Static dielectric constant tensor:
#      x y z
#    x 1.808410 0.000000 0.000000 
#    y 0.000000 1.881900 0.000000 
#    z 0.000000 0.000000 2.090390 
# 
# From -- ./inp_files/2463.got.cif
#   From: 2010.05.17/outbox.cif.g08.bks.cpg/sg31_2_cif.got.tgz:2463.got - 2010.06.03 17:08:30.
