data_PCOD9343894
_publ_section_title
;
Structure prediction by ZEFSAII (Michael W. Deem and Ramdas Pophale) SiO2 
 PCOD9343894
Probable space group: P B A 2
;
_chemical_formula_sum "Si O2"
_cell_formula_units_Z 20
_cell_length_a 5.482351
_cell_length_b 28.198728
_cell_length_c 5.028805
_cell_angle_alpha 90.000000
_cell_angle_beta 90.000000
_cell_angle_gamma 90.000000
_cell_volume 777.429742
_symmetry_space_group_name_H-M "P B A 2"
_symmetry_group_IT_number 32
_symmetry_cell_setting 'orthorhombic'
loop_
_space_group_symop_operation_xyz
x,y,z
-x,-y,z
1/2-x,1/2+y,z
1/2+x,1/2-y,z
loop_
_atom_site_type_symbol
_atom_site_label
_atom_site_fract_x
_atom_site_fract_y
_atom_site_fract_z
Si Si1 0.581327 0.102066 0.054290
Si Si2 0.800734 0.828297 0.815946
Si Si3 0.607429 0.741328 0.090488
Si Si4 0.000000 0.000000 0.591497
Si Si5 0.593936 0.604837 0.523538
Si Si6 0.500000 0.000000 0.933573
O O1 0.706635 0.121253 0.315935
O O2 0.347686 0.131807 0.971009
O O3 0.772694 0.100649 0.809183
O O4 0.509983 0.047581 0.103208
O O5 0.639452 0.780783 0.854583
O O6 0.045555 0.808227 0.955394
O O7 0.885222 0.855382 0.552354
O O8 0.861420 0.744197 0.242039
O O9 0.748371 0.997174 0.760420
O O10 0.010295 0.948591 0.447541
#
# Coordination Sequence:
#
# PCOD9343894 Si02
#       6
#     4   4   4   2   4   2
#     4  11  25  44  73 104 148 195 249 304 380 453
#     4  10  20  44  70 108 142 198 242 316 368 456
#     4   8  18  36  72  98 144 182 246 304 370 434
#     4  10  22  46  70 106 146 192 244 308 370 454
#     4  11  25  44  73 104 148 195 249 304 380 453
#     4  10  22  46  70 106 146 192 244 308 370 454
#
# _framework density 25.725795999999999
#
# number of rings (size 3 to 8) (size 9 to 14) (size 15 to 20)
#    1.200    0.800    2.000    1.200    0.000    8.000 
#    0.000    2.000    0.000    0.000    0.000    0.000 
#    0.000    0.000    0.000    0.000    0.000    0.000 
#
# Total GULP energy -111721.943859 kJ/mol
# GULP energy per Si atom -5586.097193 kJ/mol
# Density = 2.566724 g / cm^3
# Si number density = 25.725796 Si / 1000 Ang^3
#
#
#
# Elastic Constant Matrix: (Units=GPa)
#
#
# Indices 1 2 3 4 5 6 
#
# 1 163.7691 24.1778 28.0786 0.0000 0.0000 0.0000
# 2 24.1778 170.3266 7.4849 0.0000 0.0000 0.0000
# 3 28.0786 7.4849 40.5613 0.0000 0.0000 0.0000
# 4 0.0000 0.0000 0.0000 -12.3824 0.0000 0.0000
# 5 0.0000 0.0000 0.0000 0.0000 62.8361 0.0000
# 6 0.0000 0.0000 0.0000 0.0000 0.0000 20.4384
#
#
#
# Elastic Compliance Matrix: (Units=1/GPa)
#
#
# Indices 1 2 3 4 5 6 
#
# 1 0.007033 -0.000791 -0.004722 0.000000 0.000000 0.000000
# 2 -0.000791 0.006008 -0.000561 0.000000 0.000000 0.000000
# 3 -0.004722 -0.000561 0.028027 0.000000 0.000000 0.000000
# 4 0.000000 0.000000 0.000000 -0.080760 0.000000 0.000000
# 5 0.000000 0.000000 0.000000 0.000000 0.015914 0.000000
# 6 0.000000 0.000000 0.000000 0.000000 0.000000 0.048928
#
#
# Mechanical properties :
#
#
# Convention : Reuss Voigt Hill
#
# Bulk Modulus (GPa) = 34.58001 54.90440 44.74220
# Shear Modulus (GPa) = 106.52389 35.17280 70.84835
#
# Velocity S-wave (km/s) = 6.44184 3.70160 5.25353
# Velocity P-wave (km/s) = 8.29462 6.29743 7.36405
#
# Compressibility (1/GPa) = 0.02891844
#
# Stress axis : x y z
#
# Youngs Moduli (GPa) = 142.19564 166.44520 35.68024
#
# Poissons Ratio (x) = 0.13162 0.16850
# Poissons Ratio (y) = 0.11244 0.02003
# Poissons Ratio (z) = 0.67150 0.09342
#
# Static dielectric constant tensor:
#      x y z
#    x 2.084280 0.000000 0.000000 
#    y 0.000000 2.052020 0.000000 
#    z 0.000000 0.000000 1.987750 
# 
# From -- ./inp_files/214.got.cif
#   From: 2010.05.17/outbox.cif.g08.bks.cpg/sg32_1_cif.got.tgz:214.got - 2010.06.03 17:12:27.
