data_PCOD9343942
_publ_section_title
;
Structure prediction by ZEFSAII (Michael W. Deem and Ramdas Pophale) SiO2 
 PCOD9343942
Probable space group: P B A 2
;
_chemical_formula_sum "Si O2"
_cell_formula_units_Z 32
_cell_length_a 13.770839
_cell_length_b 9.406547
_cell_length_c 10.793501
_cell_angle_alpha 90.000000
_cell_angle_beta 90.000000
_cell_angle_gamma 90.000000
_cell_volume 1398.147424
_symmetry_space_group_name_H-M "P B A 2"
_symmetry_group_IT_number 32
_symmetry_cell_setting 'orthorhombic'
loop_
_space_group_symop_operation_xyz
x,y,z
-x,-y,z
1/2-x,1/2+y,z
1/2+x,1/2-y,z
loop_
_atom_site_type_symbol
_atom_site_label
_atom_site_fract_x
_atom_site_fract_y
_atom_site_fract_z
Si Si1 0.785111 0.977052 0.344020
Si Si2 0.859877 0.279867 0.258729
Si Si3 0.272990 0.264802 0.988848
Si Si4 0.560264 0.142865 0.984373
Si Si5 0.904032 0.908659 0.583988
Si Si6 0.283463 0.498334 0.815599
Si Si7 0.545963 0.345804 0.199143
Si Si8 0.579533 0.114141 0.702462
O O1 0.677065 0.924213 0.319703
O O2 0.825892 0.939771 0.477952
O O3 0.847491 0.875578 0.250210
O O4 0.806925 0.140793 0.315854
O O5 0.974344 0.254203 0.277255
O O6 0.829887 0.273758 0.112990
O O7 0.327500 0.369198 0.895087
O O8 0.241947 0.128236 0.908089
O O9 0.176142 0.361381 0.012883
O O10 0.537167 0.280009 0.064387
O O11 0.500000 0.000000 0.018421
O O12 0.544396 0.165652 0.839026
O O13 0.860535 0.957280 0.714242
O O14 0.918046 0.740989 0.604647
O O15 0.000000 0.000000 0.553768
O O16 0.185661 0.449441 0.740377
O O17 0.500000 0.500000 0.202179
O O18 0.500000 0.000000 0.662270
#
# Coordination Sequence:
#
# PCOD9343942 Si02
#       8
#     4   4   4   4   4   4   4   4
#     4  11  26  48  64 102 133 180 248 283 344 427
#     4  11  24  41  73  93 138 183 223 293 356 410
#     4  11  23  41  68 104 137 180 223 293 357 429
#     4  10  21  39  63  95 142 166 220 283 348 415
#     4  12  27  47  73  97 140 193 235 293 350 416
#     4  11  24  44  66 103 143 175 237 282 352 423
#     4  10  23  41  63  96 130 175 225 285 345 422
#     4  10  25  45  67 104 138 180 229 291 350 425
#
# _framework density 22.887429999999998
#
# number of rings (size 3 to 8) (size 9 to 14) (size 15 to 20)
#    0.000    1.250    3.750    1.875   12.250    0.500 
#    2.250    0.625    0.000    0.000    0.000    0.000 
#    0.000    0.000    0.000    0.000    0.000    0.000 
#
# Total GULP energy -178820.594086 kJ/mol
# GULP energy per Si atom -5588.143565 kJ/mol
# Density = 2.283534 g / cm^3
# Si number density = 22.887430 Si / 1000 Ang^3
#
#
#
# Elastic Constant Matrix: (Units=GPa)
#
#
# Indices 1 2 3 4 5 6 
#
# 1 46.7708 -7.3817 -20.3047 0.0000 0.0000 0.0000
# 2 -7.3817 24.0776 7.7247 0.0000 0.0000 0.0000
# 3 -20.3047 7.7247 58.6340 0.0000 0.0000 0.0000
# 4 0.0000 0.0000 0.0000 18.2333 0.0000 0.0000
# 5 0.0000 0.0000 0.0000 0.0000 17.5625 0.0000
# 6 0.0000 0.0000 0.0000 0.0000 0.0000 39.8936
#
#
#
# Elastic Compliance Matrix: (Units=1/GPa)
#
#
# Indices 1 2 3 4 5 6 
#
# 1 0.025787 0.005263 0.008237 0.000000 0.000000 0.000000
# 2 0.005263 0.044440 -0.004032 0.000000 0.000000 0.000000
# 3 0.008237 -0.004032 0.020438 0.000000 0.000000 0.000000
# 4 0.000000 0.000000 0.000000 0.054845 0.000000 0.000000
# 5 0.000000 0.000000 0.000000 0.000000 0.056940 0.000000
# 6 0.000000 0.000000 0.000000 0.000000 0.000000 0.025067
#
#
# Mechanical properties :
#
#
# Convention : Reuss Voigt Hill
#
# Bulk Modulus (GPa) = 9.12399 9.95102 9.53750
# Shear Modulus (GPa) = 20.39867 25.10082 22.74974
#
# Velocity S-wave (km/s) = 2.98864 3.31525 3.15617
# Velocity P-wave (km/s) = 3.98803 4.36025 4.17829
#
# Compressibility (1/GPa) = 0.10960118
#
# Stress axis : x y z
#
# Youngs Moduli (GPa) = 38.77871 22.50249 48.92741
#
# Poissons Ratio (x) = -0.11844 -0.40300
# Poissons Ratio (y) = -0.20411 0.19728
# Poissons Ratio (z) = -0.31941 0.09073
#
# Static dielectric constant tensor:
#      x y z
#    x 1.960900 0.000000 0.000000 
#    y 0.000000 1.860230 0.000000 
#    z 0.000000 0.000000 1.859490 
# 
# From -- ./inp_files/3964.got.cif
#   From: 2010.05.17/outbox.cif.g08.bks.cpg/sg32_2_cif.got.tgz:3964.got - 2010.06.03 17:12:27.
