data_PCOD9343346
_publ_section_title
;
Structure prediction by ZEFSAII (Michael W. Deem and Ramdas Pophale) SiO2 
 PCOD9343346
Probable space group: P M N 21
;
_chemical_formula_sum "Si O2"
_cell_formula_units_Z 32
_cell_length_a 7.576938
_cell_length_b 12.165262
_cell_length_c 15.978255
_cell_angle_alpha 90.000000
_cell_angle_beta 90.000000
_cell_angle_gamma 90.000000
_cell_volume 1472.802620
_symmetry_space_group_name_H-M "P M N 21"
_symmetry_group_IT_number 31
_symmetry_cell_setting 'orthorhombic'
loop_
_space_group_symop_operation_xyz
x,y,z
1/2-x,-y,1/2+z
-x,y,z
1/2+x,-y,1/2+z
loop_
_atom_site_type_symbol
_atom_site_label
_atom_site_fract_x
_atom_site_fract_y
_atom_site_fract_z
Si Si1 0.215498 0.250738 0.640450
Si Si2 0.296539 0.759271 0.445315
Si Si3 0.711266 0.843121 0.791518
Si Si4 0.287713 0.899759 0.291273
Si Si5 0.716427 0.715013 0.955681
Si Si6 0.790773 0.488358 0.707631
Si Si7 0.213083 0.284358 0.127803
Si Si8 0.797442 0.517878 0.397024
O O1 0.276433 0.160639 0.707151
O O2 0.271975 0.236415 0.544673
O O3 0.270288 0.371445 0.672207
O O4 0.000000 0.249837 0.639965
O O5 0.500000 0.794344 0.454672
O O6 0.217556 0.836653 0.373523
O O7 0.218018 0.757151 0.538401
O O8 0.294465 0.633758 0.412635
O O9 0.500000 0.828174 0.791195
O O10 0.777386 0.783865 0.875535
O O11 0.779004 0.785030 0.707246
O O12 0.748037 0.972038 0.792303
O O13 0.500000 0.886202 0.291449
O O14 0.500000 0.713231 0.954171
O O15 0.773565 0.588256 0.945537
O O16 0.755884 0.588497 0.645205
O O17 0.708367 0.510425 0.798469
O O18 0.000000 0.480434 0.721307
O O19 0.000000 0.276572 0.125571
O O20 0.000000 0.534168 0.422869
#
# Coordination Sequence:
#
# PCOD9343346 Si02
#       8
#     4   4   4   4   4   4   4   4
#     4   9  18  34  56  80 108 142 178 221 274 328
#     4  10  21  38  58  82 115 151 185 227 283 339
#     4  10  21  38  56  78 108 146 188 231 278 328
#     4  10  21  38  56  78 108 146 188 231 278 328
#     4   9  18  34  56  80 108 142 178 221 274 328
#     4  11  20  34  58  86 116 147 184 227 279 340
#     4  10  21  38  58  82 115 151 185 227 283 339
#     4  11  20  34  58  86 116 147 184 227 279 340
#
# _framework density 21.727281000000001
#
# number of rings (size 3 to 8) (size 9 to 14) (size 15 to 20)
#    0.000    2.000    2.500    1.500    0.000    3.500 
#    0.000    0.000    0.000    3.000    0.000    0.000 
#    0.000    0.000    0.000    0.000    0.000    0.000 
#
# Total GULP energy -178830.834775 kJ/mol
# GULP energy per Si atom -5588.463587 kJ/mol
# Density = 2.167783 g / cm^3
# Si number density = 21.727281 Si / 1000 Ang^3
#
#
#
# Elastic Constant Matrix: (Units=GPa)
#
#
# Indices 1 2 3 4 5 6 
#
# 1 52.3332 -4.9449 4.5465 0.0000 0.0000 0.0000
# 2 -4.9449 112.7942 33.6647 0.0000 0.0000 0.0000
# 3 4.5465 33.6647 117.8435 0.0000 0.0000 0.0000
# 4 0.0000 0.0000 0.0000 5.8227 0.0000 0.0000
# 5 0.0000 0.0000 0.0000 0.0000 0.1686 0.0000
# 6 0.0000 0.0000 0.0000 0.0000 0.0000 51.3729
#
#
#
# Elastic Compliance Matrix: (Units=1/GPa)
#
#
# Indices 1 2 3 4 5 6 
#
# 1 0.019312 0.001169 -0.001079 0.000000 0.000000 0.000000
# 2 0.001169 0.009763 -0.002834 0.000000 0.000000 0.000000
# 3 -0.001079 -0.002834 0.009337 0.000000 0.000000 0.000000
# 4 0.000000 0.000000 0.000000 0.171741 0.000000 0.000000
# 5 0.000000 0.000000 0.000000 0.000000 5.931094 0.000000
# 6 0.000000 0.000000 0.000000 0.000000 0.000000 0.019466
#
#
# Mechanical properties :
#
#
# Convention : Reuss Voigt Hill
#
# Bulk Modulus (GPa) = 30.37327 38.83374 34.60350
# Shear Modulus (GPa) = 0.80943 28.11980 14.46461
#
# Velocity S-wave (km/s) = 0.61102 3.60142 2.58298
# Velocity P-wave (km/s) = 3.80887 5.93344 4.98564
#
# Compressibility (1/GPa) = 0.03292369
#
# Stress axis : x y z
#
# Youngs Moduli (GPa) = 51.77995 102.42964 107.09991
#
# Poissons Ratio (x) = -0.11971 0.11556
# Poissons Ratio (y) = -0.06051 0.30353
# Poissons Ratio (z) = 0.05587 0.29029
#
# Static dielectric constant tensor:
#      x y z
#    x 1.808160 0.000000 0.000000 
#    y 0.000000 1.727030 0.000000 
#    z 0.000000 0.000000 1.798340 
# 
# From -- ./inp_files/2541.got.cif
#   From: 2010.05.17/outbox.cif.g08.bks.cpg/sg31_2_cif.got.tgz:2541.got - 2010.06.03 17:08:30.
