data_PCOD9343178
_publ_section_title
;
Structure prediction by ZEFSAII (Michael W. Deem and Ramdas Pophale) SiO2 
 PCOD9343178
Probable space group: P M N 21
;
_chemical_formula_sum "Si O2"
_cell_formula_units_Z 32
_cell_length_a 9.461878
_cell_length_b 28.958269
_cell_length_c 5.324011
_cell_angle_alpha 90.000000
_cell_angle_beta 90.000000
_cell_angle_gamma 90.000000
_cell_volume 1458.776929
_symmetry_space_group_name_H-M "P M N 21"
_symmetry_group_IT_number 31
_symmetry_cell_setting 'orthorhombic'
loop_
_space_group_symop_operation_xyz
x,y,z
1/2-x,-y,1/2+z
-x,y,z
1/2+x,-y,1/2+z
loop_
_atom_site_type_symbol
_atom_site_label
_atom_site_fract_x
_atom_site_fract_y
_atom_site_fract_z
Si Si1 0.833235 0.515481 0.189500
Si Si2 0.673982 0.020266 0.581430
Si Si3 0.828346 0.816876 0.532509
Si Si4 0.650007 0.398776 0.369288
Si Si5 0.343669 0.742822 0.806687
Si Si6 0.154456 0.694329 0.150787
Si Si7 0.152060 0.354783 0.046064
Si Si8 0.669535 0.129004 0.536907
O O1 0.749271 0.505375 0.446073
O O2 0.832375 0.569777 0.113001
O O3 0.000000 0.501987 0.204456
O O4 0.500000 0.013417 0.583020
O O5 0.702655 0.075201 0.566615
O O6 0.749775 0.001647 0.835412
O O7 0.744918 0.770366 0.600064
O O8 0.789547 0.850146 0.768070
O O9 0.000000 0.810569 0.533117
O O10 0.781610 0.840866 0.274340
O O11 0.500000 0.413562 0.248464
O O12 0.636225 0.344982 0.437937
O O13 0.786044 0.398336 0.193861
O O14 0.500000 0.762722 0.851014
O O15 0.244221 0.736929 0.047957
O O16 0.365525 0.689985 0.722948
O O17 0.236610 0.664878 0.353041
O O18 0.000000 0.709503 0.235138
O O19 0.000000 0.365041 0.928399
O O20 0.500000 0.132094 0.544614
#
# Coordination Sequence:
#
# PCOD9343178 Si02
#       8
#     4   4   4   4   4   4   4   4
#     4  11  25  45  68  97 132 170 213 263 319 384
#     4  11  22  40  66  96 130 167 211 267 325 384
#     4  10  20  37  60  85 113 158 211 253 295 362
#     4   9  21  40  60  84 116 155 200 250 302 360
#     4  10  22  38  53  80 118 154 192 247 310 360
#     4  10  20  36  60  85 111 151 202 249 296 358
#     4  10  21  36  57  85 118 151 192 246 308 364
#     4   9  20  38  60  86 120 160 207 255 305 364
#
# _framework density 21.936184999999998
#
# number of rings (size 3 to 8) (size 9 to 14) (size 15 to 20)
#    0.000    2.000    0.000    2.625    3.500    5.000 
#    0.000    3.750    0.000    0.000    0.000    0.000 
#    0.000    0.000    0.000    0.000    0.000    0.000 
#
# Total GULP energy -178478.199384 kJ/mol
# GULP energy per Si atom -5577.443731 kJ/mol
# Density = 2.188626 g / cm^3
# Si number density = 21.936185 Si / 1000 Ang^3
#
#
#
# Elastic Constant Matrix: (Units=GPa)
#
#
# Indices 1 2 3 4 5 6 
#
# 1 147.3396 26.2739 49.0386 0.0000 0.0000 0.0000
# 2 26.2739 82.9576 32.3606 0.0000 0.0000 0.0000
# 3 49.0386 32.3606 101.0953 0.0000 0.0000 0.0000
# 4 0.0000 0.0000 0.0000 39.3737 0.0000 0.0000
# 5 0.0000 0.0000 0.0000 0.0000 25.3062 0.0000
# 6 0.0000 0.0000 0.0000 0.0000 0.0000 -105.7455
#
#
#
# Elastic Compliance Matrix: (Units=1/GPa)
#
#
# Indices 1 2 3 4 5 6 
#
# 1 0.008196 -0.001194 -0.003593 0.000000 0.000000 0.000000
# 2 -0.001194 0.013948 -0.003886 0.000000 0.000000 0.000000
# 3 -0.003593 -0.003886 0.012879 0.000000 0.000000 0.000000
# 4 0.000000 0.000000 0.000000 0.025398 0.000000 0.000000
# 5 0.000000 0.000000 0.000000 0.000000 0.039516 0.000000
# 6 0.000000 0.000000 0.000000 0.000000 0.000000 -0.009457
#
#
# Mechanical properties :
#
#
# Convention : Reuss Voigt Hill
#
# Bulk Modulus (GPa) = 56.57220 60.74874 58.66047
# Shear Modulus (GPa) = 43.96837 6.70150 25.33493
#
# Velocity S-wave (km/s) = 4.48188 1.74975 3.40212
# Velocity P-wave (km/s) = 7.25455 5.64231 6.49862
#
# Compressibility (1/GPa) = 0.01767653
#
# Stress axis : x y z
#
# Youngs Moduli (GPa) = 122.01136 71.69356 77.64855
#
# Poissons Ratio (x) = 0.08560 0.27902
# Poissons Ratio (y) = 0.14568 0.30172
# Poissons Ratio (z) = 0.43844 0.27858
#
# Static dielectric constant tensor:
#      x y z
#    x 1.941530 0.000000 0.000000 
#    y 0.000000 1.826120 0.000000 
#    z 0.000000 0.000000 1.850120 
# 
# From -- ./inp_files/187.got.cif
#   From: 2010.05.17/outbox.cif.g08.bks.cpg/sg31_1_cif.got.tgz:187.got - 2010.06.03 17:08:30.
