data_PCOD9343851
_publ_section_title
;
Structure prediction by ZEFSAII (Michael W. Deem and Ramdas Pophale) SiO2 
 PCOD9343851
Probable space group: P B A 2
;
_chemical_formula_sum "Si O2"
_cell_formula_units_Z 24
_cell_length_a 8.974381
_cell_length_b 21.666700
_cell_length_c 5.572707
_cell_angle_alpha 90.000000
_cell_angle_beta 90.000000
_cell_angle_gamma 90.000000
_cell_volume 1083.586243
_symmetry_space_group_name_H-M "P B A 2"
_symmetry_group_IT_number 32
_symmetry_cell_setting 'orthorhombic'
loop_
_space_group_symop_operation_xyz
x,y,z
-x,-y,z
1/2-x,1/2+y,z
1/2+x,1/2-y,z
loop_
_atom_site_type_symbol
_atom_site_label
_atom_site_fract_x
_atom_site_fract_y
_atom_site_fract_z
Si Si1 0.500000 0.000000 0.381011
Si Si2 0.423883 0.309141 0.991862
Si Si3 0.258863 0.426071 0.233294
Si Si4 0.774873 0.323472 0.037754
Si Si5 0.291527 0.106291 0.518085
Si Si6 0.500000 0.500000 0.994279
Si Si7 0.969182 0.103990 0.617958
O O1 0.592382 0.050061 0.227261
O O2 0.383729 0.042580 0.527929
O O3 0.317555 0.362932 0.107835
O O4 0.596283 0.312816 0.073018
O O5 0.352853 0.242964 0.022352
O O6 0.439160 0.327865 0.712200
O O7 0.316964 0.418707 0.504197
O O8 0.354532 0.483479 0.138635
O O9 0.838440 0.356136 0.278366
O O10 0.798764 0.358819 0.778893
O O11 0.115246 0.097664 0.459941
O O12 0.482604 0.560018 0.833922
#
# Coordination Sequence:
#
# PCOD9343851 Si02
#       7
#     2   4   4   4   4   2   4
#     4  12  28  42  70 110 152 192 246 308 362 446
#     4  10  25  44  73 104 136 192 241 304 362 438
#     4  11  23  43  67 101 145 188 243 298 368 428
#     4  11  26  47  75 103 146 186 246 300 366 436
#     4  11  26  47  70 105 144 192 235 303 365 429
#     4  10  20  38  70  94 134 190 234 298 352 444
#     4  10  21  44  68  98 133 192 244 289 370 431
#
# _framework density 22.148675999999998
#
# number of rings (size 3 to 8) (size 9 to 14) (size 15 to 20)
#    0.000    1.333    1.667    2.500    9.333    2.000 
#    3.000    0.000    0.000    0.000    0.000    0.000 
#    0.000    0.000    0.000    0.000    0.000    0.000 
#
# Total GULP energy -133751.594030 kJ/mol
# GULP energy per Si atom -5572.983085 kJ/mol
# Density = 2.209826 g / cm^3
# Si number density = 22.148676 Si / 1000 Ang^3
#
#
#
# Elastic Constant Matrix: (Units=GPa)
#
#
# Indices 1 2 3 4 5 6 
#
# 1 109.5437 64.7922 25.5897 0.0000 0.0000 0.0000
# 2 64.7922 145.9542 52.3605 0.0000 0.0000 0.0000
# 3 25.5897 52.3605 73.5771 0.0000 0.0000 0.0000
# 4 0.0000 0.0000 0.0000 30.4167 0.0000 0.0000
# 5 0.0000 0.0000 0.0000 0.0000 -48.1212 0.0000
# 6 0.0000 0.0000 0.0000 0.0000 0.0000 44.1430
#
#
#
# Elastic Compliance Matrix: (Units=1/GPa)
#
#
# Indices 1 2 3 4 5 6 
#
# 1 0.012395 -0.005312 -0.000531 0.000000 0.000000 0.000000
# 2 -0.005312 0.011477 -0.006320 0.000000 0.000000 0.000000
# 3 -0.000531 -0.006320 0.018273 0.000000 0.000000 0.000000
# 4 0.000000 0.000000 0.000000 0.032877 0.000000 0.000000
# 5 0.000000 0.000000 0.000000 0.000000 -0.020781 0.000000
# 6 0.000000 0.000000 0.000000 0.000000 0.000000 0.022654
#
#
# Mechanical properties :
#
#
# Convention : Reuss Voigt Hill
#
# Bulk Modulus (GPa) = 56.11735 68.28442 62.20089
# Shear Modulus (GPa) = 46.65978 17.70987 32.18483
#
# Velocity S-wave (km/s) = 4.59482 2.83077 3.81613
# Velocity P-wave (km/s) = 7.31720 6.44836 6.89648
#
# Compressibility (1/GPa) = 0.01781980
#
# Stress axis : x y z
#
# Youngs Moduli (GPa) = 80.68057 87.13263 54.72480
#
# Poissons Ratio (x) = 0.46284 0.02904
# Poissons Ratio (y) = 0.42856 0.34586
# Poissons Ratio (z) = 0.04281 0.55067
#
# Static dielectric constant tensor:
#      x y z
#    x 1.937240 0.000000 0.000000 
#    y 0.000000 1.807290 0.000000 
#    z 0.000000 0.000000 1.922340 
# 
# From -- ./inp_files/505.got.cif
#   From: 2010.05.17/outbox.cif.g08.bks.cpg/sg32_1_cif.got.tgz:505.got - 2010.06.03 17:12:27.
