data_PCOD9343086
_publ_section_title
;
Structure prediction by ZEFSAII (Michael W. Deem and Ramdas Pophale) SiO2 
 PCOD9343086
Probable space group: P M N 21
;
_chemical_formula_sum "Si O2"
_cell_formula_units_Z 32
_cell_length_a 8.373371
_cell_length_b 11.725949
_cell_length_c 16.431785
_cell_angle_alpha 90.000000
_cell_angle_beta 90.000000
_cell_angle_gamma 90.000000
_cell_volume 1613.366663
_symmetry_space_group_name_H-M "P M N 21"
_symmetry_group_IT_number 31
_symmetry_cell_setting 'orthorhombic'
loop_
_space_group_symop_operation_xyz
x,y,z
1/2-x,-y,1/2+z
-x,y,z
1/2+x,-y,1/2+z
loop_
_atom_site_type_symbol
_atom_site_label
_atom_site_fract_x
_atom_site_fract_y
_atom_site_fract_z
Si Si1 0.191704 0.584894 0.363600
Si Si2 0.183276 0.078800 0.335825
Si Si3 0.304104 0.049945 0.066502
Si Si4 0.687068 0.222855 0.200273
Si Si5 0.316474 0.815381 0.015756
Si Si6 0.805462 0.843631 0.393654
Si Si7 0.812356 0.563649 0.018021
Si Si8 0.691869 0.479351 0.193491
O O1 0.248979 0.715839 0.375536
O O2 0.246782 0.505913 0.439542
O O3 0.245187 0.541274 0.274759
O O4 0.000000 0.585284 0.365649
O O5 0.289915 0.166667 0.287299
O O6 0.178792 0.122224 0.428424
O O7 0.000000 0.083191 0.305732
O O8 0.242453 0.948026 0.334732
O O9 0.500000 0.044027 0.066939
O O10 0.245285 0.130251 0.138170
O O11 0.250833 0.918311 0.071527
O O12 0.257835 0.113881 0.983348
O O13 0.500000 0.233961 0.180415
O O14 0.754798 0.349190 0.196071
O O15 0.500000 0.787489 0.038952
O O16 0.222628 0.698293 0.009587
O O17 0.000000 0.843147 0.392153
O O18 0.738787 0.527911 0.105209
O O19 0.000000 0.542886 0.021325
O O20 0.500000 0.480070 0.199269
#
# Coordination Sequence:
#
# PCOD9343086 Si02
#       8
#     4   4   4   4   4   4   4   4
#     4  11  22  39  63  88 119 157 195 239 291 343
#     4   9  18  33  55  81 108 140 179 224 276 338
#     4   8  15  31  55  80 103 134 180 228 278 339
#     4  10  20  34  54  79 107 140 179 228 284 336
#     4   9  18  35  58  80 105 141 184 229 281 339
#     4   8  16  33  56  80 107 142 183 226 277 336
#     4  12  25  40  59  85 119 157 198 241 287 343
#     4  11  24  41  60  85 118 155 198 243 288 344
#
# _framework density 19.834302000000001
#
# number of rings (size 3 to 8) (size 9 to 14) (size 15 to 20)
#    0.000    2.250    0.000    4.875    0.000    6.500 
#    0.000    4.375    0.000    3.750    0.000    0.000 
#    0.000    0.000    0.000    0.000    0.000    0.000 
#
# Total GULP energy -178410.330945 kJ/mol
# GULP energy per Si atom -5575.322842 kJ/mol
# Density = 1.978916 g / cm^3
# Si number density = 19.834302 Si / 1000 Ang^3
#
#
#
# Elastic Constant Matrix: (Units=GPa)
#
#
# Indices 1 2 3 4 5 6 
#
# 1 28.0198 18.9124 12.1949 0.0000 0.0000 0.0000
# 2 18.9124 158.6584 45.1733 0.0000 0.0000 0.0000
# 3 12.1949 45.1733 76.9991 0.0000 0.0000 0.0000
# 4 0.0000 0.0000 0.0000 28.0352 0.0000 0.0000
# 5 0.0000 0.0000 0.0000 0.0000 27.6558 0.0000
# 6 0.0000 0.0000 0.0000 0.0000 0.0000 17.4803
#
#
#
# Elastic Compliance Matrix: (Units=1/GPa)
#
#
# Indices 1 2 3 4 5 6 
#
# 1 0.039932 -0.003553 -0.004240 0.000000 0.000000 0.000000
# 2 -0.003553 0.007883 -0.004062 0.000000 0.000000 0.000000
# 3 -0.004240 -0.004062 0.016042 0.000000 0.000000 0.000000
# 4 0.000000 0.000000 0.000000 0.035669 0.000000 0.000000
# 5 0.000000 0.000000 0.000000 0.000000 0.036159 0.000000
# 6 0.000000 0.000000 0.000000 0.000000 0.000000 0.057207
#
#
# Mechanical properties :
#
#
# Convention : Reuss Voigt Hill
#
# Bulk Modulus (GPa) = 24.90823 46.24873 35.57848
# Shear Modulus (GPa) = 21.74056 27.12737 24.43396
#
# Velocity S-wave (km/s) = 3.31435 3.70225 3.51366
# Velocity P-wave (km/s) = 5.21842 6.45320 5.86838
#
# Compressibility (1/GPa) = 0.04014737
#
# Stress axis : x y z
#
# Youngs Moduli (GPa) = 25.04229 126.85719 62.33734
#
# Poissons Ratio (x) = 0.45070 0.26431
# Poissons Ratio (y) = 0.08897 0.25321
# Poissons Ratio (z) = 0.10618 0.51529
#
# Static dielectric constant tensor:
#      x y z
#    x 1.723810 0.000000 0.000000 
#    y 0.000000 1.714200 0.000000 
#    z 0.000000 0.000000 1.698170 
# 
# From -- ./inp_files/4932.got.cif
#   From: 2010.05.17/outbox.cif.g08.bks.cpg/sg31_3_cif.got.tgz:4932.got - 2010.06.03 17:08:30.
