data_PCOD9343995
_publ_section_title
;
Structure prediction by ZEFSAII (Michael W. Deem and Ramdas Pophale) SiO2 
 PCOD9343995
Probable space group: P B A 2
;
_chemical_formula_sum "Si O2"
_cell_formula_units_Z 32
_cell_length_a 16.370144
_cell_length_b 8.423668
_cell_length_c 10.728841
_cell_angle_alpha 90.000000
_cell_angle_beta 90.000000
_cell_angle_gamma 90.000000
_cell_volume 1479.471320
_symmetry_space_group_name_H-M "P B A 2"
_symmetry_group_IT_number 32
_symmetry_cell_setting 'orthorhombic'
loop_
_space_group_symop_operation_xyz
x,y,z
-x,-y,z
1/2-x,1/2+y,z
1/2+x,1/2-y,z
loop_
_atom_site_type_symbol
_atom_site_label
_atom_site_fract_x
_atom_site_fract_y
_atom_site_fract_z
Si Si1 0.424233 0.882054 0.858760
Si Si2 0.845679 0.444944 0.663355
Si Si3 0.059770 0.137876 0.633233
Si Si4 0.692141 0.330505 0.257455
Si Si5 0.961843 0.339778 0.461684
Si Si6 0.864255 0.197036 0.234328
Si Si7 0.712658 0.268258 0.546699
Si Si8 0.533717 0.180777 0.131625
O O1 0.351847 0.993561 0.804085
O O2 0.434516 0.754947 0.749646
O O3 0.500000 0.000000 0.860242
O O4 0.426215 0.804221 0.993936
O O5 0.928592 0.390983 0.597106
O O6 0.790038 0.297066 0.632257
O O7 0.819427 0.593648 0.577573
O O8 0.028488 0.212272 0.502440
O O9 0.151658 0.096262 0.599225
O O10 0.000000 0.000000 0.667083
O O11 0.780820 0.290559 0.192762
O O12 0.664222 0.513714 0.242784
O O13 0.715444 0.292273 0.400335
O O14 0.611269 0.228262 0.218711
O O15 0.896099 0.265838 0.368157
O O16 0.000000 0.500000 0.406640
O O17 0.949378 0.219096 0.155181
O O18 0.500000 0.000000 0.141935
#
# Coordination Sequence:
#
# PCOD9343995 Si02
#       8
#     4   4   4   4   4   4   4   4
#     4  10  21  45  67  90 125 181 231 284 341 411
#     4  11  22  39  65  96 135 173 218 288 353 422
#     4  11  22  36  62  96 127 172 222 283 346 414
#     4  12  25  45  66 105 150 179 241 299 372 433
#     4  12  21  40  67  92 136 175 229 280 367 430
#     4  12  26  41  71 101 136 189 227 303 362 449
#     4  11  23  37  61  97 135 169 213 281 359 425
#     4  11  26  46  71  95 138 195 252 288 356 430
#
# _framework density 21.629346999999999
#
# number of rings (size 3 to 8) (size 9 to 14) (size 15 to 20)
#    0.000    0.750    5.000    3.750    3.500    1.000 
#    0.000    8.750    0.000    0.000    0.000    0.000 
#    0.000    0.000    0.000    0.000    0.000    0.000 
#
# Total GULP energy -178295.641112 kJ/mol
# GULP energy per Si atom -5571.738785 kJ/mol
# Density = 2.158012 g / cm^3
# Si number density = 21.629347 Si / 1000 Ang^3
#
#
#
# Elastic Constant Matrix: (Units=GPa)
#
#
# Indices 1 2 3 4 5 6 
#
# 1 112.9478 20.2042 32.4201 0.0000 0.0000 0.0000
# 2 20.2042 63.9145 10.2326 0.0000 0.0000 0.0000
# 3 32.4201 10.2326 113.5657 0.0000 0.0000 0.0000
# 4 0.0000 0.0000 0.0000 7.1129 0.0000 0.0000
# 5 0.0000 0.0000 0.0000 0.0000 16.5250 0.0000
# 6 0.0000 0.0000 0.0000 0.0000 0.0000 35.2533
#
#
#
# Elastic Compliance Matrix: (Units=1/GPa)
#
#
# Indices 1 2 3 4 5 6 
#
# 1 0.010106 -0.002773 -0.002635 0.000000 0.000000 0.000000
# 2 -0.002773 0.016636 -0.000707 0.000000 0.000000 0.000000
# 3 -0.002635 -0.000707 0.009621 0.000000 0.000000 0.000000
# 4 0.000000 0.000000 0.000000 0.140590 0.000000 0.000000
# 5 0.000000 0.000000 0.000000 0.000000 0.060514 0.000000
# 6 0.000000 0.000000 0.000000 0.000000 0.000000 0.028366
#
#
# Mechanical properties :
#
#
# Convention : Reuss Voigt Hill
#
# Bulk Modulus (GPa) = 41.43779 46.23799 43.83789
# Shear Modulus (GPa) = 17.47587 26.94963 22.21275
#
# Velocity S-wave (km/s) = 2.84557 3.53367 3.20812
# Velocity P-wave (km/s) = 5.47686 6.17032 5.83391
#
# Compressibility (1/GPa) = 0.02413256
#
# Stress axis : x y z
#
# Youngs Moduli (GPa) = 98.95081 60.11181 103.93398
#
# Poissons Ratio (x) = 0.16668 0.27389
# Poissons Ratio (y) = 0.27437 0.07352
# Poissons Ratio (z) = 0.26075 0.04252
#
# Static dielectric constant tensor:
#      x y z
#    x 1.661940 0.000000 0.000000 
#    y 0.000000 1.857110 0.000000 
#    z 0.000000 0.000000 1.808160 
# 
# From -- ./inp_files/3941.got.cif
#   From: 2010.05.17/outbox.cif.g08.bks.cpg/sg32_2_cif.got.tgz:3941.got - 2010.06.03 17:12:27.
