data_PCOD9343412
_publ_section_title
;
Structure prediction by ZEFSAII (Michael W. Deem and Ramdas Pophale) SiO2 
 PCOD9343412
Probable space group: P M N 21
;
_chemical_formula_sum "Si O2"
_cell_formula_units_Z 16
_cell_length_a 23.746891
_cell_length_b 5.338619
_cell_length_c 4.765476
_cell_angle_alpha 90.000000
_cell_angle_beta 90.000000
_cell_angle_gamma 90.000000
_cell_volume 604.146096
_symmetry_space_group_name_H-M "P M N 21"
_symmetry_group_IT_number 31
_symmetry_cell_setting 'orthorhombic'
loop_
_space_group_symop_operation_xyz
x,y,z
1/2-x,-y,1/2+z
-x,y,z
1/2+x,-y,1/2+z
loop_
_atom_site_type_symbol
_atom_site_label
_atom_site_fract_x
_atom_site_fract_y
_atom_site_fract_z
Si Si1 0.500000 0.646243 0.970630
Si Si2 0.713048 0.994238 0.645277
Si Si3 0.618596 0.639822 0.809357
Si Si4 0.881491 0.704918 0.816055
Si Si5 0.500000 0.286853 0.466980
O O1 0.559654 0.767977 0.896307
O O2 0.500000 0.387764 0.783055
O O3 0.500000 0.542954 0.282788
O O4 0.670848 0.158146 0.455793
O O5 0.751681 0.875873 0.396793
O O6 0.674044 0.804019 0.820426
O O7 0.614433 0.553356 0.490104
O O8 0.623627 0.388998 0.999057
O O9 0.941123 0.838563 0.882642
#
# Coordination Sequence:
#
# PCOD9343412 Si02
#       5
#     2   4   4   4   2
#     4   8  16  33  60  91 118 152 203 257 323 393
#     4  12  26  41  60  91 128 172 226 262 304 388
#     4  10  21  40  64  90 124 163 206 266 327 377
#     4  10  21  40  64  90 124 163 206 266 327 377
#     4   8  16  33  60  91 118 152 203 257 323 393
#
# _framework density 26.483658999999999
#
# number of rings (size 3 to 8) (size 9 to 14) (size 15 to 20)
#    0.000    2.000    0.000    3.000    0.000    5.000 
#    0.000    0.000    0.000   21.000    0.000    0.000 
#    0.000    0.000    0.000    0.000    0.000    0.000 
#
# Total GULP energy -89448.335596 kJ/mol
# GULP energy per Si atom -5590.520975 kJ/mol
# Density = 2.642338 g / cm^3
# Si number density = 26.483659 Si / 1000 Ang^3
#
#
#
# Elastic Constant Matrix: (Units=GPa)
#
#
# Indices 1 2 3 4 5 6 
#
# 1 195.9671 35.4388 48.6227 0.0000 0.0000 0.0000
# 2 35.4388 43.1264 15.8162 0.0000 0.0000 0.0000
# 3 48.6227 15.8162 106.7763 0.0000 0.0000 0.0000
# 4 0.0000 0.0000 0.0000 47.2821 0.0000 0.0000
# 5 0.0000 0.0000 0.0000 0.0000 87.1019 0.0000
# 6 0.0000 0.0000 0.0000 0.0000 0.0000 46.1526
#
#
#
# Elastic Compliance Matrix: (Units=1/GPa)
#
#
# Indices 1 2 3 4 5 6 
#
# 1 0.006482 -0.004488 -0.002287 0.000000 0.000000 0.000000
# 2 -0.004488 0.027627 -0.002049 0.000000 0.000000 0.000000
# 3 -0.002287 -0.002049 0.010710 0.000000 0.000000 0.000000
# 4 0.000000 0.000000 0.000000 0.021150 0.000000 0.000000
# 5 0.000000 0.000000 0.000000 0.000000 0.011481 0.000000
# 6 0.000000 0.000000 0.000000 0.000000 0.000000 0.021667
#
#
# Mechanical properties :
#
#
# Convention : Reuss Voigt Hill
#
# Bulk Modulus (GPa) = 36.80216 60.62501 48.71359
# Shear Modulus (GPa) = 39.73914 52.50679 46.12297
#
# Velocity S-wave (km/s) = 3.87785 4.45748 4.17773
# Velocity P-wave (km/s) = 5.82895 7.03089 6.45794
#
# Compressibility (1/GPa) = 0.02717232
#
# Stress axis : x y z
#
# Youngs Moduli (GPa) = 154.27615 36.19679 93.36882
#
# Poissons Ratio (x) = 0.16244 0.21353
# Poissons Ratio (y) = 0.69235 0.19128
# Poissons Ratio (z) = 0.35282 0.07415
#
# Static dielectric constant tensor:
#      x y z
#    x 2.203190 0.000000 0.000000 
#    y 0.000000 2.076170 0.000000 
#    z 0.000000 0.000000 1.960640 
# 
# From -- ./inp_files/922.got.cif
#   From: 2010.05.17/outbox.cif.g08.bks.cpg/sg31_1_cif.got.tgz:922.got - 2010.06.03 17:08:30.
