data_PCOD9343770
_publ_section_title
;
Structure prediction by ZEFSAII (Michael W. Deem and Ramdas Pophale) SiO2 
 PCOD9343770
Probable space group: P B A 2
;
_chemical_formula_sum "Si O2"
_cell_formula_units_Z 30
_cell_length_a 11.073899
_cell_length_b 13.232330
_cell_length_c 9.164467
_cell_angle_alpha 90.000000
_cell_angle_beta 90.000000
_cell_angle_gamma 90.000000
_cell_volume 1342.901296
_symmetry_space_group_name_H-M "P B A 2"
_symmetry_group_IT_number 32
_symmetry_cell_setting 'orthorhombic'
loop_
_space_group_symop_operation_xyz
x,y,z
-x,-y,z
1/2-x,1/2+y,z
1/2+x,1/2-y,z
loop_
_atom_site_type_symbol
_atom_site_label
_atom_site_fract_x
_atom_site_fract_y
_atom_site_fract_z
Si Si1 0.395013 0.575892 0.935560
Si Si2 0.699096 0.334472 0.467240
Si Si3 0.500000 0.500000 0.399754
Si Si4 0.913167 0.671604 0.270650
Si Si5 0.062779 0.845557 0.171196
Si Si6 0.541401 0.897829 0.549464
Si Si7 0.110799 0.272650 0.740393
Si Si8 0.715575 0.091842 0.992286
O O1 0.500000 0.500000 0.881443
O O2 0.395597 0.672093 0.834657
O O3 0.268912 0.518015 0.953999
O O4 0.442236 0.612265 0.092770
O O5 0.590279 0.418130 0.474275
O O6 0.678226 0.260590 0.327707
O O7 0.825199 0.390903 0.485559
O O8 0.692548 0.257813 0.603383
O O9 0.415913 0.425695 0.300600
O O10 0.031518 0.735494 0.226520
O O11 0.949655 0.610283 0.413067
O O12 0.869803 0.606268 0.133452
O O13 0.165453 0.848905 0.050040
O O14 0.512544 0.808510 0.663206
O O15 0.500000 0.000000 0.627081
O O16 0.160617 0.357161 0.849645
#
# Coordination Sequence:
#
# PCOD9343770 Si02
#       8
#     4   4   2   4   4   4   4   4
#     4  10  22  40  67 102 133 181 240 297 361 443
#     4  10  25  44  71 100 143 193 243 297 363 441
#     4  10  20  42  72 102 130 180 252 296 352 438
#     4  10  22  43  67 103 136 189 232 304 371 424
#     4  10  19  39  65 102 137 169 237 305 354 428
#     4  11  27  48  65 100 151 192 240 299 366 443
#     4  11  26  46  67 102 144 190 243 302 369 440
#     4  11  22  39  74 101 139 184 241 304 366 434
#
# _framework density 22.339689
#
# number of rings (size 3 to 8) (size 9 to 14) (size 15 to 20)
#    0.000    1.600    3.333    0.800    8.400    0.000 
#    7.200    0.667    0.000    0.000    0.000    0.000 
#    0.000    0.000    0.000    0.000    0.000    0.000 
#
# Total GULP energy -167393.135537 kJ/mol
# GULP energy per Si atom -5579.771185 kJ/mol
# Density = 2.228884 g / cm^3
# Si number density = 22.339689 Si / 1000 Ang^3
#
#
#
# Elastic Constant Matrix: (Units=GPa)
#
#
# Indices 1 2 3 4 5 6 
#
# 1 77.7091 18.7381 33.8333 0.0000 0.0000 0.0000
# 2 18.7381 73.0911 34.1184 0.0000 0.0000 0.0000
# 3 33.8333 34.1184 92.6602 0.0000 0.0000 0.0000
# 4 0.0000 0.0000 0.0000 37.6131 0.0000 0.0000
# 5 0.0000 0.0000 0.0000 0.0000 18.5698 0.0000
# 6 0.0000 0.0000 0.0000 0.0000 0.0000 22.2492
#
#
#
# Elastic Compliance Matrix: (Units=1/GPa)
#
#
# Indices 1 2 3 4 5 6 
#
# 1 0.015455 -0.001604 -0.005053 0.000000 0.000000 0.000000
# 2 -0.001604 0.016688 -0.005559 0.000000 0.000000 0.000000
# 3 -0.005053 -0.005559 0.014684 0.000000 0.000000 0.000000
# 4 0.000000 0.000000 0.000000 0.026587 0.000000 0.000000
# 5 0.000000 0.000000 0.000000 0.000000 0.053851 0.000000
# 6 0.000000 0.000000 0.000000 0.000000 0.000000 0.044946
#
#
# Mechanical properties :
#
#
# Convention : Reuss Voigt Hill
#
# Bulk Modulus (GPa) = 44.65095 46.31556 45.48326
# Shear Modulus (GPa) = 24.49716 26.13777 25.31747
#
# Velocity S-wave (km/s) = 3.31505 3.42426 3.37010
# Velocity P-wave (km/s) = 5.88926 6.03419 5.96217
#
# Compressibility (1/GPa) = 0.02239594
#
# Stress axis : x y z
#
# Youngs Moduli (GPa) = 64.70378 59.92483 68.10179
#
# Poissons Ratio (x) = 0.09610 0.34410
# Poissons Ratio (y) = 0.10376 0.37858
# Poissons Ratio (z) = 0.32693 0.33312
#
# Static dielectric constant tensor:
#      x y z
#    x 1.868050 0.000000 0.000000 
#    y 0.000000 1.866310 0.000000 
#    z 0.000000 0.000000 1.858840 
# 
# From -- ./inp_files/2846.got.cif
#   From: 2010.05.17/outbox.cif.g08.bks.cpg/sg32_2_cif.got.tgz:2846.got - 2010.06.03 17:12:27.
