data_PCOD9343117
_publ_section_title
;
Structure prediction by ZEFSAII (Michael W. Deem and Ramdas Pophale) SiO2 
 PCOD9343117
Probable space group: P M N 21
;
_chemical_formula_sum "Si O2"
_cell_formula_units_Z 32
_cell_length_a 7.405751
_cell_length_b 11.133647
_cell_length_c 14.443615
_cell_angle_alpha 90.000000
_cell_angle_beta 90.000000
_cell_angle_gamma 90.000000
_cell_volume 1190.919639
_symmetry_space_group_name_H-M "P M N 21"
_symmetry_group_IT_number 31
_symmetry_cell_setting 'orthorhombic'
loop_
_space_group_symop_operation_xyz
x,y,z
1/2-x,-y,1/2+z
-x,y,z
1/2+x,-y,1/2+z
loop_
_atom_site_type_symbol
_atom_site_label
_atom_site_fract_x
_atom_site_fract_y
_atom_site_fract_z
Si Si1 0.718128 0.968517 0.119270
Si Si2 0.217313 0.565381 0.273138
Si Si3 0.279138 0.937731 0.901710
Si Si4 0.721744 0.572910 0.943263
Si Si5 0.281044 0.197477 0.884257
Si Si6 0.789107 0.285242 0.607249
Si Si7 0.712869 0.339373 0.054989
Si Si8 0.297599 0.794542 0.734240
O O1 0.500000 0.985644 0.125326
O O2 0.781283 0.836291 0.154381
O O3 0.795325 0.081567 0.174126
O O4 0.764650 0.952606 0.010095
O O5 0.278760 0.456212 0.338497
O O6 0.276749 0.687654 0.325619
O O7 0.275677 0.595748 0.169791
O O8 0.000000 0.561815 0.271529
O O9 0.500000 0.931064 0.899546
O O10 0.212880 0.833622 0.832341
O O11 0.219115 0.065407 0.858308
O O12 0.500000 0.576619 0.942304
O O13 0.783100 0.684174 0.005414
O O14 0.783428 0.458001 0.004444
O O15 0.500000 0.195229 0.880846
O O16 0.226973 0.228938 0.989901
O O17 0.000000 0.260176 0.594890
O O18 0.500000 0.348578 0.042076
O O19 0.738472 0.306994 0.161624
O O20 0.500000 0.758051 0.757435
#
# Coordination Sequence:
#
# PCOD9343117 Si02
#       8
#     4   4   4   4   4   4   4   4
#     4  10  20  36  56  75 105 148 182 208 256 326
#     4   9  17  32  56  81 100 135 184 222 262 316
#     4   9  17  30  48  72 102 138 170 202 255 317
#     4   8  17  35  57  78 102 140 184 216 255 320
#     4   8  13  26  51  72  91 127 175 211 239 302
#     4  10  20  35  55  81 109 138 178 226 264 306
#     4   9  16  32  56  72  94 135 178 212 254 315
#     4  11  21  32  51  81 111 133 169 225 269 306
#
# _framework density 26.869990000000001
#
# number of rings (size 3 to 8) (size 9 to 14) (size 15 to 20)
#    0.000    2.750    1.250    2.625    0.000    1.500 
#    2.250    5.000    0.000    0.000    0.000    0.000 
#    0.000    0.000    0.000    0.000    0.000    0.000 
#
# Total GULP energy -178712.138803 kJ/mol
# GULP energy per Si atom -5584.754338 kJ/mol
# Density = 2.680883 g / cm^3
# Si number density = 26.869990 Si / 1000 Ang^3
#
#
#
# Elastic Constant Matrix: (Units=GPa)
#
#
# Indices 1 2 3 4 5 6 
#
# 1 84.5978 -3.7450 -10.3607 0.0000 0.0000 0.0000
# 2 -3.7450 85.5936 34.8586 0.0000 0.0000 0.0000
# 3 -10.3607 34.8586 157.6589 0.0000 0.0000 0.0000
# 4 0.0000 0.0000 0.0000 57.6497 0.0000 0.0000
# 5 0.0000 0.0000 0.0000 0.0000 112.9188 0.0000
# 6 0.0000 0.0000 0.0000 0.0000 0.0000 -5.5891
#
#
#
# Elastic Compliance Matrix: (Units=1/GPa)
#
#
# Indices 1 2 3 4 5 6 
#
# 1 0.011920 0.000223 0.000734 0.000000 0.000000 0.000000
# 2 0.000223 0.012843 -0.002825 0.000000 0.000000 0.000000
# 3 0.000734 -0.002825 0.007016 0.000000 0.000000 0.000000
# 4 0.000000 0.000000 0.000000 0.017346 0.000000 0.000000
# 5 0.000000 0.000000 0.000000 0.000000 0.008856 0.000000
# 6 0.000000 0.000000 0.000000 0.000000 0.000000 -0.178921
#
#
# Mechanical properties :
#
#
# Convention : Reuss Voigt Hill
#
# Bulk Modulus (GPa) = 35.65980 41.03955 38.34967
# Shear Modulus (GPa) = -46.35853 53.46905 3.55526
#
# Velocity S-wave (km/s) = -4.15817 4.46569 1.15152
# Velocity P-wave (km/s) = 3.12310 6.47274 4.00890
#
# Compressibility (1/GPa) = 0.02804278
#
# Stress axis : x y z
#
# Youngs Moduli (GPa) = 83.88975 77.86110 142.53793
#
# Poissons Ratio (x) = -0.01733 -0.10464
# Poissons Ratio (y) = -0.01867 0.40268
# Poissons Ratio (z) = -0.06159 0.21996
#
# Static dielectric constant tensor:
#      x y z
#    x 2.002140 0.000000 0.000000 
#    y 0.000000 2.141730 0.000000 
#    z 0.000000 0.000000 2.152330 
# 
# From -- ./inp_files/5062.got.cif
#   From: 2010.05.17/outbox.cif.g08.bks.cpg/sg31_3_cif.got.tgz:5062.got - 2010.06.03 17:08:30.
