data_PCOD9343032
_publ_section_title
;
Structure prediction by ZEFSAII (Michael W. Deem and Ramdas Pophale) SiO2 
 PCOD9343032
Probable space group: P M N 21
;
_chemical_formula_sum "Si O2"
_cell_formula_units_Z 32
_cell_length_a 14.473890
_cell_length_b 9.277046
_cell_length_c 12.190651
_cell_angle_alpha 90.000000
_cell_angle_beta 90.000000
_cell_angle_gamma 90.000000
_cell_volume 1636.898972
_symmetry_space_group_name_H-M "P M N 21"
_symmetry_group_IT_number 31
_symmetry_cell_setting 'orthorhombic'
loop_
_space_group_symop_operation_xyz
x,y,z
1/2-x,-y,1/2+z
-x,y,z
1/2+x,-y,1/2+z
loop_
_atom_site_type_symbol
_atom_site_label
_atom_site_fract_x
_atom_site_fract_y
_atom_site_fract_z
Si Si1 0.132670 0.183574 0.590050
Si Si2 0.243328 0.842090 0.410625
Si Si3 0.603855 0.643120 0.309822
Si Si4 0.829322 0.869656 0.014169
Si Si5 0.892789 0.841689 0.607682
Si Si6 0.185320 0.673355 0.814238
Si Si7 0.599871 0.047397 0.739647
Si Si8 0.601629 0.731057 0.839790
O O1 0.101946 0.281423 0.690379
O O2 0.242351 0.195163 0.578822
O O3 0.098941 0.225989 0.468619
O O4 0.109199 0.016268 0.611986
O O5 0.322695 0.729079 0.383543
O O6 0.170622 0.798220 0.504534
O O7 0.182258 0.876875 0.304259
O O8 0.291180 0.990448 0.449958
O O9 0.500000 0.648840 0.355362
O O10 0.638746 0.480582 0.299225
O O11 0.895631 0.921793 0.110486
O O12 0.853983 0.752117 0.923254
O O13 0.844091 0.775312 0.713892
O O14 0.000000 0.796373 0.599545
O O15 0.297667 0.658616 0.822024
O O16 0.500000 0.096117 0.783504
O O17 0.607081 0.878316 0.768952
O O18 0.500000 0.662824 0.814794
#
# Coordination Sequence:
#
# PCOD9343032 Si02
#       8
#     4   4   4   4   4   4   4   4
#     4  10  19  37  66  95 123 159 210 267 324 381
#     4  11  22  40  65  94 127 161 210 267 325 373
#     4  12  26  42  61  89 131 179 218 258 316 384
#     4  10  21  39  68  91 127 165 206 265 324 371
#     4  11  21  38  67  98 124 159 213 272 320 375
#     4  11  24  41  61  90 131 174 219 261 310 375
#     4  11  20  36  66 102 128 157 202 261 328 386
#     4  10  19  37  66  97 127 162 210 267 329 385
#
# _framework density 19.549159
#
# number of rings (size 3 to 8) (size 9 to 14) (size 15 to 20)
#    0.000    1.250    5.000    4.125    0.000    3.500 
#    0.000    3.125    0.000    0.000    0.000    0.000 
#    0.000    0.000    0.000    0.000    0.000    0.000 
#
# Total GULP energy -178561.161464 kJ/mol
# GULP energy per Si atom -5580.036296 kJ/mol
# Density = 1.950466 g / cm^3
# Si number density = 19.549159 Si / 1000 Ang^3
#
#
#
# Elastic Constant Matrix: (Units=GPa)
#
#
# Indices 1 2 3 4 5 6 
#
# 1 132.2914 42.9268 49.3934 0.0000 0.0000 0.0000
# 2 42.9268 43.2370 37.8443 0.0000 0.0000 0.0000
# 3 49.3934 37.8443 109.1326 0.0000 0.0000 0.0000
# 4 0.0000 0.0000 0.0000 4.3512 0.0000 0.0000
# 5 0.0000 0.0000 0.0000 0.0000 -21.5766 0.0000
# 6 0.0000 0.0000 0.0000 0.0000 0.0000 35.3162
#
#
#
# Elastic Compliance Matrix: (Units=1/GPa)
#
#
# Indices 1 2 3 4 5 6 
#
# 1 0.011385 -0.009754 -0.001771 0.000000 0.000000 0.000000
# 2 -0.009754 0.041564 -0.009999 0.000000 0.000000 0.000000
# 3 -0.001771 -0.009999 0.013432 0.000000 0.000000 0.000000
# 4 0.000000 0.000000 0.000000 0.229820 0.000000 0.000000
# 5 0.000000 0.000000 0.000000 0.000000 -0.046346 0.000000
# 6 0.000000 0.000000 0.000000 0.000000 0.000000 0.028316
#
#
# Mechanical properties :
#
#
# Convention : Reuss Voigt Hill
#
# Bulk Modulus (GPa) = 42.85461 60.55443 51.70452
# Shear Modulus (GPa) = 15.19786 13.91793 14.55789
#
# Velocity S-wave (km/s) = 2.79125 2.67112 2.73185
# Velocity P-wave (km/s) = 5.68833 6.36835 6.03792
#
# Compressibility (1/GPa) = 0.02333471
#
# Stress axis : x y z
#
# Youngs Moduli (GPa) = 87.83418 24.05948 74.45017
#
# Poissons Ratio (x) = 0.23467 0.13182
# Poissons Ratio (y) = 0.85671 0.74440
# Poissons Ratio (z) = 0.15552 0.24056
#
# Static dielectric constant tensor:
#      x y z
#    x 1.716170 0.000000 0.000000 
#    y 0.000000 1.653260 0.000000 
#    z 0.000000 0.000000 1.695430 
# 
# From -- ./inp_files/4271.got.cif
#   From: 2010.05.17/outbox.cif.g08.bks.cpg/sg31_3_cif.got.tgz:4271.got - 2010.06.03 17:08:30.
