data_PCOD9343710
_publ_section_title
;
Structure prediction by ZEFSAII (Michael W. Deem and Ramdas Pophale) SiO2 
 PCOD9343710
Probable space group: P B A 2
;
_chemical_formula_sum "Si O2"
_cell_formula_units_Z 32
_cell_length_a 5.094907
_cell_length_b 15.649982
_cell_length_c 20.539843
_cell_angle_alpha 90.000000
_cell_angle_beta 90.000000
_cell_angle_gamma 90.000000
_cell_volume 1637.748548
_symmetry_space_group_name_H-M "P B A 2"
_symmetry_group_IT_number 32
_symmetry_cell_setting 'orthorhombic'
loop_
_space_group_symop_operation_xyz
x,y,z
-x,-y,z
1/2-x,1/2+y,z
1/2+x,1/2-y,z
loop_
_atom_site_type_symbol
_atom_site_label
_atom_site_fract_x
_atom_site_fract_y
_atom_site_fract_z
Si Si1 0.456407 0.305923 0.289650
Si Si2 0.585751 0.309786 0.150540
Si Si3 0.251215 0.061745 0.755390
Si Si4 0.248185 0.061323 0.038141
Si Si5 0.016757 0.102271 0.426481
Si Si6 0.423924 0.194409 0.646013
Si Si7 0.249983 0.062119 0.897021
Si Si8 0.988392 0.603042 0.509752
O O1 0.154470 0.275360 0.288685
O O2 0.556131 0.350495 0.222982
O O3 0.487825 0.356562 0.356126
O O4 0.301980 0.265359 0.144202
O O5 0.679302 0.376223 0.096783
O O6 0.317045 0.127045 0.698369
O O7 0.232587 0.107121 0.826667
O O8 0.500000 0.000000 0.758782
O O9 0.000000 0.000000 0.744437
O O10 0.500000 0.000000 0.048550
O O11 0.268393 0.107786 0.967183
O O12 0.000000 0.000000 0.032691
O O13 0.298383 0.124943 0.455264
O O14 0.793844 0.126511 0.479440
O O15 0.000000 0.000000 0.420005
O O16 0.722099 0.226879 0.653422
O O17 0.427450 0.150981 0.575061
O O18 0.500000 0.000000 0.896603
O O19 0.000000 0.000000 0.897070
O O20 0.000000 0.500000 0.521076
#
# Coordination Sequence:
#
# PCOD9343710 Si02
#       8
#     4   4   4   4   4   4   4   4
#     4  10  21  36  55  76 106 144 178 213 266 331
#     4  10  21  37  53  78 114 150 182 218 272 336
#     4  10  20  38  61  80 107 152 190 221 272 338
#     4  10  19  34  57  84 110 142 188 237 273 316
#     4  10  21  37  57  81 104 132 179 231 267 312
#     4  12  25  38  55  85 116 141 178 232 276 318
#     4   8  16  31  54  81 106 138 186 230 268 321
#     4  10  22  39  57  77 106 143 179 216 270 334
#
# _framework density 19.539017999999999
#
# number of rings (size 3 to 8) (size 9 to 14) (size 15 to 20)
#    0.000    2.000    0.000    3.375    0.000    5.000 
#    0.000    3.125    0.000    0.000    0.000    0.000 
#    0.000    0.000    0.000    0.000    0.000    0.000 
#
# Total GULP energy -178319.411235 kJ/mol
# GULP energy per Si atom -5572.481601 kJ/mol
# Density = 1.949455 g / cm^3
# Si number density = 19.539018 Si / 1000 Ang^3
#
#
#
# Elastic Constant Matrix: (Units=GPa)
#
#
# Indices 1 2 3 4 5 6 
#
# 1 94.4334 1.3126 -10.5195 0.0000 0.0000 0.0000
# 2 1.3126 24.9236 41.0869 0.0000 0.0000 0.0000
# 3 -10.5195 41.0869 148.5606 0.0000 0.0000 0.0000
# 4 0.0000 0.0000 0.0000 131.2008 0.0000 0.0000
# 5 0.0000 0.0000 0.0000 0.0000 37.0882 0.0000
# 6 0.0000 0.0000 0.0000 0.0000 0.0000 20.0402
#
#
#
# Elastic Compliance Matrix: (Units=1/GPa)
#
#
# Indices 1 2 3 4 5 6 
#
# 1 0.010826 -0.003370 0.001699 0.000000 0.000000 0.000000
# 2 -0.003370 0.074794 -0.020924 0.000000 0.000000 0.000000
# 3 0.001699 -0.020924 0.012638 0.000000 0.000000 0.000000
# 4 0.000000 0.000000 0.000000 0.007622 0.000000 0.000000
# 5 0.000000 0.000000 0.000000 0.000000 0.026963 0.000000
# 6 0.000000 0.000000 0.000000 0.000000 0.000000 0.049900
#
#
# Mechanical properties :
#
#
# Convention : Reuss Voigt Hill
#
# Bulk Modulus (GPa) = 18.84443 36.85308 27.84875
# Shear Modulus (GPa) = 20.35641 53.40168 36.87904
#
# Velocity S-wave (km/s) = 3.23125 5.23356 4.34920
# Velocity P-wave (km/s) = 4.85662 7.44462 6.28526
#
# Compressibility (1/GPa) = 0.05306608
#
# Stress axis : x y z
#
# Youngs Moduli (GPa) = 92.37409 13.37006 79.12345
#
# Poissons Ratio (x) = 0.04506 -0.13441
# Poissons Ratio (y) = 0.31135 1.65559
# Poissons Ratio (z) = -0.15692 0.27976
#
# Static dielectric constant tensor:
#      x y z
#    x 1.647430 0.000000 0.000000 
#    y 0.000000 1.661570 0.000000 
#    z 0.000000 0.000000 1.753480 
# 
# From -- ./inp_files/4226.got.cif
#   From: 2010.05.17/outbox.cif.g08.bks.cpg/sg32_3_cif.got.tgz:4226.got - 2010.06.03 17:12:27.
