data_PCOD9343333
_publ_section_title
;
Structure prediction by ZEFSAII (Michael W. Deem and Ramdas Pophale) SiO2 
 PCOD9343333
Probable space group: P M N 21
;
_chemical_formula_sum "Si O2"
_cell_formula_units_Z 28
_cell_length_a 11.145165
_cell_length_b 16.241009
_cell_length_c 7.487662
_cell_angle_alpha 90.000000
_cell_angle_beta 90.000000
_cell_angle_gamma 90.000000
_cell_volume 1355.332152
_symmetry_space_group_name_H-M "P M N 21"
_symmetry_group_IT_number 31
_symmetry_cell_setting 'orthorhombic'
loop_
_space_group_symop_operation_xyz
x,y,z
1/2-x,-y,1/2+z
-x,y,z
1/2+x,-y,1/2+z
loop_
_atom_site_type_symbol
_atom_site_label
_atom_site_fract_x
_atom_site_fract_y
_atom_site_fract_z
Si Si1 0.367184 0.511298 0.622390
Si Si2 0.629687 0.037937 0.908315
Si Si3 0.693608 0.101735 0.536561
Si Si4 0.634087 0.583129 0.231289
Si Si5 0.136371 0.302930 0.237683
Si Si6 0.134734 0.808016 0.672777
Si Si7 0.367905 0.760053 0.146121
O O1 0.500000 0.478788 0.677247
O O2 0.373862 0.535441 0.416064
O O3 0.253332 0.452287 0.641768
O O4 0.347000 0.599035 0.719777
O O5 0.500000 0.003684 0.964298
O O6 0.624651 0.059991 0.699495
O O7 0.650242 0.118994 0.028633
O O8 0.728108 0.969500 0.945473
O O9 0.635801 0.150856 0.371175
O O10 0.774164 0.167785 0.642767
O O11 0.500000 0.575530 0.144333
O O12 0.653640 0.680097 0.266323
O O13 0.251446 0.253525 0.161480
O O14 0.133726 0.277310 0.445500
O O15 0.000000 0.284129 0.166904
O O16 0.000000 0.771687 0.645582
O O17 0.500000 0.792811 0.185471
#
# Coordination Sequence:
#
# PCOD9343333 Si02
#       7
#     4   4   4   4   4   4   4
#     4  10  21  37  59  88 119 155 200 244 291 355
#     4  11  23  39  59  87 121 156 203 251 303 366
#     4  11  21  40  62  87 119 164 202 250 306 364
#     4  10  21  37  58  86 119 154 197 246 296 352
#     4   9  19  37  60  85 116 153 195 240 294 357
#     4  10  22  40  59  88 124 158 200 252 304 357
#     4   9  19  36  59  85 115 152 196 247 297 355
#
# _framework density 20.659141999999999
#
# number of rings (size 3 to 8) (size 9 to 14) (size 15 to 20)
#    0.000    2.000    1.429    1.714    2.000    2.857 
#    0.000    5.714    0.000    0.000    0.000    0.000 
#    0.000    0.000    0.000    0.000    0.000    0.000 
#
# Total GULP energy -156097.651985 kJ/mol
# GULP energy per Si atom -5574.916142 kJ/mol
# Density = 2.061212 g / cm^3
# Si number density = 20.659142 Si / 1000 Ang^3
#
#
#
# Elastic Constant Matrix: (Units=GPa)
#
#
# Indices 1 2 3 4 5 6 
#
# 1 162.8354 68.7963 28.1860 0.0000 0.0000 0.0000
# 2 68.7963 49.4683 5.8446 0.0000 0.0000 0.0000
# 3 28.1860 5.8446 49.1036 0.0000 0.0000 0.0000
# 4 0.0000 0.0000 0.0000 31.2844 0.0000 0.0000
# 5 0.0000 0.0000 0.0000 0.0000 22.2669 0.0000
# 6 0.0000 0.0000 0.0000 0.0000 0.0000 -137.8099
#
#
#
# Elastic Compliance Matrix: (Units=1/GPa)
#
#
# Indices 1 2 3 4 5 6 
#
# 1 0.016993 -0.022800 -0.007040 0.000000 0.000000 0.000000
# 2 -0.022800 0.051095 0.007006 0.000000 0.000000 0.000000
# 3 -0.007040 0.007006 0.023572 0.000000 0.000000 0.000000
# 4 0.000000 0.000000 0.000000 0.031965 0.000000 0.000000
# 5 0.000000 0.000000 0.000000 0.000000 0.044910 0.000000
# 6 0.000000 0.000000 0.000000 0.000000 0.000000 -0.007256
#
#
# Mechanical properties :
#
#
# Convention : Reuss Voigt Hill
#
# Bulk Modulus (GPa) = 21.74309 51.89568 36.81939
# Shear Modulus (GPa) = 22.49437 -6.27969 8.10734
#
# Velocity S-wave (km/s) = 3.30333 -1.74536 1.98314
# Velocity P-wave (km/s) = 5.00967 4.59487 4.80675
#
# Compressibility (1/GPa) = 0.04599162
#
# Stress axis : x y z
#
# Youngs Moduli (GPa) = 58.84934 19.57120 42.42260
#
# Poissons Ratio (x) = 0.44622 0.29866
# Poissons Ratio (y) = 1.34176 -0.29720
# Poissons Ratio (z) = 0.41430 -0.13711
#
# Static dielectric constant tensor:
#      x y z
#    x 2.456570 0.000000 0.000000 
#    y 0.000000 1.704960 0.000000 
#    z 0.000000 0.000000 1.775760 
# 
# From -- ./inp_files/2268.got.cif
#   From: 2010.05.17/outbox.cif.g08.bks.cpg/sg31_2_cif.got.tgz:2268.got - 2010.06.03 17:08:30.
