data_PCOD9343687
_publ_section_title
;
Structure prediction by ZEFSAII (Michael W. Deem and Ramdas Pophale) SiO2 
 PCOD9343687
Probable space group: P B A 2
;
_chemical_formula_sum "Si O2"
_cell_formula_units_Z 20
_cell_length_a 10.123957
_cell_length_b 14.396920
_cell_length_c 4.979726
_cell_angle_alpha 90.000000
_cell_angle_beta 90.000000
_cell_angle_gamma 90.000000
_cell_volume 725.813983
_symmetry_space_group_name_H-M "P B A 2"
_symmetry_group_IT_number 32
_symmetry_cell_setting 'orthorhombic'
loop_
_space_group_symop_operation_xyz
x,y,z
-x,-y,z
1/2-x,1/2+y,z
1/2+x,1/2-y,z
loop_
_atom_site_type_symbol
_atom_site_label
_atom_site_fract_x
_atom_site_fract_y
_atom_site_fract_z
Si Si1 0.545040 0.670253 0.272050
Si Si2 0.652718 0.417249 0.861102
Si Si3 0.717545 0.982818 0.363006
Si Si4 0.156262 0.750931 0.796225
Si Si5 0.526044 0.147587 0.483010
O O1 0.467642 0.602507 0.066185
O O2 0.616154 0.673640 0.565790
O O3 0.447793 0.757547 0.325321
O O4 0.662060 0.700912 0.078630
O O5 0.741974 0.481785 0.053204
O O6 0.658261 0.462512 0.563698
O O7 0.720062 0.318078 0.789691
O O8 0.609963 0.899819 0.378575
O O9 0.637851 0.071914 0.462990
O O10 0.027626 0.682095 0.772254
#
# Coordination Sequence:
#
# PCOD9343687 Si02
#       5
#     4   4   4   4   4
#     4  10  19  31  48  68 106 135 167 211 262 314
#     4  11  19  31  47  75 101 134 172 210 263 317
#     4  10  19  29  50  72 102 133 168 213 261 326
#     4   9  18  32  46  70 100 133 169 205 255 323
#     4   8  19  30  49  69 104 134 165 205 273 314
#
# _framework density 27.555271000000001
#
# number of rings (size 3 to 8) (size 9 to 14) (size 15 to 20)
#    1.200    1.200    2.000    1.200    2.800    1.600 
#    0.000    0.000    0.000    0.000    0.000    1.400 
#    0.000    0.000    0.000    0.000    0.000    0.000 
#
# Total GULP energy -111345.057534 kJ/mol
# GULP energy per Si atom -5567.252877 kJ/mol
# Density = 2.749255 g / cm^3
# Si number density = 27.555271 Si / 1000 Ang^3
#
#
#
# Elastic Constant Matrix: (Units=GPa)
#
#
# Indices 1 2 3 4 5 6 
#
# 1 87.2475 49.5286 27.8934 0.0000 0.0000 0.0000
# 2 49.5286 86.8287 7.7800 0.0000 0.0000 0.0000
# 3 27.8934 7.7800 188.5656 0.0000 0.0000 0.0000
# 4 0.0000 0.0000 0.0000 -8.5807 0.0000 0.0000
# 5 0.0000 0.0000 0.0000 0.0000 -62.0428 0.0000
# 6 0.0000 0.0000 0.0000 0.0000 0.0000 45.9475
#
#
#
# Elastic Compliance Matrix: (Units=1/GPa)
#
#
# Indices 1 2 3 4 5 6 
#
# 1 0.017836 -0.009974 -0.002227 0.000000 0.000000 0.000000
# 2 -0.009974 0.017138 0.000768 0.000000 0.000000 0.000000
# 3 -0.002227 0.000768 0.005601 0.000000 0.000000 0.000000
# 4 0.000000 0.000000 0.000000 -0.116540 0.000000 0.000000
# 5 0.000000 0.000000 0.000000 0.000000 -0.016118 0.000000
# 6 0.000000 0.000000 0.000000 0.000000 0.000000 0.021764
#
#
# Mechanical properties :
#
#
# Convention : Reuss Voigt Hill
#
# Bulk Modulus (GPa) = 56.46924 59.22730 57.84827
# Shear Modulus (GPa) = -120.33332 13.56079 -53.38626
#
# Velocity S-wave (km/s) = -6.61548 2.22081 -4.40639
# Velocity P-wave (km/s) = 6.14941 5.30251 2.20211
#
# Compressibility (1/GPa) = 0.01770876
#
# Stress axis : x y z
#
# Youngs Moduli (GPa) = 56.06711 58.35120 178.54302
#
# Poissons Ratio (x) = 0.58201 0.39758
# Poissons Ratio (y) = 0.55923 -0.13719
# Poissons Ratio (z) = 0.12485 -0.04484
#
# Static dielectric constant tensor:
#      x y z
#    x 2.198900 0.000000 0.000000 
#    y 0.000000 2.277780 0.000000 
#    z 0.000000 0.000000 2.054160 
# 
# From -- ./inp_files/872.got.cif
#   From: 2010.05.17/outbox.cif.g08.bks.cpg/sg32_1_cif.got.tgz:872.got - 2010.06.03 17:12:27.
