data_PCOD9343039
_publ_section_title
;
Structure prediction by ZEFSAII (Michael W. Deem and Ramdas Pophale) SiO2 
 PCOD9343039
Probable space group: P M N 21
;
_chemical_formula_sum "Si O2"
_cell_formula_units_Z 32
_cell_length_a 8.498162
_cell_length_b 15.688242
_cell_length_c 12.470292
_cell_angle_alpha 90.000000
_cell_angle_beta 90.000000
_cell_angle_gamma 90.000000
_cell_volume 1662.554568
_symmetry_space_group_name_H-M "P M N 21"
_symmetry_group_IT_number 31
_symmetry_cell_setting 'orthorhombic'
loop_
_space_group_symop_operation_xyz
x,y,z
1/2-x,-y,1/2+z
-x,y,z
1/2+x,-y,1/2+z
loop_
_atom_site_type_symbol
_atom_site_label
_atom_site_fract_x
_atom_site_fract_y
_atom_site_fract_z
Si Si1 0.685635 0.600564 0.731100
Si Si2 0.808570 0.903193 0.727587
Si Si3 0.809149 0.593188 0.269970
Si Si4 0.688281 0.250613 0.383067
Si Si5 0.681863 0.353162 0.004252
Si Si6 0.682313 0.150775 0.995348
Si Si7 0.689976 0.093150 0.766649
Si Si8 0.687308 0.749699 0.125955
O O1 0.500000 0.603227 0.753811
O O2 0.739100 0.502586 0.740806
O O3 0.766781 0.666896 0.812030
O O4 0.719980 0.626941 0.609332
O O5 0.758726 0.833862 0.816961
O O6 0.750017 0.874213 0.610154
O O7 0.000000 0.902512 0.728444
O O8 0.747450 0.998202 0.743531
O O9 0.759904 0.607913 0.393059
O O10 0.745712 0.666877 0.192195
O O11 0.000000 0.599155 0.266838
O O12 0.500000 0.247180 0.391931
O O13 0.757792 0.254183 0.502403
O O14 0.500000 0.380384 0.022634
O O15 0.681254 0.252118 0.987634
O O16 0.500000 0.121354 0.997425
O O17 0.752261 0.115261 0.885955
O O18 0.500000 0.096670 0.766282
O O19 0.748228 0.165072 0.683969
O O20 0.500000 0.751782 0.129311
#
# Coordination Sequence:
#
# PCOD9343039 Si02
#       8
#     4   4   4   4   4   4   4   4
#     4  11  24  40  62  98 131 161 208 263 314 373
#     4  10  22  41  63  92 124 161 208 258 309 371
#     4  10  23  43  65  91 127 168 211 259 314 374
#     4  11  24  44  67  90 126 172 213 258 318 378
#     4  10  19  40  67  87 118 167 211 255 313 373
#     4   9  18  38  65  87 115 157 207 256 304 358
#     4  11  23  41  65  93 125 165 206 255 318 377
#     4  12  26  43  64  92 128 167 212 264 316 374
#
# _framework density 19.247488000000001
#
# number of rings (size 3 to 8) (size 9 to 14) (size 15 to 20)
#    0.000    1.500    2.500    2.250    3.500    2.500 
#    0.000    0.625    0.000    0.000    0.000    0.000 
#    0.000    0.000    0.000    0.000    0.000    0.000 
#
# Total GULP energy -178698.252668 kJ/mol
# GULP energy per Si atom -5584.320396 kJ/mol
# Density = 1.920368 g / cm^3
# Si number density = 19.247488 Si / 1000 Ang^3
#
#
#
# Elastic Constant Matrix: (Units=GPa)
#
#
# Indices 1 2 3 4 5 6 
#
# 1 109.9703 178.8063 219.9869 0.0000 0.0000 0.0000
# 2 178.8063 474.0165 511.3382 0.0000 0.0000 0.0000
# 3 219.9869 511.3382 724.3808 0.0000 0.0000 0.0000
# 4 0.0000 0.0000 0.0000 32.1325 0.0000 0.0000
# 5 0.0000 0.0000 0.0000 0.0000 -1.1090 0.0000
# 6 0.0000 0.0000 0.0000 0.0000 0.0000 162.5433
#
#
#
# Elastic Compliance Matrix: (Units=1/GPa)
#
#
# Indices 1 2 3 4 5 6 
#
# 1 0.026130 -0.005435 -0.004099 0.000000 0.000000 0.000000
# 2 -0.005435 0.009975 -0.005391 0.000000 0.000000 0.000000
# 3 -0.004099 -0.005391 0.006431 0.000000 0.000000 0.000000
# 4 0.000000 0.000000 0.000000 0.031121 0.000000 0.000000
# 5 0.000000 0.000000 0.000000 0.000000 -0.901741 0.000000
# 6 0.000000 0.000000 0.000000 0.000000 0.000000 0.006152
#
#
# Mechanical properties :
#
#
# Convention : Reuss Voigt Hill
#
# Bulk Modulus (GPa) = 78.82615 347.62560 213.22587
# Shear Modulus (GPa) = -6.34635 65.26244 29.45805
#
# Velocity S-wave (km/s) = -1.81780 5.82929 3.91639
# Velocity P-wave (km/s) = 6.05285 15.04353 11.46614
#
# Compressibility (1/GPa) = 0.01268615
#
# Stress axis : x y z
#
# Youngs Moduli (GPa) = 38.27057 100.24994 155.50829
#
# Poissons Ratio (x) = 0.54488 0.63737
# Poissons Ratio (y) = 0.20801 0.83831
# Poissons Ratio (z) = 0.15686 0.54042
#
# Static dielectric constant tensor:
#      x y z
#    x 1.672460 0.000000 0.000000 
#    y 0.000000 1.656520 0.000000 
#    z 0.000000 0.000000 1.512070 
# 
# From -- ./inp_files/3711.got.cif
#   From: 2010.05.17/outbox.cif.g08.bks.cpg/sg31_2_cif.got.tgz:3711.got - 2010.06.03 17:08:30.
