data_PCOD9343158
_publ_section_title
;
Structure prediction by ZEFSAII (Michael W. Deem and Ramdas Pophale) SiO2 
 PCOD9343158
Probable space group: P M N 21
;
_chemical_formula_sum "Si O2"
_cell_formula_units_Z 16
_cell_length_a 8.879593
_cell_length_b 7.239048
_cell_length_c 10.710622
_cell_angle_alpha 90.000000
_cell_angle_beta 90.000000
_cell_angle_gamma 90.000000
_cell_volume 688.476639
_symmetry_space_group_name_H-M "P M N 21"
_symmetry_group_IT_number 31
_symmetry_cell_setting 'orthorhombic'
loop_
_space_group_symop_operation_xyz
x,y,z
1/2-x,-y,1/2+z
-x,y,z
1/2+x,-y,1/2+z
loop_
_atom_site_type_symbol
_atom_site_label
_atom_site_fract_x
_atom_site_fract_y
_atom_site_fract_z
Si Si1 0.322677 0.148494 0.268330
Si Si2 0.828829 0.845986 0.119820
Si Si3 0.820562 0.433445 0.434769
Si Si4 0.671640 0.167648 0.906962
O O1 0.500000 0.159212 0.252146
O O2 0.247621 0.046419 0.148909
O O3 0.278390 0.008392 0.383491
O O4 0.254598 0.342336 0.311966
O O5 0.840992 0.769962 0.261274
O O6 0.000000 0.859308 0.072483
O O7 0.729139 0.702247 0.045074
O O8 0.774425 0.642684 0.467773
O O9 0.000000 0.431966 0.420865
O O10 0.500000 0.114613 0.944974
#
# Coordination Sequence:
#
# PCOD9343158 Si02
#       4
#     4   4   4   4
#     4  10  20  36  56  82 112 144 182 226 270 326
#     4   9  19  38  56  80 112 142 183 230 271 323
#     4  11  20  36  60  82 109 147 182 225 280 324
#     4   8  19  38  56  78 111 143 179 227 271 321
#
# _framework density 23.239713999999999
#
# number of rings (size 3 to 8) (size 9 to 14) (size 15 to 20)
#    1.500    1.000    0.000    3.000    0.000    2.000 
#    4.500    0.000    0.000    0.000    0.000    0.000 
#    0.000    0.000    0.000    0.000    0.000    0.000 
#
# Total GULP energy -89210.798809 kJ/mol
# GULP energy per Si atom -5575.674926 kJ/mol
# Density = 2.318682 g / cm^3
# Si number density = 23.239714 Si / 1000 Ang^3
#
#
#
# Elastic Constant Matrix: (Units=GPa)
#
#
# Indices 1 2 3 4 5 6 
#
# 1 102.9855 51.4706 -0.7608 0.0000 0.0000 0.0000
# 2 51.4706 137.4063 5.4953 0.0000 0.0000 0.0000
# 3 -0.7608 5.4953 24.7850 0.0000 0.0000 0.0000
# 4 0.0000 0.0000 0.0000 36.9415 0.0000 0.0000
# 5 0.0000 0.0000 0.0000 0.0000 19.0979 0.0000
# 6 0.0000 0.0000 0.0000 0.0000 0.0000 31.1650
#
#
#
# Elastic Compliance Matrix: (Units=1/GPa)
#
#
# Indices 1 2 3 4 5 6 
#
# 1 0.011993 -0.004547 0.001376 0.000000 0.000000 0.000000
# 2 -0.004547 0.009067 -0.002150 0.000000 0.000000 0.000000
# 3 0.001376 -0.002150 0.040866 0.000000 0.000000 0.000000
# 4 0.000000 0.000000 0.000000 0.027070 0.000000 0.000000
# 5 0.000000 0.000000 0.000000 0.000000 0.052362 0.000000
# 6 0.000000 0.000000 0.000000 0.000000 0.000000 0.032087
#
#
# Mechanical properties :
#
#
# Convention : Reuss Voigt Hill
#
# Bulk Modulus (GPa) = 19.49929 41.95414 30.72671
# Shear Modulus (GPa) = 24.85316 31.37232 28.11274
#
# Velocity S-wave (km/s) = 3.27376 3.67814 3.48183
# Velocity P-wave (km/s) = 4.76431 6.01085 5.42351
#
# Compressibility (1/GPa) = 0.05128392
#
# Stress axis : x y z
#
# Youngs Moduli (GPa) = 83.38172 110.28883 24.47031
#
# Poissons Ratio (x) = 0.50154 -0.03368
# Poissons Ratio (y) = 0.37918 0.05261
# Poissons Ratio (z) = -0.11477 0.23711
#
# Static dielectric constant tensor:
#      x y z
#    x 1.794180 0.000000 0.000000 
#    y 0.000000 1.891070 0.000000 
#    z 0.000000 0.000000 2.129370 
# 
# From -- ./inp_files/3285.got.cif
#   From: 2010.05.17/outbox.cif.g08.bks.cpg/sg31_2_cif.got.tgz:3285.got - 2010.06.03 17:08:30.
