data_PCOD9343969
_publ_section_title
;
Structure prediction by ZEFSAII (Michael W. Deem and Ramdas Pophale) SiO2 
 PCOD9343969
Probable space group: P B A 2
;
_chemical_formula_sum "Si O2"
_cell_formula_units_Z 30
_cell_length_a 8.671484
_cell_length_b 13.610149
_cell_length_c 12.629749
_cell_angle_alpha 90.000000
_cell_angle_beta 90.000000
_cell_angle_gamma 90.000000
_cell_volume 1490.565368
_symmetry_space_group_name_H-M "P B A 2"
_symmetry_group_IT_number 32
_symmetry_cell_setting 'orthorhombic'
loop_
_space_group_symop_operation_xyz
x,y,z
-x,-y,z
1/2-x,1/2+y,z
1/2+x,1/2-y,z
loop_
_atom_site_type_symbol
_atom_site_label
_atom_site_fract_x
_atom_site_fract_y
_atom_site_fract_z
Si Si1 0.717100 0.367699 0.165700
Si Si2 0.845953 0.554705 0.059804
Si Si3 0.906152 0.102266 0.887167
Si Si4 0.500000 0.500000 0.503781
Si Si5 0.193489 0.863516 0.648573
Si Si6 0.509263 0.193910 0.538023
Si Si7 0.217082 0.159062 0.408876
Si Si8 0.983172 0.247740 0.063634
O O1 0.765305 0.480068 0.142131
O O2 0.751378 0.337038 0.285154
O O3 0.540194 0.341717 0.137983
O O4 0.820354 0.299745 0.087373
O O5 0.905978 0.660969 0.094768
O O6 0.000000 0.500000 0.022099
O O7 0.732156 0.574674 0.964696
O O8 0.844365 0.129169 0.771795
O O9 0.000000 0.000000 0.878698
O O10 0.986355 0.195794 0.947497
O O11 0.374694 0.453361 0.581935
O O12 0.408879 0.575929 0.431602
O O13 0.374028 0.856094 0.620389
O O14 0.092343 0.773120 0.602571
O O15 0.376396 0.139032 0.471875
O O16 0.629346 0.245140 0.455631
#
# Coordination Sequence:
#
# PCOD9343969 Si02
#       8
#     4   4   4   2   4   4   4   4
#     4  11  22  41  66  94 133 173 217 267 333 387
#     4  10  24  44  57  95 133 162 219 266 309 406
#     4  12  23  41  68  92 131 178 217 265 343 387
#     4  10  22  42  58  90 134 148 222 270 318 392
#     4  10  22  41  63  92 123 167 210 280 323 399
#     4   9  21  43  63  92 128 159 231 267 330 396
#     4  10  21  41  66  93 123 177 208 278 330 394
#     4  11  23  40  63  94 134 168 217 274 311 402
#
# _framework density 20.126591000000001
#
# number of rings (size 3 to 8) (size 9 to 14) (size 15 to 20)
#    0.000    1.600    3.333    0.800    1.867    1.600 
#   16.800    0.000    0.000    0.000    0.000    0.000 
#    0.000    0.000    0.000    0.000    0.000    0.000 
#
# Total GULP energy -167124.691094 kJ/mol
# GULP energy per Si atom -5570.823036 kJ/mol
# Density = 2.008078 g / cm^3
# Si number density = 20.126591 Si / 1000 Ang^3
#
#
#
# Elastic Constant Matrix: (Units=GPa)
#
#
# Indices 1 2 3 4 5 6 
#
# 1 52.3625 14.0587 -9.8260 0.0000 0.0000 0.0000
# 2 14.0587 67.7574 13.3353 0.0000 0.0000 0.0000
# 3 -9.8260 13.3353 68.1638 0.0000 0.0000 0.0000
# 4 0.0000 0.0000 0.0000 21.1983 0.0000 0.0000
# 5 0.0000 0.0000 0.0000 0.0000 28.9942 0.0000
# 6 0.0000 0.0000 0.0000 0.0000 0.0000 16.7458
#
#
#
# Elastic Compliance Matrix: (Units=1/GPa)
#
#
# Indices 1 2 3 4 5 6 
#
# 1 0.021265 -0.005216 0.004086 0.000000 0.000000 0.000000
# 2 -0.005216 0.016629 -0.004005 0.000000 0.000000 0.000000
# 3 0.004086 -0.004005 0.016043 0.000000 0.000000 0.000000
# 4 0.000000 0.000000 0.000000 0.047174 0.000000 0.000000
# 5 0.000000 0.000000 0.000000 0.000000 0.034490 0.000000
# 6 0.000000 0.000000 0.000000 0.000000 0.000000 0.059716
#
#
# Mechanical properties :
#
#
# Convention : Reuss Voigt Hill
#
# Bulk Modulus (GPa) = 22.90119 24.82442 23.86280
# Shear Modulus (GPa) = 22.71249 24.76872 23.74060
#
# Velocity S-wave (km/s) = 3.36293 3.51186 3.43820
# Velocity P-wave (km/s) = 5.14610 5.36704 5.25773
#
# Compressibility (1/GPa) = 0.04366586
#
# Stress axis : x y z
#
# Youngs Moduli (GPa) = 47.02585 60.13546 62.33207
#
# Poissons Ratio (x) = 0.31369 -0.25468
# Poissons Ratio (y) = 0.24530 0.24965
# Poissons Ratio (z) = -0.19214 0.24086
#
# Static dielectric constant tensor:
#      x y z
#    x 1.768670 0.000000 0.000000 
#    y 0.000000 1.812590 0.000000 
#    z 0.000000 0.000000 1.668910 
# 
# From -- ./inp_files/3737.got.cif
#   From: 2010.05.17/outbox.cif.g08.bks.cpg/sg32_2_cif.got.tgz:3737.got - 2010.06.03 17:12:27.
