data_PCOD9343638
_publ_section_title
;
Structure prediction by ZEFSAII (Michael W. Deem and Ramdas Pophale) SiO2 
 PCOD9343638
Probable space group: P B A 2
;
_chemical_formula_sum "Si O2"
_cell_formula_units_Z 16
_cell_length_a 20.739921
_cell_length_b 5.004236
_cell_length_c 5.468327
_cell_angle_alpha 90.000000
_cell_angle_beta 90.000000
_cell_angle_gamma 90.000000
_cell_volume 567.543766
_symmetry_space_group_name_H-M "P B A 2"
_symmetry_group_IT_number 32
_symmetry_cell_setting 'orthorhombic'
loop_
_space_group_symop_operation_xyz
x,y,z
-x,-y,z
1/2-x,1/2+y,z
1/2+x,1/2-y,z
loop_
_atom_site_type_symbol
_atom_site_label
_atom_site_fract_x
_atom_site_fract_y
_atom_site_fract_z
Si Si1 0.776391 0.853946 0.835720
Si Si2 0.000000 0.000000 0.078525
Si Si3 0.106660 0.300100 0.396525
Si Si4 0.000000 0.500000 0.764568
Si Si5 0.169792 0.839331 0.198036
O O1 0.762540 0.270364 0.089823
O O2 0.840908 0.979187 0.947844
O O3 0.727545 0.065366 0.711591
O O4 0.022761 0.753395 0.917863
O O5 0.945812 0.869433 0.245320
O O6 0.062990 0.403095 0.617966
O O7 0.131969 0.569305 0.265296
O O8 0.160067 0.059514 0.415040
#
# Coordination Sequence:
#
# PCOD9343638 Si02
#       5
#     4   2   4   2   4
#     4   8  14  28  48  90 124 136 194 262 280 362
#     4  12  26  44  58  92 130 158 214 272 298 358
#     4  12  22  38  66  86 116 174 204 240 318 372
#     4  12  26  44  58  92 130 158 214 272 298 358
#     4  10  16  32  56  94 116 150 210 238 300 382
#
# _framework density 28.191658
#
# number of rings (size 3 to 8) (size 9 to 14) (size 15 to 20)
#    1.500    0.000    2.500    6.000    0.000    0.000 
#    0.000    0.000    0.000    0.000    0.000  122.500 
#    0.000    0.000    0.000    0.000    0.000    0.000 
#
# Total GULP energy -89148.784837 kJ/mol
# GULP energy per Si atom -5571.799052 kJ/mol
# Density = 2.812749 g / cm^3
# Si number density = 28.191658 Si / 1000 Ang^3
#
#
#
# Elastic Constant Matrix: (Units=GPa)
#
#
# Indices 1 2 3 4 5 6 
#
# 1 75.6352 28.1022 13.2731 0.0000 0.0000 0.0000
# 2 28.1022 272.0190 33.5556 0.0000 0.0000 0.0000
# 3 13.2731 33.5556 62.3979 0.0000 0.0000 0.0000
# 4 0.0000 0.0000 0.0000 67.3456 0.0000 0.0000
# 5 0.0000 0.0000 0.0000 0.0000-2897.8572 0.0000
# 6 0.0000 0.0000 0.0000 0.0000 0.0000 65.5227
#
#
#
# Elastic Compliance Matrix: (Units=1/GPa)
#
#
# Indices 1 2 3 4 5 6 
#
# 1 0.014068 -0.001161 -0.002368 0.000000 0.000000 0.000000
# 2 -0.001161 0.004033 -0.001922 0.000000 0.000000 0.000000
# 3 -0.002368 -0.001922 0.017563 0.000000 0.000000 0.000000
# 4 0.000000 0.000000 0.000000 0.014849 0.000000 0.000000
# 5 0.000000 0.000000 0.000000 0.000000 -0.000345 0.000000
# 6 0.000000 0.000000 0.000000 0.000000 0.000000 0.015262
#
#
# Mechanical properties :
#
#
# Convention : Reuss Voigt Hill
#
# Bulk Modulus (GPa) = 40.38361 62.21265 51.29813
# Shear Modulus (GPa) = 59.11040 -530.65636 -235.77298
#
# Velocity S-wave (km/s) = 4.58398 -13.73464 -9.15498
# Velocity P-wave (km/s) = 6.50945 15.14611 9.67036
#
# Compressibility (1/GPa) = 0.02476252
#
# Stress axis : x y z
#
# Youngs Moduli (GPa) = 71.08132 247.93775 56.93641
#
# Poissons Ratio (x) = 0.28793 0.13483
# Poissons Ratio (y) = 0.08255 0.10943
# Poissons Ratio (z) = 0.16833 0.47652
#
# Static dielectric constant tensor:
#      x y z
#    x 5.946680 0.000000 0.000000 
#    y 0.000000 2.456470 0.000000 
#    z 0.000000 0.000000 2.376600 
# 
# From -- ./inp_files/159.got.cif
#   From: 2010.05.17/outbox.cif.g08.bks.cpg/sg32_1_cif.got.tgz:159.got - 2010.06.03 17:12:27.
