data_PCOD9343078
_publ_section_title
;
Structure prediction by ZEFSAII (Michael W. Deem and Ramdas Pophale) SiO2 
 PCOD9343078
Probable space group: P M N 21
;
_chemical_formula_sum "Si O2"
_cell_formula_units_Z 32
_cell_length_a 7.446441
_cell_length_b 13.000029
_cell_length_c 14.801443
_cell_angle_alpha 90.000000
_cell_angle_beta 90.000000
_cell_angle_gamma 90.000000
_cell_volume 1432.838133
_symmetry_space_group_name_H-M "P M N 21"
_symmetry_group_IT_number 31
_symmetry_cell_setting 'orthorhombic'
loop_
_space_group_symop_operation_xyz
x,y,z
1/2-x,-y,1/2+z
-x,y,z
1/2+x,-y,1/2+z
loop_
_atom_site_type_symbol
_atom_site_label
_atom_site_fract_x
_atom_site_fract_y
_atom_site_fract_z
Si Si1 0.287118 0.767923 0.402390
Si Si2 0.782088 0.785705 0.693692
Si Si3 0.214171 0.993155 0.384496
Si Si4 0.793530 0.615722 0.558844
Si Si5 0.219412 0.385656 0.542342
Si Si6 0.287952 0.785259 0.906396
Si Si7 0.780647 0.229971 0.695581
Si Si8 0.796966 0.009074 0.674800
O O1 0.500000 0.752771 0.401818
O O2 0.208311 0.683440 0.468392
O O3 0.220708 0.759465 0.299081
O O4 0.249926 0.885275 0.432532
O O5 0.713727 0.690307 0.635255
O O6 0.737118 0.773902 0.799007
O O7 0.714968 0.896928 0.657933
O O8 0.000000 0.790301 0.686937
O O9 0.278032 0.099270 0.429257
O O10 0.301984 0.987484 0.285057
O O11 0.000000 0.000849 0.370172
O O12 0.715241 0.502792 0.542955
O O13 0.000000 0.598774 0.586973
O O14 0.284419 0.311393 0.461748
O O15 0.267665 0.325722 0.633844
O O16 0.000000 0.389468 0.536455
O O17 0.500000 0.787369 0.926224
O O18 0.000000 0.223601 0.696801
O O19 0.717066 0.120888 0.654037
O O20 0.000000 0.008130 0.637270
#
# Coordination Sequence:
#
# PCOD9343078 Si02
#       8
#     4   4   4   4   4   4   4   4
#     4  10  20  34  53  76 103 135 168 208 258 304
#     4   9  18  32  51  74 101 133 168 211 259 305
#     4   9  16  28  49  77 105 130 163 204 249 306
#     4  10  21  35  51  73 100 134 176 215 251 296
#     4   9  18  33  51  73 101 132 172 215 250 295
#     4   9  18  32  53  78 103 135 169 206 254 303
#     4   8  15  29  50  72  94 125 163 202 247 300
#     4   8  14  27  48  73  99 128 165 205 250 303
#
# _framework density 22.333296000000001
#
# number of rings (size 3 to 8) (size 9 to 14) (size 15 to 20)
#    0.000    3.000    0.000    1.500    0.000    3.000 
#    0.000    5.625    0.000    7.500    0.000    0.000 
#    0.000    0.000    0.000    0.000    0.000    0.000 
#
# Total GULP energy -178534.894074 kJ/mol
# GULP energy per Si atom -5579.215440 kJ/mol
# Density = 2.228246 g / cm^3
# Si number density = 22.333296 Si / 1000 Ang^3
#
#
#
# Elastic Constant Matrix: (Units=GPa)
#
#
# Indices 1 2 3 4 5 6 
#
# 1 71.5412 -4.5987 -16.1062 0.0000 0.0000 0.0000
# 2 -4.5987 253.2472 80.3422 0.0000 0.0000 0.0000
# 3 -16.1062 80.3422 89.8037 0.0000 0.0000 0.0000
# 4 0.0000 0.0000 0.0000 33.2412 0.0000 0.0000
# 5 0.0000 0.0000 0.0000 0.0000 12.7412 0.0000
# 6 0.0000 0.0000 0.0000 0.0000 0.0000 5.3107
#
#
#
# Elastic Compliance Matrix: (Units=1/GPa)
#
#
# Indices 1 2 3 4 5 6 
#
# 1 0.014680 -0.000794 0.003343 0.000000 0.000000 0.000000
# 2 -0.000794 0.005557 -0.005114 0.000000 0.000000 0.000000
# 3 0.003343 -0.005114 0.016310 0.000000 0.000000 0.000000
# 4 0.000000 0.000000 0.000000 0.030083 0.000000 0.000000
# 5 0.000000 0.000000 0.000000 0.000000 0.078485 0.000000
# 6 0.000000 0.000000 0.000000 0.000000 0.000000 0.188301
#
#
# Mechanical properties :
#
#
# Convention : Reuss Voigt Hill
#
# Bulk Modulus (GPa) = 31.82985 59.31852 45.57418
# Shear Modulus (GPa) = 14.32597 33.92227 24.12412
#
# Velocity S-wave (km/s) = 2.53546 3.90155 3.29018
# Velocity P-wave (km/s) = 4.78064 6.84940 5.90630
#
# Compressibility (1/GPa) = 0.03141705
#
# Stress axis : x y z
#
# Youngs Moduli (GPa) = 68.12187 179.96766 61.31286
#
# Poissons Ratio (x) = 0.14290 -0.20498
# Poissons Ratio (y) = 0.05409 0.31353
# Poissons Ratio (z) = -0.22774 0.92027
#
# Static dielectric constant tensor:
#      x y z
#    x 1.836200 0.000000 0.000000 
#    y 0.000000 1.838540 0.000000 
#    z 0.000000 0.000000 1.805690 
# 
# From -- ./inp_files/5034.got.cif
#   From: 2010.05.17/outbox.cif.g08.bks.cpg/sg31_3_cif.got.tgz:5034.got - 2010.06.03 17:08:30.
