data_PCOD9343939
_publ_section_title
;
Structure prediction by ZEFSAII (Michael W. Deem and Ramdas Pophale) SiO2 
 PCOD9343939
Probable space group: P B A 2
;
_chemical_formula_sum "Si O2"
_cell_formula_units_Z 30
_cell_length_a 7.962418
_cell_length_b 14.851752
_cell_length_c 11.781366
_cell_angle_alpha 90.000000
_cell_angle_beta 90.000000
_cell_angle_gamma 90.000000
_cell_volume 1393.215538
_symmetry_space_group_name_H-M "P B A 2"
_symmetry_group_IT_number 32
_symmetry_cell_setting 'orthorhombic'
loop_
_space_group_symop_operation_xyz
x,y,z
-x,-y,z
1/2-x,1/2+y,z
1/2+x,1/2-y,z
loop_
_atom_site_type_symbol
_atom_site_label
_atom_site_fract_x
_atom_site_fract_y
_atom_site_fract_z
Si Si1 0.727206 0.344980 0.425190
Si Si2 0.029245 0.293962 0.558018
Si Si3 0.514130 0.692612 0.916588
Si Si4 0.666389 0.634749 0.679237
Si Si5 0.154957 0.359362 0.006279
Si Si6 0.313572 0.540636 0.006749
Si Si7 0.000000 0.000000 0.521919
Si Si8 0.583211 0.906683 0.209894
O O1 0.639939 0.248862 0.454899
O O2 0.593667 0.425272 0.444828
O O3 0.827464 0.349726 0.307454
O O4 0.877377 0.354767 0.516222
O O5 0.144632 0.339325 0.651537
O O6 0.948007 0.206771 0.613679
O O7 0.606670 0.651074 0.807072
O O8 0.656800 0.681222 0.013769
O O9 0.450479 0.794614 0.923569
O O10 0.350241 0.630113 0.935276
O O11 0.629993 0.543739 0.611351
O O12 0.189231 0.461732 0.964666
O O13 0.057559 0.363561 0.126533
O O14 0.500000 0.500000 0.017727
O O15 0.233966 0.567195 0.125524
O O16 0.500000 0.000000 0.255598
#
# Coordination Sequence:
#
# PCOD9343939 Si02
#       8
#     4   4   4   4   4   4   2   4
#     4  10  22  41  65  93 126 176 202 278 321 387
#     4   9  21  41  61  91 132 156 219 262 318 394
#     4  11  21  38  67  88 132 173 214 272 335 380
#     4  10  21  39  62  92 125 167 209 267 323 390
#     4  10  22  38  58  94 125 169 216 264 314 398
#     4   9  21  39  60  90 129 163 215 270 309 395
#     4  10  24  38  64  98 124 160 228 258 330 394
#     4  10  22  39  61  91 131 171 220 263 327 386
#
# _framework density 21.532921000000002
#
# number of rings (size 3 to 8) (size 9 to 14) (size 15 to 20)
#    0.000    2.133    0.000    1.600    5.600    2.133 
#    0.000    1.333    8.800    0.000    0.000    0.000 
#    0.000    0.000    0.000    0.000    0.000    0.000 
#
# Total GULP energy -167137.074916 kJ/mol
# GULP energy per Si atom -5571.235831 kJ/mol
# Density = 2.148391 g / cm^3
# Si number density = 21.532921 Si / 1000 Ang^3
#
#
#
# Elastic Constant Matrix: (Units=GPa)
#
#
# Indices 1 2 3 4 5 6 
#
# 1 88.2839 32.5441 13.8804 0.0000 0.0000 0.0000
# 2 32.5441 47.8591 21.9053 0.0000 0.0000 0.0000
# 3 13.8804 21.9053 63.1376 0.0000 0.0000 0.0000
# 4 0.0000 0.0000 0.0000 17.4591 0.0000 0.0000
# 5 0.0000 0.0000 0.0000 0.0000 31.6011 0.0000
# 6 0.0000 0.0000 0.0000 0.0000 0.0000 29.0706
#
#
#
# Elastic Compliance Matrix: (Units=1/GPa)
#
#
# Indices 1 2 3 4 5 6 
#
# 1 0.015121 -0.010414 0.000289 0.000000 0.000000 0.000000
# 2 -0.010414 0.032012 -0.008817 0.000000 0.000000 0.000000
# 3 0.000289 -0.008817 0.018834 0.000000 0.000000 0.000000
# 4 0.000000 0.000000 0.000000 0.057277 0.000000 0.000000
# 5 0.000000 0.000000 0.000000 0.000000 0.031644 0.000000
# 6 0.000000 0.000000 0.000000 0.000000 0.000000 0.034399
#
#
# Mechanical properties :
#
#
# Convention : Reuss Voigt Hill
#
# Bulk Modulus (GPa) = 35.60988 37.32670 36.46829
# Shear Modulus (GPa) = 21.13884 24.35622 22.74753
#
# Velocity S-wave (km/s) = 3.13661 3.36685 3.25377
# Velocity P-wave (km/s) = 5.44895 5.69970 5.57574
#
# Compressibility (1/GPa) = 0.02808209
#
# Stress axis : x y z
#
# Youngs Moduli (GPa) = 66.13463 31.23842 53.09586
#
# Poissons Ratio (x) = 0.32533 -0.01535
# Poissons Ratio (y) = 0.68875 0.46814
# Poissons Ratio (z) = -0.01911 0.27542
#
# Static dielectric constant tensor:
#      x y z
#    x 1.806890 0.000000 0.000000 
#    y 0.000000 1.885480 0.000000 
#    z 0.000000 0.000000 1.806280 
# 
# From -- ./inp_files/3742.got.cif
#   From: 2010.05.17/outbox.cif.g08.bks.cpg/sg32_2_cif.got.tgz:3742.got - 2010.06.03 17:12:27.
