data_PCOD9343289
_publ_section_title
;
Structure prediction by ZEFSAII (Michael W. Deem and Ramdas Pophale) SiO2 
 PCOD9343289
Probable space group: P M N 21
;
_chemical_formula_sum "Si O2"
_cell_formula_units_Z 32
_cell_length_a 7.385352
_cell_length_b 19.536162
_cell_length_c 7.961550
_cell_angle_alpha 90.000000
_cell_angle_beta 90.000000
_cell_angle_gamma 90.000000
_cell_volume 1148.703844
_symmetry_space_group_name_H-M "P M N 21"
_symmetry_group_IT_number 31
_symmetry_cell_setting 'orthorhombic'
loop_
_space_group_symop_operation_xyz
x,y,z
1/2-x,-y,1/2+z
-x,y,z
1/2+x,-y,1/2+z
loop_
_atom_site_type_symbol
_atom_site_label
_atom_site_fract_x
_atom_site_fract_y
_atom_site_fract_z
Si Si1 0.779508 0.479302 0.170800
Si Si2 0.209274 0.238076 0.739724
Si Si3 0.782898 0.977174 0.752887
Si Si4 0.284805 0.640509 0.451006
Si Si5 0.210389 0.608597 0.003532
Si Si6 0.219862 0.848526 0.572652
Si Si7 0.784853 0.107602 0.588676
Si Si8 0.784076 0.728369 0.789644
O O1 0.715353 0.433255 0.011309
O O2 0.719702 0.439109 0.335855
O O3 0.000000 0.479568 0.169934
O O4 0.713480 0.557185 0.144438
O O5 0.289257 0.310756 0.802015
O O6 0.215674 0.189626 0.906580
O O7 0.000000 0.251076 0.704252
O O8 0.291231 0.184708 0.604927
O O9 0.742130 0.935632 0.920555
O O10 0.000000 0.981658 0.740060
O O11 0.719277 0.925725 0.605348
O O12 0.711829 0.053758 0.727546
O O13 0.500000 0.635389 0.428506
O O14 0.253956 0.684754 0.620821
O O15 0.287857 0.681651 0.942793
O O16 0.000000 0.618380 0.038355
O O17 0.281736 0.802847 0.733486
O O18 0.000000 0.846721 0.569756
O O19 0.000000 0.116150 0.610958
O O20 0.000000 0.731388 0.809457
#
# Coordination Sequence:
#
# PCOD9343289 Si02
#       8
#     4   4   4   4   4   4   4   4
#     4   9  17  29  45  65  89 118 151 186 225 267
#     4   9  17  30  49  71  92 116 149 187 225 266
#     4  10  21  35  50  70  95 122 152 185 222 265
#     4   8  14  26  44  64  87 115 147 183 221 263
#     4   9  17  29  45  65  89 118 151 186 225 267
#     4   9  17  30  49  71  92 116 149 187 225 266
#     4  10  21  35  50  70  95 122 152 185 222 265
#     4   8  14  26  44  64  87 115 147 183 221 263
#
# _framework density 27.857483999999999
#
# number of rings (size 3 to 8) (size 9 to 14) (size 15 to 20)
#    0.000    3.000    0.000    0.750    0.000    2.000 
#    0.000    1.250    0.000    0.000    0.000    0.000 
#    0.000    0.000    0.000    0.000    0.000    0.000 
#
# Total GULP energy -178978.696798 kJ/mol
# GULP energy per Si atom -5593.084275 kJ/mol
# Density = 2.779408 g / cm^3
# Si number density = 27.857484 Si / 1000 Ang^3
#
#
#
# Elastic Constant Matrix: (Units=GPa)
#
#
# Indices 1 2 3 4 5 6 
#
# 1 134.1864 30.2274 16.2948 0.0000 0.0000 0.0000
# 2 30.2274 205.7555 15.4302 0.0000 0.0000 0.0000
# 3 16.2948 15.4302 109.0727 0.0000 0.0000 0.0000
# 4 0.0000 0.0000 0.0000 59.0925 0.0000 0.0000
# 5 0.0000 0.0000 0.0000 0.0000 27.0106 0.0000
# 6 0.0000 0.0000 0.0000 0.0000 0.0000 12.1070
#
#
#
# Elastic Compliance Matrix: (Units=1/GPa)
#
#
# Indices 1 2 3 4 5 6 
#
# 1 0.007817 -0.001072 -0.001016 0.000000 0.000000 0.000000
# 2 -0.001072 0.005059 -0.000556 0.000000 0.000000 0.000000
# 3 -0.001016 -0.000556 0.009399 0.000000 0.000000 0.000000
# 4 0.000000 0.000000 0.000000 0.016923 0.000000 0.000000
# 5 0.000000 0.000000 0.000000 0.000000 0.037023 0.000000
# 6 0.000000 0.000000 0.000000 0.000000 0.000000 0.082597
#
#
# Mechanical properties :
#
#
# Convention : Reuss Voigt Hill
#
# Bulk Modulus (GPa) = 58.86750 63.65771 61.26261
# Shear Modulus (GPa) = 29.45200 45.44615 37.44908
#
# Velocity S-wave (km/s) = 3.25505 4.04342 3.67046
# Velocity P-wave (km/s) = 5.94177 6.68579 6.32473
#
# Compressibility (1/GPa) = 0.01698730
#
# Stress axis : x y z
#
# Youngs Moduli (GPa) = 127.92225 197.65503 106.39881
#
# Poissons Ratio (x) = 0.21193 0.10812
# Poissons Ratio (y) = 0.13716 0.05911
# Poissons Ratio (z) = 0.12999 0.10981
#
# Static dielectric constant tensor:
#      x y z
#    x 1.992270 0.000000 0.000000 
#    y 0.000000 2.226470 0.000000 
#    z 0.000000 0.000000 2.313860 
# 
# From -- ./inp_files/1855.got.cif
#   From: 2010.05.17/outbox.cif.g08.bks.cpg/sg31_1_cif.got.tgz:1855.got - 2010.06.03 17:08:30.
