data_PCOD9343420
_publ_section_title
;
Structure prediction by ZEFSAII (Michael W. Deem and Ramdas Pophale) SiO2 
 PCOD9343420
Probable space group: P M N 21
;
_chemical_formula_sum "Si O2"
_cell_formula_units_Z 32
_cell_length_a 7.695342
_cell_length_b 15.747365
_cell_length_c 12.154641
_cell_angle_alpha 90.000000
_cell_angle_beta 90.000000
_cell_angle_gamma 90.000000
_cell_volume 1472.915918
_symmetry_space_group_name_H-M "P M N 21"
_symmetry_group_IT_number 31
_symmetry_cell_setting 'orthorhombic'
loop_
_space_group_symop_operation_xyz
x,y,z
1/2-x,-y,1/2+z
-x,y,z
1/2+x,-y,1/2+z
loop_
_atom_site_type_symbol
_atom_site_label
_atom_site_fract_x
_atom_site_fract_y
_atom_site_fract_z
Si Si1 0.702789 0.150201 0.059630
Si Si2 0.789480 0.424501 0.852062
Si Si3 0.699426 0.918690 0.336372
Si Si4 0.297041 0.616502 0.810819
Si Si5 0.786622 0.891684 0.804723
Si Si6 0.298350 0.245800 0.482074
Si Si7 0.702257 0.746006 0.232547
Si Si8 0.289936 0.660936 0.569850
O O1 0.500000 0.127077 0.057125
O O2 0.766804 0.140636 0.184342
O O3 0.726588 0.248197 0.029029
O O4 0.796681 0.096131 0.966994
O O5 0.721353 0.515540 0.816504
O O6 0.727754 0.342809 0.781483
O O7 0.000000 0.428196 0.844663
O O8 0.739734 0.407616 0.978857
O O9 0.500000 0.923545 0.296542
O O10 0.778905 0.834399 0.280021
O O11 0.775335 0.011493 0.314854
O O12 0.500000 0.638885 0.814562
O O13 0.213440 0.667860 0.911056
O O14 0.224034 0.645367 0.692727
O O15 0.728744 0.829042 0.902313
O O16 0.000000 0.889761 0.808267
O O17 0.500000 0.227464 0.504600
O O18 0.211341 0.253371 0.600738
O O19 0.500000 0.746792 0.268397
O O20 0.500000 0.662367 0.573152
#
# Coordination Sequence:
#
# PCOD9343420 Si02
#       8
#     4   4   4   4   4   4   4   4
#     4  11  21  37  62  91 119 151 201 252 295 347
#     4  10  22  41  62  87 119 157 197 242 302 354
#     4  10  21  41  63  85 121 162 198 243 301 355
#     4  11  24  40  62  92 119 153 202 246 294 355
#     4   9  21  39  60  87 120 159 196 241 299 352
#     4  11  23  41  61  85 123 162 197 243 300 354
#     4  10  22  40  62  87 119 159 200 243 296 356
#     4  10  21  41  64  86 116 157 199 242 297 359
#
# _framework density 21.725612000000002
#
# number of rings (size 3 to 8) (size 9 to 14) (size 15 to 20)
#    0.000    1.750    2.500    1.125    3.500    2.000 
#    0.000    1.875    0.000    0.000    0.000    0.000 
#    0.000    0.000    0.000    0.000    0.000    0.000 
#
# Total GULP energy -178743.370496 kJ/mol
# GULP energy per Si atom -5585.730328 kJ/mol
# Density = 2.167616 g / cm^3
# Si number density = 21.725612 Si / 1000 Ang^3
#
#
#
# Elastic Constant Matrix: (Units=GPa)
#
#
# Indices 1 2 3 4 5 6 
#
# 1 36.3054 -8.2321 -7.1569 0.0000 0.0000 0.0000
# 2 -8.2321 125.2900 28.5180 0.0000 0.0000 0.0000
# 3 -7.1569 28.5180 98.7941 0.0000 0.0000 0.0000
# 4 0.0000 0.0000 0.0000 31.7805 0.0000 0.0000
# 5 0.0000 0.0000 0.0000 0.0000 16.5011 0.0000
# 6 0.0000 0.0000 0.0000 0.0000 0.0000 1.3958
#
#
#
# Elastic Compliance Matrix: (Units=1/GPa)
#
#
# Indices 1 2 3 4 5 6 
#
# 1 0.028199 0.001485 0.001614 0.000000 0.000000 0.000000
# 2 0.001485 0.008621 -0.002381 0.000000 0.000000 0.000000
# 3 0.001614 -0.002381 0.010926 0.000000 0.000000 0.000000
# 4 0.000000 0.000000 0.000000 0.031466 0.000000 0.000000
# 5 0.000000 0.000000 0.000000 0.000000 0.060602 0.000000
# 6 0.000000 0.000000 0.000000 0.000000 0.000000 0.716416
#
#
# Mechanical properties :
#
#
# Convention : Reuss Voigt Hill
#
# Bulk Modulus (GPa) = 20.33204 31.84971 26.09088
# Shear Modulus (GPa) = 5.73929 26.41952 16.07940
#
# Velocity S-wave (km/s) = 1.62710 3.49098 2.72345
# Velocity P-wave (km/s) = 3.59288 5.56247 4.68241
#
# Compressibility (1/GPa) = 0.04918345
#
# Stress axis : x y z
#
# Youngs Moduli (GPa) = 35.46211 115.99546 91.52246
#
# Poissons Ratio (x) = -0.17230 -0.14772
# Poissons Ratio (y) = -0.05268 0.21791
# Poissons Ratio (z) = -0.05724 0.27618
#
# Static dielectric constant tensor:
#      x y z
#    x 1.805780 0.000000 0.000000 
#    y 0.000000 1.767280 0.000000 
#    z 0.000000 0.000000 1.757410 
# 
# From -- ./inp_files/3605.got.cif
#   From: 2010.05.17/outbox.cif.g08.bks.cpg/sg31_2_cif.got.tgz:3605.got - 2010.06.03 17:08:30.
