data_PCOD9343221
_publ_section_title
;
Structure prediction by ZEFSAII (Michael W. Deem and Ramdas Pophale) SiO2 
 PCOD9343221
Probable space group: P M N 21
;
_chemical_formula_sum "Si O2"
_cell_formula_units_Z 32
_cell_length_a 26.675522
_cell_length_b 5.303383
_cell_length_c 10.244599
_cell_angle_alpha 90.000000
_cell_angle_beta 90.000000
_cell_angle_gamma 90.000000
_cell_volume 1449.308644
_symmetry_space_group_name_H-M "P M N 21"
_symmetry_group_IT_number 31
_symmetry_cell_setting 'orthorhombic'
loop_
_space_group_symop_operation_xyz
x,y,z
1/2-x,-y,1/2+z
-x,y,z
1/2+x,-y,1/2+z
loop_
_atom_site_type_symbol
_atom_site_label
_atom_site_fract_x
_atom_site_fract_y
_atom_site_fract_z
Si Si1 0.381994 0.331558 0.081700
Si Si2 0.880081 0.039038 0.072002
Si Si3 0.442885 0.449748 0.615662
Si Si4 0.349802 0.959051 0.859315
Si Si5 0.265166 0.618454 0.262588
Si Si6 0.172629 0.890109 0.809069
Si Si7 0.445243 0.599006 0.904718
Si Si8 0.285696 0.579222 0.994453
O O1 0.373663 0.166144 0.209993
O O2 0.433814 0.459071 0.041249
O O3 0.336287 0.530133 0.079113
O O4 0.367390 0.177863 0.953375
O O5 0.907548 0.312010 0.077925
O O6 0.848330 0.999393 0.204975
O O7 0.920736 0.813956 0.067905
O O8 0.846066 0.995339 0.946254
O O9 0.500000 0.494185 0.570697
O O10 0.445319 0.430546 0.773826
O O11 0.397423 0.771577 0.878135
O O12 0.299926 0.831217 0.917303
O O13 0.292200 0.888248 0.254624
O O14 0.224852 0.618422 0.379206
O O15 0.298008 0.376802 0.313676
O O16 0.246457 0.568239 0.113994
O O17 0.500000 0.725225 0.908924
#
# Coordination Sequence:
#
# PCOD9343221 Si02
#       8
#     4   4   4   4   4   4   4   4
#     4  10  20  41  62  84 126 162 196 258 316 362
#     4  11  22  38  62  91 118 165 206 248 307 374
#     4  10  20  37  61  91 123 156 203 258 305 361
#     4  10  20  37  61  87 121 160 206 256 308 364
#     4  11  25  42  63  91 122 164 206 262 306 374
#     4  11  25  42  62  88 128 165 205 253 318 366
#     4   9  19  35  60  92 119 157 208 256 307 369
#     4  10  24  40  61  90 123 161 206 259 318 364
#
# _framework density 22.079491999999998
#
# number of rings (size 3 to 8) (size 9 to 14) (size 15 to 20)
#    0.000    1.750    2.500    1.125    3.500    2.000 
#    0.000    1.250    0.000    0.000    0.000    0.000 
#    0.000    0.000    0.000    0.000    0.000    0.000 
#
# Total GULP energy -178358.972938 kJ/mol
# GULP energy per Si atom -5573.717904 kJ/mol
# Density = 2.202924 g / cm^3
# Si number density = 22.079492 Si / 1000 Ang^3
#
#
#
# Elastic Constant Matrix: (Units=GPa)
#
#
# Indices 1 2 3 4 5 6 
#
# 1 20.1956 -5.1700 13.3889 0.0000 0.0000 0.0000
# 2 -5.1700 67.9619 3.0468 0.0000 0.0000 0.0000
# 3 13.3889 3.0468 135.0816 0.0000 0.0000 0.0000
# 4 0.0000 0.0000 0.0000 29.0376 0.0000 0.0000
# 5 0.0000 0.0000 0.0000 0.0000 24.2777 0.0000
# 6 0.0000 0.0000 0.0000 0.0000 0.0000 20.7118
#
#
#
# Elastic Compliance Matrix: (Units=1/GPa)
#
#
# Indices 1 2 3 4 5 6 
#
# 1 0.054267 0.004374 -0.005477 0.000000 0.000000 0.000000
# 2 0.004374 0.015082 -0.000774 0.000000 0.000000 0.000000
# 3 -0.005477 -0.000774 0.007963 0.000000 0.000000 0.000000
# 4 0.000000 0.000000 0.000000 0.034438 0.000000 0.000000
# 5 0.000000 0.000000 0.000000 0.000000 0.041190 0.000000
# 6 0.000000 0.000000 0.000000 0.000000 0.000000 0.048282
#
#
# Mechanical properties :
#
#
# Convention : Reuss Voigt Hill
#
# Bulk Modulus (GPa) = 13.59496 27.30784 20.45140
# Shear Modulus (GPa) = 21.78699 28.93698 25.36199
#
# Velocity S-wave (km/s) = 3.14467 3.62412 3.39288
# Velocity P-wave (km/s) = 4.39953 5.46875 4.96302
#
# Compressibility (1/GPa) = 0.07355668
#
# Stress axis : x y z
#
# Youngs Moduli (GPa) = 18.42754 66.30631 125.57632
#
# Poissons Ratio (x) = -0.29000 0.68783
# Poissons Ratio (y) = -0.08060 0.09716
# Poissons Ratio (z) = 0.10093 0.05130
#
# Static dielectric constant tensor:
#      x y z
#    x 1.977820 0.000000 0.000000 
#    y 0.000000 1.878940 0.000000 
#    z 0.000000 0.000000 1.914570 
# 
# From -- ./inp_files/3211.got.cif
#   From: 2010.05.17/outbox.cif.g08.bks.cpg/sg31_2_cif.got.tgz:3211.got - 2010.06.03 17:08:30.
