data_PCOD9343958
_publ_section_title
;
Structure prediction by ZEFSAII (Michael W. Deem and Ramdas Pophale) SiO2 
 PCOD9343958
Probable space group: P B A 2
;
_chemical_formula_sum "Si O2"
_cell_formula_units_Z 30
_cell_length_a 12.911275
_cell_length_b 12.524979
_cell_length_c 8.825843
_cell_angle_alpha 90.000000
_cell_angle_beta 90.000000
_cell_angle_gamma 90.000000
_cell_volume 1427.257505
_symmetry_space_group_name_H-M "P B A 2"
_symmetry_group_IT_number 32
_symmetry_cell_setting 'orthorhombic'
loop_
_space_group_symop_operation_xyz
x,y,z
-x,-y,z
1/2-x,1/2+y,z
1/2+x,1/2-y,z
loop_
_atom_site_type_symbol
_atom_site_label
_atom_site_fract_x
_atom_site_fract_y
_atom_site_fract_z
Si Si1 0.545236 0.678244 0.820040
Si Si2 0.000000 0.500000 0.499626
Si Si3 0.353016 0.097342 0.754716
Si Si4 0.943474 0.848286 0.148607
Si Si5 0.162693 0.926054 0.200420
Si Si6 0.646589 0.166257 0.350285
Si Si7 0.742645 0.102946 0.877313
Si Si8 0.153638 0.215232 0.663370
O O1 0.593019 0.798128 0.824996
O O2 0.644125 0.601807 0.796071
O O3 0.462029 0.674462 0.687395
O O4 0.480841 0.655107 0.973531
O O5 0.080127 0.555459 0.614681
O O6 0.055356 0.413488 0.395802
O O7 0.241079 0.129522 0.693289
O O8 0.327932 0.001929 0.869802
O O9 0.888379 0.743421 0.213136
O O10 0.053672 0.867706 0.232235
O O11 0.869679 0.950964 0.172693
O O12 0.250389 0.902495 0.321593
O O13 0.216501 0.880410 0.047310
O O14 0.665999 0.237829 0.497565
O O15 0.677257 0.193511 0.790604
#
# Coordination Sequence:
#
# PCOD9343958 Si02
#       8
#     4   2   4   4   4   4   4   4
#     4  10  21  42  67  98 129 169 221 278 333 387
#     4  12  26  44  60  96 132 172 216 280 322 400
#     4  11  22  40  66  93 128 166 221 276 329 389
#     4  10  24  44  67  99 134 176 225 277 333 400
#     4  10  24  44  66  98 135 176 227 276 332 404
#     4  12  26  40  66  92 139 179 219 271 333 402
#     4  10  21  40  68  95 128 168 220 280 327 386
#     4  11  23  38  65  96 127 176 218 267 332 391
#
# _framework density 21.019333
#
# number of rings (size 3 to 8) (size 9 to 14) (size 15 to 20)
#    0.000    1.333    2.667    1.600    3.733    4.800 
#    0.000    0.000    0.000    0.000    0.000    0.000 
#    0.000    0.000    0.000    0.000    0.000    0.000 
#
# Total GULP energy -167538.309709 kJ/mol
# GULP energy per Si atom -5584.610324 kJ/mol
# Density = 2.097149 g / cm^3
# Si number density = 21.019333 Si / 1000 Ang^3
#
#
#
# Elastic Constant Matrix: (Units=GPa)
#
#
# Indices 1 2 3 4 5 6 
#
# 1 101.6879 33.2481 16.8979 0.0000 0.0000 0.0000
# 2 33.2481 75.0792 5.6105 0.0000 0.0000 0.0000
# 3 16.8979 5.6105 29.8815 0.0000 0.0000 0.0000
# 4 0.0000 0.0000 0.0000 22.7841 0.0000 0.0000
# 5 0.0000 0.0000 0.0000 0.0000 246.4939 0.0000
# 6 0.0000 0.0000 0.0000 0.0000 0.0000 41.2372
#
#
#
# Elastic Compliance Matrix: (Units=1/GPa)
#
#
# Indices 1 2 3 4 5 6 
#
# 1 0.012514 -0.005084 -0.006122 0.000000 0.000000 0.000000
# 2 -0.005084 0.015574 -0.000049 0.000000 0.000000 0.000000
# 3 -0.006122 -0.000049 0.036937 0.000000 0.000000 0.000000
# 4 0.000000 0.000000 0.000000 0.043890 0.000000 0.000000
# 5 0.000000 0.000000 0.000000 0.000000 0.004057 0.000000
# 6 0.000000 0.000000 0.000000 0.000000 0.000000 0.024250
#
#
# Mechanical properties :
#
#
# Convention : Reuss Voigt Hill
#
# Bulk Modulus (GPa) = 23.52146 35.35132 29.43639
# Shear Modulus (GPa) = 28.75159 72.16250 50.45704
#
# Velocity S-wave (km/s) = 3.70248 5.86566 4.90481
# Velocity P-wave (km/s) = 5.43070 7.92021 6.79051
#
# Compressibility (1/GPa) = 0.04251436
#
# Stress axis : x y z
#
# Youngs Moduli (GPa) = 79.91303 64.20805 27.07343
#
# Poissons Ratio (x) = 0.32644 0.16574
# Poissons Ratio (y) = 0.40628 0.00133
# Poissons Ratio (z) = 0.48921 0.00316
#
# Static dielectric constant tensor:
#      x y z
#    x 1.680280 0.000000 0.000000 
#    y 0.000000 1.849690 0.000000 
#    z 0.000000 0.000000 1.755450 
# 
# From -- ./inp_files/2820.got.cif
#   From: 2010.05.17/outbox.cif.g08.bks.cpg/sg32_2_cif.got.tgz:2820.got - 2010.06.03 17:12:27.
