data_PCOD9343088
_publ_section_title
;
Structure prediction by ZEFSAII (Michael W. Deem and Ramdas Pophale) SiO2 
 PCOD9343088
Probable space group: P M N 21
;
_chemical_formula_sum "Si O2"
_cell_formula_units_Z 20
_cell_length_a 18.462410
_cell_length_b 4.841989
_cell_length_c 8.858436
_cell_angle_alpha 90.000000
_cell_angle_beta 90.000000
_cell_angle_gamma 90.000000
_cell_volume 791.897992
_symmetry_space_group_name_H-M "P M N 21"
_symmetry_group_IT_number 31
_symmetry_cell_setting 'orthorhombic'
loop_
_space_group_symop_operation_xyz
x,y,z
1/2-x,-y,1/2+z
-x,y,z
1/2+x,-y,1/2+z
loop_
_atom_site_type_symbol
_atom_site_label
_atom_site_fract_x
_atom_site_fract_y
_atom_site_fract_z
Si Si1 0.345038 0.580930 0.199530
Si Si2 0.313598 0.526627 0.778716
Si Si3 0.364163 0.246308 0.504111
Si Si4 0.294399 0.013265 0.991574
Si Si5 0.500000 0.424782 0.185135
Si Si6 0.500000 0.932347 0.389878
O O1 0.262866 0.459669 0.186837
O O2 0.358263 0.469152 0.369023
O O3 0.420503 0.491435 0.117738
O O4 0.332146 0.899490 0.146278
O O5 0.370241 0.413496 0.659183
O O6 0.326488 0.811325 0.861593
O O7 0.304152 0.306029 0.912950
O O8 0.289876 0.069522 0.506328
O O9 0.429503 0.038732 0.475093
O O10 0.500000 0.107368 0.233346
O O11 0.500000 0.619379 0.335784
#
# Coordination Sequence:
#
# PCOD9343088 Si02
#       6
#     4   4   4   4   2   2
#     4   9  20  37  58  81 109 145 185 225 271 327
#     4  10  21  36  56  82 111 142 180 227 276 324
#     4   9  20  37  58  81 109 145 185 225 271 327
#     4  10  21  36  56  82 111 142 180 227 276 324
#     4  10  20  34  54  80 106 138 181 224 265 318
#     4  10  20  34  54  80 106 138 181 224 265 318
#
# _framework density 25.255780000000001
#
# number of rings (size 3 to 8) (size 9 to 14) (size 15 to 20)
#    0.000    2.400    0.000    1.200    0.000   19.200 
#    0.000    2.000    0.000    0.000    0.000    0.000 
#    0.000    0.000    0.000    0.000    0.000    0.000 
#
# Total GULP energy -111692.519324 kJ/mol
# GULP energy per Si atom -5584.625966 kJ/mol
# Density = 2.519830 g / cm^3
# Si number density = 25.255780 Si / 1000 Ang^3
#
#
#
# Elastic Constant Matrix: (Units=GPa)
#
#
# Indices 1 2 3 4 5 6 
#
# 1 126.0798 10.8348 17.6466 0.0000 0.0000 0.0000
# 2 10.8348 68.8518 35.4476 0.0000 0.0000 0.0000
# 3 17.6466 35.4476 111.4643 0.0000 0.0000 0.0000
# 4 0.0000 0.0000 0.0000 42.0553 0.0000 0.0000
# 5 0.0000 0.0000 0.0000 0.0000 36.4585 0.0000
# 6 0.0000 0.0000 0.0000 0.0000 0.0000 35.0454
#
#
#
# Elastic Compliance Matrix: (Units=1/GPa)
#
#
# Indices 1 2 3 4 5 6 
#
# 1 0.008143 -0.000739 -0.001054 0.000000 0.000000 0.000000
# 2 -0.000739 0.017434 -0.005428 0.000000 0.000000 0.000000
# 3 -0.001054 -0.005428 0.010864 0.000000 0.000000 0.000000
# 4 0.000000 0.000000 0.000000 0.023778 0.000000 0.000000
# 5 0.000000 0.000000 0.000000 0.000000 0.027428 0.000000
# 6 0.000000 0.000000 0.000000 0.000000 0.000000 0.028534
#
#
# Mechanical properties :
#
#
# Convention : Reuss Voigt Hill
#
# Bulk Modulus (GPa) = 45.45301 48.25044 46.85173
# Shear Modulus (GPa) = 36.24324 38.87630 37.55977
#
# Velocity S-wave (km/s) = 3.79231 3.92765 3.86057
# Velocity P-wave (km/s) = 6.10013 6.30197 6.20187
#
# Compressibility (1/GPa) = 0.02200074
#
# Stress axis : x y z
#
# Youngs Moduli (GPa) = 122.81226 57.35756 92.04340
#
# Poissons Ratio (x) = 0.04236 0.09703
# Poissons Ratio (y) = 0.09071 0.49957
# Poissons Ratio (z) = 0.12947 0.31131
#
# Static dielectric constant tensor:
#      x y z
#    x 2.044250 0.000000 0.000000 
#    y 0.000000 2.044320 0.000000 
#    z 0.000000 0.000000 2.065080 
# 
# From -- ./inp_files/2704.got.cif
#   From: 2010.05.17/outbox.cif.g08.bks.cpg/sg31_2_cif.got.tgz:2704.got - 2010.06.03 17:08:30.
