data_PCOD9343750
_publ_section_title
;
Structure prediction by ZEFSAII (Michael W. Deem and Ramdas Pophale) SiO2 
 PCOD9343750
Probable space group: P B A 2
;
_chemical_formula_sum "Si O2"
_cell_formula_units_Z 24
_cell_length_a 4.798817
_cell_length_b 14.323512
_cell_length_c 15.042800
_cell_angle_alpha 90.000000
_cell_angle_beta 90.000000
_cell_angle_gamma 90.000000
_cell_volume 1033.980590
_symmetry_space_group_name_H-M "P B A 2"
_symmetry_group_IT_number 32
_symmetry_cell_setting 'orthorhombic'
loop_
_space_group_symop_operation_xyz
x,y,z
-x,-y,z
1/2-x,1/2+y,z
1/2+x,1/2-y,z
loop_
_atom_site_type_symbol
_atom_site_label
_atom_site_fract_x
_atom_site_fract_y
_atom_site_fract_z
Si Si1 0.242125 0.436968 0.649290
Si Si2 0.398399 0.817999 0.812930
Si Si3 0.743822 0.441405 0.350178
Si Si4 0.400252 0.314585 0.485811
Si Si5 0.442986 0.817630 0.006500
Si Si6 0.125250 0.682937 0.190066
O O1 0.500000 0.500000 0.680842
O O2 0.085694 0.386475 0.730381
O O3 0.380354 0.362284 0.582315
O O4 0.000000 0.500000 0.604584
O O5 0.592456 0.726812 0.807780
O O6 0.468544 0.862535 0.909265
O O7 0.500000 0.500000 0.300882
O O8 0.551292 0.387117 0.420850
O O9 0.897758 0.377893 0.277580
O O10 0.000000 0.500000 0.390947
O O11 0.586712 0.221666 0.473053
O O12 0.632701 0.723541 0.008447
O O13 0.037448 0.633392 0.097502
O O14 0.433680 0.724932 0.192603
#
# Coordination Sequence:
#
# PCOD9343750 Si02
#       6
#     4   4   4   4   4   4
#     4  12  25  41  62  93 131 166 203 265 332 381
#     4  10  19  37  62  90 121 164 213 256 302 372
#     4  12  25  41  62  93 131 166 203 265 332 381
#     4  12  25  44  67  90 118 168 224 266 309 384
#     4   8  16  30  57  88 117 154 206 258 298 350
#     4  10  19  37  62  90 121 164 213 256 302 372
#
# _framework density 23.211266999999999
#
# number of rings (size 3 to 8) (size 9 to 14) (size 15 to 20)
#    0.000    1.333    0.000    6.500    0.000    1.333 
#    0.000    0.833    0.000    2.000    0.000    0.000 
#    0.000    0.000    0.000    0.000    0.000    0.000 
#
# Total GULP energy -133931.688778 kJ/mol
# GULP energy per Si atom -5580.487032 kJ/mol
# Density = 2.315844 g / cm^3
# Si number density = 23.211267 Si / 1000 Ang^3
#
#
#
# Elastic Constant Matrix: (Units=GPa)
#
#
# Indices 1 2 3 4 5 6 
#
# 1 85.4071 13.5631 27.2640 0.0000 0.0000 0.0000
# 2 13.5631 40.9633 43.6278 0.0000 0.0000 0.0000
# 3 27.2640 43.6278 167.9608 0.0000 0.0000 0.0000
# 4 0.0000 0.0000 0.0000 -48.1171 0.0000 0.0000
# 5 0.0000 0.0000 0.0000 0.0000 30.5889 0.0000
# 6 0.0000 0.0000 0.0000 0.0000 0.0000 25.1827
#
#
#
# Elastic Compliance Matrix: (Units=1/GPa)
#
#
# Indices 1 2 3 4 5 6 
#
# 1 0.012569 -0.002749 -0.001326 0.000000 0.000000 0.000000
# 2 -0.002749 0.034350 -0.008476 0.000000 0.000000 0.000000
# 3 -0.001326 -0.008476 0.008371 0.000000 0.000000 0.000000
# 4 0.000000 0.000000 0.000000 -0.020783 0.000000 0.000000
# 5 0.000000 0.000000 0.000000 0.000000 0.032692 0.000000
# 6 0.000000 0.000000 0.000000 0.000000 0.000000 0.039710
#
#
# Mechanical properties :
#
#
# Convention : Reuss Voigt Hill
#
# Bulk Modulus (GPa) = 33.12757 51.47122 42.29940
# Shear Modulus (GPa) = 35.19329 15.52265 25.35797
#
# Velocity S-wave (km/s) = 3.89809 2.58884 3.30886
# Velocity P-wave (km/s) = 5.87905 5.58205 5.73248
#
# Compressibility (1/GPa) = 0.03018633
#
# Stress axis : x y z
#
# Youngs Moduli (GPa) = 79.56383 29.11227 119.46442
#
# Poissons Ratio (x) = 0.08003 0.15842
# Poissons Ratio (y) = 0.21873 1.01259
# Poissons Ratio (z) = 0.10551 0.24676
#
# Static dielectric constant tensor:
#      x y z
#    x 1.832860 0.000000 0.000000 
#    y 0.000000 1.919110 0.000000 
#    z 0.000000 0.000000 1.962030 
# 
# From -- ./inp_files/4093.got.cif
#   From: 2010.05.17/outbox.cif.g08.bks.cpg/sg32_3_cif.got.tgz:4093.got - 2010.06.03 17:12:27.
