data_PCOD9343500
_publ_section_title
;
Structure prediction by ZEFSAII (Michael W. Deem and Ramdas Pophale) SiO2 
 PCOD9343500
Probable space group: P M N 21
;
_chemical_formula_sum "Si O2"
_cell_formula_units_Z 32
_cell_length_a 17.312594
_cell_length_b 15.087402
_cell_length_c 5.169842
_cell_angle_alpha 90.000000
_cell_angle_beta 90.000000
_cell_angle_gamma 90.000000
_cell_volume 1350.373408
_symmetry_space_group_name_H-M "P M N 21"
_symmetry_group_IT_number 31
_symmetry_cell_setting 'orthorhombic'
loop_
_space_group_symop_operation_xyz
x,y,z
1/2-x,-y,1/2+z
-x,y,z
1/2+x,-y,1/2+z
loop_
_atom_site_type_symbol
_atom_site_label
_atom_site_fract_x
_atom_site_fract_y
_atom_site_fract_z
Si Si1 0.292114 0.912399 0.646820
Si Si2 0.674110 0.745098 0.335008
Si Si3 0.909083 0.403166 0.104268
Si Si4 0.591240 0.485421 0.101878
Si Si5 0.375469 0.033934 0.324388
Si Si6 0.086704 0.766110 0.807622
Si Si7 0.417182 0.860667 0.019099
Si Si8 0.161209 0.685422 0.320078
O O1 0.294156 0.841831 0.417301
O O2 0.207907 0.948383 0.695071
O O3 0.350702 0.993089 0.597477
O O4 0.336186 0.861011 0.869606
O O5 0.643317 0.681851 0.559934
O O6 0.596053 0.772430 0.186252
O O7 0.749774 0.694495 0.233070
O O8 0.887019 0.478522 0.887382
O O9 0.000000 0.385930 0.059533
O O10 0.900267 0.436157 0.395443
O O11 0.500000 0.461263 0.110477
O O12 0.638047 0.406098 0.963175
O O13 0.413618 0.128589 0.356963
O O14 0.417070 0.953434 0.178046
O O15 0.141425 0.751126 0.559860
O O16 0.000000 0.738222 0.737810
O O17 0.113020 0.713046 0.064452
O O18 0.500000 0.855699 0.877970
#
# Coordination Sequence:
#
# PCOD9343500 Si02
#       8
#     4   4   4   4   4   4   4   4
#     4  11  23  42  67  92 135 178 225 288 344 409
#     4  11  26  43  67 100 139 179 232 285 349 411
#     4  10  23  43  71 100 136 181 227 282 347 416
#     4  10  22  43  68  99 136 178 225 283 348 414
#     4  11  23  41  65  95 128 179 228 283 343 404
#     4  12  26  43  68 101 137 179 232 287 339 413
#     4  11  25  43  67  97 135 181 233 289 345 411
#     4  12  26  44  71 102 140 181 228 281 355 412
#
# _framework density 23.697147000000001
#
# number of rings (size 3 to 8) (size 9 to 14) (size 15 to 20)
#    0.000    1.000    2.500    3.375    5.250    5.000 
#    0.000    0.000    0.000    0.000    0.000    0.000 
#    0.000    0.000    0.000    0.000    0.000    0.000 
#
# Total GULP energy -178614.047057 kJ/mol
# GULP energy per Si atom -5581.688971 kJ/mol
# Density = 2.364321 g / cm^3
# Si number density = 23.697147 Si / 1000 Ang^3
#
#
#
# Elastic Constant Matrix: (Units=GPa)
#
#
# Indices 1 2 3 4 5 6 
#
# 1 90.9395 11.7461 0.2205 0.0000 0.0000 0.0000
# 2 11.7461 82.3692 -7.3282 0.0000 0.0000 0.0000
# 3 0.2205 -7.3282 65.4622 0.0000 0.0000 0.0000
# 4 0.0000 0.0000 0.0000 27.0364 0.0000 0.0000
# 5 0.0000 0.0000 0.0000 0.0000 15.5577 0.0000
# 6 0.0000 0.0000 0.0000 0.0000 0.0000 77.9140
#
#
#
# Elastic Compliance Matrix: (Units=1/GPa)
#
#
# Indices 1 2 3 4 5 6 
#
# 1 0.011206 -0.001617 -0.000219 0.000000 0.000000 0.000000
# 2 -0.001617 0.012496 0.001404 0.000000 0.000000 0.000000
# 3 -0.000219 0.001404 0.015434 0.000000 0.000000 0.000000
# 4 0.000000 0.000000 0.000000 0.036987 0.000000 0.000000
# 5 0.000000 0.000000 0.000000 0.000000 0.064277 0.000000
# 6 0.000000 0.000000 0.000000 0.000000 0.000000 0.012835
#
#
# Mechanical properties :
#
#
# Convention : Reuss Voigt Hill
#
# Bulk Modulus (GPa) = 26.12883 27.56084 26.84483
# Shear Modulus (GPa) = 29.96606 39.71046 34.83826
#
# Velocity S-wave (km/s) = 3.55990 4.09803 3.83841
# Velocity P-wave (km/s) = 5.28652 5.83503 5.56753
#
# Compressibility (1/GPa) = 0.03827191
#
# Stress axis : x y z
#
# Youngs Moduli (GPa) = 89.23976 80.02530 64.79232
#
# Poissons Ratio (x) = 0.12944 0.01418
# Poissons Ratio (y) = 0.14434 -0.09099
# Poissons Ratio (z) = 0.01953 -0.11238
#
# Static dielectric constant tensor:
#      x y z
#    x 2.005550 0.000000 0.000000 
#    y 0.000000 1.898300 0.000000 
#    z 0.000000 0.000000 1.966050 
# 
# From -- ./inp_files/871.got.cif
#   From: 2010.05.17/outbox.cif.g08.bks.cpg/sg31_1_cif.got.tgz:871.got - 2010.06.03 17:08:30.
