data_PCOD9343635
_publ_section_title
;
Structure prediction by ZEFSAII (Michael W. Deem and Ramdas Pophale) SiO2 
 PCOD9343635
Probable space group: P B A 2
;
_chemical_formula_sum "Si O2"
_cell_formula_units_Z 26
_cell_length_a 31.781704
_cell_length_b 5.361534
_cell_length_c 8.574304
_cell_angle_alpha 90.000000
_cell_angle_beta 90.000000
_cell_angle_gamma 90.000000
_cell_volume 1461.050140
_symmetry_space_group_name_H-M "P B A 2"
_symmetry_group_IT_number 32
_symmetry_cell_setting 'orthorhombic'
loop_
_space_group_symop_operation_xyz
x,y,z
-x,-y,z
1/2-x,1/2+y,z
1/2+x,1/2-y,z
loop_
_atom_site_type_symbol
_atom_site_label
_atom_site_fract_x
_atom_site_fract_y
_atom_site_fract_z
Si Si1 0.138218 0.222610 0.850130
Si Si2 0.632274 0.776402 0.052013
Si Si3 0.583808 0.273305 0.539734
Si Si4 0.921337 0.256704 0.354813
Si Si5 0.771841 0.274396 0.111982
Si Si6 0.263776 0.719997 0.759389
Si Si7 0.000000 0.000000 0.466272
O O1 0.131304 0.469519 0.952993
O O2 0.109231 0.237423 0.698518
O O3 0.187272 0.216917 0.800834
O O4 0.129076 0.969732 0.945316
O O5 0.596667 0.778679 0.182805
O O6 0.678394 0.766700 0.131809
O O7 0.599145 0.512707 0.438409
O O8 0.534346 0.342769 0.562628
O O9 0.586631 0.012743 0.447794
O O10 0.970787 0.184493 0.365011
O O11 0.750988 0.527414 0.172529
O O12 0.762563 0.276845 0.923573
O O13 0.249453 0.471111 0.674313
#
# Coordination Sequence:
#
# PCOD9343635 Si02
#       7
#     4   4   4   4   4   4   2
#     4  12  21  34  61  95 116 144 202 249 280 321
#     4  12  21  34  61  95 116 144 202 249 280 321
#     4  10  22  41  65  81 115 158 191 228 296 371
#     4  10  22  41  65  81 115 158 191 228 296 371
#     4  10  16  30  49  81 114 160 180 225 274 351
#     4  10  16  30  49  81 114 160 180 225 274 351
#     4   8  22  44  68  72 110 168 188 212 310 392
#
# _framework density 17.795418000000002
#
# number of rings (size 3 to 8) (size 9 to 14) (size 15 to 20)
#    0.923    0.615    6.154    2.308    0.000    0.000 
#    0.000    0.769    0.000    5.538    0.000    0.000 
#    0.000    0.000    0.000    0.000    0.000    0.000 
#
# Total GULP energy -144832.057163 kJ/mol
# GULP energy per Si atom -5570.463737 kJ/mol
# Density = 1.775492 g / cm^3
# Si number density = 17.795418 Si / 1000 Ang^3
#
#
#
# Elastic Constant Matrix: (Units=GPa)
#
#
# Indices 1 2 3 4 5 6 
#
# 1 95.2445 26.2708 44.7089 0.0000 0.0000 0.0000
# 2 26.2708 183.9898 41.8451 0.0000 0.0000 0.0000
# 3 44.7089 41.8451 50.7215 0.0000 0.0000 0.0000
# 4 0.0000 0.0000 0.0000 11.8681 0.0000 0.0000
# 5 0.0000 0.0000 0.0000 0.0000 43.6511 0.0000
# 6 0.0000 0.0000 0.0000 0.0000 0.0000 9.1391
#
#
#
# Elastic Compliance Matrix: (Units=1/GPa)
#
#
# Indices 1 2 3 4 5 6 
#
# 1 0.018155 0.001289 -0.017066 0.000000 0.000000 0.000000
# 2 0.001289 0.006782 -0.006731 0.000000 0.000000 0.000000
# 3 -0.017066 -0.006731 0.040312 0.000000 0.000000 0.000000
# 4 0.000000 0.000000 0.000000 0.084260 0.000000 0.000000
# 5 0.000000 0.000000 0.000000 0.000000 0.022909 0.000000
# 6 0.000000 0.000000 0.000000 0.000000 0.000000 0.109420
#
#
# Mechanical properties :
#
#
# Convention : Reuss Voigt Hill
#
# Bulk Modulus (GPa) = 49.42712 61.73394 55.58053
# Shear Modulus (GPa) = 14.98807 27.40706 21.19757
#
# Velocity S-wave (km/s) = 2.90529 3.92869 3.45509
# Velocity P-wave (km/s) = 6.25218 7.43947 6.87152
#
# Compressibility (1/GPa) = 0.02023181
#
# Stress axis : x y z
#
# Youngs Moduli (GPa) = 55.08163 147.45004 24.80634
#
# Poissons Ratio (x) = -0.19009 0.42335
# Poissons Ratio (y) = -0.07101 0.16698
# Poissons Ratio (z) = 0.94004 0.99256
#
# Static dielectric constant tensor:
#      x y z
#    x 1.587240 0.000000 0.000000 
#    y 0.000000 1.692770 0.000000 
#    z 0.000000 0.000000 1.571360 
# 
# From -- ./inp_files/3382.got.cif
#   From: 2010.05.17/outbox.cif.g08.bks.cpg/sg32_2_cif.got.tgz:3382.got - 2010.06.03 17:12:27.
