data_PCOD9343347
_publ_section_title
;
Structure prediction by ZEFSAII (Michael W. Deem and Ramdas Pophale) SiO2 
 PCOD9343347
Probable space group: P M N 21
;
_chemical_formula_sum "Si O2"
_cell_formula_units_Z 32
_cell_length_a 8.776757
_cell_length_b 10.540652
_cell_length_c 19.812855
_cell_angle_alpha 90.000000
_cell_angle_beta 90.000000
_cell_angle_gamma 90.000000
_cell_volume 1832.941528
_symmetry_space_group_name_H-M "P M N 21"
_symmetry_group_IT_number 31
_symmetry_cell_setting 'orthorhombic'
loop_
_space_group_symop_operation_xyz
x,y,z
1/2-x,-y,1/2+z
-x,y,z
1/2+x,-y,1/2+z
loop_
_atom_site_type_symbol
_atom_site_label
_atom_site_fract_x
_atom_site_fract_y
_atom_site_fract_z
Si Si1 0.316089 0.763230 0.796240
Si Si2 0.682294 0.778089 0.947925
Si Si3 0.319064 0.519031 0.296960
Si Si4 0.684097 0.872686 0.654484
Si Si5 0.182977 0.614376 0.163830
Si Si6 0.316458 0.132657 0.584312
Si Si7 0.817683 0.519505 0.440247
Si Si8 0.182500 0.625450 0.584095
O O1 0.500000 0.746194 0.796540
O O2 0.273071 0.811664 0.870953
O O3 0.242853 0.624626 0.786442
O O4 0.275089 0.851613 0.733185
O O5 0.500000 0.790366 0.953654
O O6 0.720187 0.628156 0.955849
O O7 0.758094 0.855565 0.007946
O O8 0.500000 0.519451 0.290698
O O9 0.244743 0.605865 0.239696
O O10 0.267318 0.556717 0.372038
O O11 0.500000 0.866834 0.650555
O O12 0.752278 0.755384 0.613197
O O13 0.734618 0.005597 0.622530
O O14 0.232346 0.741660 0.125122
O O15 0.247572 0.492093 0.125070
O O16 0.000000 0.608696 0.164301
O O17 0.500000 0.132400 0.583312
O O18 0.780639 0.602862 0.505397
O O19 0.000000 0.523900 0.428344
O O20 0.000000 0.622417 0.591454
#
# Coordination Sequence:
#
# PCOD9343347 Si02
#       8
#     4   4   4   4   4   4   4   4
#     4   9  18  34  55  78 106 144 184 223 281 336
#     4   9  17  32  54  79 107 141 180 229 279 326
#     4  11  21  32  53  84 113 140 184 235 279 327
#     4  10  21  38  57  79 112 150 185 228 277 332
#     4  11  21  35  55  79 112 150 184 224 276 328
#     4  10  22  37  55  81 111 149 191 225 271 333
#     4   9  19  35  54  79 113 145 179 226 282 335
#     4  11  21  35  57  85 110 139 185 232 275 329
#
# _framework density 17.458276000000001
#
# number of rings (size 3 to 8) (size 9 to 14) (size 15 to 20)
#    0.000    2.000    2.500    2.625    0.000    4.000 
#    0.000    1.250    0.000    3.000    0.000    0.000 
#    0.000    0.000    0.000    0.000    0.000    0.000 
#
# Total GULP energy -178596.330227 kJ/mol
# GULP energy per Si atom -5581.135320 kJ/mol
# Density = 1.741854 g / cm^3
# Si number density = 17.458276 Si / 1000 Ang^3
#
#
#
# Elastic Constant Matrix: (Units=GPa)
#
#
# Indices 1 2 3 4 5 6 
#
# 1 25.3164 28.2407 40.7563 0.0000 0.0000 0.0000
# 2 28.2407 107.9000 78.4146 0.0000 0.0000 0.0000
# 3 40.7563 78.4146 165.1845 0.0000 0.0000 0.0000
# 4 0.0000 0.0000 0.0000 27.2676 0.0000 0.0000
# 5 0.0000 0.0000 0.0000 0.0000 32.6741 0.0000
# 6 0.0000 0.0000 0.0000 0.0000 0.0000 -160.8793
#
#
#
# Elastic Compliance Matrix: (Units=1/GPa)
#
#
# Indices 1 2 3 4 5 6 
#
# 1 0.070714 -0.008898 -0.013223 0.000000 0.000000 0.000000
# 2 -0.008898 0.015269 -0.005053 0.000000 0.000000 0.000000
# 3 -0.013223 -0.005053 0.011715 0.000000 0.000000 0.000000
# 4 0.000000 0.000000 0.000000 0.036674 0.000000 0.000000
# 5 0.000000 0.000000 0.000000 0.000000 0.030605 0.000000
# 6 0.000000 0.000000 0.000000 0.000000 0.000000 -0.006216
#
#
# Mechanical properties :
#
#
# Convention : Reuss Voigt Hill
#
# Bulk Modulus (GPa) = 23.06838 65.91379 44.49108
# Shear Modulus (GPa) = 21.97228 -10.12157 5.92536
#
# Velocity S-wave (km/s) = 3.55147 -2.41043 1.84428
# Velocity P-wave (km/s) = 5.48264 5.48545 5.48404
#
# Compressibility (1/GPa) = 0.04334938
#
# Stress axis : x y z
#
# Youngs Moduli (GPa) = 14.14143 65.49325 85.36002
#
# Poissons Ratio (x) = 0.58276 1.12876
# Poissons Ratio (y) = 0.12583 0.43130
# Poissons Ratio (z) = 0.18700 0.33092
#
# Static dielectric constant tensor:
#      x y z
#    x 1.586460 0.000000 0.000000 
#    y 0.000000 1.564550 0.000000 
#    z 0.000000 0.000000 1.609400 
# 
# From -- ./inp_files/5842.got.cif
#   From: 2010.05.17/outbox.cif.g08.bks.cpg/sg31_3_cif.got.tgz:5842.got - 2010.06.03 17:08:30.
