data_PCOD9343403
_publ_section_title
;
Structure prediction by ZEFSAII (Michael W. Deem and Ramdas Pophale) SiO2 
 PCOD9343403
Probable space group: P M N 21
;
_chemical_formula_sum "Si O2"
_cell_formula_units_Z 32
_cell_length_a 28.385996
_cell_length_b 8.471209
_cell_length_c 5.921249
_cell_angle_alpha 90.000000
_cell_angle_beta 90.000000
_cell_angle_gamma 90.000000
_cell_volume 1423.845472
_symmetry_space_group_name_H-M "P M N 21"
_symmetry_group_IT_number 31
_symmetry_cell_setting 'orthorhombic'
loop_
_space_group_symop_operation_xyz
x,y,z
1/2-x,-y,1/2+z
-x,y,z
1/2+x,-y,1/2+z
loop_
_atom_site_type_symbol
_atom_site_label
_atom_site_fract_x
_atom_site_fract_y
_atom_site_fract_z
Si Si1 0.726610 0.675964 0.423070
Si Si2 0.448662 0.143029 0.334645
Si Si3 0.184585 0.579438 0.191524
Si Si4 0.146485 0.319791 0.552856
Si Si5 0.593021 0.277193 0.731318
Si Si6 0.134989 0.971180 0.575603
Si Si7 0.261051 0.070990 0.213788
Si Si8 0.553885 0.486404 0.099271
O O1 0.777780 0.692549 0.310947
O O2 0.715347 0.499349 0.496674
O O3 0.684475 0.713254 0.252220
O O4 0.731248 0.774276 0.652688
O O5 0.500000 0.088115 0.265073
O O6 0.442221 0.166297 0.599178
O O7 0.408134 0.029457 0.249221
O O8 0.443075 0.324079 0.244506
O O9 0.166644 0.450636 0.377620
O O10 0.137117 0.653332 0.092325
O O11 0.097002 0.393680 0.643616
O O12 0.138185 0.142883 0.460069
O O13 0.620719 0.168550 0.908151
O O14 0.564623 0.417895 0.848797
O O15 0.182676 0.921450 0.700739
O O16 0.249760 0.021758 0.472640
O O17 0.500000 0.545983 0.119166
#
# Coordination Sequence:
#
# PCOD9343403 Si02
#       8
#     4   4   4   4   4   4   4   4
#     4  12  23  38  64  89 134 174 230 279 342 414
#     4  10  22  41  67  94 127 170 224 283 346 416
#     4  11  23  37  60  90 125 172 223 279 340 404
#     4  11  23  42  59  94 127 173 215 284 335 412
#     4  10  21  39  64  93 125 171 224 283 340 422
#     4  11  24  40  64  95 134 174 225 278 344 416
#     4  12  27  45  68 100 142 192 231 284 349 416
#     4   9  20  40  65  91 123 166 221 282 348 410
#
# _framework density 22.474350999999999
#
# number of rings (size 3 to 8) (size 9 to 14) (size 15 to 20)
#    0.000    1.250    3.750    1.875    1.750    3.000 
#    0.000    0.000    0.000    0.000    0.000    0.000 
#    0.000    0.000    0.000    0.000    0.000    0.000 
#
# Total GULP energy -178439.952817 kJ/mol
# GULP energy per Si atom -5576.248526 kJ/mol
# Density = 2.242320 g / cm^3
# Si number density = 22.474351 Si / 1000 Ang^3
#
#
#
# Elastic Constant Matrix: (Units=GPa)
#
#
# Indices 1 2 3 4 5 6 
#
# 1 175.2147 27.9604 31.3591 0.0000 0.0000 0.0000
# 2 27.9604 47.6867 -1.2020 0.0000 0.0000 0.0000
# 3 31.3591 -1.2020 40.6333 0.0000 0.0000 0.0000
# 4 0.0000 0.0000 0.0000 37.8869 0.0000 0.0000
# 5 0.0000 0.0000 0.0000 0.0000 25.6189 0.0000
# 6 0.0000 0.0000 0.0000 0.0000 0.0000 27.3066
#
#
#
# Elastic Compliance Matrix: (Units=1/GPa)
#
#
# Indices 1 2 3 4 5 6 
#
# 1 0.007491 -0.004541 -0.005915 0.000000 0.000000 0.000000
# 2 -0.004541 0.023739 0.004207 0.000000 0.000000 0.000000
# 3 -0.005915 0.004207 0.029300 0.000000 0.000000 0.000000
# 4 0.000000 0.000000 0.000000 0.026394 0.000000 0.000000
# 5 0.000000 0.000000 0.000000 0.000000 0.039034 0.000000
# 6 0.000000 0.000000 0.000000 0.000000 0.000000 0.036621
#
#
# Mechanical properties :
#
#
# Convention : Reuss Voigt Hill
#
# Bulk Modulus (GPa) = 20.82015 42.19663 31.50839
# Shear Modulus (GPa) = 26.16598 31.85697 29.01148
#
# Velocity S-wave (km/s) = 3.41583 3.76903 3.59677
# Velocity P-wave (km/s) = 4.98410 6.14467 5.59456
#
# Compressibility (1/GPa) = 0.04803039
#
# Stress axis : x y z
#
# Youngs Moduli (GPa) = 133.50006 42.12498 34.12976
#
# Poissons Ratio (x) = 0.19129 0.20189
# Poissons Ratio (y) = 0.60624 -0.14358
# Poissons Ratio (z) = 0.78969 -0.17721
#
# Static dielectric constant tensor:
#      x y z
#    x 1.843190 0.000000 0.000000 
#    y 0.000000 1.884130 0.000000 
#    z 0.000000 0.000000 1.906810 
# 
# From -- ./inp_files/1363.got.cif
#   From: 2010.05.17/outbox.cif.g08.bks.cpg/sg31_1_cif.got.tgz:1363.got - 2010.06.03 17:08:30.
