data_PCOD9343182
_publ_section_title
;
Structure prediction by ZEFSAII (Michael W. Deem and Ramdas Pophale) SiO2 
 PCOD9343182
Probable space group: P M N 21
;
_chemical_formula_sum "Si O2"
_cell_formula_units_Z 32
_cell_length_a 9.082947
_cell_length_b 16.003928
_cell_length_c 11.262149
_cell_angle_alpha 90.000000
_cell_angle_beta 90.000000
_cell_angle_gamma 90.000000
_cell_volume 1637.097848
_symmetry_space_group_name_H-M "P M N 21"
_symmetry_group_IT_number 31
_symmetry_cell_setting 'orthorhombic'
loop_
_space_group_symop_operation_xyz
x,y,z
1/2-x,-y,1/2+z
-x,y,z
1/2+x,-y,1/2+z
loop_
_atom_site_type_symbol
_atom_site_label
_atom_site_fract_x
_atom_site_fract_y
_atom_site_fract_z
Si Si1 0.167224 0.206430 0.030470
Si Si2 0.667641 0.643742 0.338930
Si Si3 0.672944 0.651471 0.695977
Si Si4 0.824116 0.961615 0.472176
Si Si5 0.822045 0.949946 0.201340
Si Si6 0.825496 0.758976 0.153088
Si Si7 0.675811 0.472662 0.017573
Si Si8 0.672567 0.658924 0.975616
O O1 0.208793 0.255028 0.150589
O O2 0.000000 0.172401 0.039884
O O3 0.164497 0.282143 0.936741
O O4 0.277258 0.134732 0.991549
O O5 0.500000 0.621584 0.307438
O O6 0.752100 0.687451 0.232554
O O7 0.750220 0.566962 0.400278
O O8 0.500000 0.637504 0.665319
O O9 0.767601 0.583398 0.626246
O O10 0.688951 0.647042 0.835595
O O11 0.780014 0.982810 0.334354
O O12 0.000000 0.971651 0.479272
O O13 0.749309 0.008563 0.584161
O O14 0.782220 0.851473 0.195043
O O15 0.000000 0.957138 0.192737
O O16 0.000000 0.753413 0.160282
O O17 0.766921 0.735764 0.023277
O O18 0.500000 0.467401 0.006609
O O19 0.716460 0.569459 0.030592
O O20 0.500000 0.674246 0.001809
#
# Coordination Sequence:
#
# PCOD9343182 Si02
#       8
#     4   4   4   4   4   4   4   4
#     4   9  18  35  61  87 113 151 195 242 296 356
#     4  10  20  36  61  88 116 152 197 242 292 358
#     4   9  20  39  58  81 117 159 200 248 303 363
#     4  11  23  40  65  94 125 163 205 258 316 376
#     4  10  24  44  63  92 130 162 208 261 315 381
#     4  11  23  40  62  87 121 160 200 253 307 360
#     4  10  21  36  57  87 118 155 200 250 301 353
#     4  10  23  40  57  84 122 160 203 250 304 367
#
# _framework density 19.546786000000001
#
# number of rings (size 3 to 8) (size 9 to 14) (size 15 to 20)
#    0.000    2.000    1.250    2.250    1.750    6.500 
#    0.000    3.750    0.000    0.000    0.000    0.000 
#    0.000    0.000    0.000    0.000    0.000    0.000 
#
# Total GULP energy -178561.684390 kJ/mol
# GULP energy per Si atom -5580.052637 kJ/mol
# Density = 1.950230 g / cm^3
# Si number density = 19.546786 Si / 1000 Ang^3
#
#
#
# Elastic Constant Matrix: (Units=GPa)
#
#
# Indices 1 2 3 4 5 6 
#
# 1 47.7533 29.0766 41.4433 0.0000 0.0000 0.0000
# 2 29.0766 58.8173 47.4067 0.0000 0.0000 0.0000
# 3 41.4433 47.4067 105.8935 0.0000 0.0000 0.0000
# 4 0.0000 0.0000 0.0000 25.0088 0.0000 0.0000
# 5 0.0000 0.0000 0.0000 0.0000 33.9919 0.0000
# 6 0.0000 0.0000 0.0000 0.0000 0.0000 24.7925
#
#
#
# Elastic Compliance Matrix: (Units=1/GPa)
#
#
# Indices 1 2 3 4 5 6 
#
# 1 0.034980 -0.009791 -0.009307 0.000000 0.000000 0.000000
# 2 -0.009791 0.029341 -0.009303 0.000000 0.000000 0.000000
# 3 -0.009307 -0.009303 0.017251 0.000000 0.000000 0.000000
# 4 0.000000 0.000000 0.000000 0.039986 0.000000 0.000000
# 5 0.000000 0.000000 0.000000 0.000000 0.029419 0.000000
# 6 0.000000 0.000000 0.000000 0.000000 0.000000 0.040335
#
#
# Mechanical properties :
#
#
# Convention : Reuss Voigt Hill
#
# Bulk Modulus (GPa) = 40.37360 49.81304 45.09332
# Shear Modulus (GPa) = 19.50317 23.06115 21.28216
#
# Velocity S-wave (km/s) = 3.16217 3.43854 3.30325
# Velocity P-wave (km/s) = 5.83371 6.42682 6.13743
#
# Compressibility (1/GPa) = 0.02476866
#
# Stress axis : x y z
#
# Youngs Moduli (GPa) = 28.58812 34.08248 57.96888
#
# Poissons Ratio (x) = 0.33371 0.53949
# Poissons Ratio (y) = 0.27991 0.53930
# Poissons Ratio (z) = 0.26606 0.31708
#
# Static dielectric constant tensor:
#      x y z
#    x 1.669460 0.000000 0.000000 
#    y 0.000000 1.666260 0.000000 
#    z 0.000000 0.000000 1.762930 
# 
# From -- ./inp_files/3732.got.cif
#   From: 2010.05.17/outbox.cif.g08.bks.cpg/sg31_2_cif.got.tgz:3732.got - 2010.06.03 17:08:30.
