data_PCOD9343183
_publ_section_title
;
Structure prediction by ZEFSAII (Michael W. Deem and Ramdas Pophale) SiO2 
 PCOD9343183
Probable space group: P M N 21
;
_chemical_formula_sum "Si O2"
_cell_formula_units_Z 32
_cell_length_a 8.546324
_cell_length_b 14.771218
_cell_length_c 12.792011
_cell_angle_alpha 90.000000
_cell_angle_beta 90.000000
_cell_angle_gamma 90.000000
_cell_volume 1614.858542
_symmetry_space_group_name_H-M "P M N 21"
_symmetry_group_IT_number 31
_symmetry_cell_setting 'orthorhombic'
loop_
_space_group_symop_operation_xyz
x,y,z
1/2-x,-y,1/2+z
-x,y,z
1/2+x,-y,1/2+z
loop_
_atom_site_type_symbol
_atom_site_label
_atom_site_fract_x
_atom_site_fract_y
_atom_site_fract_z
Si Si1 0.189323 0.756148 0.262020
Si Si2 0.689794 0.137862 0.217552
Si Si3 0.684605 0.551531 0.861441
Si Si4 0.679526 0.143931 0.449565
Si Si5 0.187758 0.662314 0.661615
Si Si6 0.684999 0.632850 0.434914
Si Si7 0.820825 0.658726 0.052687
Si Si8 0.690106 0.057152 0.654784
O O1 0.252346 0.719823 0.371405
O O2 0.237871 0.687052 0.167973
O O3 0.236509 0.858869 0.230573
O O4 0.000000 0.754043 0.262529
O O5 0.500000 0.137189 0.215467
O O6 0.751235 0.144301 0.336280
O O7 0.737221 0.231745 0.163353
O O8 0.750725 0.042334 0.178169
O O9 0.500000 0.540249 0.850107
O O10 0.746221 0.611051 0.763864
O O11 0.765993 0.454188 0.867001
O O12 0.723577 0.597008 0.973949
O O13 0.500000 0.112374 0.436397
O O14 0.672009 0.244821 0.494060
O O15 0.751735 0.083879 0.539992
O O16 0.242342 0.623772 0.550490
O O17 0.000000 0.658021 0.668711
O O18 0.500000 0.637677 0.444727
O O19 0.000000 0.623265 0.061046
O O20 0.500000 0.058018 0.654040
#
# Coordination Sequence:
#
# PCOD9343183 Si02
#       8
#     4   4   4   4   4   4   4   4
#     4   9  20  40  64  90 125 166 210 261 315 370
#     4  10  20  36  61  88 120 160 204 258 317 374
#     4  12  25  41  64  94 126 161 206 258 317 380
#     4   8  15  33  56  80 110 154 201 247 306 363
#     4  11  24  45  68  92 126 164 212 266 320 379
#     4  12  27  44  64  91 129 172 212 259 318 381
#     4   9  17  36  64  87 114 155 205 257 308 364
#     4   9  19  35  59  88 122 162 208 258 311 373
#
# _framework density 19.815975999999999
#
# number of rings (size 3 to 8) (size 9 to 14) (size 15 to 20)
#    0.000    2.000    1.250    4.125    1.750    3.000 
#    0.000    5.000    0.000    0.000    0.000    0.000 
#    0.000    0.000    0.000    0.000    0.000    0.000 
#
# Total GULP energy -178501.841167 kJ/mol
# GULP energy per Si atom -5578.182536 kJ/mol
# Density = 1.977087 g / cm^3
# Si number density = 19.815976 Si / 1000 Ang^3
#
#
#
# Elastic Constant Matrix: (Units=GPa)
#
#
# Indices 1 2 3 4 5 6 
#
# 1 26.0599 2.8098 9.2334 0.0000 0.0000 0.0000
# 2 2.8098 83.5401 32.8230 0.0000 0.0000 0.0000
# 3 9.2334 32.8230 65.8142 0.0000 0.0000 0.0000
# 4 0.0000 0.0000 0.0000 19.5975 0.0000 0.0000
# 5 0.0000 0.0000 0.0000 0.0000 33.2520 0.0000
# 6 0.0000 0.0000 0.0000 0.0000 0.0000 26.4443
#
#
#
# Elastic Compliance Matrix: (Units=1/GPa)
#
#
# Indices 1 2 3 4 5 6 
#
# 1 0.040459 0.001081 -0.006215 0.000000 0.000000 0.000000
# 2 0.001081 0.014916 -0.007591 0.000000 0.000000 0.000000
# 3 -0.006215 -0.007591 0.019852 0.000000 0.000000 0.000000
# 4 0.000000 0.000000 0.000000 0.051027 0.000000 0.000000
# 5 0.000000 0.000000 0.000000 0.000000 0.030073 0.000000
# 6 0.000000 0.000000 0.000000 0.000000 0.000000 0.037815
#
#
# Mechanical properties :
#
#
# Convention : Reuss Voigt Hill
#
# Bulk Modulus (GPa) = 20.08954 29.46074 24.77514
# Shear Modulus (GPa) = 21.16984 24.56197 22.86591
#
# Velocity S-wave (km/s) = 3.27207 3.52448 3.40061
# Velocity P-wave (km/s) = 4.94321 5.60910 5.28665
#
# Compressibility (1/GPa) = 0.04977714
#
# Stress axis : x y z
#
# Youngs Moduli (GPa) = 24.71653 67.04044 50.37278
#
# Poissons Ratio (x) = -0.07249 0.31309
# Poissons Ratio (y) = -0.02672 0.38237
# Poissons Ratio (z) = 0.15362 0.50889
#
# Static dielectric constant tensor:
#      x y z
#    x 1.682170 0.000000 0.000000 
#    y 0.000000 1.709820 0.000000 
#    z 0.000000 0.000000 1.728910 
# 
# From -- ./inp_files/3617.got.cif
#   From: 2010.05.17/outbox.cif.g08.bks.cpg/sg31_2_cif.got.tgz:3617.got - 2010.06.03 17:08:30.
