data_PCOD9343531
_publ_section_title
;
Structure prediction by ZEFSAII (Michael W. Deem and Ramdas Pophale) SiO2 
 PCOD9343531
Probable space group: P M N 21
;
_chemical_formula_sum "Si O2"
_cell_formula_units_Z 32
_cell_length_a 20.788160
_cell_length_b 17.199184
_cell_length_c 5.082399
_cell_angle_alpha 90.000000
_cell_angle_beta 90.000000
_cell_angle_gamma 90.000000
_cell_volume 1817.157832
_symmetry_space_group_name_H-M "P M N 21"
_symmetry_group_IT_number 31
_symmetry_cell_setting 'orthorhombic'
loop_
_space_group_symop_operation_xyz
x,y,z
1/2-x,-y,1/2+z
-x,y,z
1/2+x,-y,1/2+z
loop_
_atom_site_type_symbol
_atom_site_label
_atom_site_fract_x
_atom_site_fract_y
_atom_site_fract_z
Si Si1 0.292007 0.165446 0.484840
Si Si2 0.296941 0.835445 0.484764
Si Si3 0.926380 0.451528 0.845322
Si Si4 0.819140 0.334556 0.968552
Si Si5 0.681858 0.331526 0.658737
Si Si6 0.573604 0.437659 0.847620
Si Si7 0.250745 0.445144 0.314811
Si Si8 0.205644 0.999329 0.102327
O O1 0.232125 0.162196 0.691102
O O2 0.328545 0.244136 0.559083
O O3 0.326831 0.082926 0.533294
O O4 0.262467 0.170467 0.193005
O O5 0.335285 0.755375 0.517377
O O6 0.328866 0.918498 0.550399
O O7 0.874834 0.382734 0.828264
O O8 0.735901 0.497684 0.058290
O O9 0.000000 0.422184 0.845188
O O10 0.916342 0.501296 0.110162
O O11 0.750431 0.333655 0.813907
O O12 0.803895 0.384139 0.230435
O O13 0.624474 0.368417 0.823805
O O14 0.692530 0.389974 0.415037
O O15 0.500000 0.408990 0.829917
O O16 0.580493 0.487937 0.109226
O O17 0.233923 0.998077 0.396902
#
# Coordination Sequence:
#
# PCOD9343531 Si02
#       8
#     4   4   4   4   4   4   4   4
#     4   9  17  29  43  70  96 123 153 194 241 295
#     4   9  17  29  43  70  96 123 153 194 241 295
#     4  10  24  39  51  67  96 135 173 204 245 298
#     4  11  23  33  52  76  99 125 164 214 245 289
#     4  11  23  33  52  76  99 125 164 214 245 289
#     4  10  24  39  51  67  96 135 173 204 245 298
#     4  12  24  32  44  74 102 128 156 206 252 288
#     4   8  14  26  44  60  95 128 147 178 242 298
#
# _framework density 17.609919000000001
#
# number of rings (size 3 to 8) (size 9 to 14) (size 15 to 20)
#    0.000    2.000    2.500    0.750    7.000    0.000 
#    0.000    0.000    0.000    0.000    0.000    0.875 
#    0.000    0.000    0.000   51.375    0.000    0.000 
#
# Total GULP energy -178422.779079 kJ/mol
# GULP energy per Si atom -5575.711846 kJ/mol
# Density = 1.756984 g / cm^3
# Si number density = 17.609919 Si / 1000 Ang^3
#
#
#
# Elastic Constant Matrix: (Units=GPa)
#
#
# Indices 1 2 3 4 5 6 
#
# 1 69.4074 33.9006 0.1109 0.0000 0.0000 0.0000
# 2 33.9006 139.7846 3.4310 0.0000 0.0000 0.0000
# 3 0.1109 3.4310 83.5184 0.0000 0.0000 0.0000
# 4 0.0000 0.0000 0.0000 16.5497 0.0000 0.0000
# 5 0.0000 0.0000 0.0000 0.0000 13.3764 0.0000
# 6 0.0000 0.0000 0.0000 0.0000 0.0000 8.9231
#
#
#
# Elastic Compliance Matrix: (Units=1/GPa)
#
#
# Indices 1 2 3 4 5 6 
#
# 1 0.016345 -0.003968 0.000141 0.000000 0.000000 0.000000
# 2 -0.003968 0.008124 -0.000328 0.000000 0.000000 0.000000
# 3 0.000141 -0.000328 0.011987 0.000000 0.000000 0.000000
# 4 0.000000 0.000000 0.000000 0.060424 0.000000 0.000000
# 5 0.000000 0.000000 0.000000 0.000000 0.074758 0.000000
# 6 0.000000 0.000000 0.000000 0.000000 0.000000 0.112069
#
#
# Mechanical properties :
#
#
# Convention : Reuss Voigt Hill
#
# Bulk Modulus (GPa) = 35.52812 40.84393 38.18603
# Shear Modulus (GPa) = 16.58929 24.78770 20.68849
#
# Velocity S-wave (km/s) = 3.07260 3.75587 3.43128
# Velocity P-wave (km/s) = 5.72771 6.48481 6.11798
#
# Compressibility (1/GPa) = 0.02814672
#
# Stress axis : x y z
#
# Youngs Moduli (GPa) = 61.17954 123.09003 83.42571
#
# Poissons Ratio (x) = 0.48836 -0.01179
# Poissons Ratio (y) = 0.24273 0.02740
# Poissons Ratio (z) = -0.00864 0.04043
#
# Static dielectric constant tensor:
#      x y z
#    x 1.590250 0.000000 0.000000 
#    y 0.000000 1.671110 0.000000 
#    z 0.000000 0.000000 1.657020 
# 
# From -- ./inp_files/889.got.cif
#   From: 2010.05.17/outbox.cif.g08.bks.cpg/sg31_1_cif.got.tgz:889.got - 2010.06.03 17:08:30.
