data_PCOD9343165
_publ_section_title
;
Structure prediction by ZEFSAII (Michael W. Deem and Ramdas Pophale) SiO2 
 PCOD9343165
Probable space group: P M N 21
;
_chemical_formula_sum "Si O2"
_cell_formula_units_Z 32
_cell_length_a 7.664611
_cell_length_b 11.088718
_cell_length_c 14.418603
_cell_angle_alpha 90.000000
_cell_angle_beta 90.000000
_cell_angle_gamma 90.000000
_cell_volume 1225.447306
_symmetry_space_group_name_H-M "P M N 21"
_symmetry_group_IT_number 31
_symmetry_cell_setting 'orthorhombic'
loop_
_space_group_symop_operation_xyz
x,y,z
1/2-x,-y,1/2+z
-x,y,z
1/2+x,-y,1/2+z
loop_
_atom_site_type_symbol
_atom_site_label
_atom_site_fract_x
_atom_site_fract_y
_atom_site_fract_z
Si Si1 0.297254 0.295709 0.620670
Si Si2 0.299129 0.946167 0.225727
Si Si3 0.703414 0.439254 0.093954
Si Si4 0.702963 0.537727 0.382516
Si Si5 0.207159 0.166433 0.441539
Si Si6 0.289452 0.308005 0.271781
Si Si7 0.209373 0.205253 0.883246
Si Si8 0.789676 0.931670 0.550745
O O1 0.500000 0.293168 0.645552
O O2 0.203660 0.181727 0.668873
O O3 0.219670 0.427321 0.639961
O O4 0.282294 0.268624 0.510101
O O5 0.500000 0.981552 0.242863
O O6 0.215048 0.903475 0.321546
O O7 0.221951 0.042501 0.153899
O O8 0.500000 0.414237 0.076585
O O9 0.771329 0.341089 0.168165
O O10 0.789840 0.455208 0.993944
O O11 0.500000 0.536731 0.355766
O O12 0.778570 0.419141 0.335577
O O13 0.780183 0.665938 0.351609
O O14 0.246628 0.191970 0.334251
O O15 0.274746 0.042726 0.486726
O O16 0.000000 0.168014 0.452633
O O17 0.500000 0.308702 0.265979
O O18 0.000000 0.205608 0.870780
O O19 0.243631 0.184015 0.991242
O O20 0.000000 0.936127 0.556804
#
# Coordination Sequence:
#
# PCOD9343165 Si02
#       8
#     4   4   4   4   4   4   4   4
#     4  11  20  32  55  85 115 148 190 240 284 335
#     4   9  19  38  61  85 112 151 198 244 295 345
#     4  11  22  36  55  83 118 158 192 229 289 352
#     4  10  21  38  58  84 117 152 191 243 291 339
#     4  10  20  36  58  82 111 146 188 239 291 338
#     4  10  21  37  58  84 115 151 193 236 285 350
#     4  10  21  39  62  85 115 156 197 240 293 350
#     4   9  20  38  59  84 115 146 187 243 292 343
#
# _framework density 26.112912999999999
#
# number of rings (size 3 to 8) (size 9 to 14) (size 15 to 20)
#    0.000    2.000    1.250    3.375    0.000    6.500 
#    2.250    1.250    0.000    0.000    0.000    0.000 
#    0.000    0.000    0.000    0.000    0.000    0.000 
#
# Total GULP energy -178964.494483 kJ/mol
# GULP energy per Si atom -5592.640453 kJ/mol
# Density = 2.605348 g / cm^3
# Si number density = 26.112913 Si / 1000 Ang^3
#
#
#
# Elastic Constant Matrix: (Units=GPa)
#
#
# Indices 1 2 3 4 5 6 
#
# 1 79.0316 -6.4905 -4.4578 0.0000 0.0000 0.0000
# 2 -6.4905 68.4101 20.0473 0.0000 0.0000 0.0000
# 3 -4.4578 20.0473 141.2593 0.0000 0.0000 0.0000
# 4 0.0000 0.0000 0.0000 53.0854 0.0000 0.0000
# 5 0.0000 0.0000 0.0000 0.0000 68.4271 0.0000
# 6 0.0000 0.0000 0.0000 0.0000 0.0000 17.1669
#
#
#
# Elastic Compliance Matrix: (Units=1/GPa)
#
#
# Indices 1 2 3 4 5 6 
#
# 1 0.012760 0.001140 0.000241 0.000000 0.000000 0.000000
# 2 0.001140 0.015354 -0.002143 0.000000 0.000000 0.000000
# 3 0.000241 -0.002143 0.007391 0.000000 0.000000 0.000000
# 4 0.000000 0.000000 0.000000 0.018838 0.000000 0.000000
# 5 0.000000 0.000000 0.000000 0.000000 0.014614 0.000000
# 6 0.000000 0.000000 0.000000 0.000000 0.000000 0.058252
#
#
# Mechanical properties :
#
#
# Convention : Reuss Voigt Hill
#
# Bulk Modulus (GPa) = 29.42816 34.09990 31.76403
# Shear Modulus (GPa) = 35.69907 46.37602 41.03754
#
# Velocity S-wave (km/s) = 3.70145 4.21881 3.96857
# Velocity P-wave (km/s) = 5.43706 6.06779 5.76107
#
# Compressibility (1/GPa) = 0.03398106
#
# Stress axis : x y z
#
# Youngs Moduli (GPa) = 78.36756 65.13005 135.30119
#
# Poissons Ratio (x) = -0.07425 -0.03259
# Poissons Ratio (y) = -0.08934 0.28995
# Poissons Ratio (z) = -0.01888 0.13958
#
# Static dielectric constant tensor:
#      x y z
#    x 1.934110 0.000000 0.000000 
#    y 0.000000 2.108600 0.000000 
#    z 0.000000 0.000000 2.110240 
# 
# From -- ./inp_files/5010.got.cif
#   From: 2010.05.17/outbox.cif.g08.bks.cpg/sg31_3_cif.got.tgz:5010.got - 2010.06.03 17:08:30.
