data_PCOD9343766
_publ_section_title
;
Structure prediction by ZEFSAII (Michael W. Deem and Ramdas Pophale) SiO2 
 PCOD9343766
Probable space group: P B A 2
;
_chemical_formula_sum "Si O2"
_cell_formula_units_Z 30
_cell_length_a 13.795638
_cell_length_b 20.296906
_cell_length_c 5.321630
_cell_angle_alpha 90.000000
_cell_angle_beta 90.000000
_cell_angle_gamma 90.000000
_cell_volume 1490.103058
_symmetry_space_group_name_H-M "P B A 2"
_symmetry_group_IT_number 32
_symmetry_cell_setting 'orthorhombic'
loop_
_space_group_symop_operation_xyz
x,y,z
-x,-y,z
1/2-x,1/2+y,z
1/2+x,1/2-y,z
loop_
_atom_site_type_symbol
_atom_site_label
_atom_site_fract_x
_atom_site_fract_y
_atom_site_fract_z
Si Si1 0.170347 0.559316 0.794630
Si Si2 0.500000 0.000000 0.449682
Si Si3 0.774585 0.809513 0.811368
Si Si4 0.844016 0.554898 0.157477
Si Si5 0.713896 0.661412 0.928488
Si Si6 0.376053 0.647893 0.306698
Si Si7 0.172129 0.003810 0.459811
Si Si8 0.406606 0.372452 0.428986
O O1 0.085147 0.536674 0.606074
O O2 0.187765 0.636530 0.832003
O O3 0.276465 0.531095 0.710308
O O4 0.145180 0.516945 0.034873
O O5 0.554599 0.059002 0.299835
O O6 0.812417 0.817128 0.525090
O O7 0.745395 0.735921 0.881520
O O8 0.852855 0.828555 0.025883
O O9 0.806011 0.611559 0.970190
O O10 0.756707 0.542558 0.348570
O O11 0.651340 0.652116 0.182369
O O12 0.649266 0.644388 0.685855
O O13 0.349841 0.570174 0.311069
O O14 0.486151 0.655610 0.395346
O O15 0.085642 0.952072 0.452706
#
# Coordination Sequence:
#
# PCOD9343766 Si02
#       8
#     4   2   4   4   4   4   4   4
#     4  10  19  39  62  88 128 165 216 260 324 368
#     4  10  22  36  62  98 118 172 228 282 290 386
#     4  11  24  43  65  89 131 175 204 257 329 381
#     4  10  19  39  62  88 128 165 216 260 324 368
#     4  11  24  43  65  89 131 175 204 257 329 381
#     4  11  22  40  65  97 124 158 210 260 309 383
#     4   9  19  35  63  92 124 158 195 259 329 371
#     4  11  22  40  65  97 124 158 210 260 309 383
#
# _framework density 20.132835
#
# number of rings (size 3 to 8) (size 9 to 14) (size 15 to 20)
#    0.000    1.600    2.667    2.400    0.000    0.000 
#    2.400    5.333    0.000    0.000    0.000    0.000 
#    0.000    0.000    0.000    0.000    0.000    0.000 
#
# Total GULP energy -167070.295242 kJ/mol
# GULP energy per Si atom -5569.009841 kJ/mol
# Density = 2.008701 g / cm^3
# Si number density = 20.132835 Si / 1000 Ang^3
#
#
#
# Elastic Constant Matrix: (Units=GPa)
#
#
# Indices 1 2 3 4 5 6 
#
# 1 83.6044 31.5755 21.2081 0.0000 0.0000 0.0000
# 2 31.5755 115.8262 13.5492 0.0000 0.0000 0.0000
# 3 21.2081 13.5492 74.5042 0.0000 0.0000 0.0000
# 4 0.0000 0.0000 0.0000 11.2717 0.0000 0.0000
# 5 0.0000 0.0000 0.0000 0.0000 10.7640 0.0000
# 6 0.0000 0.0000 0.0000 0.0000 0.0000 8.3787
#
#
#
# Elastic Compliance Matrix: (Units=1/GPa)
#
#
# Indices 1 2 3 4 5 6 
#
# 1 0.014126 -0.003454 -0.003393 0.000000 0.000000 0.000000
# 2 -0.003454 0.009666 -0.000775 0.000000 0.000000 0.000000
# 3 -0.003393 -0.000775 0.014529 0.000000 0.000000 0.000000
# 4 0.000000 0.000000 0.000000 0.088718 0.000000 0.000000
# 5 0.000000 0.000000 0.000000 0.000000 0.092903 0.000000
# 6 0.000000 0.000000 0.000000 0.000000 0.000000 0.119350
#
#
# Mechanical properties :
#
#
# Convention : Reuss Voigt Hill
#
# Bulk Modulus (GPa) = 43.33203 45.17781 44.25492
# Shear Modulus (GPa) = 13.80348 19.92300 16.86324
#
# Velocity S-wave (km/s) = 2.62128 3.14917 2.89727
# Velocity P-wave (km/s) = 5.54358 5.97592 5.76380
#
# Compressibility (1/GPa) = 0.02307762
#
# Stress axis : x y z
#
# Youngs Moduli (GPa) = 70.78978 103.45692 68.82895
#
# Poissons Ratio (x) = 0.35735 0.23354
# Poissons Ratio (y) = 0.24451 0.05331
# Poissons Ratio (z) = 0.24019 0.08014
#
# Static dielectric constant tensor:
#      x y z
#    x 1.792630 0.000000 0.000000 
#    y 0.000000 1.757910 0.000000 
#    z 0.000000 0.000000 1.768010 
# 
# From -- ./inp_files/1292.got.cif
#   From: 2010.05.17/outbox.cif.g08.bks.cpg/sg32_1_cif.got.tgz:1292.got - 2010.06.03 17:12:27.
