data_PCOD9343009
_publ_section_title
;
Structure prediction by ZEFSAII (Michael W. Deem and Ramdas Pophale) SiO2 
 PCOD9343009
Probable space group: P M N 21
;
_chemical_formula_sum "Si O2"
_cell_formula_units_Z 32
_cell_length_a 8.440153
_cell_length_b 15.829642
_cell_length_c 12.384772
_cell_angle_alpha 90.000000
_cell_angle_beta 90.000000
_cell_angle_gamma 90.000000
_cell_volume 1654.662514
_symmetry_space_group_name_H-M "P M N 21"
_symmetry_group_IT_number 31
_symmetry_cell_setting 'orthorhombic'
loop_
_space_group_symop_operation_xyz
x,y,z
1/2-x,-y,1/2+z
-x,y,z
1/2+x,-y,1/2+z
loop_
_atom_site_type_symbol
_atom_site_label
_atom_site_fract_x
_atom_site_fract_y
_atom_site_fract_z
Si Si1 0.685469 0.150105 0.059630
Si Si2 0.813547 0.410910 0.840198
Si Si3 0.686453 0.910911 0.340198
Si Si4 0.193517 0.600520 0.800290
Si Si5 0.806483 0.899479 0.800290
Si Si6 0.306118 0.250001 0.459375
Si Si7 0.811044 0.750001 0.208012
Si Si8 0.185469 0.650104 0.559630
O O1 0.500000 0.125427 0.050475
O O2 0.738818 0.131575 0.181149
O O3 0.694906 0.250000 0.040768
O O4 0.782143 0.105234 0.966232
O O5 0.750974 0.504523 0.814366
O O6 0.741029 0.334134 0.771685
O O7 0.000000 0.410262 0.818203
O O8 0.782144 0.394766 0.966233
O O9 0.500000 0.910263 0.318203
O O10 0.758971 0.834135 0.271684
O O11 0.749026 0.004524 0.314367
O O12 0.244523 0.666884 0.892145
O O13 0.238818 0.631574 0.681150
O O14 0.000000 0.600653 0.803985
O O15 0.755477 0.833115 0.892145
O O16 0.000000 0.899346 0.803984
O O17 0.500000 0.250001 0.460004
O O18 0.252607 0.250000 0.583716
O O19 0.000000 0.750001 0.205153
O O20 0.000000 0.625426 0.550475
#
# Coordination Sequence:
#
# PCOD9343009 Si02
#       8
#     4   4   4   4   4   4   4   4
#     4  10  19  36  62  84 108 146 194 235 276 336
#     4  11  23  37  57  85 119 150 185 235 288 332
#     4  11  23  37  57  85 119 150 185 235 288 332
#     4   9  19  36  58  85 113 148 189 234 283 332
#     4   9  19  36  58  85 113 148 189 234 283 332
#     4   9  18  36  59  82 110 147 192 231 274 337
#     4  11  23  38  59  82 112 153 194 233 278 339
#     4  10  19  36  62  84 108 146 194 235 276 336
#
# _framework density 19.339290999999999
#
# number of rings (size 3 to 8) (size 9 to 14) (size 15 to 20)
#    0.000    2.000    2.500    1.125    3.500    0.000 
#    0.000    1.250    0.000    3.000    0.000    0.000 
#    0.000    0.000    0.000    0.000    0.000    0.000 
#
# Total GULP energy -178610.754436 kJ/mol
# GULP energy per Si atom -5581.586076 kJ/mol
# Density = 1.929527 g / cm^3
# Si number density = 19.339291 Si / 1000 Ang^3
#
#
#
# Elastic Constant Matrix: (Units=GPa)
#
#
# Indices 1 2 3 4 5 6 
#
# 1 13.3102 15.9292 2.6535 0.0000 0.0000 0.0000
# 2 15.9292 124.0026 40.6497 0.0000 0.0000 0.0000
# 3 2.6535 40.6497 99.1494 0.0000 0.0000 0.0000
# 4 0.0000 0.0000 0.0000 32.9047 0.0000 0.0000
# 5 0.0000 0.0000 0.0000 0.0000 14.6026 0.0000
# 6 0.0000 0.0000 0.0000 0.0000 0.0000 3.0968
#
#
#
# Elastic Compliance Matrix: (Units=1/GPa)
#
#
# Indices 1 2 3 4 5 6 
#
# 1 0.089389 -0.012360 0.002675 0.000000 0.000000 0.000000
# 2 -0.012360 0.011025 -0.004189 0.000000 0.000000 0.000000
# 3 0.002675 -0.004189 0.011732 0.000000 0.000000 0.000000
# 4 0.000000 0.000000 0.000000 0.030391 0.000000 0.000000
# 5 0.000000 0.000000 0.000000 0.000000 0.068481 0.000000
# 6 0.000000 0.000000 0.000000 0.000000 0.000000 0.322917
#
#
# Mechanical properties :
#
#
# Convention : Reuss Voigt Hill
#
# Bulk Modulus (GPa) = 11.84863 39.43632 25.64248
# Shear Modulus (GPa) = 8.47723 21.93615 15.20669
#
# Velocity S-wave (km/s) = 2.09593 3.37156 2.80716
# Velocity P-wave (km/s) = 3.46371 5.96596 4.87801
#
# Compressibility (1/GPa) = 0.08439796
#
# Stress axis : x y z
#
# Youngs Moduli (GPa) = 11.18705 90.69942 85.23828
#
# Poissons Ratio (x) = 1.12102 -0.22802
# Poissons Ratio (y) = 0.13827 0.35710
# Poissons Ratio (z) = -0.02993 0.37998
#
# Static dielectric constant tensor:
#      x y z
#    x 1.668000 0.000000 0.000000 
#    y 0.000000 1.669220 0.000000 
#    z 0.000000 0.000000 1.655900 
# 
# From -- ./inp_files/3644.got.cif
#   From: 2010.05.17/outbox.cif.g08.bks.cpg/sg31_2_cif.got.tgz:3644.got - 2010.06.03 17:08:30.
