data_PCOD9343209
_publ_section_title
;
Structure prediction by ZEFSAII (Michael W. Deem and Ramdas Pophale) SiO2 
 PCOD9343209
Probable space group: P M N 21
;
_chemical_formula_sum "Si O2"
_cell_formula_units_Z 32
_cell_length_a 8.738486
_cell_length_b 14.760474
_cell_length_c 12.777594
_cell_angle_alpha 90.000000
_cell_angle_beta 90.000000
_cell_angle_gamma 90.000000
_cell_volume 1648.107681
_symmetry_space_group_name_H-M "P M N 21"
_symmetry_group_IT_number 31
_symmetry_cell_setting 'orthorhombic'
loop_
_space_group_symop_operation_xyz
x,y,z
1/2-x,-y,1/2+z
-x,y,z
1/2+x,-y,1/2+z
loop_
_atom_site_type_symbol
_atom_site_label
_atom_site_fract_x
_atom_site_fract_y
_atom_site_fract_z
Si Si1 0.684377 0.667680 0.031270
Si Si2 0.673118 0.130584 0.824394
Si Si3 0.314283 0.228252 0.121948
Si Si4 0.315393 0.358412 0.302577
Si Si5 0.683701 0.553688 0.233912
Si Si6 0.681837 0.870527 0.099866
Si Si7 0.325654 0.331193 0.915294
Si Si8 0.821249 0.050208 0.021144
O O1 0.500000 0.659978 0.027041
O O2 0.739190 0.607830 0.130823
O O3 0.722793 0.773067 0.051645
O O4 0.750856 0.639985 0.919396
O O5 0.500000 0.096618 0.841604
O O6 0.727962 0.118302 0.707657
O O7 0.671624 0.236935 0.851605
O O8 0.789302 0.085088 0.904446
O O9 0.500000 0.220197 0.115261
O O10 0.270860 0.271192 0.233136
O O11 0.269214 0.299583 0.029779
O O12 0.243362 0.130830 0.095094
O O13 0.500000 0.358389 0.308108
O O14 0.267625 0.449263 0.240818
O O15 0.500000 0.556432 0.229221
O O16 0.733772 0.600582 0.342468
O O17 0.500000 0.870175 0.118782
O O18 0.730119 0.957108 0.033411
O O19 0.500000 0.365087 0.927619
O O20 0.000000 0.036632 0.041032
#
# Coordination Sequence:
#
# PCOD9343209 Si02
#       8
#     4   4   4   4   4   4   4   4
#     4  10  23  41  62  88 123 158 198 250 304 362
#     4  10  20  37  59  86 117 152 199 252 302 362
#     4   9  20  40  60  84 119 160 204 253 304 357
#     4  10  23  40  61  87 123 164 203 249 305 364
#     4  10  21  38  59  87 119 154 197 247 299 358
#     4  11  22  39  62  88 120 161 202 253 309 362
#     4   9  18  33  59  86 111 148 194 247 299 353
#     4  11  23  38  60  90 122 161 205 253 306 368
#
# _framework density 19.416208000000001
#
# number of rings (size 3 to 8) (size 9 to 14) (size 15 to 20)
#    0.000    2.000    1.250    2.625    1.750    5.500 
#    0.000    2.500    0.000    0.000    0.000    0.000 
#    0.000    0.000    0.000    0.000    0.000    0.000 
#
# Total GULP energy -178593.049505 kJ/mol
# GULP energy per Si atom -5581.032797 kJ/mol
# Density = 1.937202 g / cm^3
# Si number density = 19.416208 Si / 1000 Ang^3
#
#
#
# Elastic Constant Matrix: (Units=GPa)
#
#
# Indices 1 2 3 4 5 6 
#
# 1 18.7419 14.5011 6.4610 0.0000 0.0000 0.0000
# 2 14.5011 90.6818 34.6893 0.0000 0.0000 0.0000
# 3 6.4610 34.6893 54.9554 0.0000 0.0000 0.0000
# 4 0.0000 0.0000 0.0000 15.4691 0.0000 0.0000
# 5 0.0000 0.0000 0.0000 0.0000 30.7109 0.0000
# 6 0.0000 0.0000 0.0000 0.0000 0.0000 23.5224
#
#
#
# Elastic Compliance Matrix: (Units=1/GPa)
#
#
# Indices 1 2 3 4 5 6 
#
# 1 0.060964 -0.009238 -0.001336 0.000000 0.000000 0.000000
# 2 -0.009238 0.015938 -0.008974 0.000000 0.000000 0.000000
# 3 -0.001336 -0.008974 0.024018 0.000000 0.000000 0.000000
# 4 0.000000 0.000000 0.000000 0.064645 0.000000 0.000000
# 5 0.000000 0.000000 0.000000 0.000000 0.032562 0.000000
# 6 0.000000 0.000000 0.000000 0.000000 0.000000 0.042513
#
#
# Mechanical properties :
#
#
# Convention : Reuss Voigt Hill
#
# Bulk Modulus (GPa) = 16.17494 30.63130 23.40312
# Shear Modulus (GPa) = 16.64753 21.18900 18.91826
#
# Velocity S-wave (km/s) = 2.93132 3.30707 3.12485
# Velocity P-wave (km/s) = 4.45035 5.51296 5.00991
#
# Compressibility (1/GPa) = 0.06182401
#
# Stress axis : x y z
#
# Youngs Moduli (GPa) = 16.40301 62.74392 41.63460
#
# Poissons Ratio (x) = 0.57961 0.05564
# Poissons Ratio (y) = 0.15153 0.37364
# Poissons Ratio (z) = 0.02192 0.56308
#
# Static dielectric constant tensor:
#      x y z
#    x 1.660070 0.000000 0.000000 
#    y 0.000000 1.688570 0.000000 
#    z 0.000000 0.000000 1.675140 
# 
# From -- ./inp_files/3680.got.cif
#   From: 2010.05.17/outbox.cif.g08.bks.cpg/sg31_2_cif.got.tgz:3680.got - 2010.06.03 17:08:30.
