data_PCOD9343298
_publ_section_title
;
Structure prediction by ZEFSAII (Michael W. Deem and Ramdas Pophale) SiO2 
 PCOD9343298
Probable space group: P M N 21
;
_chemical_formula_sum "Si O2"
_cell_formula_units_Z 32
_cell_length_a 12.948193
_cell_length_b 10.090781
_cell_length_c 11.462965
_cell_angle_alpha 90.000000
_cell_angle_beta 90.000000
_cell_angle_gamma 90.000000
_cell_volume 1497.720973
_symmetry_space_group_name_H-M "P M N 21"
_symmetry_group_IT_number 31
_symmetry_cell_setting 'orthorhombic'
loop_
_space_group_symop_operation_xyz
x,y,z
1/2-x,-y,1/2+z
-x,y,z
1/2+x,-y,1/2+z
loop_
_atom_site_type_symbol
_atom_site_label
_atom_site_fract_x
_atom_site_fract_y
_atom_site_fract_z
Si Si1 0.884668 0.524308 0.655630
Si Si2 0.825970 0.877267 0.050080
Si Si3 0.666857 0.606286 0.570769
Si Si4 0.326646 0.855140 0.414570
Si Si5 0.615953 0.224599 0.805884
Si Si6 0.832907 0.625826 0.909633
Si Si7 0.615022 0.542467 0.825412
Si Si8 0.385008 0.794112 0.154198
O O1 0.791309 0.592826 0.586788
O O2 0.877035 0.581030 0.786329
O O3 0.866949 0.365411 0.661653
O O4 0.000000 0.550238 0.610778
O O5 0.874418 0.834243 0.174490
O O6 0.703985 0.859172 0.077107
O O7 0.856287 0.772044 0.951189
O O8 0.848447 0.019910 0.996408
O O9 0.641301 0.726238 0.486957
O O10 0.629711 0.472790 0.509559
O O11 0.622144 0.611852 0.699644
O O12 0.204724 0.840815 0.383960
O O13 0.376803 0.850469 0.286148
O O14 0.500000 0.202053 0.848686
O O15 0.633679 0.384615 0.805212
O O16 0.708968 0.602782 0.898166
O O17 0.500000 0.561522 0.873200
O O18 0.500000 0.815577 0.108661
#
# Coordination Sequence:
#
# PCOD9343298 Si02
#       8
#     4   4   4   4   4   4   4   4
#     4  10  21  35  59  90 115 143 190 244 280 324
#     4  11  23  39  59  84 116 156 186 229 286 337
#     4  11  19  37  59  83 112 146 193 231 277 336
#     4  11  23  39  59  84 116 156 186 229 286 337
#     4  10  21  39  59  84 115 149 190 234 286 340
#     4  11  19  37  59  83 112 146 193 231 277 336
#     4  10  21  35  59  90 115 143 190 244 280 324
#     4  10  21  39  59  84 115 149 190 234 286 340
#
# _framework density 21.365797000000001
#
# number of rings (size 3 to 8) (size 9 to 14) (size 15 to 20)
#    0.000    1.500    5.000    1.500    0.000    8.000 
#    0.000    2.500    0.000    0.000    0.000    0.000 
#    0.000    0.000    0.000    0.000    0.000    0.000 
#
# Total GULP energy -178914.757141 kJ/mol
# GULP energy per Si atom -5591.086161 kJ/mol
# Density = 2.131717 g / cm^3
# Si number density = 21.365797 Si / 1000 Ang^3
#
#
#
# Elastic Constant Matrix: (Units=GPa)
#
#
# Indices 1 2 3 4 5 6 
#
# 1 87.2825 2.3504 -13.1769 0.0000 0.0000 0.0000
# 2 2.3504 50.9125 -9.6583 0.0000 0.0000 0.0000
# 3 -13.1769 -9.6583 75.2285 0.0000 0.0000 0.0000
# 4 0.0000 0.0000 0.0000 23.4642 0.0000 0.0000
# 5 0.0000 0.0000 0.0000 0.0000 -18.8326 0.0000
# 6 0.0000 0.0000 0.0000 0.0000 0.0000 7.2983
#
#
#
# Elastic Compliance Matrix: (Units=1/GPa)
#
#
# Indices 1 2 3 4 5 6 
#
# 1 0.011769 -0.000156 0.002041 0.000000 0.000000 0.000000
# 2 -0.000156 0.020134 0.002558 0.000000 0.000000 0.000000
# 3 0.002041 0.002558 0.013979 0.000000 0.000000 0.000000
# 4 0.000000 0.000000 0.000000 0.042618 0.000000 0.000000
# 5 0.000000 0.000000 0.000000 0.000000 -0.053100 0.000000
# 6 0.000000 0.000000 0.000000 0.000000 0.000000 0.137018
#
#
# Mechanical properties :
#
#
# Convention : Reuss Voigt Hill
#
# Bulk Modulus (GPa) = 18.25878 19.16154 18.71016
# Shear Modulus (GPa) = 27.50451 17.97988 22.74220
#
# Velocity S-wave (km/s) = 3.59181 2.90405 3.26609
# Velocity P-wave (km/s) = 5.07600 4.49806 4.79574
#
# Compressibility (1/GPa) = 0.05476817
#
# Stress axis : x y z
#
# Youngs Moduli (GPa) = 84.96576 49.66737 71.53703
#
# Poissons Ratio (x) = 0.00775 -0.14604
# Poissons Ratio (y) = 0.01326 -0.18296
# Poissons Ratio (z) = -0.17346 -0.12703
#
# Static dielectric constant tensor:
#      x y z
#    x 1.827470 0.000000 0.000000 
#    y 0.000000 1.714920 0.000000 
#    z 0.000000 0.000000 1.762250 
# 
# From -- ./inp_files/4293.got.cif
#   From: 2010.05.17/outbox.cif.g08.bks.cpg/sg31_3_cif.got.tgz:4293.got - 2010.06.03 17:08:30.
