data_PCOD9343485
_publ_section_title
;
Structure prediction by ZEFSAII (Michael W. Deem and Ramdas Pophale) SiO2 
 PCOD9343485
Probable space group: P M N 21
;
_chemical_formula_sum "Si O2"
_cell_formula_units_Z 24
_cell_length_a 16.931470
_cell_length_b 5.448776
_cell_length_c 10.604404
_cell_angle_alpha 90.000000
_cell_angle_beta 90.000000
_cell_angle_gamma 90.000000
_cell_volume 978.317641
_symmetry_space_group_name_H-M "P M N 21"
_symmetry_group_IT_number 31
_symmetry_cell_setting 'orthorhombic'
loop_
_space_group_symop_operation_xyz
x,y,z
1/2-x,-y,1/2+z
-x,y,z
1/2+x,-y,1/2+z
loop_
_atom_site_type_symbol
_atom_site_label
_atom_site_fract_x
_atom_site_fract_y
_atom_site_fract_z
Si Si1 0.908092 0.933419 0.314070
Si Si2 0.615259 0.539217 0.350934
Si Si3 0.415471 0.051788 0.208654
Si Si4 0.791074 0.079531 0.521754
Si Si5 0.858934 0.174058 0.072710
Si Si6 0.277236 0.440029 0.737779
O O1 0.909795 0.012543 0.166487
O O2 0.000000 0.905438 0.352880
O O3 0.854160 0.108221 0.407274
O O4 0.850681 0.696885 0.303370
O O5 0.584648 0.276843 0.306654
O O6 0.595481 0.627590 0.490433
O O7 0.709641 0.513652 0.339142
O O8 0.591279 0.778324 0.267845
O O9 0.500000 0.060847 0.142379
O O10 0.344592 0.092895 0.112308
O O11 0.705312 0.968584 0.485532
O O12 0.763054 0.286751 0.622080
O O13 0.805986 0.318101 0.171692
#
# Coordination Sequence:
#
# PCOD9343485 Si02
#       6
#     4   4   4   4   4   4
#     4  11  25  43  65  99 142 182 231 299 368 428
#     4  11  24  43  71 101 134 184 233 284 348 425
#     4  11  24  44  69 103 138 176 231 295 349 408
#     4  10  22  41  70  98 131 180 232 288 352 422
#     4  11  24  41  67  97 133 183 238 285 350 429
#     4  10  23  40  68  96 130 177 237 285 345 422
#
# _framework density 24.531911000000001
#
# number of rings (size 3 to 8) (size 9 to 14) (size 15 to 20)
#    0.000    1.333    3.333    1.000    7.000    2.000 
#    0.000    0.000    0.000    0.000    0.000    0.000 
#    0.000    0.000    0.000    0.000    0.000    0.000 
#
# Total GULP energy -133826.511084 kJ/mol
# GULP energy per Si atom -5576.104629 kJ/mol
# Density = 2.447608 g / cm^3
# Si number density = 24.531911 Si / 1000 Ang^3
#
#
#
# Elastic Constant Matrix: (Units=GPa)
#
#
# Indices 1 2 3 4 5 6 
#
# 1 185.0597 29.7144 31.4458 0.0000 0.0000 0.0000
# 2 29.7144 69.4379 2.6827 0.0000 0.0000 0.0000
# 3 31.4458 2.6827 77.7486 0.0000 0.0000 0.0000
# 4 0.0000 0.0000 0.0000 40.8431 0.0000 0.0000
# 5 0.0000 0.0000 0.0000 0.0000 -40.8561 0.0000
# 6 0.0000 0.0000 0.0000 0.0000 0.0000 -34.8716
#
#
#
# Elastic Compliance Matrix: (Units=1/GPa)
#
#
# Indices 1 2 3 4 5 6 
#
# 1 0.006230 -0.002572 -0.002431 0.000000 0.000000 0.000000
# 2 -0.002572 0.015482 0.000506 0.000000 0.000000 0.000000
# 3 -0.002431 0.000506 0.013828 0.000000 0.000000 0.000000
# 4 0.000000 0.000000 0.000000 0.024484 0.000000 0.000000
# 5 0.000000 0.000000 0.000000 0.000000 -0.024476 0.000000
# 6 0.000000 0.000000 0.000000 0.000000 0.000000 -0.028677
#
#
# Mechanical properties :
#
#
# Convention : Reuss Voigt Hill
#
# Bulk Modulus (GPa) = 37.67018 51.10355 44.38686
# Shear Modulus (GPa) = 202.32017 10.91664 106.61840
#
# Velocity S-wave (km/s) = 9.09128 2.11178 6.59966
# Velocity P-wave (km/s) = 11.20672 5.17908 8.72965
#
# Compressibility (1/GPa) = 0.02654620
#
# Stress axis : x y z
#
# Youngs Moduli (GPa) = 160.52149 64.58936 72.31864
#
# Poissons Ratio (x) = 0.16612 0.17580
# Poissons Ratio (y) = 0.41285 -0.03660
# Poissons Ratio (z) = 0.39021 -0.03268
#
# Static dielectric constant tensor:
#      x y z
#    x 1.919850 0.000000 0.000000 
#    y 0.000000 2.005350 0.000000 
#    z 0.000000 0.000000 2.045800 
# 
# From -- ./inp_files/4333.got.cif
#   From: 2010.05.17/outbox.cif.g08.bks.cpg/sg31_3_cif.got.tgz:4333.got - 2010.06.03 17:08:30.
