data_PCOD9343060
_publ_section_title
;
Structure prediction by ZEFSAII (Michael W. Deem and Ramdas Pophale) SiO2 
 PCOD9343060
Probable space group: P M N 21
;
_chemical_formula_sum "Si O2"
_cell_formula_units_Z 24
_cell_length_a 7.409466
_cell_length_b 14.566073
_cell_length_c 8.173801
_cell_angle_alpha 90.000000
_cell_angle_beta 90.000000
_cell_angle_gamma 90.000000
_cell_volume 882.172371
_symmetry_space_group_name_H-M "P M N 21"
_symmetry_group_IT_number 31
_symmetry_cell_setting 'orthorhombic'
loop_
_space_group_symop_operation_xyz
x,y,z
1/2-x,-y,1/2+z
-x,y,z
1/2+x,-y,1/2+z
loop_
_atom_site_type_symbol
_atom_site_label
_atom_site_fract_x
_atom_site_fract_y
_atom_site_fract_z
Si Si1 0.707331 0.190572 0.139750
Si Si2 0.709172 0.142228 0.640480
Si Si3 0.708242 0.643892 0.426870
Si Si4 0.720811 0.306042 0.448499
Si Si5 0.280547 0.474661 0.249805
Si Si6 0.719373 0.025128 0.942275
O O1 0.500000 0.173960 0.180490
O O2 0.708842 0.260257 0.984288
O O3 0.784317 0.247633 0.289606
O O4 0.785040 0.093463 0.086787
O O5 0.500000 0.155559 0.681255
O O6 0.783527 0.242854 0.598787
O O7 0.718857 0.077159 0.480323
O O8 0.787653 0.077928 0.781596
O O9 0.500000 0.662052 0.394582
O O10 0.784594 0.578095 0.284331
O O11 0.719897 0.577396 0.587137
O O12 0.500000 0.306584 0.451162
O O13 0.776588 0.408703 0.401939
O O14 0.500000 0.476427 0.247299
O O15 0.500000 0.023302 0.939598
#
# Coordination Sequence:
#
# PCOD9343060 Si02
#       6
#     4   4   4   4   4   4
#     4   9  18  34  53  71 100 140 175 211 257 308
#     4  10  20  34  54  78 103 133 172 216 256 302
#     4  10  20  33  53  80 106 136 175 215 255 301
#     4   8  15  31  52  70  94 133 172 205 249 302
#     4   9  19  35  53  75 105 139 173 210 257 311
#     4  10  21  35  53  78 104 135 173 209 256 314
#
# _framework density 27.205568
#
# number of rings (size 3 to 8) (size 9 to 14) (size 15 to 20)
#    0.000    2.667    0.000    2.500    0.000    5.333 
#    0.000    8.333    0.000    0.000    0.000    0.000 
#    0.000    0.000    0.000    0.000    0.000    0.000 
#
# Total GULP energy -134237.260533 kJ/mol
# GULP energy per Si atom -5593.219189 kJ/mol
# Density = 2.714365 g / cm^3
# Si number density = 27.205568 Si / 1000 Ang^3
#
#
#
# Elastic Constant Matrix: (Units=GPa)
#
#
# Indices 1 2 3 4 5 6 
#
# 1 114.2465 2.3825 3.9204 0.0000 0.0000 0.0000
# 2 2.3825 175.9343 15.5661 0.0000 0.0000 0.0000
# 3 3.9204 15.5661 68.8751 0.0000 0.0000 0.0000
# 4 0.0000 0.0000 0.0000 59.7974 0.0000 0.0000
# 5 0.0000 0.0000 0.0000 0.0000 17.2127 0.0000
# 6 0.0000 0.0000 0.0000 0.0000 0.0000 12.0792
#
#
#
# Elastic Compliance Matrix: (Units=1/GPa)
#
#
# Indices 1 2 3 4 5 6 
#
# 1 0.008771 -0.000076 -0.000482 0.000000 0.000000 0.000000
# 2 -0.000076 0.005801 -0.001307 0.000000 0.000000 0.000000
# 3 -0.000482 -0.001307 0.014842 0.000000 0.000000 0.000000
# 4 0.000000 0.000000 0.000000 0.016723 0.000000 0.000000
# 5 0.000000 0.000000 0.000000 0.000000 0.058097 0.000000
# 6 0.000000 0.000000 0.000000 0.000000 0.000000 0.082787
#
#
# Mechanical properties :
#
#
# Convention : Reuss Voigt Hill
#
# Bulk Modulus (GPa) = 38.93495 44.75490 41.84492
# Shear Modulus (GPa) = 25.08640 40.29699 32.69170
#
# Velocity S-wave (km/s) = 3.03991 3.85282 3.47025
# Velocity P-wave (km/s) = 5.16371 6.02317 5.60992
#
# Compressibility (1/GPa) = 0.02568387
#
# Stress axis : x y z
#
# Youngs Moduli (GPa) = 114.01038 172.39670 67.37740
#
# Poissons Ratio (x) = 0.01312 0.03248
# Poissons Ratio (y) = 0.00868 0.08804
# Poissons Ratio (z) = 0.05496 0.22526
#
# Static dielectric constant tensor:
#      x y z
#    x 1.985350 0.000000 0.000000 
#    y 0.000000 2.064470 0.000000 
#    z 0.000000 0.000000 2.268740 
# 
# From -- ./inp_files/1664.got.cif
#   From: 2010.05.17/outbox.cif.g08.bks.cpg/sg31_1_cif.got.tgz:1664.got - 2010.06.03 17:08:30.
