data_PCOD9343963
_publ_section_title
;
Structure prediction by ZEFSAII (Michael W. Deem and Ramdas Pophale) SiO2 
 PCOD9343963
Probable space group: P B A 2
;
_chemical_formula_sum "Si O2"
_cell_formula_units_Z 32
_cell_length_a 14.070714
_cell_length_b 9.338242
_cell_length_c 11.530838
_cell_angle_alpha 90.000000
_cell_angle_beta 90.000000
_cell_angle_gamma 90.000000
_cell_volume 1515.102905
_symmetry_space_group_name_H-M "P B A 2"
_symmetry_group_IT_number 32
_symmetry_cell_setting 'orthorhombic'
loop_
_space_group_symop_operation_xyz
x,y,z
-x,-y,z
1/2-x,1/2+y,z
1/2+x,1/2-y,z
loop_
_atom_site_type_symbol
_atom_site_label
_atom_site_fract_x
_atom_site_fract_y
_atom_site_fract_z
Si Si1 0.976813 0.655145 0.424750
Si Si2 0.628513 0.292039 0.227492
Si Si3 0.742438 0.538647 0.333140
Si Si4 0.783319 0.118980 0.831681
Si Si5 0.139521 0.165070 0.956799
Si Si6 0.491679 0.336536 0.767109
Si Si7 0.323630 0.213128 0.487688
Si Si8 0.338529 0.813900 0.629793
O O1 0.957027 0.762293 0.318783
O O2 0.885649 0.639168 0.508386
O O3 0.000000 0.500000 0.373701
O O4 0.064831 0.697195 0.507143
O O5 0.669982 0.448259 0.256403
O O6 0.696433 0.155894 0.261973
O O7 0.619531 0.299247 0.090088
O O8 0.689785 0.630828 0.431063
O O9 0.798106 0.407169 0.393118
O O10 0.716674 0.223155 0.906393
O O11 0.716813 0.083138 0.719471
O O12 0.879714 0.191899 0.780670
O O13 0.817864 0.987343 0.911762
O O14 0.037750 0.173180 0.894343
O O15 0.500000 0.500000 0.723580
O O16 0.570627 0.249374 0.695879
O O17 0.244643 0.205894 0.587853
#
# Coordination Sequence:
#
# PCOD9343963 Si02
#       8
#     4   4   4   4   4   4   4   4
#     4  12  24  40  62  97 137 173 219 273 333 405
#     4  11  22  44  64  96 131 175 222 272 335 400
#     4  10  21  41  63  89 135 173 214 264 328 400
#     4  10  22  43  66  97 125 171 221 276 326 393
#     4  10  22  43  67  90 128 167 221 274 326 386
#     4   9  21  41  63  95 127 165 220 270 328 390
#     4  11  22  40  61  95 138 175 215 266 333 405
#     4  11  22  39  67  96 134 177 212 274 342 405
#
# _framework density 21.120678999999999
#
# number of rings (size 3 to 8) (size 9 to 14) (size 15 to 20)
#    0.000    1.500    3.750    1.500    0.000    8.500 
#   11.250    1.875    0.000    0.000    0.000    0.000 
#    0.000    0.000    0.000    0.000    0.000    0.000 
#
# Total GULP energy -178206.334151 kJ/mol
# GULP energy per Si atom -5568.947942 kJ/mol
# Density = 2.107261 g / cm^3
# Si number density = 21.120679 Si / 1000 Ang^3
#
#
#
# Elastic Constant Matrix: (Units=GPa)
#
#
# Indices 1 2 3 4 5 6 
#
# 1 116.5542 22.7392 38.1612 0.0000 0.0000 0.0000
# 2 22.7392 71.5794 31.7595 0.0000 0.0000 0.0000
# 3 38.1612 31.7595 110.5982 0.0000 0.0000 0.0000
# 4 0.0000 0.0000 0.0000 766.2610 0.0000 0.0000
# 5 0.0000 0.0000 0.0000 0.0000 4.8455 0.0000
# 6 0.0000 0.0000 0.0000 0.0000 0.0000 14.3157
#
#
#
# Elastic Compliance Matrix: (Units=1/GPa)
#
#
# Indices 1 2 3 4 5 6 
#
# 1 0.009885 -0.001864 -0.002875 0.000000 0.000000 0.000000
# 2 -0.001864 0.016362 -0.004055 0.000000 0.000000 0.000000
# 3 -0.002875 -0.004055 0.011198 0.000000 0.000000 0.000000
# 4 0.000000 0.000000 0.000000 0.001305 0.000000 0.000000
# 5 0.000000 0.000000 0.000000 0.000000 0.206375 0.000000
# 6 0.000000 0.000000 0.000000 0.000000 0.000000 0.069853
#
#
# Mechanical properties :
#
#
# Convention : Reuss Voigt Hill
#
# Bulk Modulus (GPa) = 50.36436 53.78351 52.07394
# Shear Modulus (GPa) = 14.74113 170.82259 92.78186
#
# Velocity S-wave (km/s) = 2.64474 9.00305 6.63512
# Velocity P-wave (km/s) = 5.76402 11.55826 9.13283
#
# Compressibility (1/GPa) = 0.01985531
#
# Stress axis : x y z
#
# Youngs Moduli (GPa) = 101.16488 61.11695 89.29880
#
# Poissons Ratio (x) = 0.11395 0.25676
# Poissons Ratio (y) = 0.18861 0.36213
# Poissons Ratio (z) = 0.29088 0.24784
#
# Static dielectric constant tensor:
#      x y z
#    x 1.808100 0.000000 0.000000 
#    y 0.000000 1.718740 0.000000 
#    z 0.000000 0.000000 1.807280 
# 
# From -- ./inp_files/3974.got.cif
#   From: 2010.05.17/outbox.cif.g08.bks.cpg/sg32_2_cif.got.tgz:3974.got - 2010.06.03 17:12:27.
