data_PCOD9343536
_publ_section_title
;
Structure prediction by ZEFSAII (Michael W. Deem and Ramdas Pophale) SiO2 
 PCOD9343536
Probable space group: P M N 21
;
_chemical_formula_sum "Si O2"
_cell_formula_units_Z 32
_cell_length_a 8.181525
_cell_length_b 14.677180
_cell_length_c 13.046904
_cell_angle_alpha 90.000000
_cell_angle_beta 90.000000
_cell_angle_gamma 90.000000
_cell_volume 1566.694609
_symmetry_space_group_name_H-M "P M N 21"
_symmetry_group_IT_number 31
_symmetry_cell_setting 'orthorhombic'
loop_
_space_group_symop_operation_xyz
x,y,z
1/2-x,-y,1/2+z
-x,y,z
1/2+x,-y,1/2+z
loop_
_atom_site_type_symbol
_atom_site_label
_atom_site_fract_x
_atom_site_fract_y
_atom_site_fract_z
Si Si1 0.195967 0.758151 0.262020
Si Si2 0.695238 0.145530 0.237230
Si Si3 0.693347 0.551211 0.870295
Si Si4 0.687017 0.137947 0.463158
Si Si5 0.305329 0.661297 0.669774
Si Si6 0.692955 0.640173 0.441736
Si Si7 0.813666 0.662293 0.063112
Si Si8 0.699520 0.051453 0.664811
O O1 0.237057 0.722811 0.374412
O O2 0.257408 0.685609 0.175529
O O3 0.249896 0.861143 0.234181
O O4 0.000000 0.757880 0.248876
O O5 0.500000 0.161007 0.238623
O O6 0.765174 0.145330 0.352881
O O7 0.771741 0.231304 0.179930
O O8 0.733906 0.045903 0.195760
O O9 0.500000 0.539414 0.857480
O O10 0.757342 0.609125 0.772085
O O11 0.772141 0.452489 0.880906
O O12 0.724902 0.601571 0.978713
O O13 0.500000 0.106298 0.446476
O O14 0.678801 0.237661 0.512424
O O15 0.759262 0.074006 0.549954
O O16 0.500000 0.646037 0.669934
O O17 0.240677 0.631389 0.558127
O O18 0.500000 0.654403 0.449435
O O19 0.000000 0.626254 0.074191
O O20 0.500000 0.049378 0.665403
#
# Coordination Sequence:
#
# PCOD9343536 Si02
#       8
#     4   4   4   4   4   4   4   4
#     4   9  20  39  62  87 120 159 200 247 299 355
#     4  11  21  35  60  90 117 150 200 254 295 348
#     4  11  23  39  61  89 117 150 198 249 299 357
#     4   8  16  33  55  79 108 148 192 235 289 350
#     4  10  24  44  61  84 121 161 197 242 302 362
#     4  11  25  42  61  86 122 165 203 243 302 365
#     4   9  17  35  61  84 111 149 191 241 299 353
#     4   9  19  37  59  83 118 162 199 237 301 366
#
# _framework density 20.425166999999998
#
# number of rings (size 3 to 8) (size 9 to 14) (size 15 to 20)
#    0.000    2.250    1.250    2.625    1.750    3.500 
#    0.000    6.875    0.000    0.000    0.000    0.000 
#    0.000    0.000    0.000    0.000    0.000    0.000 
#
# Total GULP energy -178442.215111 kJ/mol
# GULP energy per Si atom -5576.319222 kJ/mol
# Density = 2.037868 g / cm^3
# Si number density = 20.425167 Si / 1000 Ang^3
#
#
#
# Elastic Constant Matrix: (Units=GPa)
#
#
# Indices 1 2 3 4 5 6 
#
# 1 6.3183 -6.7990 9.1067 0.0000 0.0000 0.0000
# 2 -6.7990 78.5140 45.7967 0.0000 0.0000 0.0000
# 3 9.1067 45.7967 96.8461 0.0000 0.0000 0.0000
# 4 0.0000 0.0000 0.0000 16.4541 0.0000 0.0000
# 5 0.0000 0.0000 0.0000 0.0000 35.1702 0.0000
# 6 0.0000 0.0000 0.0000 0.0000 0.0000 13.2655
#
#
#
# Elastic Compliance Matrix: (Units=1/GPa)
#
#
# Indices 1 2 3 4 5 6 
#
# 1 0.303683 0.059315 -0.056605 0.000000 0.000000 0.000000
# 2 0.059315 0.029173 -0.019373 0.000000 0.000000 0.000000
# 3 -0.056605 -0.019373 0.024809 0.000000 0.000000 0.000000
# 4 0.000000 0.000000 0.000000 0.060775 0.000000 0.000000
# 5 0.000000 0.000000 0.000000 0.000000 0.028433 0.000000
# 6 0.000000 0.000000 0.000000 0.000000 0.000000 0.075383
#
#
# Mechanical properties :
#
#
# Convention : Reuss Voigt Hill
#
# Bulk Modulus (GPa) = 3.08319 30.87636 16.97977
# Shear Modulus (GPa) = 7.53357 21.88292 14.70824
#
# Velocity S-wave (km/s) = 1.92260 3.27673 2.68639
# Velocity P-wave (km/s) = 2.53797 5.42822 4.23715
#
# Compressibility (1/GPa) = 0.32433945
#
# Stress axis : x y z
#
# Youngs Moduli (GPa) = 3.29291 34.27812 40.30719
#
# Poissons Ratio (x) = -2.03321 2.28159
# Poissons Ratio (y) = -0.19532 0.78087
# Poissons Ratio (z) = 0.18640 0.66407
#
# Static dielectric constant tensor:
#      x y z
#    x 1.721960 0.000000 0.000000 
#    y 0.000000 1.710960 0.000000 
#    z 0.000000 0.000000 1.787970 
# 
# From -- ./inp_files/3618.got.cif
#   From: 2010.05.17/outbox.cif.g08.bks.cpg/sg31_2_cif.got.tgz:3618.got - 2010.06.03 17:08:30.
