data_PCOD9343659
_publ_section_title
;
Structure prediction by ZEFSAII (Michael W. Deem and Ramdas Pophale) SiO2 
 PCOD9343659
Probable space group: P B A 2
;
_chemical_formula_sum "Si O2"
_cell_formula_units_Z 28
_cell_length_a 5.350042
_cell_length_b 30.558536
_cell_length_c 7.153356
_cell_angle_alpha 90.000000
_cell_angle_beta 90.000000
_cell_angle_gamma 90.000000
_cell_volume 1169.498246
_symmetry_space_group_name_H-M "P B A 2"
_symmetry_group_IT_number 32
_symmetry_cell_setting 'orthorhombic'
loop_
_space_group_symop_operation_xyz
x,y,z
-x,-y,z
1/2-x,1/2+y,z
1/2+x,1/2-y,z
loop_
_atom_site_type_symbol
_atom_site_label
_atom_site_fract_x
_atom_site_fract_y
_atom_site_fract_z
Si Si1 0.527222 0.368165 0.405810
Si Si2 0.731462 0.772989 0.929584
Si Si3 0.000000 0.000000 0.082583
Si Si4 0.000000 0.500000 0.324243
Si Si5 0.527226 0.868164 0.001017
Si Si6 0.524363 0.595789 0.980301
Si Si7 0.024358 0.404211 0.426526
Si Si8 0.768541 0.772989 0.477245
O O1 0.499123 0.388666 0.198343
O O2 0.753008 0.393438 0.503062
O O3 0.618245 0.318398 0.405073
O O4 0.259006 0.376541 0.497056
O O5 0.516812 0.737856 0.986255
O O6 0.750002 0.774943 0.703415
O O7 0.618246 0.818398 0.001757
O O8 0.750000 0.989857 0.203413
O O9 0.067716 0.955911 0.972697
O O10 0.067716 0.455911 0.434129
O O11 0.259012 0.876541 0.909770
O O12 0.499129 0.888666 0.208483
O O13 0.753015 0.893437 0.903764
O O14 0.983192 0.737856 0.420574
#
# Coordination Sequence:
#
# PCOD9343659 Si02
#       8
#     4   4   2   2   4   4   4   4
#     4  10  18  32  48  72 102 128 162 208 247 298
#     4  10  21  37  54  70  92 129 176 217 252 296
#     4  12  16  30  48  74 110 134 162 190 232 308
#     4  12  16  30  48  74 110 134 162 190 232 308
#     4  10  18  32  48  72 102 128 162 208 247 298
#     4  10  19  30  48  77 107 131 159 196 248 306
#     4  10  19  30  48  77 107 131 159 196 248 306
#     4  10  21  37  54  70  92 129 176 217 252 296
#
# _framework density 23.941889
#
# number of rings (size 3 to 8) (size 9 to 14) (size 15 to 20)
#    0.000    1.714    5.714    1.714    0.000    0.000 
#    0.000   17.143    0.000    0.000    0.000    6.000 
#    0.000    0.000    0.000    0.000    0.000    0.000 
#
# Total GULP energy -156339.038350 kJ/mol
# GULP energy per Si atom -5583.537084 kJ/mol
# Density = 2.388740 g / cm^3
# Si number density = 23.941889 Si / 1000 Ang^3
#
#
#
# Elastic Constant Matrix: (Units=GPa)
#
#
# Indices 1 2 3 4 5 6 
#
# 1 203.7462 31.2407 13.2877 0.0000 0.0000 0.0000
# 2 31.2407 154.7415 4.8656 0.0000 0.0000 0.0000
# 3 13.2877 4.8656 99.8538 0.0000 0.0000 0.0000
# 4 0.0000 0.0000 0.0000 115.6258 0.0000 0.0000
# 5 0.0000 0.0000 0.0000 0.0000 -20.3974 0.0000
# 6 0.0000 0.0000 0.0000 0.0000 0.0000 45.4469
#
#
#
# Elastic Compliance Matrix: (Units=1/GPa)
#
#
# Indices 1 2 3 4 5 6 
#
# 1 0.005104 -0.001011 -0.000630 0.000000 0.000000 0.000000
# 2 -0.001011 0.006672 -0.000191 0.000000 0.000000 0.000000
# 3 -0.000630 -0.000191 0.010108 0.000000 0.000000 0.000000
# 4 0.000000 0.000000 0.000000 0.008649 0.000000 0.000000
# 5 0.000000 0.000000 0.000000 0.000000 -0.049026 0.000000
# 6 0.000000 0.000000 0.000000 0.000000 0.000000 0.022004
#
#
# Mechanical properties :
#
#
# Convention : Reuss Voigt Hill
#
# Bulk Modulus (GPa) = 54.87942 61.90329 58.39136
# Shear Modulus (GPa) = 377.43580 55.39820 216.41700
#
# Velocity S-wave (km/s) = 12.56936 4.81548 9.51782
# Velocity P-wave (km/s) = 15.28475 7.53858 12.05101
#
# Compressibility (1/GPa) = 0.01822177
#
# Stress axis : x y z
#
# Youngs Moduli (GPa) = 195.92025 149.87047 98.93391
#
# Poissons Ratio (x) = 0.15147 0.06233
# Poissons Ratio (y) = 0.19801 0.01886
# Poissons Ratio (z) = 0.12342 0.02857
#
# Static dielectric constant tensor:
#      x y z
#    x 1.864600 0.000000 0.000000 
#    y 0.000000 1.896540 0.000000 
#    z 0.000000 0.000000 1.715710 
# 
# From -- ./inp_files/3618.got.cif
#   From: 2010.05.17/outbox.cif.g08.bks.cpg/sg32_2_cif.got.tgz:3618.got - 2010.06.03 17:12:27.
