data_PCOD9343878
_publ_section_title
;
Structure prediction by ZEFSAII (Michael W. Deem and Ramdas Pophale) SiO2 
 PCOD9343878
Probable space group: P B A 2
;
_chemical_formula_sum "Si O2"
_cell_formula_units_Z 26
_cell_length_a 12.928192
_cell_length_b 18.017381
_cell_length_c 4.983482
_cell_angle_alpha 90.000000
_cell_angle_beta 90.000000
_cell_angle_gamma 90.000000
_cell_volume 1160.813231
_symmetry_space_group_name_H-M "P B A 2"
_symmetry_group_IT_number 32
_symmetry_cell_setting 'orthorhombic'
loop_
_space_group_symop_operation_xyz
x,y,z
-x,-y,z
1/2-x,1/2+y,z
1/2+x,1/2-y,z
loop_
_atom_site_type_symbol
_atom_site_label
_atom_site_fract_x
_atom_site_fract_y
_atom_site_fract_z
Si Si1 0.215856 0.081566 0.975430
Si Si2 0.500000 0.000000 0.603574
Si Si3 0.784117 0.081610 0.231635
Si Si4 0.658240 0.879918 0.450966
Si Si5 0.341800 0.879886 0.756108
Si Si6 0.000023 0.746138 0.603356
Si Si7 0.999984 0.151098 0.103364
O O1 0.260873 0.093270 0.678699
O O2 0.096744 0.103160 0.003498
O O3 0.229302 0.999978 0.103522
O O4 0.284432 0.132074 0.172399
O O5 0.572878 0.945631 0.432478
O O6 0.427148 0.945610 0.774655
O O7 0.715543 0.132114 0.034648
O O8 0.903227 0.103210 0.203574
O O9 0.739078 0.093303 0.528347
O O10 0.596126 0.806942 0.533935
O O11 0.403929 0.806919 0.673106
O O12 0.029462 0.796940 0.854317
O O13 0.970570 0.796821 0.352092
#
# Coordination Sequence:
#
# PCOD9343878 Si02
#       7
#     4   2   4   4   4   4   4
#     4  12  24  44  67 101 125 180 214 277 317 385
#     4  10  20  42  64 100 126 162 198 286 314 388
#     4  12  24  44  67 101 125 180 214 277 317 385
#     4  11  24  41  71  96 135 161 224 269 336 376
#     4  11  24  41  71  96 135 161 224 269 336 376
#     4  11  26  45  63 104 125 184 208 272 329 390
#     4  12  27  44  66  89 146 172 226 252 318 401
#
# _framework density 22.398091000000001
#
# number of rings (size 3 to 8) (size 9 to 14) (size 15 to 20)
#    0.000    0.615    3.077    4.154    0.000   12.308 
#    0.000    4.615    0.000    0.000    0.000    0.000 
#    0.000    0.000    0.000    0.000    0.000    0.000 
#
# Total GULP energy -145641.361065 kJ/mol
# GULP energy per Si atom -5601.590810 kJ/mol
# Density = 2.234711 g / cm^3
# Si number density = 22.398091 Si / 1000 Ang^3
#
#
#
# Elastic Constant Matrix: (Units=GPa)
#
#
# Indices 1 2 3 4 5 6 
#
# 1 117.5938 13.4243 4.7448 0.0000 0.0000 0.0000
# 2 13.4243 45.7990 4.0188 0.0000 0.0000 0.0000
# 3 4.7448 4.0188 82.4726 0.0000 0.0000 0.0000
# 4 0.0000 0.0000 0.0000 15.8157 0.0000 0.0000
# 5 0.0000 0.0000 0.0000 0.0000 28.0918 0.0000
# 6 0.0000 0.0000 0.0000 0.0000 0.0000 5.0975
#
#
#
# Elastic Compliance Matrix: (Units=1/GPa)
#
#
# Indices 1 2 3 4 5 6 
#
# 1 0.008810 -0.002549 -0.000383 0.000000 0.000000 0.000000
# 2 -0.002549 0.022666 -0.000958 0.000000 0.000000 0.000000
# 3 -0.000383 -0.000958 0.012194 0.000000 0.000000 0.000000
# 4 0.000000 0.000000 0.000000 0.063228 0.000000 0.000000
# 5 0.000000 0.000000 0.000000 0.000000 0.035598 0.000000
# 6 0.000000 0.000000 0.000000 0.000000 0.000000 0.196176
#
#
# Mechanical properties :
#
#
# Convention : Reuss Voigt Hill
#
# Bulk Modulus (GPa) = 27.86199 32.24904 30.05551
# Shear Modulus (GPa) = 13.95035 24.71283 19.33159
#
# Velocity S-wave (km/s) = 2.49838 3.32527 2.94103
# Velocity P-wave (km/s) = 4.55949 5.40116 4.99808
#
# Compressibility (1/GPa) = 0.03589120
#
# Stress axis : x y z
#
# Youngs Moduli (GPa) = 113.50401 44.11955 82.00798
#
# Poissons Ratio (x) = 0.11245 0.03138
# Poissons Ratio (y) = 0.28930 0.07855
# Poissons Ratio (z) = 0.04343 0.04226
#
# Static dielectric constant tensor:
#      x y z
#    x 1.813110 0.000000 0.000000 
#    y 0.000000 1.841070 0.000000 
#    z 0.000000 0.000000 1.960240 
# 
# From -- ./inp_files/912.got.cif
#   From: 2010.05.17/outbox.cif.g08.bks.cpg/sg32_1_cif.got.tgz:912.got - 2010.06.03 17:12:27.
