data_PCOD9343200
_publ_section_title
;
Structure prediction by ZEFSAII (Michael W. Deem and Ramdas Pophale) SiO2 
 PCOD9343200
Probable space group: P M N 21
;
_chemical_formula_sum "Si O2"
_cell_formula_units_Z 32
_cell_length_a 7.642673
_cell_length_b 14.673986
_cell_length_c 12.598872
_cell_angle_alpha 90.000000
_cell_angle_beta 90.000000
_cell_angle_gamma 90.000000
_cell_volume 1412.944302
_symmetry_space_group_name_H-M "P M N 21"
_symmetry_group_IT_number 31
_symmetry_cell_setting 'orthorhombic'
loop_
_space_group_symop_operation_xyz
x,y,z
1/2-x,-y,1/2+z
-x,y,z
1/2+x,-y,1/2+z
loop_
_atom_site_type_symbol
_atom_site_label
_atom_site_fract_x
_atom_site_fract_y
_atom_site_fract_z
Si Si1 0.712792 0.662646 0.490980
Si Si2 0.202913 0.790786 0.291561
Si Si3 0.797771 0.129386 0.365636
Si Si4 0.299786 0.631623 0.149866
Si Si5 0.712344 0.059153 0.944523
Si Si6 0.301800 0.322725 0.423222
Si Si7 0.714337 0.506130 0.344171
Si Si8 0.294349 0.812082 0.640903
O O1 0.500000 0.663855 0.491643
O O2 0.776138 0.727667 0.395711
O O3 0.767210 0.563189 0.449775
O O4 0.775507 0.715041 0.596297
O O5 0.295836 0.732860 0.201148
O O6 0.265198 0.887725 0.336092
O O7 0.000000 0.798124 0.261358
O O8 0.791906 0.226300 0.423244
O O9 0.717557 0.148860 0.249624
O O10 0.000000 0.103026 0.347818
O O11 0.726127 0.044703 0.432618
O O12 0.500000 0.607027 0.127314
O O13 0.230898 0.562437 0.240024
O O14 0.198450 0.635550 0.040731
O O15 0.500000 0.065553 0.951994
O O16 0.779462 0.114161 0.046517
O O17 0.500000 0.304657 0.389494
O O18 0.224339 0.402432 0.349900
O O19 0.500000 0.505189 0.343606
O O20 0.500000 0.796168 0.661369
#
# Coordination Sequence:
#
# PCOD9343200 Si02
#       8
#     4   4   4   4   4   4   4   4
#     4   8  14  29  52  77 104 137 175 218 265 317
#     4   9  16  29  51  80 108 136 175 226 270 311
#     4  10  22  39  54  76 111 148 181 219 269 327
#     4  10  20  37  58  80 109 146 180 218 271 328
#     4   9  19  35  55  79 110 143 181 226 272 321
#     4  11  23  38  55  80 111 143 181 226 267 313
#     4   8  17  34  55  77 105 139 178 220 264 314
#     4   9  18  33  56  81 106 140 183 223 266 319
#
# _framework density 22.647742999999998
#
# number of rings (size 3 to 8) (size 9 to 14) (size 15 to 20)
#    0.000    2.750    0.000    1.875    0.000    3.500 
#    0.000    8.750    0.000    3.000    0.000    0.000 
#    0.000    0.000    0.000    0.000    0.000    0.000 
#
# Total GULP energy -178430.144492 kJ/mol
# GULP energy per Si atom -5575.942015 kJ/mol
# Density = 2.259620 g / cm^3
# Si number density = 22.647743 Si / 1000 Ang^3
#
#
#
# Elastic Constant Matrix: (Units=GPa)
#
#
# Indices 1 2 3 4 5 6 
#
# 1 46.6499 -7.6172 -4.1018 0.0000 0.0000 0.0000
# 2 -7.6172 108.5496 15.5249 0.0000 0.0000 0.0000
# 3 -4.1018 15.5249 67.5351 0.0000 0.0000 0.0000
# 4 0.0000 0.0000 0.0000 19.8617 0.0000 0.0000
# 5 0.0000 0.0000 0.0000 0.0000 16.3496 0.0000
# 6 0.0000 0.0000 0.0000 0.0000 0.0000 19.2001
#
#
#
# Elastic Compliance Matrix: (Units=1/GPa)
#
#
# Indices 1 2 3 4 5 6 
#
# 1 0.021750 0.001383 0.001003 0.000000 0.000000 0.000000
# 2 0.001383 0.009613 -0.002126 0.000000 0.000000 0.000000
# 3 0.001003 -0.002126 0.015357 0.000000 0.000000 0.000000
# 4 0.000000 0.000000 0.000000 0.050348 0.000000 0.000000
# 5 0.000000 0.000000 0.000000 0.000000 0.061164 0.000000
# 6 0.000000 0.000000 0.000000 0.000000 0.000000 0.052083
#
#
# Mechanical properties :
#
#
# Convention : Reuss Voigt Hill
#
# Bulk Modulus (GPa) = 21.16828 25.59403 23.38116
# Shear Modulus (GPa) = 22.16880 25.67752 23.92316
#
# Velocity S-wave (km/s) = 3.13206 3.37082 3.25363
# Velocity P-wave (km/s) = 4.73780 5.14542 4.94581
#
# Compressibility (1/GPa) = 0.04724049
#
# Stress axis : x y z
#
# Youngs Moduli (GPa) = 45.97645 104.02077 65.11793
#
# Poissons Ratio (x) = -0.14384 -0.06532
# Poissons Ratio (y) = -0.06358 0.13844
# Poissons Ratio (z) = -0.04612 0.22114
#
# Static dielectric constant tensor:
#      x y z
#    x 1.837770 0.000000 0.000000 
#    y 0.000000 1.880610 0.000000 
#    z 0.000000 0.000000 1.854390 
# 
# From -- ./inp_files/3647.got.cif
#   From: 2010.05.17/outbox.cif.g08.bks.cpg/sg31_2_cif.got.tgz:3647.got - 2010.06.03 17:08:30.
