data_PCOD9343915
_publ_section_title
;
Structure prediction by ZEFSAII (Michael W. Deem and Ramdas Pophale) SiO2 
 PCOD9343915
Probable space group: P B A 2
;
_chemical_formula_sum "Si O2"
_cell_formula_units_Z 30
_cell_length_a 5.025549
_cell_length_b 25.433614
_cell_length_c 12.592138
_cell_angle_alpha 90.000000
_cell_angle_beta 90.000000
_cell_angle_gamma 90.000000
_cell_volume 1609.500301
_symmetry_space_group_name_H-M "P B A 2"
_symmetry_group_IT_number 32
_symmetry_cell_setting 'orthorhombic'
loop_
_space_group_symop_operation_xyz
x,y,z
-x,-y,z
1/2-x,1/2+y,z
1/2+x,1/2-y,z
loop_
_atom_site_type_symbol
_atom_site_label
_atom_site_fract_x
_atom_site_fract_y
_atom_site_fract_z
Si Si1 0.325272 0.782390 0.598860
Si Si2 0.123295 0.549872 0.758154
Si Si3 0.500000 0.500000 0.933176
Si Si4 0.440046 0.558843 0.142857
Si Si5 0.246056 0.462132 0.459915
Si Si6 0.650146 0.604701 0.672386
Si Si7 0.650012 0.217264 0.343308
Si Si8 0.585324 0.104679 0.252520
O O1 0.624356 0.765245 0.626177
O O2 0.204312 0.834253 0.651511
O O3 0.338145 0.790430 0.471124
O O4 0.263269 0.519226 0.856135
O O5 0.359575 0.583802 0.706113
O O6 0.000000 0.500000 0.695637
O O7 0.864734 0.586835 0.761887
O O8 0.495971 0.548023 0.018087
O O9 0.500000 0.500000 0.188503
O O10 0.156363 0.577829 0.187432
O O11 0.655074 0.600232 0.180423
O O12 0.500000 0.500000 0.444873
O O13 0.292528 0.424106 0.560234
O O14 0.000000 0.500000 0.475953
O O15 0.166596 0.427625 0.357744
O O16 0.446412 0.264105 0.315970
O O17 0.546688 0.164411 0.288672
#
# Coordination Sequence:
#
# PCOD9343915 Si02
#       8
#     4   4   2   4   4   4   4   4
#     4  10  21  39  59  85 122 165 210 249 286 347
#     4  12  23  39  62  88 124 156 207 248 303 373
#     4  10  26  42  64  84 122 158 200 264 306 356
#     4  10  24  37  62  85 120 153 202 243 296 371
#     4  12  24  34  51  83 131 167 187 228 289 364
#     4  12  23  38  59  92 121 170 202 241 304 367
#     4  10  21  37  59  84 120 163 209 247 284 343
#     4  12  21  39  57  89 119 165 198 235 301 358
#
# _framework density 18.639327000000002
#
# number of rings (size 3 to 8) (size 9 to 14) (size 15 to 20)
#    0.400    0.533    2.667    6.000    1.867    0.000 
#    0.000    0.000    0.000    0.000    0.000   18.667 
#    0.000    0.000    0.000    0.000    0.000    0.000 
#
# Total GULP energy -167070.638415 kJ/mol
# GULP energy per Si atom -5569.021280 kJ/mol
# Density = 1.859690 g / cm^3
# Si number density = 18.639327 Si / 1000 Ang^3
#
#
#
# Elastic Constant Matrix: (Units=GPa)
#
#
# Indices 1 2 3 4 5 6 
#
# 1 98.1460 13.2867 11.3869 0.0000 0.0000 0.0000
# 2 13.2867 89.1869 20.5439 0.0000 0.0000 0.0000
# 3 11.3869 20.5439 70.4444 0.0000 0.0000 0.0000
# 4 0.0000 0.0000 0.0000 8.9168 0.0000 0.0000
# 5 0.0000 0.0000 0.0000 0.0000 34.5862 0.0000
# 6 0.0000 0.0000 0.0000 0.0000 0.0000 24.8900
#
#
#
# Elastic Compliance Matrix: (Units=1/GPa)
#
#
# Indices 1 2 3 4 5 6 
#
# 1 0.010514 -0.001259 -0.001332 0.000000 0.000000 0.000000
# 2 -0.001259 0.012171 -0.003346 0.000000 0.000000 0.000000
# 3 -0.001332 -0.003346 0.015387 0.000000 0.000000 0.000000
# 4 0.000000 0.000000 0.000000 0.112148 0.000000 0.000000
# 5 0.000000 0.000000 0.000000 0.000000 0.028913 0.000000
# 6 0.000000 0.000000 0.000000 0.000000 0.000000 0.040177
#
#
# Mechanical properties :
#
#
# Convention : Reuss Voigt Hill
#
# Bulk Modulus (GPa) = 38.17315 38.69027 38.43171
# Shear Modulus (GPa) = 20.84058 27.84925 24.34492
#
# Velocity S-wave (km/s) = 3.34742 3.86957 3.61793
# Velocity P-wave (km/s) = 5.95522 6.38491 6.17381
#
# Compressibility (1/GPa) = 0.02619643
#
# Stress axis : x y z
#
# Youngs Moduli (GPa) = 95.11162 82.16431 64.99122
#
# Poissons Ratio (x) = 0.10348 0.08658
# Poissons Ratio (y) = 0.11979 0.21745
# Poissons Ratio (z) = 0.12671 0.27491
#
# Static dielectric constant tensor:
#      x y z
#    x 1.594270 0.000000 0.000000 
#    y 0.000000 1.661250 0.000000 
#    z 0.000000 0.000000 1.705930 
# 
# From -- ./inp_files/3588.got.cif
#   From: 2010.05.17/outbox.cif.g08.bks.cpg/sg32_2_cif.got.tgz:3588.got - 2010.06.03 17:12:27.
