data_PCOD9343392
_publ_section_title
;
Structure prediction by ZEFSAII (Michael W. Deem and Ramdas Pophale) SiO2 
 PCOD9343392
Probable space group: P M N 21
;
_chemical_formula_sum "Si O2"
_cell_formula_units_Z 28
_cell_length_a 22.442375
_cell_length_b 11.162480
_cell_length_c 5.385773
_cell_angle_alpha 90.000000
_cell_angle_beta 90.000000
_cell_angle_gamma 90.000000
_cell_volume 1349.203793
_symmetry_space_group_name_H-M "P M N 21"
_symmetry_group_IT_number 31
_symmetry_cell_setting 'orthorhombic'
loop_
_space_group_symop_operation_xyz
x,y,z
1/2-x,-y,1/2+z
-x,y,z
1/2+x,-y,1/2+z
loop_
_atom_site_type_symbol
_atom_site_label
_atom_site_fract_x
_atom_site_fract_y
_atom_site_fract_z
Si Si1 0.125720 0.697593 0.650240
Si Si2 0.298196 0.864610 0.678839
Si Si3 0.320056 0.537457 0.002118
Si Si4 0.715987 0.294576 0.542568
Si Si5 0.000000 0.414678 0.086208
Si Si6 0.000000 0.575109 0.589047
Si Si7 0.316562 0.087410 0.926376
Si Si8 0.370061 0.654648 0.497524
O O1 0.169823 0.605036 0.505417
O O2 0.137399 0.836672 0.590905
O O3 0.059770 0.654678 0.592562
O O4 0.151247 0.679095 0.926577
O O5 0.245173 0.942766 0.562836
O O6 0.336370 0.782206 0.495556
O O7 0.338599 0.962586 0.816418
O O8 0.260530 0.773131 0.848650
O O9 0.254141 0.583983 0.075606
O O10 0.358947 0.589951 0.233635
O O11 0.343176 0.585945 0.738430
O O12 0.704555 0.191228 0.739453
O O13 0.000000 0.488839 0.346250
O O14 0.939828 0.339017 0.056781
O O15 0.000000 0.503666 0.849097
#
# Coordination Sequence:
#
# PCOD9343392 Si02
#       8
#     4   4   4   4   2   2   4   4
#     4  11  26  39  63  96 132 180 218 273 338 413
#     4  10  21  39  62  92 131 171 219 271 338 402
#     4  11  23  40  61  98 137 162 211 280 340 398
#     4  10  23  36  62  93 128 167 216 274 335 396
#     4  12  22  44  67  93 128 178 228 274 333 404
#     4  12  26  46  67  91 140 182 226 268 333 424
#     4  11  21  39  61  95 130 174 219 271 341 410
#     4  11  22  40  67  95 124 172 220 274 326 395
#
# _framework density 20.752979
#
# number of rings (size 3 to 8) (size 9 to 14) (size 15 to 20)
#    0.000    1.143    5.714    0.000    6.000    0.000 
#    0.000    0.714    0.000    0.000    0.000    0.000 
#    0.000    0.000    0.000    0.000    0.000    0.000 
#
# Total GULP energy -156207.081890 kJ/mol
# GULP energy per Si atom -5578.824353 kJ/mol
# Density = 2.070574 g / cm^3
# Si number density = 20.752979 Si / 1000 Ang^3
#
#
#
# Elastic Constant Matrix: (Units=GPa)
#
#
# Indices 1 2 3 4 5 6 
#
# 1 98.8972 13.1408 3.2937 0.0000 0.0000 0.0000
# 2 13.1408 90.4120 0.9987 0.0000 0.0000 0.0000
# 3 3.2937 0.9987 55.5374 0.0000 0.0000 0.0000
# 4 0.0000 0.0000 0.0000 36.9809 0.0000 0.0000
# 5 0.0000 0.0000 0.0000 0.0000 23.2378 0.0000
# 6 0.0000 0.0000 0.0000 0.0000 0.0000 11.2678
#
#
#
# Elastic Compliance Matrix: (Units=1/GPa)
#
#
# Indices 1 2 3 4 5 6 
#
# 1 0.010330 -0.001495 -0.000586 0.000000 0.000000 0.000000
# 2 -0.001495 0.011279 -0.000114 0.000000 0.000000 0.000000
# 3 -0.000586 -0.000114 0.018043 0.000000 0.000000 0.000000
# 4 0.000000 0.000000 0.000000 0.027041 0.000000 0.000000
# 5 0.000000 0.000000 0.000000 0.000000 0.043033 0.000000
# 6 0.000000 0.000000 0.000000 0.000000 0.000000 0.088749
#
#
# Mechanical properties :
#
#
# Convention : Reuss Voigt Hill
#
# Bulk Modulus (GPa) = 28.35930 31.07921 29.71925
# Shear Modulus (GPa) = 23.29724 29.45820 26.37772
#
# Velocity S-wave (km/s) = 3.35415 3.77167 3.56902
# Velocity P-wave (km/s) = 5.35680 5.82886 5.59781
#
# Compressibility (1/GPa) = 0.03526180
#
# Stress axis : x y z
#
# Youngs Moduli (GPa) = 96.80878 88.66024 55.42414
#
# Poissons Ratio (x) = 0.13254 0.03246
# Poissons Ratio (y) = 0.14472 0.00633
# Poissons Ratio (z) = 0.05670 0.01012
#
# Static dielectric constant tensor:
#      x y z
#    x 1.731640 0.000000 0.000000 
#    y 0.000000 1.781940 0.000000 
#    z 0.000000 0.000000 1.922570 
# 
# From -- ./inp_files/988.got.cif
#   From: 2010.05.17/outbox.cif.g08.bks.cpg/sg31_1_cif.got.tgz:988.got - 2010.06.03 17:08:30.
