data_PCOD9343896
_publ_section_title
;
Structure prediction by ZEFSAII (Michael W. Deem and Ramdas Pophale) SiO2 
 PCOD9343896
Probable space group: P B A 2
;
_chemical_formula_sum "Si O2"
_cell_formula_units_Z 24
_cell_length_a 14.460539
_cell_length_b 9.498072
_cell_length_c 7.400985
_cell_angle_alpha 90.000000
_cell_angle_beta 90.000000
_cell_angle_gamma 90.000000
_cell_volume 1016.504867
_symmetry_space_group_name_H-M "P B A 2"
_symmetry_group_IT_number 32
_symmetry_cell_setting 'orthorhombic'
loop_
_space_group_symop_operation_xyz
x,y,z
-x,-y,z
1/2-x,1/2+y,z
1/2+x,1/2-y,z
loop_
_atom_site_type_symbol
_atom_site_label
_atom_site_fract_x
_atom_site_fract_y
_atom_site_fract_z
Si Si1 0.000000 0.000000 0.634891
Si Si2 0.811311 0.085622 0.447542
Si Si3 0.500000 0.000000 0.569235
Si Si4 0.064498 0.273951 0.863341
Si Si5 0.132382 0.718438 0.934197
Si Si6 0.325731 0.119222 0.540485
Si Si7 0.768884 0.563197 0.055149
O O1 0.047758 0.123058 0.760242
O O2 0.917390 0.059087 0.504539
O O3 0.784539 0.248847 0.440710
O O4 0.768614 0.037713 0.258078
O O5 0.748493 0.998073 0.586163
O O6 0.552312 0.110132 0.702410
O O7 0.417949 0.061086 0.449239
O O8 0.974060 0.286990 0.989815
O O9 0.152870 0.323012 0.982669
O O10 0.135396 0.689816 0.721384
O O11 0.190246 0.588107 0.007493
O O12 0.177537 0.868714 0.967531
#
# Coordination Sequence:
#
# PCOD9343896 Si02
#       7
#     2   4   2   4   4   4   4
#     4  12  26  48  78 116 150 198 264 318 374 462
#     4  12  27  45  71 111 156 192 244 326 396 440
#     4  10  20  44  74 104 132 190 262 302 344 446
#     4  11  23  46  78 105 139 201 258 305 364 467
#     4  11  23  45  75 103 139 198 262 298 367 469
#     4  11  23  45  72 106 139 203 256 304 370 463
#     4  12  25  46  69 108 153 190 245 319 389 442
#
# _framework density 23.610316000000001
#
# number of rings (size 3 to 8) (size 9 to 14) (size 15 to 20)
#    0.000    0.667    6.667    3.000    4.667    0.000 
#   12.000    0.000    0.000    0.000    0.000    0.000 
#    0.000    0.000    0.000    0.000    0.000    0.000 
#
# Total GULP energy -133767.694802 kJ/mol
# GULP energy per Si atom -5573.653950 kJ/mol
# Density = 2.355658 g / cm^3
# Si number density = 23.610316 Si / 1000 Ang^3
#
#
#
# Elastic Constant Matrix: (Units=GPa)
#
#
# Indices 1 2 3 4 5 6 
#
# 1 122.2972 33.0677 21.2515 0.0000 0.0000 0.0000
# 2 33.0677 121.1678 19.4248 0.0000 0.0000 0.0000
# 3 21.2515 19.4248 46.7070 0.0000 0.0000 0.0000
# 4 0.0000 0.0000 0.0000 23.5793 0.0000 0.0000
# 5 0.0000 0.0000 0.0000 0.0000 37.3844 0.0000
# 6 0.0000 0.0000 0.0000 0.0000 0.0000 43.6278
#
#
#
# Elastic Compliance Matrix: (Units=1/GPa)
#
#
# Indices 1 2 3 4 5 6 
#
# 1 0.009308 -0.001994 -0.003406 0.000000 0.000000 0.000000
# 2 -0.001994 0.009270 -0.002948 0.000000 0.000000 0.000000
# 3 -0.003406 -0.002948 0.024186 0.000000 0.000000 0.000000
# 4 0.000000 0.000000 0.000000 0.042410 0.000000 0.000000
# 5 0.000000 0.000000 0.000000 0.000000 0.026749 0.000000
# 6 0.000000 0.000000 0.000000 0.000000 0.000000 0.022921
#
#
# Mechanical properties :
#
#
# Convention : Reuss Voigt Hill
#
# Bulk Modulus (GPa) = 38.36144 48.62889 43.49517
# Shear Modulus (GPa) = 31.20546 35.34682 33.27614
#
# Velocity S-wave (km/s) = 3.63945 3.87343 3.75826
# Velocity P-wave (km/s) = 5.82613 6.37540 6.10694
#
# Compressibility (1/GPa) = 0.02606784
#
# Stress axis : x y z
#
# Youngs Moduli (GPa) = 107.43657 107.87676 41.34688
#
# Poissons Ratio (x) = 0.21513 0.14081
# Poissons Ratio (y) = 0.21425 0.12188
# Poissons Ratio (z) = 0.36589 0.31800
#
# Static dielectric constant tensor:
#      x y z
#    x 1.069380 0.000000 0.000000 
#    y 0.000000 2.160060 0.000000 
#    z 0.000000 0.000000 1.956080 
# 
# From -- ./inp_files/3018.got.cif
#   From: 2010.05.17/outbox.cif.g08.bks.cpg/sg32_2_cif.got.tgz:3018.got - 2010.06.03 17:12:27.
