data_PCOD9343866
_publ_section_title
;
Structure prediction by ZEFSAII (Michael W. Deem and Ramdas Pophale) SiO2 
 PCOD9343866
Probable space group: P B A 2
;
_chemical_formula_sum "Si O2"
_cell_formula_units_Z 24
_cell_length_a 9.574968
_cell_length_b 12.352091
_cell_length_c 8.776932
_cell_angle_alpha 90.000000
_cell_angle_beta 90.000000
_cell_angle_gamma 90.000000
_cell_volume 1038.055437
_symmetry_space_group_name_H-M "P B A 2"
_symmetry_group_IT_number 32
_symmetry_cell_setting 'orthorhombic'
loop_
_space_group_symop_operation_xyz
x,y,z
-x,-y,z
1/2-x,1/2+y,z
1/2+x,1/2-y,z
loop_
_atom_site_type_symbol
_atom_site_label
_atom_site_fract_x
_atom_site_fract_y
_atom_site_fract_z
Si Si1 0.157226 0.459832 0.787550
Si Si2 0.516859 0.687513 0.114434
Si Si3 0.576912 0.897888 0.300478
Si Si4 0.743360 0.861643 0.588178
Si Si5 0.485561 0.742949 0.757459
Si Si6 0.707523 0.500094 0.095394
O O1 0.213137 0.515007 0.636421
O O2 0.133379 0.334211 0.774992
O O3 0.000000 0.500000 0.823603
O O4 0.266656 0.492233 0.916132
O O5 0.504447 0.794243 0.219035
O O6 0.654770 0.616703 0.151281
O O7 0.396988 0.597515 0.132809
O O8 0.518860 0.711143 0.932100
O O9 0.695358 0.851505 0.414210
O O10 0.648762 0.964555 0.166274
O O11 0.500000 0.000000 0.383146
O O12 0.623618 0.793752 0.680565
O O13 0.900961 0.836362 0.643134
#
# Coordination Sequence:
#
# PCOD9343866 Si02
#       6
#     4   4   4   4   4   4
#     4  10  20  40  67  97 129 175 230 283 345 417
#     4  11  26  43  72 103 138 181 239 298 353 418
#     4  12  27  44  72 101 143 192 232 290 363 441
#     4  11  25  42  68 100 142 184 233 285 362 426
#     4  11  22  43  70 102 134 184 234 299 346 423
#     4  11  24  44  68 102 137 177 236 297 351 415
#
# _framework density 23.120152999999998
#
# number of rings (size 3 to 8) (size 9 to 14) (size 15 to 20)
#    0.000    1.000    1.667    6.000    7.000    1.333 
#    0.000    0.000    0.000    0.000    0.000    0.000 
#    0.000    0.000    0.000    0.000    0.000    0.000 
#
# Total GULP energy -133856.788194 kJ/mol
# GULP energy per Si atom -5577.366175 kJ/mol
# Density = 2.306753 g / cm^3
# Si number density = 23.120153 Si / 1000 Ang^3
#
#
#
# Elastic Constant Matrix: (Units=GPa)
#
#
# Indices 1 2 3 4 5 6 
#
# 1 35.5542 23.6371 -7.6058 0.0000 0.0000 0.0000
# 2 23.6371 113.7033 13.4321 0.0000 0.0000 0.0000
# 3 -7.6058 13.4321 61.1577 0.0000 0.0000 0.0000
# 4 0.0000 0.0000 0.0000 11.9494 0.0000 0.0000
# 5 0.0000 0.0000 0.0000 0.0000 22.1918 0.0000
# 6 0.0000 0.0000 0.0000 0.0000 0.0000**********
#
#
#
# Elastic Compliance Matrix: (Units=1/GPa)
#
#
# Indices 1 2 3 4 5 6 
#
# 1 0.034692 -0.007927 0.006055 0.000000 0.000000 0.000000
# 2 -0.007927 0.010840 -0.003367 0.000000 0.000000 0.000000
# 3 0.006055 -0.003367 0.017844 0.000000 0.000000 0.000000
# 4 0.000000 0.000000 0.000000 0.083686 0.000000 0.000000
# 5 0.000000 0.000000 0.000000 0.000000 0.045062 0.000000
# 6 0.000000 0.000000 0.000000 0.000000 0.000000 -0.000041
#
#
# Mechanical properties :
#
#
# Convention : Reuss Voigt Hill
#
# Bulk Modulus (GPa) = 18.90407 29.92691 24.41549
# Shear Modulus (GPa) = 22.70747 -4800.99200 -2389.14227
#
# Velocity S-wave (km/s) = 3.13733 -45.61850 -32.18078
# Velocity P-wave (km/s) = 4.61714 52.55243 37.01649
#
# Compressibility (1/GPa) = 0.05289866
#
# Stress axis : x y z
#
# Youngs Moduli (GPa) = 28.82546 92.24688 56.04227
#
# Poissons Ratio (x) = 0.73126 -0.33936
# Poissons Ratio (y) = 0.22850 0.18868
# Poissons Ratio (z) = -0.17455 0.31057
#
# Static dielectric constant tensor:
#      x y z
#    x 1.988610 0.000000 0.000000 
#    y 0.000000 1.978940 0.000000 
#    z 0.000000 0.000000 1.878400 
# 
# From -- ./inp_files/2733.got.cif
#   From: 2010.05.17/outbox.cif.g08.bks.cpg/sg32_2_cif.got.tgz:2733.got - 2010.06.03 17:12:27.
