data_PCOD9343749
_publ_section_title
;
Structure prediction by ZEFSAII (Michael W. Deem and Ramdas Pophale) SiO2 
 PCOD9343749
Probable space group: P B A 2
;
_chemical_formula_sum "Si O2"
_cell_formula_units_Z 32
_cell_length_a 18.025853
_cell_length_b 5.288118
_cell_length_c 14.746139
_cell_angle_alpha 90.000000
_cell_angle_beta 90.000000
_cell_angle_gamma 90.000000
_cell_volume 1405.643815
_symmetry_space_group_name_H-M "P B A 2"
_symmetry_group_IT_number 32
_symmetry_cell_setting 'orthorhombic'
loop_
_space_group_symop_operation_xyz
x,y,z
-x,-y,z
1/2-x,1/2+y,z
1/2+x,1/2-y,z
loop_
_atom_site_type_symbol
_atom_site_label
_atom_site_fract_x
_atom_site_fract_y
_atom_site_fract_z
Si Si1 0.682778 0.725749 0.752510
Si Si2 0.575842 0.937162 0.194621
Si Si3 0.705901 0.386362 0.421038
Si Si4 0.577561 0.440744 0.073657
Si Si5 0.051829 0.251842 0.507707
Si Si6 0.651404 0.227872 0.684209
Si Si7 0.713534 0.636518 0.961407
Si Si8 0.233140 0.560853 0.223691
O O1 0.630331 0.507146 0.715259
O O2 0.757257 0.751504 0.689058
O O3 0.706877 0.640500 0.852160
O O4 0.641366 0.992295 0.750836
O O5 0.576276 0.657054 0.152409
O O6 0.648822 0.952405 0.253459
O O7 0.500000 0.000000 0.244553
O O8 0.580847 0.161103 0.118353
O O9 0.742205 0.651709 0.454455
O O10 0.619887 0.331181 0.440764
O O11 0.716977 0.413009 0.312286
O O12 0.500000 0.500000 0.025290
O O13 0.642753 0.509524 0.006846
O O14 0.103239 0.321838 0.595166
O O15 0.000000 0.500000 0.486722
O O16 0.000000 0.000000 0.518919
O O17 0.777144 0.431662 0.984721
O O18 0.254518 0.315112 0.169273
#
# Coordination Sequence:
#
# PCOD9343749 Si02
#       8
#     4   4   4   4   4   4   4   4
#     4  10  19  37  61  91 116 164 215 265 315 372
#     4  10  21  40  62  88 125 167 211 261 317 377
#     4  10  23  43  67  97 127 174 214 267 323 397
#     4  10  23  39  58  89 129 171 207 255 327 382
#     4  12  26  43  65 100 138 172 216 273 336 402
#     4  10  20  36  62  86 122 164 210 262 316 380
#     4  12  21  37  60  92 124 164 218 265 315 374
#     4  10  21  39  63  93 127 156 211 260 315 378
#
# _framework density 22.765367999999999
#
# number of rings (size 3 to 8) (size 9 to 14) (size 15 to 20)
#    0.000    1.500    2.500    3.000    3.500    3.000 
#    0.000    9.375    0.000    0.000    0.000    0.000 
#    0.000    0.000    0.000    0.000    0.000    0.000 
#
# Total GULP energy -178305.890113 kJ/mol
# GULP energy per Si atom -5572.059066 kJ/mol
# Density = 2.271355 g / cm^3
# Si number density = 22.765368 Si / 1000 Ang^3
#
#
#
# Elastic Constant Matrix: (Units=GPa)
#
#
# Indices 1 2 3 4 5 6 
#
# 1 110.0251 9.5653 25.4961 0.0000 0.0000 0.0000
# 2 9.5653 144.9272 1.1943 0.0000 0.0000 0.0000
# 3 25.4961 1.1943 52.9888 0.0000 0.0000 0.0000
# 4 0.0000 0.0000 0.0000 15.8845 0.0000 0.0000
# 5 0.0000 0.0000 0.0000 0.0000 19.7784 0.0000
# 6 0.0000 0.0000 0.0000 0.0000 0.0000 34.8072
#
#
#
# Elastic Compliance Matrix: (Units=1/GPa)
#
#
# Indices 1 2 3 4 5 6 
#
# 1 0.010288 -0.000638 -0.004936 0.000000 0.000000 0.000000
# 2 -0.000638 0.006941 0.000151 0.000000 0.000000 0.000000
# 3 -0.004936 0.000151 0.021243 0.000000 0.000000 0.000000
# 4 0.000000 0.000000 0.000000 0.062954 0.000000 0.000000
# 5 0.000000 0.000000 0.000000 0.000000 0.050560 0.000000
# 6 0.000000 0.000000 0.000000 0.000000 0.000000 0.028730
#
#
# Mechanical properties :
#
#
# Convention : Reuss Voigt Hill
#
# Bulk Modulus (GPa) = 36.19845 42.27251 39.23548
# Shear Modulus (GPa) = 24.90386 32.20640 28.55513
#
# Velocity S-wave (km/s) = 3.31106 3.76534 3.54549
# Velocity P-wave (km/s) = 5.52745 6.12477 5.83376
#
# Compressibility (1/GPa) = 0.02762549
#
# Stress axis : x y z
#
# Youngs Moduli (GPa) = 97.19952 144.07341 47.07336
#
# Poissons Ratio (x) = 0.09197 0.23235
# Poissons Ratio (y) = 0.06205 -0.00709
# Poissons Ratio (z) = 0.47976 -0.02171
#
# Static dielectric constant tensor:
#      x y z
#    x 1.896540 0.000000 0.000000 
#    y 0.000000 2.007320 0.000000 
#    z 0.000000 0.000000 1.867730 
# 
# From -- ./inp_files/4197.got.cif
#   From: 2010.05.17/outbox.cif.g08.bks.cpg/sg32_3_cif.got.tgz:4197.got - 2010.06.03 17:12:27.
