data_PCOD9343517
_publ_section_title
;
Structure prediction by ZEFSAII (Michael W. Deem and Ramdas Pophale) SiO2 
 PCOD9343517
Probable space group: P M N 21
;
_chemical_formula_sum "Si O2"
_cell_formula_units_Z 24
_cell_length_a 8.736030
_cell_length_b 13.962634
_cell_length_c 10.296926
_cell_angle_alpha 90.000000
_cell_angle_beta 90.000000
_cell_angle_gamma 90.000000
_cell_volume 1255.998332
_symmetry_space_group_name_H-M "P M N 21"
_symmetry_group_IT_number 31
_symmetry_cell_setting 'orthorhombic'
loop_
_space_group_symop_operation_xyz
x,y,z
1/2-x,-y,1/2+z
-x,y,z
1/2+x,-y,1/2+z
loop_
_atom_site_type_symbol
_atom_site_label
_atom_site_fract_x
_atom_site_fract_y
_atom_site_fract_z
Si Si1 0.683470 0.074272 0.104270
Si Si2 0.315895 0.221038 0.874897
Si Si3 0.316747 0.573493 0.451018
Si Si4 0.683370 0.792228 0.826203
Si Si5 0.815716 0.424353 0.246270
Si Si6 0.683544 0.138441 0.593864
O O1 0.500000 0.062830 0.106275
O O2 0.738989 0.130657 0.231580
O O3 0.761636 0.971258 0.095672
O O4 0.725116 0.139857 0.980155
O O5 0.500000 0.232352 0.879228
O O6 0.240394 0.321179 0.912168
O O7 0.273521 0.187106 0.730608
O O8 0.500000 0.572457 0.449178
O O9 0.254232 0.496088 0.350404
O O10 0.266202 0.552907 0.599090
O O11 0.500000 0.802983 0.818612
O O12 0.724561 0.685526 0.778802
O O13 0.739622 0.809521 0.972028
O O14 0.000000 0.432066 0.252162
O O15 0.500000 0.142195 0.581129
#
# Coordination Sequence:
#
# PCOD9343517 Si02
#       6
#     4   4   4   4   4   4
#     4  11  22  40  66  94 124 166 211 256 316 374
#     4  10  23  42  63  90 127 163 204 257 312 366
#     4  11  24  42  67  94 121 161 207 253 311 372
#     4  11  23  42  64  90 128 167 209 260 309 366
#     4  10  24  44  64  92 127 162 202 256 312 368
#     4  11  24  40  62  94 129 167 209 258 310 370
#
# _framework density 19.108304
#
# number of rings (size 3 to 8) (size 9 to 14) (size 15 to 20)
#    0.000    1.333    1.667    3.000    2.333    6.000 
#    0.000    0.000    0.000    0.000    0.000    0.000 
#    0.000    0.000    0.000    0.000    0.000    0.000 
#
# Total GULP energy -134241.914460 kJ/mol
# GULP energy per Si atom -5593.413102 kJ/mol
# Density = 1.906481 g / cm^3
# Si number density = 19.108304 Si / 1000 Ang^3
#
#
#
# Elastic Constant Matrix: (Units=GPa)
#
#
# Indices 1 2 3 4 5 6 
#
# 1 19.1275 21.5323 25.3052 0.0000 0.0000 0.0000
# 2 21.5323 90.9713 56.3049 0.0000 0.0000 0.0000
# 3 25.3052 56.3049 162.1143 0.0000 0.0000 0.0000
# 4 0.0000 0.0000 0.0000 41.8839 0.0000 0.0000
# 5 0.0000 0.0000 0.0000 0.0000 28.1874 0.0000
# 6 0.0000 0.0000 0.0000 0.0000 0.0000 32.0893
#
#
#
# Elastic Compliance Matrix: (Units=1/GPa)
#
#
# Indices 1 2 3 4 5 6 
#
# 1 0.077498 -0.013829 -0.007294 0.000000 0.000000 0.000000
# 2 -0.013829 0.016470 -0.003562 0.000000 0.000000 0.000000
# 3 -0.007294 -0.003562 0.008544 0.000000 0.000000 0.000000
# 4 0.000000 0.000000 0.000000 0.023876 0.000000 0.000000
# 5 0.000000 0.000000 0.000000 0.000000 0.035477 0.000000
# 6 0.000000 0.000000 0.000000 0.000000 0.000000 0.031163
#
#
# Mechanical properties :
#
#
# Convention : Reuss Voigt Hill
#
# Bulk Modulus (GPa) = 18.81714 53.16641 35.99177
# Shear Modulus (GPa) = 19.22258 31.70351 25.46304
#
# Velocity S-wave (km/s) = 3.17516 4.07768 3.65439
# Velocity P-wave (km/s) = 4.82817 7.07489 6.05662
#
# Compressibility (1/GPa) = 0.05314305
#
# Stress axis : x y z
#
# Youngs Moduli (GPa) = 12.90359 60.71608 117.03976
#
# Poissons Ratio (x) = 0.83962 0.85370
# Poissons Ratio (y) = 0.17844 0.41687
# Poissons Ratio (z) = 0.09412 0.21626
#
# Static dielectric constant tensor:
#      x y z
#    x 1.642930 0.000000 0.000000 
#    y 0.000000 1.622140 0.000000 
#    z 0.000000 0.000000 1.649460 
# 
# From -- ./inp_files/1668.got.cif
#   From: 2010.05.17/outbox.cif.g08.bks.cpg/sg31_1_cif.got.tgz:1668.got - 2010.06.03 17:08:30.
