data_PCOD9343796
_publ_section_title
;
Structure prediction by ZEFSAII (Michael W. Deem and Ramdas Pophale) SiO2 
 PCOD9343796
Probable space group: P B A 2
;
_chemical_formula_sum "Si O2"
_cell_formula_units_Z 22
_cell_length_a 15.212685
_cell_length_b 9.304625
_cell_length_c 5.920032
_cell_angle_alpha 90.000000
_cell_angle_beta 90.000000
_cell_angle_gamma 90.000000
_cell_volume 837.970638
_symmetry_space_group_name_H-M "P B A 2"
_symmetry_group_IT_number 32
_symmetry_cell_setting 'orthorhombic'
loop_
_space_group_symop_operation_xyz
x,y,z
-x,-y,z
1/2-x,1/2+y,z
1/2+x,1/2-y,z
loop_
_atom_site_type_symbol
_atom_site_label
_atom_site_fract_x
_atom_site_fract_y
_atom_site_fract_z
Si Si1 0.705029 0.302384 0.823370
Si Si2 0.392350 0.851253 0.178624
Si Si3 0.722500 0.900280 0.220952
Si Si4 0.169341 0.872794 0.481838
Si Si5 0.983586 0.790519 0.572653
Si Si6 0.000000 0.500000 0.797012
O O1 0.764843 0.200453 0.667863
O O2 0.607208 0.319835 0.715137
O O3 0.684519 0.245789 0.078202
O O4 0.762706 0.427778 0.946043
O O5 0.453830 0.748126 0.319727
O O6 0.350292 0.980520 0.313189
O O7 0.432571 0.930063 0.967839
O O8 0.673631 0.751833 0.291506
O O9 0.799823 0.974867 0.375382
O O10 0.069737 0.889660 0.572012
O O11 0.024607 0.638619 0.656030
#
# Coordination Sequence:
#
# PCOD9343796 Si02
#       6
#     4   4   4   4   4   2
#     4  11  25  47  72 112 149 198 255 321 386 469
#     4  11  22  44  71 107 145 187 258 309 376 469
#     4  12  24  46  73 108 148 199 254 319 392 469
#     4  12  27  45  77 105 153 203 257 324 392 465
#     4  11  23  44  70 112 150 198 254 329 382 466
#     4  10  20  34  72 106 142 186 250 308 378 458
#
# _framework density 26.253903000000001
#
# number of rings (size 3 to 8) (size 9 to 14) (size 15 to 20)
#    0.000    0.727    3.636    3.818    5.091    1.455 
#    0.000    5.455    0.000    0.000    0.000    0.000 
#    0.000    0.000    0.000    0.000    0.000    0.000 
#
# Total GULP energy -122493.906179 kJ/mol
# GULP energy per Si atom -5567.904826 kJ/mol
# Density = 2.619415 g / cm^3
# Si number density = 26.253903 Si / 1000 Ang^3
#
#
#
# Elastic Constant Matrix: (Units=GPa)
#
#
# Indices 1 2 3 4 5 6 
#
# 1 147.4204 16.7131 70.6989 0.0000 0.0000 0.0000
# 2 16.7131 67.3929 26.2883 0.0000 0.0000 0.0000
# 3 70.6989 26.2883 80.6514 0.0000 0.0000 0.0000
# 4 0.0000 0.0000 0.0000 66.9311 0.0000 0.0000
# 5 0.0000 0.0000 0.0000 0.0000 51.8061 0.0000
# 6 0.0000 0.0000 0.0000 0.0000 0.0000 27.3433
#
#
#
# Elastic Compliance Matrix: (Units=1/GPa)
#
#
# Indices 1 2 3 4 5 6 
#
# 1 0.011797 0.001270 -0.010755 0.000000 0.000000 0.000000
# 2 0.001270 0.017136 -0.006699 0.000000 0.000000 0.000000
# 3 -0.010755 -0.006699 0.024011 0.000000 0.000000 0.000000
# 4 0.000000 0.000000 0.000000 0.014941 0.000000 0.000000
# 5 0.000000 0.000000 0.000000 0.000000 0.019303 0.000000
# 6 0.000000 0.000000 0.000000 0.000000 0.000000 0.036572
#
#
# Mechanical properties :
#
#
# Convention : Reuss Voigt Hill
#
# Bulk Modulus (GPa) = 48.60087 58.09615 53.34851
# Shear Modulus (GPa) = 30.67720 41.33371 36.00546
#
# Velocity S-wave (km/s) = 3.42201 3.97215 3.70730
# Velocity P-wave (km/s) = 5.84514 6.57373 6.22011
#
# Compressibility (1/GPa) = 0.02057576
#
# Stress axis : x y z
#
# Youngs Moduli (GPa) = 84.76439 58.35513 41.64811
#
# Poissons Ratio (x) = -0.07410 0.44794
# Poissons Ratio (y) = -0.10763 0.27899
# Poissons Ratio (z) = 0.91168 0.39090
#
# Static dielectric constant tensor:
#      x y z
#    x 1.704340 0.000000 0.000000 
#    y 0.000000 2.008540 0.000000 
#    z 0.000000 0.000000 2.207350 
# 
# From -- ./inp_files/1168.got.cif
#   From: 2010.05.17/outbox.cif.g08.bks.cpg/sg32_1_cif.got.tgz:1168.got - 2010.06.03 17:12:27.
