data_PCOD9343257
_publ_section_title
;
Structure prediction by ZEFSAII (Michael W. Deem and Ramdas Pophale) SiO2 
 PCOD9343257
Probable space group: P M N 21
;
_chemical_formula_sum "Si O2"
_cell_formula_units_Z 24
_cell_length_a 12.892970
_cell_length_b 5.150281
_cell_length_c 16.004130
_cell_angle_alpha 90.000000
_cell_angle_beta 90.000000
_cell_angle_gamma 90.000000
_cell_volume 1062.712937
_symmetry_space_group_name_H-M "P M N 21"
_symmetry_group_IT_number 31
_symmetry_cell_setting 'orthorhombic'
loop_
_space_group_symop_operation_xyz
x,y,z
1/2-x,-y,1/2+z
-x,y,z
1/2+x,-y,1/2+z
loop_
_atom_site_type_symbol
_atom_site_label
_atom_site_fract_x
_atom_site_fract_y
_atom_site_fract_z
Si Si1 0.621215 0.593640 0.611170
Si Si2 0.883336 0.552294 0.293379
Si Si3 0.726989 0.719301 0.007587
Si Si4 0.000000 0.254719 0.512778
Si Si5 0.273449 0.967054 0.847143
Si Si6 0.000000 0.742329 0.617545
Si Si7 0.293260 0.021382 0.174282
O O1 0.500000 0.646789 0.593605
O O2 0.623706 0.401856 0.692528
O O3 0.685406 0.488767 0.531205
O O4 0.687170 0.832707 0.647674
O O5 0.804118 0.323144 0.316948
O O6 0.000000 0.455004 0.306166
O O7 0.863870 0.817994 0.343605
O O8 0.610431 0.667995 0.971568
O O9 0.697451 0.820157 0.099198
O O10 0.768737 0.927158 0.940340
O O11 0.000000 0.447055 0.591055
O O12 0.000000 0.950865 0.539507
O O13 0.205805 0.072410 0.769615
O O14 0.106489 0.797117 0.664805
#
# Coordination Sequence:
#
# PCOD9343257 Si02
#       7
#     4   4   4   2   4   2   4
#     4  10  21  40  66  89 126 173 216 265 322 378
#     4  10  22  40  62  92 125 162 208 269 324 375
#     4  11  23  40  63  94 130 165 213 267 319 382
#     4  10  22  36  64  94 119 161 204 262 322 378
#     4  11  24  38  64  93 129 164 213 264 317 384
#     4  10  20  38  68  86 123 167 206 258 316 374
#     4  10  22  43  63  92 130 168 218 261 323 381
#
# _framework density 22.583708999999999
#
# number of rings (size 3 to 8) (size 9 to 14) (size 15 to 20)
#    0.000    1.667    3.333    0.500    4.667    1.333 
#    1.500    0.000    0.000    0.000    0.000    0.000 
#    0.000    0.000    0.000    0.000    0.000    0.000 
#
# Total GULP energy -133623.207571 kJ/mol
# GULP energy per Si atom -5567.633649 kJ/mol
# Density = 2.253231 g / cm^3
# Si number density = 22.583709 Si / 1000 Ang^3
#
#
#
# Elastic Constant Matrix: (Units=GPa)
#
#
# Indices 1 2 3 4 5 6 
#
# 1 106.0226 23.9555 25.9685 0.0000 0.0000 0.0000
# 2 23.9555 66.7734 7.0446 0.0000 0.0000 0.0000
# 3 25.9685 7.0446 89.2477 0.0000 0.0000 0.0000
# 4 0.0000 0.0000 0.0000 27.3997 0.0000 0.0000
# 5 0.0000 0.0000 0.0000 0.0000 24.5001 0.0000
# 6 0.0000 0.0000 0.0000 0.0000 0.0000 29.3547
#
#
#
# Elastic Compliance Matrix: (Units=1/GPa)
#
#
# Indices 1 2 3 4 5 6 
#
# 1 0.010963 -0.003627 -0.002904 0.000000 0.000000 0.000000
# 2 -0.003627 0.016302 -0.000232 0.000000 0.000000 0.000000
# 3 -0.002904 -0.000232 0.012068 0.000000 0.000000 0.000000
# 4 0.000000 0.000000 0.000000 0.036497 0.000000 0.000000
# 5 0.000000 0.000000 0.000000 0.000000 0.040816 0.000000
# 6 0.000000 0.000000 0.000000 0.000000 0.000000 0.034066
#
#
# Mechanical properties :
#
#
# Convention : Reuss Voigt Hill
#
# Bulk Modulus (GPa) = 38.74658 41.77565 40.26111
# Shear Modulus (GPa) = 28.92900 29.92259 29.42579
#
# Velocity S-wave (km/s) = 3.58294 3.64395 3.61358
# Velocity P-wave (km/s) = 5.85754 6.02020 5.93943
#
# Compressibility (1/GPa) = 0.02580873
#
# Stress axis : x y z
#
# Youngs Moduli (GPa) = 91.21977 61.34398 82.86461
#
# Poissons Ratio (x) = 0.22247 0.24060
# Poissons Ratio (y) = 0.33082 0.01918
# Poissons Ratio (z) = 0.26486 0.01420
#
# Static dielectric constant tensor:
#      x y z
#    x 1.952340 0.000000 0.000000 
#    y 0.000000 1.918440 0.000000 
#    z 0.000000 0.000000 1.979080 
# 
# From -- ./inp_files/5415.got.cif
#   From: 2010.05.17/outbox.cif.g08.bks.cpg/sg31_3_cif.got.tgz:5415.got - 2010.06.03 17:08:30.
