data_PCOD9343997
_publ_section_title
;
Structure prediction by ZEFSAII (Michael W. Deem and Ramdas Pophale) SiO2 
 PCOD9343997
Probable space group: P B A 2
;
_chemical_formula_sum "Si O2"
_cell_formula_units_Z 24
_cell_length_a 9.151100
_cell_length_b 13.995473
_cell_length_c 8.241537
_cell_angle_alpha 90.000000
_cell_angle_beta 90.000000
_cell_angle_gamma 90.000000
_cell_volume 1055.526387
_symmetry_space_group_name_H-M "P B A 2"
_symmetry_group_IT_number 32
_symmetry_cell_setting 'orthorhombic'
loop_
_space_group_symop_operation_xyz
x,y,z
-x,-y,z
1/2-x,1/2+y,z
1/2+x,1/2-y,z
loop_
_atom_site_type_symbol
_atom_site_label
_atom_site_fract_x
_atom_site_fract_y
_atom_site_fract_z
Si Si1 0.174891 0.750137 0.358670
Si Si2 0.128010 0.073958 0.808095
Si Si3 0.869385 0.566819 0.763792
Si Si4 0.342593 0.875840 0.099996
Si Si5 0.920854 0.748822 0.581599
Si Si6 0.675651 0.900551 0.120532
O O1 0.238586 0.820174 0.221882
O O2 0.252725 0.761906 0.530810
O O3 0.219954 0.647822 0.287942
O O4 0.008592 0.761888 0.413815
O O5 0.068111 0.162780 0.704114
O O6 0.245267 0.007732 0.708726
O O7 0.216120 0.111579 0.967354
O O8 0.000000 0.000000 0.855539
O O9 0.949706 0.643128 0.651166
O O10 0.000000 0.500000 0.831758
O O11 0.798041 0.626598 0.911405
O O12 0.515607 0.851739 0.096750
O O13 0.335741 0.986950 0.146591
#
# Coordination Sequence:
#
# PCOD9343997 Si02
#       6
#     4   4   4   4   4   4
#     4  12  25  42  67 100 146 181 222 287 361 425
#     4  11  24  45  70 104 139 180 241 302 345 407
#     4  11  22  45  75  97 135 192 241 288 348 421
#     4  10  21  45  71  96 128 185 237 281 339 410
#     4  12  27  42  64 108 145 183 229 288 364 431
#     4  10  22  45  69  96 133 179 236 283 338 416
#
# _framework density 22.737470999999999
#
# number of rings (size 3 to 8) (size 9 to 14) (size 15 to 20)
#    0.000    1.000    5.000    3.000    0.000    6.667 
#    9.000    0.000    0.000    0.000    0.000    0.000 
#    0.000    0.000    0.000    0.000    0.000    0.000 
#
# Total GULP energy -133827.889659 kJ/mol
# GULP energy per Si atom -5576.162069 kJ/mol
# Density = 2.268572 g / cm^3
# Si number density = 22.737471 Si / 1000 Ang^3
#
#
#
# Elastic Constant Matrix: (Units=GPa)
#
#
# Indices 1 2 3 4 5 6 
#
# 1 84.2252 31.0824 28.2886 0.0000 0.0000 0.0000
# 2 31.0824 63.5745 38.3029 0.0000 0.0000 0.0000
# 3 28.2886 38.3029 76.0148 0.0000 0.0000 0.0000
# 4 0.0000 0.0000 0.0000 -2.5601 0.0000 0.0000
# 5 0.0000 0.0000 0.0000 0.0000 39.2926 0.0000
# 6 0.0000 0.0000 0.0000 0.0000 0.0000 30.6810
#
#
#
# Elastic Compliance Matrix: (Units=1/GPa)
#
#
# Indices 1 2 3 4 5 6 
#
# 1 0.014859 -0.005648 -0.002684 0.000000 0.000000 0.000000
# 2 -0.005648 0.024733 -0.010361 0.000000 0.000000 0.000000
# 3 -0.002684 -0.010361 0.019375 0.000000 0.000000 0.000000
# 4 0.000000 0.000000 0.000000 -0.390614 0.000000 0.000000
# 5 0.000000 0.000000 0.000000 0.000000 0.025450 0.000000
# 6 0.000000 0.000000 0.000000 0.000000 0.000000 0.032594
#
#
# Mechanical properties :
#
#
# Convention : Reuss Voigt Hill
#
# Bulk Modulus (GPa) = 46.33534 46.57358 46.45446
# Shear Modulus (GPa) = -21.83161 21.89207 0.03023
#
# Velocity S-wave (km/s) = -3.10201 3.10630 0.11543
# Velocity P-wave (km/s) = 2.75549 5.77868 4.52691
#
# Compressibility (1/GPa) = 0.02158180
#
# Stress axis : x y z
#
# Youngs Moduli (GPa) = 67.30149 40.43163 51.61328
#
# Poissons Ratio (x) = 0.22834 0.13852
# Poissons Ratio (y) = 0.38009 0.53476
# Poissons Ratio (z) = 0.18062 0.41891
#
# Static dielectric constant tensor:
#      x y z
#    x 1.892350 0.000000 0.000000 
#    y 0.000000 1.853900 0.000000 
#    z 0.000000 0.000000 1.851490 
# 
# From -- ./inp_files/2325.got.cif
#   From: 2010.05.17/outbox.cif.g08.bks.cpg/sg32_2_cif.got.tgz:2325.got - 2010.06.03 17:12:27.
