data_PCOD9343213
_publ_section_title
;
Structure prediction by ZEFSAII (Michael W. Deem and Ramdas Pophale) SiO2 
 PCOD9343213
Probable space group: P M N 21
;
_chemical_formula_sum "Si O2"
_cell_formula_units_Z 24
_cell_length_a 8.454868
_cell_length_b 14.495695
_cell_length_c 8.246266
_cell_angle_alpha 90.000000
_cell_angle_beta 90.000000
_cell_angle_gamma 90.000000
_cell_volume 1010.655663
_symmetry_space_group_name_H-M "P M N 21"
_symmetry_group_IT_number 31
_symmetry_cell_setting 'orthorhombic'
loop_
_space_group_symop_operation_xyz
x,y,z
1/2-x,-y,1/2+z
-x,y,z
1/2+x,-y,1/2+z
loop_
_atom_site_type_symbol
_atom_site_label
_atom_site_fract_x
_atom_site_fract_y
_atom_site_fract_z
Si Si1 0.815627 0.696425 0.630070
Si Si2 0.684404 0.796408 0.321058
Si Si3 0.313281 0.863261 0.805660
Si Si4 0.184626 0.640807 0.121125
Si Si5 0.188695 0.522079 0.446702
Si Si6 0.690492 0.971035 0.120944
O O1 0.789296 0.755728 0.464866
O O2 0.747916 0.761199 0.769684
O O3 0.748361 0.596665 0.579551
O O4 0.000000 0.684386 0.659700
O O5 0.500000 0.790455 0.368416
O O6 0.713703 0.730500 0.164844
O O7 0.722545 0.899746 0.267560
O O8 0.500000 0.857598 0.822347
O O9 0.269625 0.931822 0.658408
O O10 0.249448 0.916700 0.962928
O O11 0.212476 0.573034 0.276007
O O12 0.230780 0.576415 0.970774
O O13 0.000000 0.665654 0.115474
O O14 0.000000 0.510395 0.469228
O O15 0.500000 0.983304 0.109056
#
# Coordination Sequence:
#
# PCOD9343213 Si02
#       6
#     4   4   4   4   4   4
#     4  10  21  38  58  82 113 146 185 231 275 325
#     4  10  20  37  60  83 111 147 185 227 278 331
#     4  11  23  38  58  83 111 145 183 225 276 330
#     4  10  21  36  56  83 113 146 186 231 277 327
#     4   9  20  37  55  79 111 146 183 226 275 325
#     4  10  23  40  57  82 113 144 182 228 275 328
#
# _framework density 23.746962
#
# number of rings (size 3 to 8) (size 9 to 14) (size 15 to 20)
#    0.000    2.000    0.000    4.000    0.000   10.667 
#    0.000    5.000    0.000    0.000    0.000    0.000 
#    0.000    0.000    0.000    0.000    0.000    0.000 
#
# Total GULP energy -134264.044944 kJ/mol
# GULP energy per Si atom -5594.335206 kJ/mol
# Density = 2.369291 g / cm^3
# Si number density = 23.746962 Si / 1000 Ang^3
#
#
#
# Elastic Constant Matrix: (Units=GPa)
#
#
# Indices 1 2 3 4 5 6 
#
# 1 9.6594 15.1647 -6.7366 0.0000 0.0000 0.0000
# 2 15.1647 115.7514 -3.2185 0.0000 0.0000 0.0000
# 3 -6.7366 -3.2185 56.2273 0.0000 0.0000 0.0000
# 4 0.0000 0.0000 0.0000 41.0699 0.0000 0.0000
# 5 0.0000 0.0000 0.0000 0.0000 -14.9675 0.0000
# 6 0.0000 0.0000 0.0000 0.0000 0.0000 93.8151
#
#
#
# Elastic Compliance Matrix: (Units=1/GPa)
#
#
# Indices 1 2 3 4 5 6 
#
# 1 0.143631 -0.018368 0.016157 0.000000 0.000000 0.000000
# 2 -0.018368 0.011002 -0.001571 0.000000 0.000000 0.000000
# 3 0.016157 -0.001571 0.019631 0.000000 0.000000 0.000000
# 4 0.000000 0.000000 0.000000 0.024349 0.000000 0.000000
# 5 0.000000 0.000000 0.000000 0.000000 -0.066812 0.000000
# 6 0.000000 0.000000 0.000000 0.000000 0.000000 0.010659
#
#
# Mechanical properties :
#
#
# Convention : Reuss Voigt Hill
#
# Bulk Modulus (GPa) = 5.99879 21.33969 13.66924
# Shear Modulus (GPa) = 24.32020 35.74540 30.03280
#
# Velocity S-wave (km/s) = 3.20369 3.88398 3.56012
# Velocity P-wave (km/s) = 4.02697 5.39625 4.76109
#
# Compressibility (1/GPa) = 0.16670016
#
# Stress axis : x y z
#
# Youngs Moduli (GPa) = 6.96229 90.89315 50.94026
#
# Poissons Ratio (x) = 1.66952 -0.82305
# Poissons Ratio (y) = 0.12788 0.08002
# Poissons Ratio (z) = -0.11249 0.14278
#
# Static dielectric constant tensor:
#      x y z
#    x 1.814380 0.000000 0.000000 
#    y 0.000000 1.867950 0.000000 
#    z 0.000000 0.000000 2.034370 
# 
# From -- ./inp_files/1698.got.cif
#   From: 2010.05.17/outbox.cif.g08.bks.cpg/sg31_1_cif.got.tgz:1698.got - 2010.06.03 17:08:30.
