data_PCOD9343284
_publ_section_title
;
Structure prediction by ZEFSAII (Michael W. Deem and Ramdas Pophale) SiO2 
 PCOD9343284
Probable space group: P M N 21
;
_chemical_formula_sum "Si O2"
_cell_formula_units_Z 20
_cell_length_a 14.151006
_cell_length_b 13.009546
_cell_length_c 4.905386
_cell_angle_alpha 90.000000
_cell_angle_beta 90.000000
_cell_angle_gamma 90.000000
_cell_volume 903.072554
_symmetry_space_group_name_H-M "P M N 21"
_symmetry_group_IT_number 31
_symmetry_cell_setting 'orthorhombic'
loop_
_space_group_symop_operation_xyz
x,y,z
1/2-x,-y,1/2+z
-x,y,z
1/2+x,-y,1/2+z
loop_
_atom_site_type_symbol
_atom_site_label
_atom_site_fract_x
_atom_site_fract_y
_atom_site_fract_z
Si Si1 0.000000 0.612659 0.276520
Si Si2 0.500000 0.523833 0.285855
Si Si3 0.801680 0.970065 0.256543
Si Si4 0.500000 0.161135 0.376850
Si Si5 0.838801 0.749954 0.525221
Si Si6 0.789686 0.436135 0.967457
Si Si7 0.000000 0.979964 0.380580
O O1 0.910076 0.680455 0.349726
O O2 0.000000 0.511953 0.471735
O O3 0.000000 0.579900 0.965467
O O4 0.600687 0.572694 0.372550
O O5 0.808846 0.854798 0.374837
O O6 0.900289 0.028477 0.311009
O O7 0.723848 0.025593 0.441698
O O8 0.500000 0.121242 0.683537
O O9 0.595216 0.218376 0.281529
O O10 0.500000 0.058625 0.188632
O O11 0.751377 0.673274 0.567705
O O12 0.730975 0.483720 0.712458
#
# Coordination Sequence:
#
# PCOD9343284 Si02
#       7
#     2   2   4   2   4   4   2
#     4  11  22  38  68  93 120 163 218 284 320 361
#     4  12  22  41  60  97 130 168 218 261 324 389
#     4  11  24  41  65  96 130 169 220 269 330 391
#     4   9  20  34  64  91 121 155 221 270 324 353
#     4  10  22  40  63  96 128 170 212 271 326 379
#     4  12  24  40  63  93 134 174 212 268 330 391
#     4  10  20  41  62  93 123 160 209 289 308 367
#
# _framework density 22.146615000000001
#
# number of rings (size 3 to 8) (size 9 to 14) (size 15 to 20)
#    0.000    1.200    4.000    3.000    0.000   12.800 
#    0.000    2.000    0.000    0.000    0.000    0.000 
#    0.000    0.000    0.000    0.000    0.000    0.000 
#
# Total GULP energy -111730.599736 kJ/mol
# GULP energy per Si atom -5586.529987 kJ/mol
# Density = 2.209621 g / cm^3
# Si number density = 22.146615 Si / 1000 Ang^3
#
#
#
# Elastic Constant Matrix: (Units=GPa)
#
#
# Indices 1 2 3 4 5 6 
#
# 1 129.6045 29.1810 3.3009 0.0000 0.0000 0.0000
# 2 29.1810 62.3590 4.4350 0.0000 0.0000 0.0000
# 3 3.3009 4.4350 67.4179 0.0000 0.0000 0.0000
# 4 0.0000 0.0000 0.0000 32.4761 0.0000 0.0000
# 5 0.0000 0.0000 0.0000 0.0000 30.2001 0.0000
# 6 0.0000 0.0000 0.0000 0.0000 0.0000 44.5581
#
#
#
# Elastic Compliance Matrix: (Units=1/GPa)
#
#
# Indices 1 2 3 4 5 6 
#
# 1 0.008626 -0.004025 -0.000158 0.000000 0.000000 0.000000
# 2 -0.004025 0.017990 -0.000986 0.000000 0.000000 0.000000
# 3 -0.000158 -0.000986 0.014905 0.000000 0.000000 0.000000
# 4 0.000000 0.000000 0.000000 0.030792 0.000000 0.000000
# 5 0.000000 0.000000 0.000000 0.000000 0.033112 0.000000
# 6 0.000000 0.000000 0.000000 0.000000 0.000000 0.022443
#
#
# Mechanical properties :
#
#
# Convention : Reuss Voigt Hill
#
# Bulk Modulus (GPa) = 32.06878 37.02392 34.54635
# Shear Modulus (GPa) = 33.64705 36.27784 34.96244
#
# Velocity S-wave (km/s) = 3.90203 4.05171 3.97757
# Velocity P-wave (km/s) = 5.90024 6.21630 6.06033
#
# Compressibility (1/GPa) = 0.03118298
#
# Stress axis : x y z
#
# Youngs Moduli (GPa) = 115.92682 55.58640 67.08954
#
# Poissons Ratio (x) = 0.22376 0.01057
# Poissons Ratio (y) = 0.46665 0.06617
# Poissons Ratio (z) = 0.01826 0.05483
#
# Static dielectric constant tensor:
#      x y z
#    x 1.925580 0.000000 0.000000 
#    y 0.000000 1.828210 0.000000 
#    z 0.000000 0.000000 1.798620 
# 
# From -- ./inp_files/556.got.cif
#   From: 2010.05.17/outbox.cif.g08.bks.cpg/sg31_1_cif.got.tgz:556.got - 2010.06.03 17:08:30.
