data_PCOD9343071
_publ_section_title
;
Structure prediction by ZEFSAII (Michael W. Deem and Ramdas Pophale) SiO2 
 PCOD9343071
Probable space group: P M N 21
;
_chemical_formula_sum "Si O2"
_cell_formula_units_Z 32
_cell_length_a 7.888280
_cell_length_b 11.818268
_cell_length_c 16.975849
_cell_angle_alpha 90.000000
_cell_angle_beta 90.000000
_cell_angle_gamma 90.000000
_cell_volume 1582.587224
_symmetry_space_group_name_H-M "P M N 21"
_symmetry_group_IT_number 31
_symmetry_cell_setting 'orthorhombic'
loop_
_space_group_symop_operation_xyz
x,y,z
1/2-x,-y,1/2+z
-x,y,z
1/2+x,-y,1/2+z
loop_
_atom_site_type_symbol
_atom_site_label
_atom_site_fract_x
_atom_site_fract_y
_atom_site_fract_z
Si Si1 0.298174 0.318212 0.549280
Si Si2 0.299293 0.800371 0.212640
Si Si3 0.703138 0.423420 0.027623
Si Si4 0.795063 0.718278 0.378122
Si Si5 0.304165 0.230381 0.135883
Si Si6 0.806537 0.856390 0.928099
Si Si7 0.804159 0.924656 0.482055
Si Si8 0.709199 0.052286 0.261139
O O1 0.500000 0.320011 0.540714
O O2 0.261898 0.255335 0.631556
O O3 0.236707 0.446531 0.544347
O O4 0.225622 0.246950 0.475163
O O5 0.500000 0.811395 0.205012
O O6 0.261969 0.720023 0.287967
O O7 0.232844 0.927615 0.232691
O O8 0.500000 0.404684 0.027073
O O9 0.772272 0.344406 0.098643
O O10 0.762373 0.376378 0.941826
O O11 0.738952 0.838463 0.415526
O O12 0.000000 0.717776 0.378351
O O13 0.500000 0.255561 0.158689
O O14 0.305257 0.146007 0.061722
O O15 0.230938 0.154947 0.205545
O O16 0.734936 0.911185 0.848494
O O17 0.000000 0.825283 0.908745
O O18 0.801316 0.962015 0.987615
O O19 0.000000 0.954746 0.465724
O O20 0.500000 0.048393 0.259120
#
# Coordination Sequence:
#
# PCOD9343071 Si02
#       8
#     4   4   4   4   4   4   4   4
#     4  11  24  39  54  77 117 156 189 236 287 332
#     4  11  21  35  60  87 111 143 189 236 280 343
#     4   9  19  38  60  80 106 146 195 231 271 336
#     4   9  18  34  57  84 115 146 178 228 284 332
#     4   8  15  30  54  80 104 136 177 224 270 318
#     4  10  20  34  51  76 112 149 178 219 277 330
#     4   9  16  29  53  81 108 140 175 214 270 330
#     4   9  17  31  53  83 113 136 175 228 275 331
#
# _framework density 20.220054999999999
#
# number of rings (size 3 to 8) (size 9 to 14) (size 15 to 20)
#    0.000    2.500    1.250    3.000    0.000    2.500 
#    2.250    1.875    0.000    2.250    0.000    0.000 
#    0.000    0.000    0.000    0.000    0.000    0.000 
#
# Total GULP energy -178294.323978 kJ/mol
# GULP energy per Si atom -5571.697624 kJ/mol
# Density = 2.017403 g / cm^3
# Si number density = 20.220055 Si / 1000 Ang^3
#
#
#
# Elastic Constant Matrix: (Units=GPa)
#
#
# Indices 1 2 3 4 5 6 
#
# 1 22.7659 3.1257 0.5025 0.0000 0.0000 0.0000
# 2 3.1257 148.2194 69.4627 0.0000 0.0000 0.0000
# 3 0.5025 69.4627 80.9798 0.0000 0.0000 0.0000
# 4 0.0000 0.0000 0.0000 25.7723 0.0000 0.0000
# 5 0.0000 0.0000 0.0000 0.0000 11.0761 0.0000
# 6 0.0000 0.0000 0.0000 0.0000 0.0000 10.9871
#
#
#
# Elastic Compliance Matrix: (Units=1/GPa)
#
#
# Indices 1 2 3 4 5 6 
#
# 1 0.044090 -0.001340 0.000876 0.000000 0.000000 0.000000
# 2 -0.001340 0.011323 -0.009704 0.000000 0.000000 0.000000
# 3 0.000876 -0.009704 0.020667 0.000000 0.000000 0.000000
# 4 0.000000 0.000000 0.000000 0.038801 0.000000 0.000000
# 5 0.000000 0.000000 0.000000 0.000000 0.090285 0.000000
# 6 0.000000 0.000000 0.000000 0.000000 0.000000 0.091016
#
#
# Mechanical properties :
#
#
# Convention : Reuss Voigt Hill
#
# Bulk Modulus (GPa) = 17.93931 44.23855 31.08893
# Shear Modulus (GPa) = 14.92091 21.49203 18.20647
#
# Velocity S-wave (km/s) = 2.71943 3.26376 3.00395
# Velocity P-wave (km/s) = 4.33032 6.01073 5.23835
#
# Compressibility (1/GPa) = 0.05574351
#
# Stress axis : x y z
#
# Youngs Moduli (GPa) = 22.68082 88.31680 48.38547
#
# Poissons Ratio (x) = 0.11838 -0.04239
# Poissons Ratio (y) = 0.03040 0.46954
# Poissons Ratio (z) = -0.01987 0.85704
#
# Static dielectric constant tensor:
#      x y z
#    x 1.751380 0.000000 0.000000 
#    y 0.000000 1.742000 0.000000 
#    z 0.000000 0.000000 1.762220 
# 
# From -- ./inp_files/5077.got.cif
#   From: 2010.05.17/outbox.cif.g08.bks.cpg/sg31_3_cif.got.tgz:5077.got - 2010.06.03 17:08:30.
