data_PCOD9343846
_publ_section_title
;
Structure prediction by ZEFSAII (Michael W. Deem and Ramdas Pophale) SiO2 
 PCOD9343846
Probable space group: P B A 2
;
_chemical_formula_sum "Si O2"
_cell_formula_units_Z 30
_cell_length_a 14.746593
_cell_length_b 12.301722
_cell_length_c 8.454735
_cell_angle_alpha 90.000000
_cell_angle_beta 90.000000
_cell_angle_gamma 90.000000
_cell_volume 1533.760689
_symmetry_space_group_name_H-M "P B A 2"
_symmetry_group_IT_number 32
_symmetry_cell_setting 'orthorhombic'
loop_
_space_group_symop_operation_xyz
x,y,z
-x,-y,z
1/2-x,1/2+y,z
1/2+x,1/2-y,z
loop_
_atom_site_type_symbol
_atom_site_label
_atom_site_fract_x
_atom_site_fract_y
_atom_site_fract_z
Si Si1 0.500000 0.500000 0.575100
Si Si2 0.096710 0.810717 0.388985
Si Si3 0.322497 0.732228 0.917210
Si Si4 0.022289 0.378917 0.517986
Si Si5 0.361684 0.299876 0.029316
Si Si6 0.273023 0.846407 0.599640
Si Si7 0.003171 0.628367 0.894147
Si Si8 0.658000 0.498559 0.806469
O O1 0.460469 0.405526 0.469584
O O2 0.580341 0.459199 0.687429
O O3 0.192825 0.811951 0.481804
O O4 0.038744 0.703011 0.419525
O O5 0.107525 0.829252 0.203833
O O6 0.245375 0.777316 0.031125
O O7 0.288207 0.759082 0.738859
O O8 0.414622 0.800215 0.940803
O O9 0.325711 0.602028 0.922561
O O10 0.130580 0.361043 0.515003
O O11 0.000000 0.500000 0.466441
O O12 0.994202 0.366948 0.703007
O O13 0.412257 0.192340 0.967029
O O14 0.377098 0.397386 0.904896
O O15 0.240452 0.954387 0.698506
O O16 0.000000 0.500000 0.937266
#
# Coordination Sequence:
#
# PCOD9343846 Si02
#       8
#     2   4   4   4   4   4   4   4
#     4  10  20  40  66  86 120 162 216 264 298 368
#     4  11  24  42  58  95 133 165 199 256 334 380
#     4  10  21  38  66  92 121 167 211 269 306 369
#     4  10  21  39  66  93 122 167 217 261 301 373
#     4  11  25  39  61  95 135 163 201 264 324 390
#     4   9  21  38  62  94 123 163 215 263 307 373
#     4  10  22  40  68  94 124 168 222 261 306 369
#     4  10  20  38  66  92 121 163 222 262 307 363
#
# _framework density 19.559766
#
# number of rings (size 3 to 8) (size 9 to 14) (size 15 to 20)
#    0.000    1.867    0.000    4.800    9.333    3.200 
#    2.400    0.000    0.000    0.000    0.000    0.000 
#    0.000    0.000    0.000    0.000    0.000    0.000 
#
# Total GULP energy -167513.033130 kJ/mol
# GULP energy per Si atom -5583.767771 kJ/mol
# Density = 1.951525 g / cm^3
# Si number density = 19.559766 Si / 1000 Ang^3
#
#
#
# Elastic Constant Matrix: (Units=GPa)
#
#
# Indices 1 2 3 4 5 6 
#
# 1 76.3741 34.4848 33.3006 0.0000 0.0000 0.0000
# 2 34.4848 76.2055 18.6465 0.0000 0.0000 0.0000
# 3 33.3006 18.6465 51.5815 0.0000 0.0000 0.0000
# 4 0.0000 0.0000 0.0000 52.7330 0.0000 0.0000
# 5 0.0000 0.0000 0.0000 0.0000 11.7857 0.0000
# 6 0.0000 0.0000 0.0000 0.0000 0.0000 19.6967
#
#
#
# Elastic Compliance Matrix: (Units=1/GPa)
#
#
# Indices 1 2 3 4 5 6 
#
# 1 0.020999 -0.006785 -0.011104 0.000000 0.000000 0.000000
# 2 -0.006785 0.016588 -0.001616 0.000000 0.000000 0.000000
# 3 -0.011104 -0.001616 0.027139 0.000000 0.000000 0.000000
# 4 0.000000 0.000000 0.000000 0.018963 0.000000 0.000000
# 5 0.000000 0.000000 0.000000 0.000000 0.084849 0.000000
# 6 0.000000 0.000000 0.000000 0.000000 0.000000 0.050770
#
#
# Mechanical properties :
#
#
# Convention : Reuss Voigt Hill
#
# Bulk Modulus (GPa) = 38.88594 41.89166 40.38880
# Shear Modulus (GPa) = 18.73424 24.69169 21.71297
#
# Velocity S-wave (km/s) = 3.09818 3.55684 3.33541
# Velocity P-wave (km/s) = 5.72032 6.19128 5.96045
#
# Compressibility (1/GPa) = 0.02571624
#
# Stress axis : x y z
#
# Youngs Moduli (GPa) = 47.62212 60.28307 36.84677
#
# Poissons Ratio (x) = 0.40905 0.40913
# Poissons Ratio (y) = 0.32314 0.05955
# Poissons Ratio (z) = 0.52878 0.09742
#
# Static dielectric constant tensor:
#      x y z
#    x 1.680930 0.000000 0.000000 
#    y 0.000000 1.569600 0.000000 
#    z 0.000000 0.000000 1.650780 
# 
# From -- ./inp_files/2843.got.cif
#   From: 2010.05.17/outbox.cif.g08.bks.cpg/sg32_2_cif.got.tgz:2843.got - 2010.06.03 17:12:27.
