data_PCOD9343246
_publ_section_title
;
Structure prediction by ZEFSAII (Michael W. Deem and Ramdas Pophale) SiO2 
 PCOD9343246
Probable space group: P M N 21
;
_chemical_formula_sum "Si O2"
_cell_formula_units_Z 32
_cell_length_a 8.519216
_cell_length_b 15.596730
_cell_length_c 12.240875
_cell_angle_alpha 90.000000
_cell_angle_beta 90.000000
_cell_angle_gamma 90.000000
_cell_volume 1626.468463
_symmetry_space_group_name_H-M "P M N 21"
_symmetry_group_IT_number 31
_symmetry_cell_setting 'orthorhombic'
loop_
_space_group_symop_operation_xyz
x,y,z
1/2-x,-y,1/2+z
-x,y,z
1/2+x,-y,1/2+z
loop_
_atom_site_type_symbol
_atom_site_label
_atom_site_fract_x
_atom_site_fract_y
_atom_site_fract_z
Si Si1 0.312348 0.105458 0.467200
Si Si2 0.682551 0.844170 0.736881
Si Si3 0.818050 0.579693 0.506749
Si Si4 0.190202 0.746493 0.130917
Si Si5 0.308032 0.914019 0.509660
Si Si6 0.179188 0.356087 0.220159
Si Si7 0.815034 0.603467 0.954607
Si Si8 0.311643 0.744470 0.377574
O O1 0.500000 0.102344 0.478113
O O2 0.271855 0.143422 0.349396
O O3 0.256838 0.169404 0.562739
O O4 0.253485 0.007816 0.473268
O O5 0.500000 0.865960 0.756618
O O6 0.742403 0.898504 0.634556
O O7 0.688475 0.745502 0.700428
O O8 0.791583 0.597942 0.634747
O O9 0.720194 0.495465 0.477460
O O10 0.760121 0.663079 0.440682
O O11 0.000000 0.564100 0.482443
O O12 0.262120 0.743132 0.251085
O O13 0.000000 0.748234 0.140833
O O14 0.231937 0.664216 0.056096
O O15 0.500000 0.913023 0.509263
O O16 0.259309 0.833967 0.434293
O O17 0.224216 0.371370 0.345014
O O18 0.000000 0.384039 0.199573
O O19 0.000000 0.617630 0.936523
O O20 0.500000 0.739410 0.386900
#
# Coordination Sequence:
#
# PCOD9343246 Si02
#       8
#     4   4   4   4   4   4   4   4
#     4  10  21  39  62  89 124 161 204 253 305 362
#     4  10  20  38  63  88 120 159 204 253 307 361
#     4  12  26  43  65  93 124 162 208 255 309 370
#     4  10  23  41  61  89 125 163 203 252 307 365
#     4   9  20  39  61  88 123 163 200 251 312 364
#     4  11  22  41  67  92 123 161 206 259 310 365
#     4  11  24  43  65  91 125 163 206 256 311 369
#     4  11  23  42  64  88 124 166 207 253 309 368
#
# _framework density 19.674530000000001
#
# number of rings (size 3 to 8) (size 9 to 14) (size 15 to 20)
#    0.000    1.500    2.500    2.250    3.500    2.000 
#    0.000    1.250    0.000    0.000    0.000    0.000 
#    0.000    0.000    0.000    0.000    0.000    0.000 
#
# Total GULP energy -178791.202778 kJ/mol
# GULP energy per Si atom -5587.225087 kJ/mol
# Density = 1.962975 g / cm^3
# Si number density = 19.674530 Si / 1000 Ang^3
#
#
#
# Elastic Constant Matrix: (Units=GPa)
#
#
# Indices 1 2 3 4 5 6 
#
# 1 17.2956 4.1200 -3.3800 0.0000 0.0000 0.0000
# 2 4.1200 87.9426 15.0095 0.0000 0.0000 0.0000
# 3 -3.3800 15.0095 84.6704 0.0000 0.0000 0.0000
# 4 0.0000 0.0000 0.0000 25.0670 0.0000 0.0000
# 5 0.0000 0.0000 0.0000 0.0000 31.0076 0.0000
# 6 0.0000 0.0000 0.0000 0.0000 0.0000 3.9534
#
#
#
# Elastic Compliance Matrix: (Units=1/GPa)
#
#
# Indices 1 2 3 4 5 6 
#
# 1 0.059173 -0.003274 0.002943 0.000000 0.000000 0.000000
# 2 -0.003274 0.011907 -0.002241 0.000000 0.000000 0.000000
# 3 0.002943 -0.002241 0.012325 0.000000 0.000000 0.000000
# 4 0.000000 0.000000 0.000000 0.039893 0.000000 0.000000
# 5 0.000000 0.000000 0.000000 0.000000 0.032250 0.000000
# 6 0.000000 0.000000 0.000000 0.000000 0.000000 0.252950
#
#
# Mechanical properties :
#
#
# Convention : Reuss Voigt Hill
#
# Bulk Modulus (GPa) = 12.77807 24.60085 18.68946
# Shear Modulus (GPa) = 11.37057 23.61618 17.49338
#
# Velocity S-wave (km/s) = 2.40663 3.46836 2.98508
# Velocity P-wave (km/s) = 3.77244 5.34513 4.62611
#
# Compressibility (1/GPa) = 0.07825907
#
# Stress axis : x y z
#
# Youngs Moduli (GPa) = 16.89951 83.98405 81.13387
#
# Poissons Ratio (x) = 0.27500 -0.23875
# Poissons Ratio (y) = 0.05534 0.18186
# Poissons Ratio (z) = -0.04973 0.18825
#
# Static dielectric constant tensor:
#      x y z
#    x 1.674430 0.000000 0.000000 
#    y 0.000000 1.691040 0.000000 
#    z 0.000000 0.000000 1.654020 
# 
# From -- ./inp_files/3552.got.cif
#   From: 2010.05.17/outbox.cif.g08.bks.cpg/sg31_2_cif.got.tgz:3552.got - 2010.06.03 17:08:30.
