data_PCOD9343343
_publ_section_title
;
Structure prediction by ZEFSAII (Michael W. Deem and Ramdas Pophale) SiO2 
 PCOD9343343
Probable space group: P M N 21
;
_chemical_formula_sum "Si O2"
_cell_formula_units_Z 32
_cell_length_a 14.966093
_cell_length_b 9.542722
_cell_length_c 10.627672
_cell_angle_alpha 90.000000
_cell_angle_beta 90.000000
_cell_angle_gamma 90.000000
_cell_volume 1517.815048
_symmetry_space_group_name_H-M "P M N 21"
_symmetry_group_IT_number 31
_symmetry_cell_setting 'orthorhombic'
loop_
_space_group_symop_operation_xyz
x,y,z
1/2-x,-y,1/2+z
-x,y,z
1/2+x,-y,1/2+z
loop_
_atom_site_type_symbol
_atom_site_label
_atom_site_fract_x
_atom_site_fract_y
_atom_site_fract_z
Si Si1 0.399665 0.541076 0.751750
Si Si2 0.400957 0.504302 0.251557
Si Si3 0.713225 0.124060 0.861248
Si Si4 0.260847 0.335679 0.650951
Si Si5 0.677213 0.254304 0.394786
Si Si6 0.395823 0.964542 0.474974
Si Si7 0.900438 0.658108 0.489193
Si Si8 0.666033 0.850358 0.746773
O O1 0.500000 0.508886 0.708135
O O2 0.326016 0.470116 0.662499
O O3 0.386012 0.463694 0.885567
O O4 0.388155 0.707068 0.763925
O O5 0.500000 0.559738 0.273557
O O6 0.328910 0.622054 0.222517
O O7 0.372369 0.396959 0.359793
O O8 0.400063 0.411266 0.124750
O O9 0.698783 0.208977 0.732065
O O10 0.818117 0.098658 0.885558
O O11 0.672133 0.222686 0.967775
O O12 0.661572 0.977079 0.847294
O O13 0.253776 0.289715 0.507227
O O14 0.731919 0.200755 0.272933
O O15 0.614779 0.131123 0.448190
O O16 0.500000 0.924901 0.456959
O O17 0.362861 0.915794 0.613424
O O18 0.000000 0.716682 0.465439
#
# Coordination Sequence:
#
# PCOD9343343 Si02
#       8
#     4   4   4   4   4   4   4   4
#     4  10  21  37  64  97 129 167 219 277 327 379
#     4  11  23  39  66  94 127 168 217 271 328 386
#     4  10  23  40  63  92 129 177 211 264 329 389
#     4  11  23  42  65  95 132 171 213 267 327 395
#     4  11  23  42  67  94 133 178 216 266 328 392
#     4  11  24  41  66  98 135 170 218 273 323 388
#     4   9  20  40  63  92 127 169 219 269 321 390
#     4  11  21  41  62  94 130 170 215 267 325 377
#
# _framework density 21.082937000000001
#
# number of rings (size 3 to 8) (size 9 to 14) (size 15 to 20)
#    0.000    1.500    2.500    2.250    1.750    2.500 
#    0.000    0.625    0.000    0.750    0.000    0.000 
#    0.000    0.000    0.000    0.000    0.000    0.000 
#
# Total GULP energy -178545.418347 kJ/mol
# GULP energy per Si atom -5579.544323 kJ/mol
# Density = 2.103495 g / cm^3
# Si number density = 21.082937 Si / 1000 Ang^3
#
#
#
# Elastic Constant Matrix: (Units=GPa)
#
#
# Indices 1 2 3 4 5 6 
#
# 1 76.4299 35.0627 5.7525 0.0000 0.0000 0.0000
# 2 35.0627 103.3743 18.5325 0.0000 0.0000 0.0000
# 3 5.7525 18.5325 64.9882 0.0000 0.0000 0.0000
# 4 0.0000 0.0000 0.0000 22.1184 0.0000 0.0000
# 5 0.0000 0.0000 0.0000 0.0000 18.2705 0.0000
# 6 0.0000 0.0000 0.0000 0.0000 0.0000 24.7446
#
#
#
# Elastic Compliance Matrix: (Units=1/GPa)
#
#
# Indices 1 2 3 4 5 6 
#
# 1 0.015496 -0.005280 0.000134 0.000000 0.000000 0.000000
# 2 -0.005280 0.011994 -0.002953 0.000000 0.000000 0.000000
# 3 0.000134 -0.002953 0.016218 0.000000 0.000000 0.000000
# 4 0.000000 0.000000 0.000000 0.045211 0.000000 0.000000
# 5 0.000000 0.000000 0.000000 0.000000 0.054733 0.000000
# 6 0.000000 0.000000 0.000000 0.000000 0.000000 0.040413
#
#
# Mechanical properties :
#
#
# Convention : Reuss Voigt Hill
#
# Bulk Modulus (GPa) = 36.35071 40.38755 38.36913
# Shear Modulus (GPa) = 23.87406 25.38967 24.63186
#
# Velocity S-wave (km/s) = 3.36875 3.47403 3.42179
# Velocity P-wave (km/s) = 5.69302 5.94054 5.81809
#
# Compressibility (1/GPa) = 0.02750978
#
# Stress axis : x y z
#
# Youngs Moduli (GPa) = 64.53262 83.37605 61.66132
#
# Poissons Ratio (x) = 0.44023 -0.00826
# Poissons Ratio (y) = 0.34073 0.18208
# Poissons Ratio (z) = -0.00865 0.24620
#
# Static dielectric constant tensor:
#      x y z
#    x 1.800970 0.000000 0.000000 
#    y 0.000000 1.755210 0.000000 
#    z 0.000000 0.000000 1.757880 
# 
# From -- ./inp_files/4298.got.cif
#   From: 2010.05.17/outbox.cif.g08.bks.cpg/sg31_3_cif.got.tgz:4298.got - 2010.06.03 17:08:30.
