data_PCOD9343340
_publ_section_title
;
Structure prediction by ZEFSAII (Michael W. Deem and Ramdas Pophale) SiO2 
 PCOD9343340
Probable space group: P M N 21
;
_chemical_formula_sum "Si O2"
_cell_formula_units_Z 32
_cell_length_a 8.798157
_cell_length_b 29.034070
_cell_length_c 5.335673
_cell_angle_alpha 90.000000
_cell_angle_beta 90.000000
_cell_angle_gamma 90.000000
_cell_volume 1362.977959
_symmetry_space_group_name_H-M "P M N 21"
_symmetry_group_IT_number 31
_symmetry_cell_setting 'orthorhombic'
loop_
_space_group_symop_operation_xyz
x,y,z
1/2-x,-y,1/2+z
-x,y,z
1/2+x,-y,1/2+z
loop_
_atom_site_type_symbol
_atom_site_label
_atom_site_fract_x
_atom_site_fract_y
_atom_site_fract_z
Si Si1 0.661891 0.649475 0.500000
Si Si2 0.684143 0.023801 0.634629
Si Si3 0.684361 0.524573 0.166207
Si Si4 0.669719 0.398754 0.367888
Si Si5 0.319964 0.170597 0.042258
Si Si6 0.816564 0.125600 0.547730
Si Si7 0.340497 0.302659 0.612523
Si Si8 0.661506 0.747490 0.764827
O O1 0.500000 0.642867 0.361036
O O2 0.701957 0.603943 0.654679
O O3 0.805118 0.665088 0.342811
O O4 0.641083 0.697314 0.648843
O O5 0.500000 0.022053 0.638916
O O6 0.744500 0.075575 0.598331
O O7 0.748686 0.995472 0.396170
O O8 0.742354 0.495747 0.920632
O O9 0.500000 0.525699 0.177799
O O10 0.758257 0.574082 0.099002
O O11 0.500000 0.416872 0.308775
O O12 0.651780 0.344109 0.412015
O O13 0.500000 0.162111 0.024719
O O14 0.248765 0.143575 0.281604
O O15 0.284803 0.223461 0.116460
O O16 0.239477 0.156662 0.782418
O O17 0.000000 0.123391 0.541514
O O18 0.500000 0.278093 0.627983
O O19 0.214600 0.265542 0.543857
O O20 0.500000 0.772397 0.761797
#
# Coordination Sequence:
#
# PCOD9343340 Si02
#       8
#     4   4   4   4   4   4   4   4
#     4  10  21  37  61  90 124 164 214 268 328 392
#     4  12  25  45  72 105 141 181 229 284 345 409
#     4  12  27  48  73 102 137 178 224 275 335 405
#     4  10  22  41  63  91 126 166 213 267 329 393
#     4  12  26  45  69  99 137 183 231 284 341 408
#     4  12  26  47  71 101 139 183 231 283 345 410
#     4  10  21  37  61  90 124 164 212 269 329 391
#     4  10  22  40  60  88 124 169 220 272 330 396
#
# _framework density 23.478003000000001
#
# number of rings (size 3 to 8) (size 9 to 14) (size 15 to 20)
#    0.000    1.000    0.000    6.750    3.500    3.000 
#    0.000    0.000    0.000    0.000    0.000    0.000 
#    0.000    0.000    0.000    0.000    0.000    0.000 
#
# Total GULP energy -178603.252159 kJ/mol
# GULP energy per Si atom -5581.351630 kJ/mol
# Density = 2.342457 g / cm^3
# Si number density = 23.478003 Si / 1000 Ang^3
#
#
#
# Elastic Constant Matrix: (Units=GPa)
#
#
# Indices 1 2 3 4 5 6 
#
# 1 178.2356 21.9749 9.0256 0.0000 0.0000 0.0000
# 2 21.9749 70.1743 7.1283 0.0000 0.0000 0.0000
# 3 9.0256 7.1283 63.0900 0.0000 0.0000 0.0000
# 4 0.0000 0.0000 0.0000 40.9369 0.0000 0.0000
# 5 0.0000 0.0000 0.0000 0.0000 27.6643 0.0000
# 6 0.0000 0.0000 0.0000 0.0000 0.0000 35.8725
#
#
#
# Elastic Compliance Matrix: (Units=1/GPa)
#
#
# Indices 1 2 3 4 5 6 
#
# 1 0.005861 -0.001771 -0.000638 0.000000 0.000000 0.000000
# 2 -0.001771 0.014951 -0.001436 0.000000 0.000000 0.000000
# 3 -0.000638 -0.001436 0.016104 0.000000 0.000000 0.000000
# 4 0.000000 0.000000 0.000000 0.024428 0.000000 0.000000
# 5 0.000000 0.000000 0.000000 0.000000 0.036148 0.000000
# 6 0.000000 0.000000 0.000000 0.000000 0.000000 0.027877
#
#
# Mechanical properties :
#
#
# Convention : Reuss Voigt Hill
#
# Bulk Modulus (GPa) = 34.21632 43.08416 38.65024
# Shear Modulus (GPa) = 35.01414 39.11948 37.06681
#
# Velocity S-wave (km/s) = 3.86600 4.08636 3.97771
# Velocity P-wave (km/s) = 5.87651 6.37614 6.13142
#
# Compressibility (1/GPa) = 0.02922582
#
# Stress axis : x y z
#
# Youngs Moduli (GPa) = 170.61423 66.88723 62.09660
#
# Poissons Ratio (x) = 0.11843 0.03965
# Poissons Ratio (y) = 0.30208 0.08917
# Poissons Ratio (z) = 0.10893 0.09604
#
# Static dielectric constant tensor:
#      x y z
#    x 1.944070 0.000000 0.000000 
#    y 0.000000 1.909230 0.000000 
#    z 0.000000 0.000000 1.974990 
# 
# From -- ./inp_files/178.got.cif
#   From: 2010.05.17/outbox.cif.g08.bks.cpg/sg31_1_cif.got.tgz:178.got - 2010.06.03 17:08:30.
