data_PCOD9343859
_publ_section_title
;
Structure prediction by ZEFSAII (Michael W. Deem and Ramdas Pophale) SiO2 
 PCOD9343859
Probable space group: P B A 2
;
_chemical_formula_sum "Si O2"
_cell_formula_units_Z 26
_cell_length_a 17.370630
_cell_length_b 8.983275
_cell_length_c 8.371582
_cell_angle_alpha 90.000000
_cell_angle_beta 90.000000
_cell_angle_gamma 90.000000
_cell_volume 1306.344737
_symmetry_space_group_name_H-M "P B A 2"
_symmetry_group_IT_number 32
_symmetry_cell_setting 'orthorhombic'
loop_
_space_group_symop_operation_xyz
x,y,z
-x,-y,z
1/2-x,1/2+y,z
1/2+x,1/2-y,z
loop_
_atom_site_type_symbol
_atom_site_label
_atom_site_fract_x
_atom_site_fract_y
_atom_site_fract_z
Si Si1 0.254580 0.870821 0.942660
Si Si2 0.612807 0.461240 0.824441
Si Si3 0.850388 0.381514 0.093032
Si Si4 0.500000 0.000000 0.646160
Si Si5 0.206813 0.221479 0.602816
Si Si6 0.158159 0.520768 0.457436
Si Si7 0.515491 0.741308 0.889918
O O1 0.271946 0.803652 0.768768
O O2 0.189867 0.996222 0.915731
O O3 0.213697 0.744893 0.050732
O O4 0.326949 0.963213 0.007601
O O5 0.636566 0.384898 0.657958
O O6 0.568625 0.616705 0.804267
O O7 0.560262 0.353023 0.932143
O O8 0.850638 0.419341 0.278852
O O9 0.931069 0.318117 0.023374
O O10 0.576104 0.972249 0.544125
O O11 0.489123 0.861221 0.762591
O O12 0.185464 0.349076 0.476271
O O13 0.277985 0.121994 0.545367
#
# Coordination Sequence:
#
# PCOD9343859 Si02
#       7
#     4   4   4   2   4   4   4
#     4  11  20  40  69  96 124 175 234 271 322 419
#     4  10  20  39  67  98 122 167 234 278 325 395
#     4  11  24  41  62  98 137 173 218 289 350 398
#     4  12  24  42  64  98 126 180 236 274 342 414
#     4  12  21  42  69  97 128 177 232 281 329 418
#     4  12  26  41  63 100 139 172 218 293 354 400
#     4  10  23  40  66  93 130 174 228 279 332 422
#
# _framework density 19.902861000000001
#
# number of rings (size 3 to 8) (size 9 to 14) (size 15 to 20)
#    0.000    0.923    4.615    3.692    0.000    0.615 
#    0.000    0.000    0.000    5.538    0.000    0.000 
#    0.000    0.000    0.000    0.000    0.000    0.000 
#
# Total GULP energy -145195.230771 kJ/mol
# GULP energy per Si atom -5584.431953 kJ/mol
# Density = 1.985756 g / cm^3
# Si number density = 19.902861 Si / 1000 Ang^3
#
#
#
# Elastic Constant Matrix: (Units=GPa)
#
#
# Indices 1 2 3 4 5 6 
#
# 1 34.5176 18.1922 23.2039 0.0000 0.0000 0.0000
# 2 18.1922 100.9524 59.0042 0.0000 0.0000 0.0000
# 3 23.2039 59.0042 105.4484 0.0000 0.0000 0.0000
# 4 0.0000 0.0000 0.0000 33.3350 0.0000 0.0000
# 5 0.0000 0.0000 0.0000 0.0000 22.0754 0.0000
# 6 0.0000 0.0000 0.0000 0.0000 0.0000 38.8166
#
#
#
# Elastic Compliance Matrix: (Units=1/GPa)
#
#
# Indices 1 2 3 4 5 6 
#
# 1 0.034468 -0.002642 -0.006106 0.000000 0.000000 0.000000
# 2 -0.002642 0.014922 -0.007768 0.000000 0.000000 0.000000
# 3 -0.006106 -0.007768 0.015174 0.000000 0.000000 0.000000
# 4 0.000000 0.000000 0.000000 0.029998 0.000000 0.000000
# 5 0.000000 0.000000 0.000000 0.000000 0.045299 0.000000
# 6 0.000000 0.000000 0.000000 0.000000 0.000000 0.025762
#
#
# Mechanical properties :
#
#
# Convention : Reuss Voigt Hill
#
# Bulk Modulus (GPa) = 31.71551 49.07987 40.39769
# Shear Modulus (GPa) = 23.90423 28.21329 26.05876
#
# Velocity S-wave (km/s) = 3.46937 3.76912 3.62235
# Velocity P-wave (km/s) = 5.65848 6.60719 6.15115
#
# Compressibility (1/GPa) = 0.03153032
#
# Stress axis : x y z
#
# Youngs Moduli (GPa) = 29.01233 67.01399 65.90323
#
# Poissons Ratio (x) = 0.17708 0.40241
# Poissons Ratio (y) = 0.07666 0.51196
# Poissons Ratio (z) = 0.17715 0.52059
#
# Static dielectric constant tensor:
#      x y z
#    x 1.752080 0.000000 0.000000 
#    y 0.000000 1.774370 0.000000 
#    z 0.000000 0.000000 1.654760 
# 
# From -- ./inp_files/2462.got.cif
#   From: 2010.05.17/outbox.cif.g08.bks.cpg/sg32_2_cif.got.tgz:2462.got - 2010.06.03 17:12:27.
