data_PCOD9343974
_publ_section_title
;
Structure prediction by ZEFSAII (Michael W. Deem and Ramdas Pophale) SiO2 
 PCOD9343974
Probable space group: P B A 2
;
_chemical_formula_sum "Si O2"
_cell_formula_units_Z 20
_cell_length_a 13.340605
_cell_length_b 10.337425
_cell_length_c 6.276986
_cell_angle_alpha 90.000000
_cell_angle_beta 90.000000
_cell_angle_gamma 90.000000
_cell_volume 865.643470
_symmetry_space_group_name_H-M "P B A 2"
_symmetry_group_IT_number 32
_symmetry_cell_setting 'orthorhombic'
loop_
_space_group_symop_operation_xyz
x,y,z
-x,-y,z
1/2-x,1/2+y,z
1/2+x,1/2-y,z
loop_
_atom_site_type_symbol
_atom_site_label
_atom_site_fract_x
_atom_site_fract_y
_atom_site_fract_z
Si Si1 0.747407 0.847381 0.968660
Si Si2 0.942948 0.122196 0.471780
Si Si3 0.253500 0.895920 0.235374
Si Si4 0.441253 0.122598 0.742318
Si Si5 0.058962 0.253183 0.108357
O O1 0.677760 0.893317 0.776820
O O2 0.710644 0.707980 0.060178
O O3 0.865225 0.819410 0.944901
O O4 0.738370 0.960680 0.142628
O O5 0.825160 0.101896 0.426531
O O6 0.955429 0.250715 0.605679
O O7 0.998123 0.152593 0.248077
O O8 0.000000 0.000000 0.567529
O O9 0.363936 0.833992 0.259585
O O10 0.500000 0.000000 0.653736
O O11 0.489354 0.151948 0.974119
#
# Coordination Sequence:
#
# PCOD9343974 Si02
#       5
#     4   4   4   4   4
#     4  10  21  41  70  92 130 181 228 271 334 403
#     4  12  25  43  69 104 138 176 229 286 342 405
#     4  10  21  41  70  92 130 181 228 271 334 403
#     4  12  25  43  69 104 138 176 229 286 342 405
#     4  10  22  44  70  92 130 184 228 276 334 400
#
# _framework density 23.104202000000001
#
# number of rings (size 3 to 8) (size 9 to 14) (size 15 to 20)
#    1.200    0.000    6.000    0.000    0.000    6.400 
#    0.000    6.000    0.000    0.000    0.000    0.000 
#    0.000    0.000    0.000    0.000    0.000    0.000 
#
# Total GULP energy -111597.481349 kJ/mol
# GULP energy per Si atom -5579.874067 kJ/mol
# Density = 2.305162 g / cm^3
# Si number density = 23.104202 Si / 1000 Ang^3
#
#
#
# Elastic Constant Matrix: (Units=GPa)
#
#
# Indices 1 2 3 4 5 6 
#
# 1 98.1057 19.1167 28.4534 0.0000 0.0000 0.0000
# 2 19.1167 97.8704 32.2933 0.0000 0.0000 0.0000
# 3 28.4534 32.2933 28.4067 0.0000 0.0000 0.0000
# 4 0.0000 0.0000 0.0000 41.0806 0.0000 0.0000
# 5 0.0000 0.0000 0.0000 0.0000 31.7088 0.0000
# 6 0.0000 0.0000 0.0000 0.0000 0.0000 18.2671
#
#
#
# Elastic Compliance Matrix: (Units=1/GPa)
#
#
# Indices 1 2 3 4 5 6 
#
# 1 0.014983 0.003241 -0.018692 0.000000 0.000000 0.000000
# 2 0.003241 0.017052 -0.022631 0.000000 0.000000 0.000000
# 3 -0.018692 -0.022631 0.079653 0.000000 0.000000 0.000000
# 4 0.000000 0.000000 0.000000 0.024342 0.000000 0.000000
# 5 0.000000 0.000000 0.000000 0.000000 0.031537 0.000000
# 6 0.000000 0.000000 0.000000 0.000000 0.000000 0.054743
#
#
# Mechanical properties :
#
#
# Convention : Reuss Voigt Hill
#
# Bulk Modulus (GPa) = 28.15027 42.67885 35.41456
# Shear Modulus (GPa) = 16.11264 27.84592 21.97928
#
# Velocity S-wave (km/s) = 2.64368 3.47541 3.08768
# Velocity P-wave (km/s) = 4.63996 5.88363 5.29841
#
# Compressibility (1/GPa) = 0.03552364
#
# Stress axis : x y z
#
# Youngs Moduli (GPa) = 66.74381 58.64430 12.55445
#
# Poissons Ratio (x) = -0.19007 0.23466
# Poissons Ratio (y) = -0.21632 0.28412
# Poissons Ratio (z) = 1.24755 1.32720
#
# Static dielectric constant tensor:
#      x y z
#    x 1.894190 0.000000 0.000000 
#    y 0.000000 1.839420 0.000000 
#    z 0.000000 0.000000 1.847990 
# 
# From -- ./inp_files/1155.got.cif
#   From: 2010.05.17/outbox.cif.g08.bks.cpg/sg32_1_cif.got.tgz:1155.got - 2010.06.03 17:12:27.
