data_PCOD9343437
_publ_section_title
;
Structure prediction by ZEFSAII (Michael W. Deem and Ramdas Pophale) SiO2 
 PCOD9343437
Probable space group: P M N 21
;
_chemical_formula_sum "Si O2"
_cell_formula_units_Z 32
_cell_length_a 8.976620
_cell_length_b 11.685009
_cell_length_c 16.735941
_cell_angle_alpha 90.000000
_cell_angle_beta 90.000000
_cell_angle_gamma 90.000000
_cell_volume 1755.464407
_symmetry_space_group_name_H-M "P M N 21"
_symmetry_group_IT_number 31
_symmetry_cell_setting 'orthorhombic'
loop_
_space_group_symop_operation_xyz
x,y,z
1/2-x,-y,1/2+z
-x,y,z
1/2+x,-y,1/2+z
loop_
_atom_site_type_symbol
_atom_site_label
_atom_site_fract_x
_atom_site_fract_y
_atom_site_fract_z
Si Si1 0.181917 0.190942 0.016320
Si Si2 0.830083 0.231244 0.447115
Si Si3 0.678108 0.716848 0.682884
Si Si4 0.325897 0.870992 0.232031
Si Si5 0.680403 0.681543 0.353118
Si Si6 0.332793 0.932012 0.794534
Si Si7 0.822768 0.935280 0.065986
Si Si8 0.818961 0.433566 0.331953
O O1 0.233248 0.267921 0.092329
O O2 0.000000 0.189695 0.017342
O O3 0.230110 0.058896 0.031178
O O4 0.227013 0.248127 0.932618
O O5 0.835164 0.140859 0.374679
O O6 0.730208 0.171482 0.512947
O O7 0.777892 0.347648 0.404461
O O8 0.000000 0.247198 0.476779
O O9 0.500000 0.698588 0.677849
O O10 0.698579 0.840111 0.724976
O O11 0.732743 0.622959 0.747258
O O12 0.500000 0.865387 0.214399
O O13 0.278451 0.754003 0.274277
O O14 0.239583 0.910447 0.153767
O O15 0.289475 0.970397 0.295634
O O16 0.500000 0.672805 0.355242
O O17 0.752319 0.557299 0.347507
O O18 0.500000 0.979580 0.781877
O O19 0.000000 0.940688 0.068550
O O20 0.000000 0.436239 0.330181
#
# Coordination Sequence:
#
# PCOD9343437 Si02
#       8
#     4   4   4   4   4   4   4   4
#     4   9  17  33  58  83 108 138 181 231 278 326
#     4   9  19  35  56  82 113 144 174 224 286 331
#     4   8  14  30  57  82 104 136 179 226 268 314
#     4  11  22  35  51  77 118 153 178 224 287 333
#     4  10  22  38  55  78 112 151 184 226 279 328
#     4   9  16  31  56  82 107 141 180 215 267 337
#     4  11  21  35  58  85 110 141 188 232 274 342
#     4   9  19  37  59  79 106 146 188 224 267 327
#
# _framework density 18.228795000000002
#
# number of rings (size 3 to 8) (size 9 to 14) (size 15 to 20)
#    0.000    2.500    1.250    3.000    0.000    3.000 
#    2.250    3.125    0.000    0.000    0.000    0.000 
#    0.000    0.000    0.000    0.000    0.000    0.000 
#
# Total GULP energy -178313.092629 kJ/mol
# GULP energy per Si atom -5572.284145 kJ/mol
# Density = 1.818730 g / cm^3
# Si number density = 18.228795 Si / 1000 Ang^3
#
#
#
# Elastic Constant Matrix: (Units=GPa)
#
#
# Indices 1 2 3 4 5 6 
#
# 1 17.4363 35.2531 24.6307 0.0000 0.0000 0.0000
# 2 35.2531 127.1223 64.4939 0.0000 0.0000 0.0000
# 3 24.6307 64.4939 77.4008 0.0000 0.0000 0.0000
# 4 0.0000 0.0000 0.0000 21.7564 0.0000 0.0000
# 5 0.0000 0.0000 0.0000 0.0000 46.8237 0.0000
# 6 0.0000 0.0000 0.0000 0.0000 0.0000 30.0810
#
#
#
# Elastic Compliance Matrix: (Units=1/GPa)
#
#
# Indices 1 2 3 4 5 6 
#
# 1 0.150565 -0.030222 -0.022731 0.000000 0.000000 0.000000
# 2 -0.030222 0.019693 -0.006792 0.000000 0.000000 0.000000
# 3 -0.022731 -0.006792 0.025813 0.000000 0.000000 0.000000
# 4 0.000000 0.000000 0.000000 0.045963 0.000000 0.000000
# 5 0.000000 0.000000 0.000000 0.000000 0.021357 0.000000
# 6 0.000000 0.000000 0.000000 0.000000 0.000000 0.033244
#
#
# Mechanical properties :
#
#
# Convention : Reuss Voigt Hill
#
# Bulk Modulus (GPa) = 13.05804 52.30164 32.67984
# Shear Modulus (GPa) = 11.32112 26.23766 18.77939
#
# Velocity S-wave (km/s) = 2.49481 3.79800 3.21316
# Velocity P-wave (km/s) = 3.93417 6.92727 5.63315
#
# Compressibility (1/GPa) = 0.07658120
#
# Stress axis : x y z
#
# Youngs Moduli (GPa) = 6.64164 50.77866 38.74043
#
# Poissons Ratio (x) = 1.53462 0.88062
# Poissons Ratio (y) = 0.20072 0.26313
# Poissons Ratio (z) = 0.15097 0.34489
#
# Static dielectric constant tensor:
#      x y z
#    x 1.625240 0.000000 0.000000 
#    y 0.000000 1.623140 0.000000 
#    z 0.000000 0.000000 1.678910 
# 
# From -- ./inp_files/5008.got.cif
#   From: 2010.05.17/outbox.cif.g08.bks.cpg/sg31_3_cif.got.tgz:5008.got - 2010.06.03 17:08:30.
