data_PCOD9343745
_publ_section_title
;
Structure prediction by ZEFSAII (Michael W. Deem and Ramdas Pophale) SiO2 
 PCOD9343745
Probable space group: P B A 2
;
_chemical_formula_sum "Si O2"
_cell_formula_units_Z 24
_cell_length_a 7.338800
_cell_length_b 24.140745
_cell_length_c 5.832437
_cell_angle_alpha 90.000000
_cell_angle_beta 90.000000
_cell_angle_gamma 90.000000
_cell_volume 1033.298448
_symmetry_space_group_name_H-M "P B A 2"
_symmetry_group_IT_number 32
_symmetry_cell_setting 'orthorhombic'
loop_
_space_group_symop_operation_xyz
x,y,z
-x,-y,z
1/2-x,1/2+y,z
1/2+x,1/2-y,z
loop_
_atom_site_type_symbol
_atom_site_label
_atom_site_fract_x
_atom_site_fract_y
_atom_site_fract_z
Si Si1 0.508313 0.877923 0.814430
Si Si2 0.050330 0.704968 0.192818
Si Si3 0.783014 0.951952 0.058429
Si Si4 0.662098 0.577472 0.938564
Si Si5 0.677543 0.371095 0.443402
Si Si6 0.328430 0.325622 0.315288
O O1 0.311597 0.903138 0.752717
O O2 0.664827 0.874194 0.628484
O O3 0.492905 0.819489 0.946431
O O4 0.594886 0.922722 0.992408
O O5 0.231920 0.671695 0.260708
O O6 0.095416 0.769155 0.203259
O O7 0.882455 0.689216 0.363537
O O8 0.837133 0.929407 0.309564
O O9 0.947426 0.930569 0.891328
O O10 0.780113 0.017448 0.034572
O O11 0.674774 0.624368 0.133489
O O12 0.480875 0.344799 0.498813
#
# Coordination Sequence:
#
# PCOD9343745 Si02
#       6
#     4   4   4   4   4   4
#     4  10  21  37  59  89 119 151 202 250 305 360
#     4  10  20  38  57  81 119 156 196 249 305 361
#     4   9  19  39  62  82 121 157 197 248 305 362
#     4   9  19  37  60  86 116 160 199 244 307 365
#     4  10  21  38  59  89 117 155 202 249 300 363
#     4  10  19  37  60  81 117 156 200 245 301 362
#
# _framework density 23.226590000000002
#
# number of rings (size 3 to 8) (size 9 to 14) (size 15 to 20)
#    0.000    2.333    1.667    0.500    0.000    1.333 
#    6.000   16.667    0.000    0.000    0.000    0.000 
#    0.000    0.000    0.000    0.000    0.000    0.000 
#
# Total GULP energy -133838.791388 kJ/mol
# GULP energy per Si atom -5576.616308 kJ/mol
# Density = 2.317373 g / cm^3
# Si number density = 23.226590 Si / 1000 Ang^3
#
#
#
# Elastic Constant Matrix: (Units=GPa)
#
#
# Indices 1 2 3 4 5 6 
#
# 1 157.9524 41.9595 15.7400 0.0000 0.0000 0.0000
# 2 41.9595 151.4994 14.1804 0.0000 0.0000 0.0000
# 3 15.7400 14.1804 30.8946 0.0000 0.0000 0.0000
# 4 0.0000 0.0000 0.0000 12.2418 0.0000 0.0000
# 5 0.0000 0.0000 0.0000 0.0000 41.5802 0.0000
# 6 0.0000 0.0000 0.0000 0.0000 0.0000 41.5522
#
#
#
# Elastic Compliance Matrix: (Units=1/GPa)
#
#
# Indices 1 2 3 4 5 6 
#
# 1 0.007062 -0.001692 -0.002821 0.000000 0.000000 0.000000
# 2 -0.001692 0.007302 -0.002490 0.000000 0.000000 0.000000
# 3 -0.002821 -0.002490 0.034948 0.000000 0.000000 0.000000
# 4 0.000000 0.000000 0.000000 0.081688 0.000000 0.000000
# 5 0.000000 0.000000 0.000000 0.000000 0.024050 0.000000
# 6 0.000000 0.000000 0.000000 0.000000 0.000000 0.024066
#
#
# Mechanical properties :
#
#
# Convention : Reuss Voigt Hill
#
# Bulk Modulus (GPa) = 28.32330 53.78959 41.05644
# Shear Modulus (GPa) = 24.40334 36.97260 30.68797
#
# Velocity S-wave (km/s) = 3.24491 3.99409 3.63883
# Velocity P-wave (km/s) = 5.12446 6.66928 5.94724
#
# Compressibility (1/GPa) = 0.03530662
#
# Stress axis : x y z
#
# Youngs Moduli (GPa) = 141.61190 136.94363 28.61375
#
# Poissons Ratio (x) = 0.23167 0.08073
# Poissons Ratio (y) = 0.23957 0.07124
# Poissons Ratio (z) = 0.39952 0.34096
#
# Static dielectric constant tensor:
#      x y z
#    x 1.938050 0.000000 0.000000 
#    y 0.000000 1.819860 0.000000 
#    z 0.000000 0.000000 1.962950 
# 
# From -- ./inp_files/489.got.cif
#   From: 2010.05.17/outbox.cif.g08.bks.cpg/sg32_1_cif.got.tgz:489.got - 2010.06.03 17:12:27.
