data_PCOD9343537
_publ_section_title
;
Structure prediction by ZEFSAII (Michael W. Deem and Ramdas Pophale) SiO2 
 PCOD9343537
Probable space group: P M N 21
;
_chemical_formula_sum "Si O2"
_cell_formula_units_Z 16
_cell_length_a 16.856848
_cell_length_b 3.397813
_cell_length_c 8.554733
_cell_angle_alpha 90.000000
_cell_angle_beta 90.000000
_cell_angle_gamma 90.000000
_cell_volume 489.984457
_symmetry_space_group_name_H-M "P M N 21"
_symmetry_group_IT_number 31
_symmetry_cell_setting 'orthorhombic'
loop_
_space_group_symop_operation_xyz
x,y,z
1/2-x,-y,1/2+z
-x,y,z
1/2+x,-y,1/2+z
loop_
_atom_site_type_symbol
_atom_site_label
_atom_site_fract_x
_atom_site_fract_y
_atom_site_fract_z
Si Si1 0.912197 0.721217 0.377460
Si Si2 0.734447 0.498936 0.693946
Si Si3 0.365087 0.999630 0.555071
Si Si4 0.588356 0.255224 0.225022
O O1 0.822880 0.526547 0.352189
O O2 0.915319 0.971010 0.216014
O O3 0.907871 0.923972 0.547781
O O4 0.000000 0.531257 0.383054
O O5 0.659001 0.505940 0.556379
O O6 0.827717 0.515134 0.725711
O O7 0.728506 0.001108 0.646030
O O8 0.407694 0.021775 0.388663
O O9 0.500000 0.441482 0.226217
#
# Coordination Sequence:
#
# PCOD9343537 Si02
#       4
#     4   4   4   4
#     4   9  22  43  68  99 135 177 227 279 340 406
#     4  10  24  45  71  96 141 179 225 280 349 405
#     4  10  24  44  69  96 139 178 227 280 346 401
#     4  11  23  44  71 105 137 182 234 285 342 416
#
# _framework density 32.654093000000003
#
# number of rings (size 3 to 8) (size 9 to 14) (size 15 to 20)
#    1.500    0.500    0.000    2.250    3.500    2.000 
#    4.500    3.750    0.000    0.000    0.000    0.000 
#    0.000    0.000    0.000    0.000    0.000    0.000 
#
# Total GULP energy -89150.072773 kJ/mol
# GULP energy per Si atom -5571.879548 kJ/mol
# Density = 3.257977 g / cm^3
# Si number density = 32.654093 Si / 1000 Ang^3
#
#
#
# Elastic Constant Matrix: (Units=GPa)
#
#
# Indices 1 2 3 4 5 6 
#
# 1 360.2994 105.5961 158.5724 0.0000 0.0000 0.0000
# 2 105.5961 232.2744 84.9876 0.0000 0.0000 0.0000
# 3 158.5724 84.9876 351.5533 0.0000 0.0000 0.0000
# 4 0.0000 0.0000 0.0000 84.1178 0.0000 0.0000
# 5 0.0000 0.0000 0.0000 0.0000 54.6685 0.0000
# 6 0.0000 0.0000 0.0000 0.0000 0.0000 89.2796
#
#
#
# Elastic Compliance Matrix: (Units=1/GPa)
#
#
# Indices 1 2 3 4 5 6 
#
# 1 0.003740 -0.001188 -0.001400 0.000000 0.000000 0.000000
# 2 -0.001188 0.005100 -0.000697 0.000000 0.000000 0.000000
# 3 -0.001400 -0.000697 0.003644 0.000000 0.000000 0.000000
# 4 0.000000 0.000000 0.000000 0.011888 0.000000 0.000000
# 5 0.000000 0.000000 0.000000 0.000000 0.018292 0.000000
# 6 0.000000 0.000000 0.000000 0.000000 0.000000 0.011201
#
#
# Mechanical properties :
#
#
# Convention : Reuss Voigt Hill
#
# Bulk Modulus (GPa) = 169.06487 182.49325 175.77906
# Shear Modulus (GPa) = 80.11984 85.27791 82.69888
#
# Velocity S-wave (km/s) = 4.95875 5.11588 5.03793
# Velocity P-wave (km/s) = 9.20176 9.53438 9.36955
#
# Compressibility (1/GPa) = 0.00591489
#
# Stress axis : x y z
#
# Youngs Moduli (GPa) = 267.40595 196.06211 274.39602
#
# Poissons Ratio (x) = 0.23292 0.38405
# Poissons Ratio (y) = 0.31768 0.19130
# Poissons Ratio (z) = 0.37426 0.13669
#
# Static dielectric constant tensor:
#      x y z
#    x 2.314210 0.000000 0.000000 
#    y 0.000000 3.194010 0.000000 
#    z 0.000000 0.000000 2.246550 
# 
# From -- ./inp_files/2643.got.cif
#   From: 2010.05.17/outbox.cif.g08.bks.cpg/sg31_2_cif.got.tgz:2643.got - 2010.06.03 17:08:30.
