data_PCOD9343771
_publ_section_title
;
Structure prediction by ZEFSAII (Michael W. Deem and Ramdas Pophale) SiO2 
 PCOD9343771
Probable space group: P B A 2
;
_chemical_formula_sum "Si O2"
_cell_formula_units_Z 30
_cell_length_a 5.443248
_cell_length_b 30.512550
_cell_length_c 7.607877
_cell_angle_alpha 90.000000
_cell_angle_beta 90.000000
_cell_angle_gamma 90.000000
_cell_volume 1263.572334
_symmetry_space_group_name_H-M "P B A 2"
_symmetry_group_IT_number 32
_symmetry_cell_setting 'orthorhombic'
loop_
_space_group_symop_operation_xyz
x,y,z
-x,-y,z
1/2-x,1/2+y,z
1/2+x,1/2-y,z
loop_
_atom_site_type_symbol
_atom_site_label
_atom_site_fract_x
_atom_site_fract_y
_atom_site_fract_z
Si Si1 0.362119 0.274125 0.072460
Si Si2 0.186240 0.640125 0.363682
Si Si3 0.248511 0.982544 0.353917
Si Si4 0.700343 0.610716 0.224339
Si Si5 0.358297 0.239811 0.473827
Si Si6 0.566279 0.900259 0.721012
Si Si7 0.500000 0.000000 0.696703
Si Si8 0.923680 0.132403 0.876561
O O1 0.599356 0.245619 0.020755
O O2 0.359815 0.268193 0.289601
O O3 0.396525 0.321273 0.979944
O O4 0.460992 0.635611 0.294263
O O5 0.151338 0.688850 0.432845
O O6 0.965134 0.634016 0.225374
O O7 0.144070 0.604864 0.517196
O O8 0.231834 0.931134 0.343822
O O9 0.500000 0.000000 0.268314
O O10 0.275513 0.996050 0.557227
O O11 0.000000 0.000000 0.272528
O O12 0.634140 0.597056 0.028171
O O13 0.609157 0.249169 0.571932
O O14 0.304891 0.874953 0.744325
O O15 0.799901 0.876478 0.812794
O O16 0.534026 0.951392 0.777871
#
# Coordination Sequence:
#
# PCOD9343771 Si02
#       8
#     4   4   4   4   4   4   2   4
#     4  10  19  39  66  93 132 184 224 267 342 421
#     4  12  23  43  75 103 133 184 244 286 341 420
#     4  10  21  38  68  99 122 169 239 291 340 396
#     4  12  22  43  70 101 132 178 235 294 341 408
#     4  10  20  36  63 101 129 168 227 285 332 395
#     4  12  27  46  70 102 145 193 228 293 358 433
#     4  10  24  46  72  94 140 188 242 276 374 412
#     4  12  27  44  67 110 147 186 229 286 369 415
#
# _framework density 23.742211999999999
#
# number of rings (size 3 to 8) (size 9 to 14) (size 15 to 20)
#    0.400    0.533    1.333    8.000    1.867    0.000 
#    3.600    4.000    0.000    0.000    0.000    0.000 
#    0.000    0.000    0.000    0.000    0.000    0.000 
#
# Total GULP energy -167407.316526 kJ/mol
# GULP energy per Si atom -5580.243884 kJ/mol
# Density = 2.368817 g / cm^3
# Si number density = 23.742212 Si / 1000 Ang^3
#
#
#
# Elastic Constant Matrix: (Units=GPa)
#
#
# Indices 1 2 3 4 5 6 
#
# 1 192.9739 59.5179 5.0161 0.0000 0.0000 0.0000
# 2 59.5179 50.4073 -4.5377 0.0000 0.0000 0.0000
# 3 5.0161 -4.5377 38.4487 0.0000 0.0000 0.0000
# 4 0.0000 0.0000 0.0000 31.0657 0.0000 0.0000
# 5 0.0000 0.0000 0.0000 0.0000 18.3159 0.0000
# 6 0.0000 0.0000 0.0000 0.0000 0.0000 17.0810
#
#
#
# Elastic Compliance Matrix: (Units=1/GPa)
#
#
# Indices 1 2 3 4 5 6 
#
# 1 0.008342 -0.010055 -0.002275 0.000000 0.000000 0.000000
# 2 -0.010055 0.032171 0.005109 0.000000 0.000000 0.000000
# 3 -0.002275 0.005109 0.026908 0.000000 0.000000 0.000000
# 4 0.000000 0.000000 0.000000 0.032190 0.000000 0.000000
# 5 0.000000 0.000000 0.000000 0.000000 0.054597 0.000000
# 6 0.000000 0.000000 0.000000 0.000000 0.000000 0.058545
#
#
# Mechanical properties :
#
#
# Convention : Reuss Voigt Hill
#
# Bulk Modulus (GPa) = 18.87564 44.64697 31.76130
# Shear Modulus (GPa) = 20.42019 28.08142 24.25081
#
# Velocity S-wave (km/s) = 2.93589 3.44286 3.19944
# Velocity P-wave (km/s) = 4.41136 5.88644 5.20145
#
# Compressibility (1/GPa) = 0.05297835
#
# Stress axis : x y z
#
# Youngs Moduli (GPa) = 119.86968 31.08430 37.16314
#
# Poissons Ratio (x) = 0.31255 0.08455
# Poissons Ratio (y) = 1.20529 -0.18985
# Poissons Ratio (z) = 0.27271 -0.15880
#
# Static dielectric constant tensor:
#      x y z
#    x 1.997270 0.000000 0.000000 
#    y 0.000000 1.860240 0.000000 
#    z 0.000000 0.000000 1.953070 
# 
# From -- ./inp_files/2064.got.cif
#   From: 2010.05.17/outbox.cif.g08.bks.cpg/sg32_2_cif.got.tgz:2064.got - 2010.06.03 17:12:27.
