data_PCOD9343173
_publ_section_title
;
Structure prediction by ZEFSAII (Michael W. Deem and Ramdas Pophale) SiO2 
 PCOD9343173
Probable space group: P M N 21
;
_chemical_formula_sum "Si O2"
_cell_formula_units_Z 24
_cell_length_a 11.264932
_cell_length_b 17.185545
_cell_length_c 5.450032
_cell_angle_alpha 90.000000
_cell_angle_beta 90.000000
_cell_angle_gamma 90.000000
_cell_volume 1055.093472
_symmetry_space_group_name_H-M "P M N 21"
_symmetry_group_IT_number 31
_symmetry_cell_setting 'orthorhombic'
loop_
_space_group_symop_operation_xyz
x,y,z
1/2-x,-y,1/2+z
-x,y,z
1/2+x,-y,1/2+z
loop_
_atom_site_type_symbol
_atom_site_label
_atom_site_fract_x
_atom_site_fract_y
_atom_site_fract_z
Si Si1 0.375282 0.025633 0.064990
Si Si2 0.866165 0.824661 0.914672
Si Si3 0.628690 0.758731 0.662420
Si Si4 0.637671 0.426516 0.482221
Si Si5 0.727249 0.602184 0.481314
Si Si6 0.199196 0.117778 0.788593
O O1 0.500000 0.042045 0.929045
O O2 0.375223 0.090982 0.281698
O O3 0.373511 0.932369 0.096279
O O4 0.253404 0.046160 0.937428
O O5 0.753538 0.777883 0.800350
O O6 0.000000 0.790810 0.904777
O O7 0.815544 0.839051 0.185802
O O8 0.500000 0.760519 0.796101
O O9 0.644413 0.675268 0.535672
O O10 0.627798 0.824176 0.453668
O O11 0.500000 0.408839 0.513151
O O12 0.659164 0.519811 0.489610
O O13 0.682924 0.400598 0.213873
O O14 0.710210 0.392343 0.714828
#
# Coordination Sequence:
#
# PCOD9343173 Si02
#       6
#     4   4   4   4   4   4
#     4  10  20  36  59  85 118 159 211 270 328 396
#     4  10  23  42  63  90 124 167 216 275 338 403
#     4  11  26  44  64  97 135 176 221 279 351 419
#     4  10  21  42  71 102 137 183 237 285 342 414
#     4  10  23  42  67 104 140 182 231 287 346 414
#     4  11  21  40  60  92 123 167 221 276 340 410
#
# _framework density 22.746801000000001
#
# number of rings (size 3 to 8) (size 9 to 14) (size 15 to 20)
#    0.000    1.667    1.667    2.000    2.333    3.333 
#    0.000    1.667    0.000    0.000    0.000    0.000 
#    0.000    0.000    0.000    0.000    0.000    0.000 
#
# Total GULP energy -133729.240276 kJ/mol
# GULP energy per Si atom -5572.051678 kJ/mol
# Density = 2.269503 g / cm^3
# Si number density = 22.746801 Si / 1000 Ang^3
#
#
#
# Elastic Constant Matrix: (Units=GPa)
#
#
# Indices 1 2 3 4 5 6 
#
# 1 146.6095 13.5664 3.4509 0.0000 0.0000 0.0000
# 2 13.5664 68.6101 -13.5798 0.0000 0.0000 0.0000
# 3 3.4509 -13.5798 42.4912 0.0000 0.0000 0.0000
# 4 0.0000 0.0000 0.0000 13.7719 0.0000 0.0000
# 5 0.0000 0.0000 0.0000 0.0000 10.2246 0.0000
# 6 0.0000 0.0000 0.0000 0.0000 0.0000 2339.9249
#
#
#
# Elastic Compliance Matrix: (Units=1/GPa)
#
#
# Indices 1 2 3 4 5 6 
#
# 1 0.006994 -0.001596 -0.001078 0.000000 0.000000 0.000000
# 2 -0.001596 0.015924 0.005219 0.000000 0.000000 0.000000
# 3 -0.001078 0.005219 0.025290 0.000000 0.000000 0.000000
# 4 0.000000 0.000000 0.000000 0.072612 0.000000 0.000000
# 5 0.000000 0.000000 0.000000 0.000000 0.097803 0.000000
# 6 0.000000 0.000000 0.000000 0.000000 0.000000 0.000427
#
#
# Mechanical properties :
#
#
# Convention : Reuss Voigt Hill
#
# Bulk Modulus (GPa) = 18.76324 29.39842 24.08083
# Shear Modulus (GPa) = 21.57716 489.73582 255.65649
#
# Velocity S-wave (km/s) = 3.08324 14.68898 10.61302
# Velocity P-wave (km/s) = 4.57623 17.33899 12.68035
#
# Compressibility (1/GPa) = 0.05329570
#
# Stress axis : x y z
#
# Youngs Moduli (GPa) = 142.98106 62.79953 39.54181
#
# Poissons Ratio (x) = 0.10025 0.04263
# Poissons Ratio (y) = 0.22824 -0.20636
# Poissons Ratio (z) = 0.15416 -0.32773
#
# Static dielectric constant tensor:
#      x y z
#    x 1.858030 0.000000 0.000000 
#    y 0.000000 1.867970 0.000000 
#    z 0.000000 0.000000 1.992500 
# 
# From -- ./inp_files/384.got.cif
#   From: 2010.05.17/outbox.cif.g08.bks.cpg/sg31_1_cif.got.tgz:384.got - 2010.06.03 17:08:30.
