data_PCOD9343706
_publ_section_title
;
Structure prediction by ZEFSAII (Michael W. Deem and Ramdas Pophale) SiO2 
 PCOD9343706
Probable space group: P B A 2
;
_chemical_formula_sum "Si O2"
_cell_formula_units_Z 32
_cell_length_a 8.190309
_cell_length_b 22.538955
_cell_length_c 8.077607
_cell_angle_alpha 90.000000
_cell_angle_beta 90.000000
_cell_angle_gamma 90.000000
_cell_volume 1491.134378
_symmetry_space_group_name_H-M "P B A 2"
_symmetry_group_IT_number 32
_symmetry_cell_setting 'orthorhombic'
loop_
_space_group_symop_operation_xyz
x,y,z
-x,-y,z
1/2-x,1/2+y,z
1/2+x,1/2-y,z
loop_
_atom_site_type_symbol
_atom_site_label
_atom_site_fract_x
_atom_site_fract_y
_atom_site_fract_z
Si Si1 0.495033 0.185024 0.575460
Si Si2 0.442808 0.063236 0.174092
Si Si3 0.932716 0.775147 0.855838
Si Si4 0.359061 0.925962 0.505341
Si Si5 0.681934 0.273269 0.392527
Si Si6 0.329163 0.535282 0.440273
Si Si7 0.365075 0.191704 0.058182
Si Si8 0.975890 0.139705 0.577487
O O1 0.569468 0.219810 0.729986
O O2 0.506600 0.114667 0.594919
O O3 0.610815 0.207696 0.422484
O O4 0.315243 0.208035 0.531675
O O5 0.578051 0.072806 0.317093
O O6 0.270255 0.055551 0.275470
O O7 0.431639 0.124641 0.073274
O O8 0.500000 0.000000 0.094804
O O9 0.025006 0.825963 0.751839
O O10 0.762222 0.802810 0.908184
O O11 0.010491 0.745011 0.018011
O O12 0.194976 0.889922 0.540718
O O13 0.300519 0.993029 0.534869
O O14 0.768875 0.291451 0.224908
O O15 0.524908 0.313402 0.435545
O O16 0.500000 0.500000 0.399762
O O17 0.388517 0.588843 0.554822
#
# Coordination Sequence:
#
# PCOD9343706 Si02
#       8
#     4   4   4   4   4   4   4   4
#     4  11  20  38  56  88 114 163 199 266 304 391
#     4  10  21  40  62  96 131 166 218 277 329 386
#     4  11  25  38  59  85 137 162 207 252 337 378
#     4  10  19  33  64  90 118 149 213 273 314 367
#     4  11  21  35  62  83 122 156 220 249 324 371
#     4   9  18  35  63  94 117 153 215 279 316 362
#     4  12  23  42  57  93 129 173 204 270 321 408
#     4  10  19  39  60  91 115 165 203 269 310 389
#
# _framework density 21.460172
#
# number of rings (size 3 to 8) (size 9 to 14) (size 15 to 20)
#    0.000    1.500    2.500    4.500    0.000    0.000 
#    0.000    1.250    0.000    2.250    0.000    0.000 
#    0.000    0.000    0.000    0.000    0.000    0.000 
#
# Total GULP energy -178404.875511 kJ/mol
# GULP energy per Si atom -5575.152360 kJ/mol
# Density = 2.141133 g / cm^3
# Si number density = 21.460172 Si / 1000 Ang^3
#
#
#
# Elastic Constant Matrix: (Units=GPa)
#
#
# Indices 1 2 3 4 5 6 
#
# 1 80.7230 33.2319 5.5161 0.0000 0.0000 0.0000
# 2 33.2319 134.8711 23.6934 0.0000 0.0000 0.0000
# 3 5.5161 23.6934 56.1921 0.0000 0.0000 0.0000
# 4 0.0000 0.0000 0.0000 33.9133 0.0000 0.0000
# 5 0.0000 0.0000 0.0000 0.0000 27.9342 0.0000
# 6 0.0000 0.0000 0.0000 0.0000 0.0000 46.2240
#
#
#
# Elastic Compliance Matrix: (Units=1/GPa)
#
#
# Indices 1 2 3 4 5 6 
#
# 1 0.013787 -0.003412 0.000085 0.000000 0.000000 0.000000
# 2 -0.003412 0.008852 -0.003398 0.000000 0.000000 0.000000
# 3 0.000085 -0.003398 0.019220 0.000000 0.000000 0.000000
# 4 0.000000 0.000000 0.000000 0.029487 0.000000 0.000000
# 5 0.000000 0.000000 0.000000 0.000000 0.035798 0.000000
# 6 0.000000 0.000000 0.000000 0.000000 0.000000 0.021634
#
#
# Mechanical properties :
#
#
# Convention : Reuss Voigt Hill
#
# Bulk Modulus (GPa) = 35.19804 44.07433 39.63618
# Shear Modulus (GPa) = 32.96041 35.57062 34.26552
#
# Velocity S-wave (km/s) = 3.92329 4.07568 4.00021
# Velocity P-wave (km/s) = 6.07948 6.53686 6.31232
#
# Compressibility (1/GPa) = 0.02841068
#
# Stress axis : x y z
#
# Youngs Moduli (GPa) = 72.53272 112.96801 52.02837
#
# Poissons Ratio (x) = 0.38545 -0.00444
# Poissons Ratio (y) = 0.24748 0.17677
# Poissons Ratio (z) = -0.00619 0.38381
#
# Static dielectric constant tensor:
#      x y z
#    x 1.843460 0.000000 0.000000 
#    y 0.000000 1.869580 0.000000 
#    z 0.000000 0.000000 1.797290 
# 
# From -- ./inp_files/2606.got.cif
#   From: 2010.05.17/outbox.cif.g08.bks.cpg/sg32_2_cif.got.tgz:2606.got - 2010.06.03 17:12:27.
