data_PCOD9343273
_publ_section_title
;
Structure prediction by ZEFSAII (Michael W. Deem and Ramdas Pophale) SiO2 
 PCOD9343273
Probable space group: P M N 21
;
_chemical_formula_sum "Si O2"
_cell_formula_units_Z 24
_cell_length_a 8.537173
_cell_length_b 13.987693
_cell_length_c 10.346737
_cell_angle_alpha 90.000000
_cell_angle_beta 90.000000
_cell_angle_gamma 90.000000
_cell_volume 1235.559272
_symmetry_space_group_name_H-M "P M N 21"
_symmetry_group_IT_number 31
_symmetry_cell_setting 'orthorhombic'
loop_
_space_group_symop_operation_xyz
x,y,z
1/2-x,-y,1/2+z
-x,y,z
1/2+x,-y,1/2+z
loop_
_atom_site_type_symbol
_atom_site_label
_atom_site_fract_x
_atom_site_fract_y
_atom_site_fract_z
Si Si1 0.312464 0.579158 0.250000
Si Si2 0.310736 0.427979 0.468308
Si Si3 0.312252 0.855839 0.605746
Si Si4 0.690787 0.075926 0.606100
Si Si5 0.187728 0.784799 0.334795
Si Si6 0.310693 0.216187 0.377258
O O1 0.500000 0.585345 0.252561
O O2 0.262652 0.503314 0.358961
O O3 0.242347 0.682749 0.281647
O O4 0.257726 0.548365 0.108078
O O5 0.500000 0.428839 0.477132
O O6 0.262688 0.320758 0.427612
O O7 0.500000 0.855531 0.605674
O O8 0.252859 0.804700 0.476749
O O9 0.252593 0.806189 0.735736
O O10 0.256642 0.966431 0.604443
O O11 0.500000 0.075722 0.605700
O O12 0.740845 0.132976 0.734324
O O13 0.741208 0.135812 0.480283
O O14 0.000000 0.786265 0.338464
O O15 0.500000 0.214807 0.373174
#
# Coordination Sequence:
#
# PCOD9343273 Si02
#       6
#     4   4   4   4   4   4
#     4  11  24  41  64  96 123 153 200 253 302 354
#     4  10  23  43  65  89 120 158 201 245 300 365
#     4  11  23  37  57  93 126 154 200 258 299 349
#     4   9  19  38  63  86 117 158 206 250 298 357
#     4  11  22  41  64  87 121 167 203 242 302 367
#     4  10  20  40  63  85 117 162 202 240 297 368
#
# _framework density 19.424402000000001
#
# number of rings (size 3 to 8) (size 9 to 14) (size 15 to 20)
#    0.000    1.667    1.667    2.500    2.333    2.000 
#    0.000    3.333    0.000    0.000    0.000    0.000 
#    0.000    0.000    0.000    0.000    0.000    0.000 
#
# Total GULP energy -134163.922620 kJ/mol
# GULP energy per Si atom -5590.163443 kJ/mol
# Density = 1.938019 g / cm^3
# Si number density = 19.424402 Si / 1000 Ang^3
#
#
#
# Elastic Constant Matrix: (Units=GPa)
#
#
# Indices 1 2 3 4 5 6 
#
# 1 23.1386 16.1883 26.5094 0.0000 0.0000 0.0000
# 2 16.1883 64.1510 38.8621 0.0000 0.0000 0.0000
# 3 26.5094 38.8621 175.9070 0.0000 0.0000 0.0000
# 4 0.0000 0.0000 0.0000 42.7081 0.0000 0.0000
# 5 0.0000 0.0000 0.0000 0.0000 20.4433 0.0000
# 6 0.0000 0.0000 0.0000 0.0000 0.0000 11.3777
#
#
#
# Elastic Compliance Matrix: (Units=1/GPa)
#
#
# Indices 1 2 3 4 5 6 
#
# 1 0.058063 -0.010796 -0.006365 0.000000 0.000000 0.000000
# 2 -0.010796 0.020004 -0.002792 0.000000 0.000000 0.000000
# 3 -0.006365 -0.002792 0.007261 0.000000 0.000000 0.000000
# 4 0.000000 0.000000 0.000000 0.023415 0.000000 0.000000
# 5 0.000000 0.000000 0.000000 0.000000 0.048916 0.000000
# 6 0.000000 0.000000 0.000000 0.000000 0.000000 0.087891
#
#
# Mechanical properties :
#
#
# Convention : Reuss Voigt Hill
#
# Bulk Modulus (GPa) = 22.01618 47.36847 34.69232
# Shear Modulus (GPa) = 16.63352 27.01495 21.82424
#
# Velocity S-wave (km/s) = 2.92947 3.73335 3.35557
# Velocity P-wave (km/s) = 4.77507 6.55919 5.73691
#
# Compressibility (1/GPa) = 0.04542115
#
# Stress axis : x y z
#
# Youngs Moduli (GPa) = 17.22257 49.98947 137.72297
#
# Poissons Ratio (x) = 0.53970 0.87662
# Poissons Ratio (y) = 0.18594 0.38458
# Poissons Ratio (z) = 0.10962 0.13959
#
# Static dielectric constant tensor:
#      x y z
#    x 1.660480 0.000000 0.000000 
#    y 0.000000 1.661460 0.000000 
#    z 0.000000 0.000000 1.641510 
# 
# From -- ./inp_files/1689.got.cif
#   From: 2010.05.17/outbox.cif.g08.bks.cpg/sg31_1_cif.got.tgz:1689.got - 2010.06.03 17:08:30.
