data_PCOD9343026
_publ_section_title
;
Structure prediction by ZEFSAII (Michael W. Deem and Ramdas Pophale) SiO2 
 PCOD9343026
Probable space group: P M N 21
;
_chemical_formula_sum "Si O2"
_cell_formula_units_Z 32
_cell_length_a 8.382456
_cell_length_b 14.815202
_cell_length_c 12.464158
_cell_angle_alpha 90.000000
_cell_angle_beta 90.000000
_cell_angle_gamma 90.000000
_cell_volume 1547.896098
_symmetry_space_group_name_H-M "P M N 21"
_symmetry_group_IT_number 31
_symmetry_cell_setting 'orthorhombic'
loop_
_space_group_symop_operation_xyz
x,y,z
1/2-x,-y,1/2+z
-x,y,z
1/2+x,-y,1/2+z
loop_
_atom_site_type_symbol
_atom_site_label
_atom_site_fract_x
_atom_site_fract_y
_atom_site_fract_z
Si Si1 0.810647 0.150472 0.003440
Si Si2 0.813000 0.449406 0.717053
Si Si3 0.804624 0.953742 0.946648
Si Si4 0.189977 0.836885 0.741193
Si Si5 0.182792 0.360901 0.289708
Si Si6 0.809701 0.719578 0.334213
Si Si7 0.316406 0.169340 0.632209
Si Si8 0.321805 0.357940 0.510459
O O1 0.768767 0.139316 0.128038
O O2 0.000000 0.160810 0.991733
O O3 0.728440 0.236201 0.948027
O O4 0.759413 0.058312 0.943962
O O5 0.767046 0.551216 0.742959
O O6 0.766041 0.377734 0.810036
O O7 0.715200 0.417723 0.613327
O O8 0.000000 0.440748 0.696198
O O9 0.753551 0.897413 0.842158
O O10 0.000000 0.948556 0.950013
O O11 0.744962 0.909461 0.058669
O O12 0.230382 0.732560 0.763381
O O13 0.000000 0.848206 0.732552
O O14 0.195395 0.371265 0.417771
O O15 0.000000 0.356150 0.253859
O O16 0.746872 0.790126 0.242383
O O17 0.000000 0.710640 0.319071
O O18 0.500000 0.143704 0.657136
O O19 0.319202 0.255304 0.552454
O O20 0.500000 0.376707 0.468198
#
# Coordination Sequence:
#
# PCOD9343026 Si02
#       8
#     4   4   4   4   4   4   4   4
#     4  11  24  40  61  92 131 170 210 263 322 379
#     4  11  23  40  63  93 126 165 213 263 318 380
#     4   9  19  37  62  90 122 162 205 256 316 376
#     4  11  23  43  66  91 125 167 214 262 319 381
#     4  12  24  40  63  94 127 164 210 261 318 380
#     4  10  21  39  63  90 124 166 213 259 315 379
#     4   8  15  32  60  87 113 152 199 251 305 361
#     4  10  19  37  62  89 122 160 204 255 313 372
#
# _framework density 20.673221999999999
#
# number of rings (size 3 to 8) (size 9 to 14) (size 15 to 20)
#    0.000    1.750    1.250    4.500    1.750    1.000 
#    0.000    6.875    0.000    0.000    0.000    0.000 
#    0.000    0.000    0.000    0.000    0.000    0.000 
#
# Total GULP energy -178715.577078 kJ/mol
# GULP energy per Si atom -5584.861784 kJ/mol
# Density = 2.062617 g / cm^3
# Si number density = 20.673222 Si / 1000 Ang^3
#
#
#
# Elastic Constant Matrix: (Units=GPa)
#
#
# Indices 1 2 3 4 5 6 
#
# 1 46.5594 -0.7394 -9.2933 0.0000 0.0000 0.0000
# 2 -0.7394 92.2274 18.3117 0.0000 0.0000 0.0000
# 3 -9.2933 18.3117 42.3654 0.0000 0.0000 0.0000
# 4 0.0000 0.0000 0.0000 18.8863 0.0000 0.0000
# 5 0.0000 0.0000 0.0000 0.0000 28.6203 0.0000
# 6 0.0000 0.0000 0.0000 0.0000 0.0000 14.9901
#
#
#
# Elastic Compliance Matrix: (Units=1/GPa)
#
#
# Indices 1 2 3 4 5 6 
#
# 1 0.022526 -0.000876 0.005320 0.000000 0.000000 0.000000
# 2 -0.000876 0.011895 -0.005333 0.000000 0.000000 0.000000
# 3 0.005320 -0.005333 0.027076 0.000000 0.000000 0.000000
# 4 0.000000 0.000000 0.000000 0.052948 0.000000 0.000000
# 5 0.000000 0.000000 0.000000 0.000000 0.034940 0.000000
# 6 0.000000 0.000000 0.000000 0.000000 0.000000 0.066711
#
#
# Mechanical properties :
#
#
# Convention : Reuss Voigt Hill
#
# Bulk Modulus (GPa) = 16.74524 21.96778 19.35651
# Shear Modulus (GPa) = 21.02778 24.02422 22.52600
#
# Velocity S-wave (km/s) = 3.19274 3.41265 3.30452
# Velocity P-wave (km/s) = 4.65929 5.11639 4.89318
#
# Compressibility (1/GPa) = 0.05971847
#
# Stress axis : x y z
#
# Youngs Moduli (GPa) = 44.39341 84.07121 36.93258
#
# Poissons Ratio (x) = 0.07362 -0.19647
# Poissons Ratio (y) = 0.03887 0.19697
# Poissons Ratio (z) = -0.23616 0.44838
#
# Static dielectric constant tensor:
#      x y z
#    x 1.699380 0.000000 0.000000 
#    y 0.000000 1.730150 0.000000 
#    z 0.000000 0.000000 1.742340 
# 
# From -- ./inp_files/3691.got.cif
#   From: 2010.05.17/outbox.cif.g08.bks.cpg/sg31_2_cif.got.tgz:3691.got - 2010.06.03 17:08:30.
