data_PCOD9343810
_publ_section_title
;
Structure prediction by ZEFSAII (Michael W. Deem and Ramdas Pophale) SiO2 
 PCOD9343810
Probable space group: P B A 2
;
_chemical_formula_sum "Si O2"
_cell_formula_units_Z 24
_cell_length_a 8.655911
_cell_length_b 11.674448
_cell_length_c 9.763097
_cell_angle_alpha 90.000000
_cell_angle_beta 90.000000
_cell_angle_gamma 90.000000
_cell_volume 986.590074
_symmetry_space_group_name_H-M "P B A 2"
_symmetry_group_IT_number 32
_symmetry_cell_setting 'orthorhombic'
loop_
_space_group_symop_operation_xyz
x,y,z
-x,-y,z
1/2-x,1/2+y,z
1/2+x,1/2-y,z
loop_
_atom_site_type_symbol
_atom_site_label
_atom_site_fract_x
_atom_site_fract_y
_atom_site_fract_z
Si Si1 0.678437 0.988340 0.996310
Si Si2 0.632202 0.335648 0.809528
Si Si3 0.649043 0.827712 0.256288
Si Si4 0.861422 0.182648 0.624549
Si Si5 0.388454 0.809145 0.432790
Si Si6 0.938337 0.131321 0.064524
O O1 0.754821 0.932776 0.863628
O O2 0.500000 0.000000 0.974956
O O3 0.700310 0.906275 0.129658
O O4 0.763914 0.107815 0.016982
O O5 0.742565 0.249701 0.725452
O O6 0.490690 0.377092 0.715442
O O7 0.538292 0.303977 0.949248
O O8 0.492944 0.876000 0.324836
O O9 0.789180 0.792126 0.357527
O O10 0.583642 0.707476 0.196890
O O11 0.743027 0.123584 0.518233
O O12 0.977052 0.261687 0.533162
O O13 0.000000 0.000000 0.079321
#
# Coordination Sequence:
#
# PCOD9343810 Si02
#       6
#     4   4   4   4   4   4
#     4  11  24  38  61  97 130 164 209 261 321 389
#     4  10  20  36  58  86 124 159 199 257 312 359
#     4  11  20  38  63  91 125 164 202 261 328 372
#     4   9  19  36  61  90 117 163 216 253 301 376
#     4   9  19  34  61  89 117 164 214 248 307 381
#     4  10  22  38  61  95 127 160 206 262 320 381
#
# _framework density 24.326212999999999
#
# number of rings (size 3 to 8) (size 9 to 14) (size 15 to 20)
#    0.000    2.000    0.000    4.000    0.000    5.333 
#    0.000    0.000    0.000  126.000    0.000    0.000 
#    0.000    0.000    0.000    0.000    0.000    0.000 
#
# Total GULP energy -133848.204444 kJ/mol
# GULP energy per Si atom -5577.008518 kJ/mol
# Density = 2.427085 g / cm^3
# Si number density = 24.326213 Si / 1000 Ang^3
#
#
#
# Elastic Constant Matrix: (Units=GPa)
#
#
# Indices 1 2 3 4 5 6 
#
# 1 222.1971 46.4682 78.6718 0.0000 0.0000 0.0000
# 2 46.4682 66.7496 38.8367 0.0000 0.0000 0.0000
# 3 78.6718 38.8367 98.9156 0.0000 0.0000 0.0000
# 4 0.0000 0.0000 0.0000 -176.5001 0.0000 0.0000
# 5 0.0000 0.0000 0.0000 0.0000 76.5842 0.0000
# 6 0.0000 0.0000 0.0000 0.0000 0.0000 90.0294
#
#
#
# Elastic Compliance Matrix: (Units=1/GPa)
#
#
# Indices 1 2 3 4 5 6 
#
# 1 0.006455 -0.001953 -0.004367 0.000000 0.000000 0.000000
# 2 -0.001953 0.020008 -0.006302 0.000000 0.000000 0.000000
# 3 -0.004367 -0.006302 0.016058 0.000000 0.000000 0.000000
# 4 0.000000 0.000000 0.000000 -0.005666 0.000000 0.000000
# 5 0.000000 0.000000 0.000000 0.000000 0.013058 0.000000
# 6 0.000000 0.000000 0.000000 0.000000 0.000000 0.011107
#
#
# Mechanical properties :
#
#
# Convention : Reuss Voigt Hill
#
# Bulk Modulus (GPa) = 57.88558 79.53507 68.71032
# Shear Modulus (GPa) = 54.33394 12.94842 33.64118
#
# Velocity S-wave (km/s) = 4.73118 2.30963 3.72280
# Velocity P-wave (km/s) = 7.32752 6.31496 6.84000
#
# Compressibility (1/GPa) = 0.01727546
#
# Stress axis : x y z
#
# Youngs Moduli (GPa) = 154.91305 49.98080 62.27548
#
# Poissons Ratio (x) = 0.09760 0.27198
# Poissons Ratio (y) = 0.30251 0.39248
# Poissons Ratio (z) = 0.67657 0.31500
#
# Static dielectric constant tensor:
#      x y z
#    x 1.973130 0.000000 0.000000 
#    y 0.000000 1.897470 0.000000 
#    z 0.000000 0.000000 2.053430 
# 
# From -- ./inp_files/2319.got.cif
#   From: 2010.05.17/outbox.cif.g08.bks.cpg/sg32_2_cif.got.tgz:2319.got - 2010.06.03 17:12:27.
