data_PCOD9343956
_publ_section_title
;
Structure prediction by ZEFSAII (Michael W. Deem and Ramdas Pophale) SiO2 
 PCOD9343956
Probable space group: P B A 2
;
_chemical_formula_sum "Si O2"
_cell_formula_units_Z 30
_cell_length_a 13.242740
_cell_length_b 8.683290
_cell_length_c 12.387263
_cell_angle_alpha 90.000000
_cell_angle_beta 90.000000
_cell_angle_gamma 90.000000
_cell_volume 1424.418208
_symmetry_space_group_name_H-M "P B A 2"
_symmetry_group_IT_number 32
_symmetry_cell_setting 'orthorhombic'
loop_
_space_group_symop_operation_xyz
x,y,z
-x,-y,z
1/2-x,1/2+y,z
1/2+x,1/2-y,z
loop_
_atom_site_type_symbol
_atom_site_label
_atom_site_fract_x
_atom_site_fract_y
_atom_site_fract_z
Si Si1 0.625508 0.281262 0.459990
Si Si2 0.337763 0.286500 0.962333
Si Si3 0.235873 0.469958 0.580625
Si Si4 0.000000 0.000000 0.054490
Si Si5 0.803787 0.504995 0.095194
Si Si6 0.627426 0.303084 0.205244
Si Si7 0.906786 0.409260 0.768621
Si Si8 0.953034 0.154701 0.617123
O O1 0.707269 0.388856 0.521531
O O2 0.660460 0.111719 0.496463
O O3 0.623987 0.311941 0.333494
O O4 0.515347 0.320139 0.507660
O O5 0.344882 0.203631 0.847707
O O6 0.418806 0.420376 0.977964
O O7 0.237504 0.378397 0.000839
O O8 0.357401 0.141489 0.042093
O O9 0.173432 0.505189 0.690179
O O10 0.333676 0.364894 0.605817
O O11 0.034655 0.133245 0.136298
O O12 0.714530 0.419218 0.161224
O O13 0.857013 0.625058 0.173633
O O14 0.971589 0.301444 0.689308
O O15 0.000000 0.500000 0.826013
O O16 0.000000 0.000000 0.667035
#
# Coordination Sequence:
#
# PCOD9343956 Si02
#       8
#     4   4   4   2   4   4   4   4
#     4  11  22  41  67  94 133 177 214 272 340 392
#     4  10  24  42  68  94 129 175 213 285 332 397
#     4  11  23  41  63  95 134 168 221 274 317 406
#     4  10  24  42  62  96 132 156 228 276 332 392
#     4   9  21  45  63  95 129 165 232 270 329 408
#     4  10  21  40  66  92 126 171 214 273 336 398
#     4  12  25  42  65  95 133 177 223 271 341 397
#     4  10  24  43  61  93 133 167 219 267 318 405
#
# _framework density 21.061232
#
# number of rings (size 3 to 8) (size 9 to 14) (size 15 to 20)
#    0.000    1.600    2.667    0.800    7.467    0.000 
#    0.000    1.333    0.000    0.000    0.000    0.000 
#    0.000    0.000    0.000    0.000    0.000    0.000 
#
# Total GULP energy -167164.754981 kJ/mol
# GULP energy per Si atom -5572.158499 kJ/mol
# Density = 2.101330 g / cm^3
# Si number density = 21.061232 Si / 1000 Ang^3
#
#
#
# Elastic Constant Matrix: (Units=GPa)
#
#
# Indices 1 2 3 4 5 6 
#
# 1 58.8777 16.4901 21.7759 0.0000 0.0000 0.0000
# 2 16.4901 70.0048 11.7181 0.0000 0.0000 0.0000
# 3 21.7759 11.7181 91.4467 0.0000 0.0000 0.0000
# 4 0.0000 0.0000 0.0000 31.4384 0.0000 0.0000
# 5 0.0000 0.0000 0.0000 0.0000 11.2424 0.0000
# 6 0.0000 0.0000 0.0000 0.0000 0.0000 26.9952
#
#
#
# Elastic Compliance Matrix: (Units=1/GPa)
#
#
# Indices 1 2 3 4 5 6 
#
# 1 0.019626 -0.003925 -0.004171 0.000000 0.000000 0.000000
# 2 -0.003925 0.015383 -0.001037 0.000000 0.000000 0.000000
# 3 -0.004171 -0.001037 0.012061 0.000000 0.000000 0.000000
# 4 0.000000 0.000000 0.000000 0.031808 0.000000 0.000000
# 5 0.000000 0.000000 0.000000 0.000000 0.088949 0.000000
# 6 0.000000 0.000000 0.000000 0.000000 0.000000 0.037044
#
#
# Mechanical properties :
#
#
# Convention : Reuss Voigt Hill
#
# Bulk Modulus (GPa) = 34.71488 35.58860 35.15174
# Shear Modulus (GPa) = 21.48349 25.29155 23.38752
#
# Velocity S-wave (km/s) = 3.19729 3.46910 3.33596
# Velocity P-wave (km/s) = 5.49079 5.74287 5.61825
#
# Compressibility (1/GPa) = 0.02880609
#
# Stress axis : x y z
#
# Youngs Moduli (GPa) = 50.95252 65.00766 82.90996
#
# Poissons Ratio (x) = 0.25515 0.34578
# Poissons Ratio (y) = 0.19999 0.08594
# Poissons Ratio (z) = 0.21250 0.06738
#
# Static dielectric constant tensor:
#      x y z
#    x 1.804560 0.000000 0.000000 
#    y 0.000000 1.817920 0.000000 
#    z 0.000000 0.000000 1.735190 
# 
# From -- ./inp_files/3746.got.cif
#   From: 2010.05.17/outbox.cif.g08.bks.cpg/sg32_2_cif.got.tgz:3746.got - 2010.06.03 17:12:27.
