data_PCOD9343736
_publ_section_title
;
Structure prediction by ZEFSAII (Michael W. Deem and Ramdas Pophale) SiO2 
 PCOD9343736
Probable space group: P B A 2
;
_chemical_formula_sum "Si O2"
_cell_formula_units_Z 30
_cell_length_a 20.282055
_cell_length_b 12.861313
_cell_length_c 5.428771
_cell_angle_alpha 90.000000
_cell_angle_beta 90.000000
_cell_angle_gamma 90.000000
_cell_volume 1416.115858
_symmetry_space_group_name_H-M "P B A 2"
_symmetry_group_IT_number 32
_symmetry_cell_setting 'orthorhombic'
loop_
_space_group_symop_operation_xyz
x,y,z
-x,-y,z
1/2-x,1/2+y,z
1/2+x,1/2-y,z
loop_
_atom_site_type_symbol
_atom_site_label
_atom_site_fract_x
_atom_site_fract_y
_atom_site_fract_z
Si Si1 0.433596 0.162856 0.073990
Si Si2 0.836156 0.500000 0.936074
Si Si3 0.674918 0.682152 0.185835
Si Si4 0.933595 0.662855 0.798157
Si Si5 0.000000 0.500000 0.436073
Si Si6 0.729816 0.383083 0.191753
Si Si7 0.729816 0.616916 0.680400
Si Si8 0.825081 0.817848 0.686318
O O1 0.394883 0.259216 0.186223
O O2 0.455263 0.075415 0.270120
O O3 0.500000 0.193529 0.936072
O O4 0.382255 0.100458 0.897334
O O5 0.882255 0.600457 0.974813
O O6 0.786565 0.530252 0.716842
O O7 0.786566 0.469748 0.155308
O O8 0.728837 0.775089 0.190391
O O9 0.688260 0.616899 0.431282
O O10 0.686204 0.622550 0.928908
O O11 0.894883 0.759215 0.685925
O O12 0.955263 0.575414 0.602026
O O13 0.688261 0.383101 0.440871
O O14 0.686204 0.377449 0.943246
O O15 0.771162 0.724911 0.681762
#
# Coordination Sequence:
#
# PCOD9343736 Si02
#       8
#     4   4   4   4   2   4   4   4
#     4  11  22  36  51  85 118 161 193 247 302 374
#     4  10  19  36  56  82 123 144 206 248 306 356
#     4   9  20  35  52  74 115 149 199 226 289 356
#     4  11  22  36  51  85 118 161 193 247 302 374
#     4  12  22  32  56  82 116 154 194 232 308 356
#     4   9  19  34  53  79 105 158 187 243 285 341
#     4   9  19  34  53  79 105 158 187 243 285 341
#     4   9  20  35  52  74 115 149 199 226 289 356
#
# _framework density 21.184707
#
# number of rings (size 3 to 8) (size 9 to 14) (size 15 to 20)
#    0.000    2.133    2.667    0.000    3.733    7.467 
#    0.000    0.000    0.000    0.000    0.000    0.933 
#    0.000    0.000    0.000    0.000    0.000    0.000 
#
# Total GULP energy -167533.653058 kJ/mol
# GULP energy per Si atom -5584.455102 kJ/mol
# Density = 2.113649 g / cm^3
# Si number density = 21.184707 Si / 1000 Ang^3
#
#
#
# Elastic Constant Matrix: (Units=GPa)
#
#
# Indices 1 2 3 4 5 6 
#
# 1 140.2116 56.4050 81.8088 0.0000 0.0000 0.0000
# 2 56.4050 78.4679 43.9260 0.0000 0.0000 0.0000
# 3 81.8088 43.9260 159.4593 0.0000 0.0000 0.0000
# 4 0.0000 0.0000 0.0000 9.3503 0.0000 0.0000
# 5 0.0000 0.0000 0.0000 0.0000 21.2833 0.0000
# 6 0.0000 0.0000 0.0000 0.0000 0.0000 40.4023
#
#
#
# Elastic Compliance Matrix: (Units=1/GPa)
#
#
# Indices 1 2 3 4 5 6 
#
# 1 0.012352 -0.006304 -0.004601 0.000000 0.000000 0.000000
# 2 -0.006304 0.018285 -0.001803 0.000000 0.000000 0.000000
# 3 -0.004601 -0.001803 0.009128 0.000000 0.000000 0.000000
# 4 0.000000 0.000000 0.000000 0.106948 0.000000 0.000000
# 5 0.000000 0.000000 0.000000 0.000000 0.046985 0.000000
# 6 0.000000 0.000000 0.000000 0.000000 0.000000 0.024751
#
#
# Mechanical properties :
#
#
# Convention : Reuss Voigt Hill
#
# Bulk Modulus (GPa) = 69.68369 82.49093 76.08731
# Shear Modulus (GPa) = 20.10880 27.27380 23.69130
#
# Velocity S-wave (km/s) = 3.08427 3.59197 3.34776
# Velocity P-wave (km/s) = 6.75636 7.49843 7.13705
#
# Compressibility (1/GPa) = 0.01435056
#
# Stress axis : x y z
#
# Youngs Moduli (GPa) = 80.95614 54.69100 109.55106
#
# Poissons Ratio (x) = 0.34476 0.50402
# Poissons Ratio (y) = 0.51033 0.19749
# Poissons Ratio (z) = 0.37246 0.09859
#
# Static dielectric constant tensor:
#      x y z
#    x 1.768380 0.000000 0.000000 
#    y 0.000000 1.791770 0.000000 
#    z 0.000000 0.000000 1.817020 
# 
# From -- ./inp_files/1463.got.cif
#   From: 2010.05.17/outbox.cif.g08.bks.cpg/sg32_1_cif.got.tgz:1463.got - 2010.06.03 17:12:27.
