data_PCOD9343895
_publ_section_title
;
Structure prediction by ZEFSAII (Michael W. Deem and Ramdas Pophale) SiO2 
 PCOD9343895
Probable space group: P B A 2
;
_chemical_formula_sum "Si O2"
_cell_formula_units_Z 24
_cell_length_a 9.407246
_cell_length_b 14.711564
_cell_length_c 7.900036
_cell_angle_alpha 90.000000
_cell_angle_beta 90.000000
_cell_angle_gamma 90.000000
_cell_volume 1093.327865
_symmetry_space_group_name_H-M "P B A 2"
_symmetry_group_IT_number 32
_symmetry_cell_setting 'orthorhombic'
loop_
_space_group_symop_operation_xyz
x,y,z
-x,-y,z
1/2-x,1/2+y,z
1/2+x,1/2-y,z
loop_
_atom_site_type_symbol
_atom_site_label
_atom_site_fract_x
_atom_site_fract_y
_atom_site_fract_z
Si Si1 0.137780 0.655875 0.594350
Si Si2 0.935545 0.802498 0.693941
Si Si3 0.000000 0.500000 0.817824
Si Si4 0.748468 0.359428 0.220043
Si Si5 0.500000 0.500000 0.729670
Si Si6 0.543288 0.711664 0.079453
Si Si7 0.732685 0.542675 0.011230
O O1 0.266339 0.704243 0.694012
O O2 0.203636 0.633057 0.413473
O O3 0.009012 0.726502 0.580984
O O4 0.084690 0.569670 0.699182
O O5 0.977472 0.904737 0.635946
O O6 0.991039 0.789417 0.884921
O O7 0.889262 0.554952 0.934648
O O8 0.596680 0.310148 0.190122
O O9 0.871956 0.301884 0.127613
O O10 0.736018 0.458364 0.137888
O O11 0.633818 0.512961 0.853624
O O12 0.657850 0.629734 0.092374
#
# Coordination Sequence:
#
# PCOD9343895 Si02
#       7
#     4   4   2   4   2   4   4
#     4  12  28  44  69 107 148 181 226 302 362 411
#     4  11  23  46  70 101 136 186 240 285 341 429
#     4  12  26  46  70 108 138 190 244 288 350 420
#     4  12  25  48  66 106 145 178 232 295 362 406
#     4  10  20  44  72 102 122 180 248 280 334 410
#     4  11  24  45  75  99 132 191 242 284 341 432
#     4  11  23  45  74 100 133 184 247 286 336 431
#
# _framework density 21.951329999999999
#
# number of rings (size 3 to 8) (size 9 to 14) (size 15 to 20)
#    0.000    0.667    5.000    3.000    9.333    0.667 
#    9.000    0.000    0.000    0.000    0.000    0.000 
#    0.000    0.000    0.000    0.000    0.000    0.000 
#
# Total GULP energy -134386.037275 kJ/mol
# GULP energy per Si atom -5599.418220 kJ/mol
# Density = 2.190137 g / cm^3
# Si number density = 21.951330 Si / 1000 Ang^3
#
#
#
# Elastic Constant Matrix: (Units=GPa)
#
#
# Indices 1 2 3 4 5 6 
#
# 1 145.9519 21.9784 43.1324 0.0000 0.0000 0.0000
# 2 21.9784 58.8651 11.3375 0.0000 0.0000 0.0000
# 3 43.1324 11.3375 45.7296 0.0000 0.0000 0.0000
# 4 0.0000 0.0000 0.0000 48.2930 0.0000 0.0000
# 5 0.0000 0.0000 0.0000 0.0000 48.2486 0.0000
# 6 0.0000 0.0000 0.0000 0.0000 0.0000 47.4535
#
#
#
# Elastic Compliance Matrix: (Units=1/GPa)
#
#
# Indices 1 2 3 4 5 6 
#
# 1 0.009709 -0.001955 -0.008673 0.000000 0.000000 0.000000
# 2 -0.001955 0.018233 -0.002677 0.000000 0.000000 0.000000
# 3 -0.008673 -0.002677 0.030712 0.000000 0.000000 0.000000
# 4 0.000000 0.000000 0.000000 0.020707 0.000000 0.000000
# 5 0.000000 0.000000 0.000000 0.000000 0.020726 0.000000
# 6 0.000000 0.000000 0.000000 0.000000 0.000000 0.021073
#
#
# Mechanical properties :
#
#
# Convention : Reuss Voigt Hill
#
# Bulk Modulus (GPa) = 31.20598 44.82700 38.01649
# Shear Modulus (GPa) = 31.55551 40.40559 35.98055
#
# Velocity S-wave (km/s) = 3.79558 4.29498 4.05298
# Velocity P-wave (km/s) = 5.78407 6.71277 6.26565
#
# Compressibility (1/GPa) = 0.03204514
#
# Stress axis : x y z
#
# Youngs Moduli (GPa) = 102.99741 54.84452 32.56083
#
# Poissons Ratio (x) = 0.10720 0.28240
# Poissons Ratio (y) = 0.20132 0.08716
# Poissons Ratio (z) = 0.89329 0.14681
#
# Static dielectric constant tensor:
#      x y z
#    x 1.804600 0.000000 0.000000 
#    y 0.000000 1.799590 0.000000 
#    z 0.000000 0.000000 1.794120 
# 
# From -- ./inp_files/2334.got.cif
#   From: 2010.05.17/outbox.cif.g08.bks.cpg/sg32_2_cif.got.tgz:2334.got - 2010.06.03 17:12:27.
