data_PCOD9343812
_publ_section_title
;
Structure prediction by ZEFSAII (Michael W. Deem and Ramdas Pophale) SiO2 
 PCOD9343812
Probable space group: P B A 2
;
_chemical_formula_sum "Si O2"
_cell_formula_units_Z 30
_cell_length_a 10.814864
_cell_length_b 20.197941
_cell_length_c 5.965425
_cell_angle_alpha 90.000000
_cell_angle_beta 90.000000
_cell_angle_gamma 90.000000
_cell_volume 1303.075417
_symmetry_space_group_name_H-M "P B A 2"
_symmetry_group_IT_number 32
_symmetry_cell_setting 'orthorhombic'
loop_
_space_group_symop_operation_xyz
x,y,z
-x,-y,z
1/2-x,1/2+y,z
1/2+x,1/2-y,z
loop_
_atom_site_type_symbol
_atom_site_label
_atom_site_fract_x
_atom_site_fract_y
_atom_site_fract_z
Si Si1 0.291531 0.201347 0.512430
Si Si2 0.500000 0.500000 0.579925
Si Si3 0.411942 0.400929 0.254980
Si Si4 0.717809 0.159858 0.587138
Si Si5 0.237594 0.965774 0.878797
Si Si6 0.152083 0.605902 0.891779
Si Si7 0.515953 0.185012 0.212385
Si Si8 0.380881 0.681733 0.116720
O O1 0.254948 0.265522 0.657993
O O2 0.349247 0.140840 0.650171
O O3 0.395422 0.218283 0.327032
O O4 0.168953 0.182880 0.373515
O O5 0.509251 0.439400 0.408902
O O6 0.378604 0.489553 0.727440
O O7 0.329804 0.360434 0.425187
O O8 0.490635 0.356622 0.086691
O O9 0.321227 0.449059 0.119227
O O10 0.710578 0.102381 0.772402
O O11 0.601811 0.161727 0.417400
O O12 0.330623 0.027326 0.885781
O O13 0.039579 0.629528 0.048731
O O14 0.276465 0.640782 0.989294
O O15 0.590145 0.241074 0.074761
#
# Coordination Sequence:
#
# PCOD9343812 Si02
#       8
#     4   2   4   4   4   4   4   4
#     4  10  22  42  66  95 130 170 221 271 331 387
#     4  10  20  36  60  96 132 168 202 272 326 394
#     4  11  21  39  67  93 134 165 218 268 331 397
#     4  10  24  42  66  96 132 173 221 275 327 393
#     4  11  24  40  64 101 133 174 219 269 343 399
#     4  11  24  41  67  96 130 171 220 270 332 398
#     4  10  23  43  65  95 128 174 224 271 328 389
#     4  10  21  38  65  96 127 164 215 274 328 384
#
# _framework density 23.022459000000001
#
# number of rings (size 3 to 8) (size 9 to 14) (size 15 to 20)
#    0.000    1.600    1.333    2.800    1.867    7.467 
#    0.000    4.000    0.000    0.000    0.000    0.000 
#    0.000    0.000    0.000    0.000    0.000    0.000 
#
# Total GULP energy -167612.056433 kJ/mol
# GULP energy per Si atom -5587.068548 kJ/mol
# Density = 2.297006 g / cm^3
# Si number density = 23.022459 Si / 1000 Ang^3
#
#
#
# Elastic Constant Matrix: (Units=GPa)
#
#
# Indices 1 2 3 4 5 6 
#
# 1 60.5771 15.0869 -13.4149 0.0000 0.0000 0.0000
# 2 15.0869 90.6960 1.6411 0.0000 0.0000 0.0000
# 3 -13.4149 1.6411 21.8828 0.0000 0.0000 0.0000
# 4 0.0000 0.0000 0.0000 21.5680 0.0000 0.0000
# 5 0.0000 0.0000 0.0000 0.0000 34.8666 0.0000
# 6 0.0000 0.0000 0.0000 0.0000 0.0000 28.4980
#
#
#
# Elastic Compliance Matrix: (Units=1/GPa)
#
#
# Indices 1 2 3 4 5 6 
#
# 1 0.020204 -0.003590 0.012655 0.000000 0.000000 0.000000
# 2 -0.003590 0.011679 -0.003077 0.000000 0.000000 0.000000
# 3 0.012655 -0.003077 0.053687 0.000000 0.000000 0.000000
# 4 0.000000 0.000000 0.000000 0.046365 0.000000 0.000000
# 5 0.000000 0.000000 0.000000 0.000000 0.028681 0.000000
# 6 0.000000 0.000000 0.000000 0.000000 0.000000 0.035090
#
#
# Mechanical properties :
#
#
# Convention : Reuss Voigt Hill
#
# Bulk Modulus (GPa) = 10.25144 19.97582 15.11363
# Shear Modulus (GPa) = 23.12202 28.30938 25.71570
#
# Velocity S-wave (km/s) = 3.17255 3.51043 3.34576
# Velocity P-wave (km/s) = 4.22877 5.01262 4.63729
#
# Compressibility (1/GPa) = 0.09754724
#
# Stress axis : x y z
#
# Youngs Moduli (GPa) = 49.49396 85.62610 18.62658
#
# Poissons Ratio (x) = 0.30739 -0.23572
# Poissons Ratio (y) = 0.17768 0.05731
# Poissons Ratio (z) = -0.62636 0.26344
#
# Static dielectric constant tensor:
#      x y z
#    x 1.847990 0.000000 0.000000 
#    y 0.000000 1.885950 0.000000 
#    z 0.000000 0.000000 1.861450 
# 
# From -- ./inp_files/1019.got.cif
#   From: 2010.05.17/outbox.cif.g08.bks.cpg/sg32_1_cif.got.tgz:1019.got - 2010.06.03 17:12:27.
