data_PCOD9343135
_publ_section_title
;
Structure prediction by ZEFSAII (Michael W. Deem and Ramdas Pophale) SiO2 
 PCOD9343135
Probable space group: P M N 21
;
_chemical_formula_sum "Si O2"
_cell_formula_units_Z 24
_cell_length_a 7.813682
_cell_length_b 14.554610
_cell_length_c 8.141740
_cell_angle_alpha 90.000000
_cell_angle_beta 90.000000
_cell_angle_gamma 90.000000
_cell_volume 925.920148
_symmetry_space_group_name_H-M "P M N 21"
_symmetry_group_IT_number 31
_symmetry_cell_setting 'orthorhombic'
loop_
_space_group_symop_operation_xyz
x,y,z
1/2-x,-y,1/2+z
-x,y,z
1/2+x,-y,1/2+z
loop_
_atom_site_type_symbol
_atom_site_label
_atom_site_fract_x
_atom_site_fract_y
_atom_site_fract_z
Si Si1 0.791976 0.692257 0.743710
Si Si2 0.198374 0.356241 0.769512
Si Si3 0.200045 0.029793 0.364256
Si Si4 0.698896 0.140350 0.046907
Si Si5 0.699237 0.521821 0.564523
Si Si6 0.799086 0.807141 0.064542
O O1 0.728716 0.761109 0.599021
O O2 0.717034 0.592264 0.716641
O O3 0.000000 0.686974 0.739182
O O4 0.744604 0.741668 0.912659
O O5 0.217887 0.426651 0.616872
O O6 0.270910 0.256778 0.722651
O O7 0.000000 0.342976 0.805282
O O8 0.276850 0.416008 0.918302
O O9 0.292244 0.082927 0.217965
O O10 0.211379 0.096313 0.524064
O O11 0.000000 0.020520 0.319170
O O12 0.271788 0.930052 0.413410
O O13 0.500000 0.153862 0.005696
O O14 0.500000 0.502446 0.527485
O O15 0.000000 0.825415 0.051936
#
# Coordination Sequence:
#
# PCOD9343135 Si02
#       6
#     4   4   4   4   4   4
#     4   9  19  37  58  80 109 145 184 227 274 326
#     4  11  24  40  58  83 113 144 182 226 272 328
#     4  10  20  35  57  84 113 148 189 231 278 329
#     4   9  20  37  55  80 114 148 186 232 277 326
#     4  11  24  39  57  84 113 143 182 227 275 327
#     4  10  21  38  59  83 112 146 185 229 278 330
#
# _framework density 25.920162000000001
#
# number of rings (size 3 to 8) (size 9 to 14) (size 15 to 20)
#    0.000    2.000    0.000    4.000    0.000   12.667 
#    0.000    3.333    0.000    0.000    0.000    0.000 
#    0.000    0.000    0.000    0.000    0.000    0.000 
#
# Total GULP energy -134290.109781 kJ/mol
# GULP energy per Si atom -5595.421241 kJ/mol
# Density = 2.586117 g / cm^3
# Si number density = 25.920162 Si / 1000 Ang^3
#
#
#
# Elastic Constant Matrix: (Units=GPa)
#
#
# Indices 1 2 3 4 5 6 
#
# 1 50.7417 1.7498 -7.0234 0.0000 0.0000 0.0000
# 2 1.7498 157.5885 9.5532 0.0000 0.0000 0.0000
# 3 -7.0234 9.5532 76.3718 0.0000 0.0000 0.0000
# 4 0.0000 0.0000 0.0000 52.7694 0.0000 0.0000
# 5 0.0000 0.0000 0.0000 0.0000 28.5512 0.0000
# 6 0.0000 0.0000 0.0000 0.0000 0.0000 65.9851
#
#
#
# Elastic Compliance Matrix: (Units=1/GPa)
#
#
# Indices 1 2 3 4 5 6 
#
# 1 0.019979 -0.000336 0.001879 0.000000 0.000000 0.000000
# 2 -0.000336 0.006400 -0.000831 0.000000 0.000000 0.000000
# 3 0.001879 -0.000831 0.013371 0.000000 0.000000 0.000000
# 4 0.000000 0.000000 0.000000 0.018950 0.000000 0.000000
# 5 0.000000 0.000000 0.000000 0.000000 0.035025 0.000000
# 6 0.000000 0.000000 0.000000 0.000000 0.000000 0.015155
#
#
# Mechanical properties :
#
#
# Convention : Reuss Voigt Hill
#
# Bulk Modulus (GPa) = 24.28708 32.58458 28.43583
# Shear Modulus (GPa) = 41.26083 48.15596 44.70839
#
# Velocity S-wave (km/s) = 3.99412 4.31496 4.15764
# Velocity P-wave (km/s) = 5.53723 6.11749 5.83458
#
# Compressibility (1/GPa) = 0.04117416
#
# Stress axis : x y z
#
# Youngs Moduli (GPa) = 50.05165 156.25566 74.79054
#
# Poissons Ratio (x) = 0.05247 -0.14056
# Poissons Ratio (y) = 0.01681 0.06218
# Poissons Ratio (z) = -0.09407 0.12991
#
# Static dielectric constant tensor:
#      x y z
#    x 1.907130 0.000000 0.000000 
#    y 0.000000 1.998160 0.000000 
#    z 0.000000 0.000000 2.194730 
# 
# From -- ./inp_files/1679.got.cif
#   From: 2010.05.17/outbox.cif.g08.bks.cpg/sg31_1_cif.got.tgz:1679.got - 2010.06.03 17:08:30.
