data_PCOD9343143
_publ_section_title
;
Structure prediction by ZEFSAII (Michael W. Deem and Ramdas Pophale) SiO2 
 PCOD9343143
Probable space group: P M N 21
;
_chemical_formula_sum "Si O2"
_cell_formula_units_Z 32
_cell_length_a 7.900547
_cell_length_b 11.053369
_cell_length_c 14.667270
_cell_angle_alpha 90.000000
_cell_angle_beta 90.000000
_cell_angle_gamma 90.000000
_cell_volume 1280.858387
_symmetry_space_group_name_H-M "P M N 21"
_symmetry_group_IT_number 31
_symmetry_cell_setting 'orthorhombic'
loop_
_space_group_symop_operation_xyz
x,y,z
1/2-x,-y,1/2+z
-x,y,z
1/2+x,-y,1/2+z
loop_
_atom_site_type_symbol
_atom_site_label
_atom_site_fract_x
_atom_site_fract_y
_atom_site_fract_z
Si Si1 0.804389 0.573098 0.436610
Si Si2 0.193394 0.926875 0.479141
Si Si3 0.801079 0.844626 0.094220
Si Si4 0.706989 0.196631 0.146262
Si Si5 0.201028 0.926146 0.816105
Si Si6 0.299093 0.693163 0.255788
Si Si7 0.203775 0.688437 0.927480
Si Si8 0.293693 0.461190 0.142695
O O1 0.737253 0.667258 0.361859
O O2 0.784187 0.436986 0.397946
O O3 0.730647 0.552614 0.538358
O O4 0.000000 0.603605 0.449849
O O5 0.271152 0.824737 0.543892
O O6 0.000000 0.898430 0.460566
O O7 0.205230 0.044011 0.546691
O O8 0.267779 0.962584 0.382442
O O9 0.769563 0.807498 0.198545
O O10 0.000000 0.867856 0.078979
O O11 0.754548 0.727721 0.031485
O O12 0.500000 0.190289 0.139850
O O13 0.771253 0.093686 0.215134
O O14 0.745757 0.329253 0.183453
O O15 0.256819 0.805968 0.870476
O O16 0.000000 0.919539 0.806813
O O17 0.500000 0.700163 0.245838
O O18 0.231777 0.573963 0.201567
O O19 0.000000 0.675803 0.918962
O O20 0.500000 0.472193 0.140367
#
# Coordination Sequence:
#
# PCOD9343143 Si02
#       8
#     4   4   4   4   4   4   4   4
#     4  11  21  33  52  82 116 150 185 226 280 340
#     4  10  20  35  58  85 112 145 188 238 283 335
#     4  10  20  36  57  79 108 144 185 235 284 332
#     4   9  18  36  59  81 111 151 192 230 279 340
#     4   9  18  35  59  83 108 146 192 237 284 334
#     4  11  21  36  58  84 114 150 190 231 280 341
#     4   9  17  31  54  79 106 141 183 230 275 325
#     4   9  19  36  57  81 113 151 187 227 279 337
#
# _framework density 24.983243999999999
#
# number of rings (size 3 to 8) (size 9 to 14) (size 15 to 20)
#    0.000    2.250    1.250    3.000    0.000    4.000 
#    2.250    1.250    0.000    6.750    0.000    0.000 
#    0.000    0.000    0.000    0.000    0.000    0.000 
#
# Total GULP energy -178760.882644 kJ/mol
# GULP energy per Si atom -5586.277583 kJ/mol
# Density = 2.492638 g / cm^3
# Si number density = 24.983244 Si / 1000 Ang^3
#
#
#
# Elastic Constant Matrix: (Units=GPa)
#
#
# Indices 1 2 3 4 5 6 
#
# 1 26.5974 -4.0576 -0.4257 0.0000 0.0000 0.0000
# 2 -4.0576 75.0133 8.4964 0.0000 0.0000 0.0000
# 3 -0.4257 8.4964 134.4613 0.0000 0.0000 0.0000
# 4 0.0000 0.0000 0.0000 39.0345 0.0000 0.0000
# 5 0.0000 0.0000 0.0000 0.0000 -10.2220 0.0000
# 6 0.0000 0.0000 0.0000 0.0000 0.0000 -12.7559
#
#
#
# Elastic Compliance Matrix: (Units=1/GPa)
#
#
# Indices 1 2 3 4 5 6 
#
# 1 0.037911 0.002052 -0.000010 0.000000 0.000000 0.000000
# 2 0.002052 0.013538 -0.000849 0.000000 0.000000 0.000000
# 3 -0.000010 -0.000849 0.007491 0.000000 0.000000 0.000000
# 4 0.000000 0.000000 0.000000 0.025618 0.000000 0.000000
# 5 0.000000 0.000000 0.000000 0.000000 -0.097828 0.000000
# 6 0.000000 0.000000 0.000000 0.000000 0.000000 -0.078395
#
#
# Mechanical properties :
#
#
# Convention : Reuss Voigt Hill
#
# Bulk Modulus (GPa) = 16.30639 27.12202 21.71421
# Shear Modulus (GPa) = -67.92528 18.68192 -24.62168
#
# Velocity S-wave (km/s) = -5.21990 2.73752 -3.14272
# Velocity P-wave (km/s) = 5.45790 4.56855 2.11152
#
# Compressibility (1/GPa) = 0.06132565
#
# Stress axis : x y z
#
# Youngs Moduli (GPa) = 26.37789 73.86555 133.49889
#
# Poissons Ratio (x) = -0.15155 0.00129
# Poissons Ratio (y) = -0.05412 0.11333
# Poissons Ratio (z) = 0.00025 0.06271
#
# Static dielectric constant tensor:
#      x y z
#    x 2.071640 0.000000 0.000000 
#    y 0.000000 2.017270 0.000000 
#    z 0.000000 0.000000 2.037320 
# 
# From -- ./inp_files/5099.got.cif
#   From: 2010.05.17/outbox.cif.g08.bks.cpg/sg31_3_cif.got.tgz:5099.got - 2010.06.03 17:08:30.
