data_PCOD9343702
_publ_section_title
;
Structure prediction by ZEFSAII (Michael W. Deem and Ramdas Pophale) SiO2 
 PCOD9343702
Probable space group: P B A 2
;
_chemical_formula_sum "Si O2"
_cell_formula_units_Z 30
_cell_length_a 5.168093
_cell_length_b 9.554895
_cell_length_c 21.518964
_cell_angle_alpha 90.000000
_cell_angle_beta 90.000000
_cell_angle_gamma 90.000000
_cell_volume 1062.619052
_symmetry_space_group_name_H-M "P B A 2"
_symmetry_group_IT_number 32
_symmetry_cell_setting 'orthorhombic'
loop_
_space_group_symop_operation_xyz
x,y,z
-x,-y,z
1/2-x,1/2+y,z
1/2+x,1/2-y,z
loop_
_atom_site_type_symbol
_atom_site_label
_atom_site_fract_x
_atom_site_fract_y
_atom_site_fract_z
Si Si1 0.781393 0.349974 0.435000
Si Si2 0.789569 0.347154 0.168639
Si Si3 0.790406 0.846373 0.904881
Si Si4 0.375570 0.174204 0.780670
Si Si5 0.740645 0.422252 0.646979
Si Si6 0.213403 0.652370 0.035494
Si Si7 0.500000 0.500000 0.533546
Si Si8 0.298267 0.655756 0.299319
O O1 0.539222 0.241854 0.441860
O O2 0.755254 0.413339 0.365733
O O3 0.771234 0.969791 0.485505
O O4 0.566521 0.228709 0.169517
O O5 0.750484 0.423250 0.234490
O O6 0.760165 0.422704 0.102246
O O7 0.570137 0.725257 0.906476
O O8 0.733846 0.916974 0.838381
O O9 0.749440 0.925947 0.970066
O O10 0.676667 0.198574 0.789093
O O11 0.355819 0.152179 0.706631
O O12 0.500000 0.500000 0.680288
O O13 0.571306 0.378814 0.585631
O O14 0.000000 0.500000 0.621634
O O15 0.438322 0.769633 0.035284
O O16 0.586208 0.718928 0.299278
#
# Coordination Sequence:
#
# PCOD9343702 Si02
#       8
#     4   4   4   4   4   4   2   4
#     4  10  22  37  58  81 107 143 177 217 270 318
#     4   8  12  18  32  52  83 121 152 189 236 284
#     4   8  14  23  37  60  89 118 154 198 242 290
#     4  10  19  33  54  75  97 132 170 210 257 314
#     4  10  23  39  52  74 103 130 161 216 259 309
#     4   8  12  18  29  51  83 119 148 185 241 285
#     4  10  26  40  60  80 114 134 180 222 270 326
#     4   8  14  26  41  64  92 124 164 201 240 296
#
# _framework density 28.232132
#
# number of rings (size 3 to 8) (size 9 to 14) (size 15 to 20)
#    0.400    2.667    0.000    0.800    1.867    1.067 
#    0.000    0.000    0.000    0.000    0.000    0.000 
#    2.000    0.000    4.800    0.000    5.333    0.000 
#
# Total GULP energy -167143.611539 kJ/mol
# GULP energy per Si atom -5571.453718 kJ/mol
# Density = 2.816787 g / cm^3
# Si number density = 28.232132 Si / 1000 Ang^3
#
#
#
# Elastic Constant Matrix: (Units=GPa)
#
#
# Indices 1 2 3 4 5 6 
#
# 1 212.6055 67.8176 4.5453 0.0000 0.0000 0.0000
# 2 67.8176 61.2233 39.5224 0.0000 0.0000 0.0000
# 3 4.5453 39.5224 314.3015 0.0000 0.0000 0.0000
# 4 0.0000 0.0000 0.0000 37.3452 0.0000 0.0000
# 5 0.0000 0.0000 0.0000 0.0000 7.5750 0.0000
# 6 0.0000 0.0000 0.0000 0.0000 0.0000 58.5843
#
#
#
# Elastic Compliance Matrix: (Units=1/GPa)
#
#
# Indices 1 2 3 4 5 6 
#
# 1 0.007567 -0.009046 0.001028 0.000000 0.000000 0.000000
# 2 -0.009046 0.028590 -0.003464 0.000000 0.000000 0.000000
# 3 0.001028 -0.003464 0.003602 0.000000 0.000000 0.000000
# 4 0.000000 0.000000 0.000000 0.026777 0.000000 0.000000
# 5 0.000000 0.000000 0.000000 0.000000 0.132013 0.000000
# 6 0.000000 0.000000 0.000000 0.000000 0.000000 0.017069
#
#
# Mechanical properties :
#
#
# Convention : Reuss Voigt Hill
#
# Bulk Modulus (GPa) = 59.53962 90.21121 74.87541
# Shear Modulus (GPa) = 20.47660 52.45055 36.46358
#
# Velocity S-wave (km/s) = 2.69605 4.31493 3.59773
# Velocity P-wave (km/s) = 5.55218 7.53974 6.62096
#
# Compressibility (1/GPa) = 0.01679554
#
# Stress axis : x y z
#
# Youngs Moduli (GPa) = 132.15301 34.97731 277.59162
#
# Poissons Ratio (x) = 0.31639 -0.28537
# Poissons Ratio (y) = 1.19541 0.96166
# Poissons Ratio (z) = -0.13586 0.12117
#
# Static dielectric constant tensor:
#      x y z
#    x 2.125690 0.000000 0.000000 
#    y 0.000000 2.296380 0.000000 
#    z 0.000000 0.000000 2.302550 
# 
# From -- ./inp_files/4265.got.cif
#   From: 2010.05.17/outbox.cif.g08.bks.cpg/sg32_3_cif.got.tgz:4265.got - 2010.06.03 17:12:27.
