data_PCOD9343843
_publ_section_title
;
Structure prediction by ZEFSAII (Michael W. Deem and Ramdas Pophale) SiO2 
 PCOD9343843
Probable space group: P B A 2
;
_chemical_formula_sum "Si O2"
_cell_formula_units_Z 30
_cell_length_a 5.148072
_cell_length_b 17.308629
_cell_length_c 17.024281
_cell_angle_alpha 90.000000
_cell_angle_beta 90.000000
_cell_angle_gamma 90.000000
_cell_volume 1516.966746
_symmetry_space_group_name_H-M "P B A 2"
_symmetry_group_IT_number 32
_symmetry_cell_setting 'orthorhombic'
loop_
_space_group_symop_operation_xyz
x,y,z
-x,-y,z
1/2-x,1/2+y,z
1/2+x,1/2-y,z
loop_
_atom_site_type_symbol
_atom_site_label
_atom_site_fract_x
_atom_site_fract_y
_atom_site_fract_z
Si Si1 0.392027 0.412856 0.815330
Si Si2 0.740196 0.948186 0.219727
Si Si3 0.964695 0.803747 0.676496
Si Si4 0.943896 0.200876 0.956243
Si Si5 0.000000 0.500000 0.904317
Si Si6 0.186706 0.072371 0.047464
Si Si7 0.648800 0.305735 0.332721
Si Si8 0.496523 0.700485 0.498104
O O1 0.500000 0.500000 0.822596
O O2 0.459279 0.374028 0.733169
O O3 0.486970 0.350925 0.879131
O O4 0.104077 0.433605 0.845416
O O5 0.668149 0.922045 0.130265
O O6 0.806255 0.873448 0.271070
O O7 0.500000 0.000000 0.249424
O O8 0.000000 0.000000 0.219117
O O9 0.187644 0.738212 0.689452
O O10 0.961744 0.831209 0.585724
O O11 0.150559 0.269788 0.956882
O O12 0.015789 0.147268 0.029644
O O13 0.158783 0.550157 0.968785
O O14 0.000000 0.000000 0.056046
O O15 0.395321 0.251392 0.325269
O O16 0.601462 0.342445 0.420119
O O17 0.298123 0.774216 0.494348
#
# Coordination Sequence:
#
# PCOD9343843 Si02
#       8
#     4   4   4   4   2   4   4   4
#     4  12  25  38  61  85 119 166 206 254 317 384
#     4  11  24  39  63  92 128 167 211 262 326 387
#     4  10  22  40  62  91 122 153 204 257 307 364
#     4  12  25  39  59  87 115 150 207 269 314 353
#     4  12  20  42  64  78 118 170 224 248 308 396
#     4  11  23  42  62  82 118 172 213 253 317 396
#     4  10  20  38  65  94 125 161 210 257 313 383
#     4   8  16  34  61  88 118 159 193 238 305 377
#
# _framework density 19.776309000000001
#
# number of rings (size 3 to 8) (size 9 to 14) (size 15 to 20)
#    0.000    1.333    3.333    2.400    1.867    1.067 
#    0.000    0.667    0.000    0.000    1.733    0.000 
#    0.000    0.000    0.000    0.000    0.000    0.000 
#
# Total GULP energy -167079.151804 kJ/mol
# GULP energy per Si atom -5569.305060 kJ/mol
# Density = 1.973130 g / cm^3
# Si number density = 19.776309 Si / 1000 Ang^3
#
#
#
# Elastic Constant Matrix: (Units=GPa)
#
#
# Indices 1 2 3 4 5 6 
#
# 1 75.3448 3.6539 -10.7037 0.0000 0.0000 0.0000
# 2 3.6539 65.4057 22.0470 0.0000 0.0000 0.0000
# 3 -10.7037 22.0470 73.8603 0.0000 0.0000 0.0000
# 4 0.0000 0.0000 0.0000 104.1075 0.0000 0.0000
# 5 0.0000 0.0000 0.0000 0.0000 21.8479 0.0000
# 6 0.0000 0.0000 0.0000 0.0000 0.0000 37.1064
#
#
#
# Elastic Compliance Matrix: (Units=1/GPa)
#
#
# Indices 1 2 3 4 5 6 
#
# 1 0.013699 -0.001595 0.002461 0.000000 0.000000 0.000000
# 2 -0.001595 0.017185 -0.005361 0.000000 0.000000 0.000000
# 3 0.002461 -0.005361 0.015496 0.000000 0.000000 0.000000
# 4 0.000000 0.000000 0.000000 0.009605 0.000000 0.000000
# 5 0.000000 0.000000 0.000000 0.000000 0.045771 0.000000
# 6 0.000000 0.000000 0.000000 0.000000 0.000000 0.026950
#
#
# Mechanical properties :
#
#
# Convention : Reuss Voigt Hill
#
# Bulk Modulus (GPa) = 26.74395 27.17835 26.96115
# Shear Modulus (GPa) = 33.29793 45.91993 39.60893
#
# Velocity S-wave (km/s) = 4.10778 4.82391 4.48017
# Velocity P-wave (km/s) = 6.00425 6.69324 6.35809
#
# Compressibility (1/GPa) = 0.03739163
#
# Stress axis : x y z
#
# Youngs Moduli (GPa) = 72.99621 58.18910 64.53294
#
# Poissons Ratio (x) = 0.09281 -0.15884
# Poissons Ratio (y) = 0.11643 0.34595
# Poissons Ratio (z) = -0.17967 0.31195
#
# Static dielectric constant tensor:
#      x y z
#    x 1.806580 0.000000 0.000000 
#    y 0.000000 1.440390 0.000000 
#    z 0.000000 0.000000 1.746730 
# 
# From -- ./inp_files/4214.got.cif
#   From: 2010.05.17/outbox.cif.g08.bks.cpg/sg32_3_cif.got.tgz:4214.got - 2010.06.03 17:12:27.
