data_PCOD9343073
_publ_section_title
;
Structure prediction by ZEFSAII (Michael W. Deem and Ramdas Pophale) SiO2 
 PCOD9343073
Probable space group: P M N 21
;
_chemical_formula_sum "Si O2"
_cell_formula_units_Z 32
_cell_length_a 7.533502
_cell_length_b 11.760552
_cell_length_c 16.730124
_cell_angle_alpha 90.000000
_cell_angle_beta 90.000000
_cell_angle_gamma 90.000000
_cell_volume 1482.257902
_symmetry_space_group_name_H-M "P M N 21"
_symmetry_group_IT_number 31
_symmetry_cell_setting 'orthorhombic'
loop_
_space_group_symop_operation_xyz
x,y,z
1/2-x,-y,1/2+z
-x,y,z
1/2+x,-y,1/2+z
loop_
_atom_site_type_symbol
_atom_site_label
_atom_site_fract_x
_atom_site_fract_y
_atom_site_fract_z
Si Si1 0.209185 0.523833 0.533330
Si Si2 0.716674 0.060613 0.878105
Si Si3 0.783334 0.778404 0.520457
Si Si4 0.296047 0.835925 0.206931
Si Si5 0.703264 0.820599 0.841634
Si Si6 0.716503 0.074378 0.171130
Si Si7 0.218435 0.422518 0.703408
Si Si8 0.797840 0.563077 0.859567
O O1 0.282571 0.650123 0.519815
O O2 0.277246 0.470382 0.616643
O O3 0.224658 0.459315 0.448634
O O4 0.000000 0.535932 0.548202
O O5 0.500000 0.058547 0.873224
O O6 0.787333 0.113189 0.796077
O O7 0.773954 0.929652 0.890603
O O8 0.773888 0.145203 0.946845
O O9 0.732507 0.843350 0.600235
O O10 0.000000 0.775908 0.517380
O O11 0.500000 0.822297 0.180693
O O12 0.220940 0.709052 0.207624
O O13 0.221538 0.944146 0.158537
O O14 0.500000 0.800397 0.865668
O O15 0.712310 0.871129 0.752355
O O16 0.792358 0.698222 0.844425
O O17 0.500000 0.071957 0.176981
O O18 0.277806 0.495274 0.781797
O O19 0.000000 0.424882 0.705077
O O20 0.000000 0.524162 0.864732
#
# Coordination Sequence:
#
# PCOD9343073 Si02
#       8
#     4   4   4   4   4   4   4   4
#     4  10  20  35  55  79 106 138 179 220 259 313
#     4   9  18  32  51  75 102 132 169 215 262 311
#     4   9  17  31  52  76 101 133 171 209 257 315
#     4   9  17  31  52  76 101 132 171 210 255 311
#     4  10  20  34  52  75 103 135 173 215 262 313
#     4   9  17  31  53  77 100 130 169 212 256 309
#     4   9  19  35  55  78 107 144 179 214 261 318
#     4  11  22  37  56  78 108 144 181 221 264 312
#
# _framework density 21.588687
#
# number of rings (size 3 to 8) (size 9 to 14) (size 15 to 20)
#    0.000    2.500    0.000    2.250    0.000    3.500 
#    0.000    8.750    0.000    3.000    0.000    0.000 
#    0.000    0.000    0.000    0.000    0.000    0.000 
#
# Total GULP energy -178409.215049 kJ/mol
# GULP energy per Si atom -5575.287970 kJ/mol
# Density = 2.153955 g / cm^3
# Si number density = 21.588687 Si / 1000 Ang^3
#
#
#
# Elastic Constant Matrix: (Units=GPa)
#
#
# Indices 1 2 3 4 5 6 
#
# 1 51.8060 -1.8786 -6.1965 0.0000 0.0000 0.0000
# 2 -1.8786 185.7533 62.9315 0.0000 0.0000 0.0000
# 3 -6.1965 62.9315 87.2828 0.0000 0.0000 0.0000
# 4 0.0000 0.0000 0.0000 33.4972 0.0000 0.0000
# 5 0.0000 0.0000 0.0000 0.0000 13.1024 0.0000
# 6 0.0000 0.0000 0.0000 0.0000 0.0000 7.1452
#
#
#
# Elastic Compliance Matrix: (Units=1/GPa)
#
#
# Indices 1 2 3 4 5 6 
#
# 1 0.019486 -0.000359 0.001643 0.000000 0.000000 0.000000
# 2 -0.000359 0.007130 -0.005166 0.000000 0.000000 0.000000
# 3 0.001643 -0.005166 0.015299 0.000000 0.000000 0.000000
# 4 0.000000 0.000000 0.000000 0.029853 0.000000 0.000000
# 5 0.000000 0.000000 0.000000 0.000000 0.076322 0.000000
# 6 0.000000 0.000000 0.000000 0.000000 0.000000 0.139955
#
#
# Mechanical properties :
#
#
# Convention : Reuss Voigt Hill
#
# Bulk Modulus (GPa) = 29.28393 48.28390 38.78392
# Shear Modulus (GPa) = 16.27635 28.74801 22.51218
#
# Velocity S-wave (km/s) = 2.74876 3.65310 3.23271
# Velocity P-wave (km/s) = 4.86499 6.34093 5.65135
#
# Compressibility (1/GPa) = 0.03414842
#
# Stress axis : x y z
#
# Youngs Moduli (GPa) = 51.31834 140.24879 65.36528
#
# Poissons Ratio (x) = 0.05040 -0.10736
# Poissons Ratio (y) = 0.01844 0.33770
# Poissons Ratio (z) = -0.08429 0.72459
#
# Static dielectric constant tensor:
#      x y z
#    x 1.844020 0.000000 0.000000 
#    y 0.000000 1.777670 0.000000 
#    z 0.000000 0.000000 1.765770 
# 
# From -- ./inp_files/4916.got.cif
#   From: 2010.05.17/outbox.cif.g08.bks.cpg/sg31_3_cif.got.tgz:4916.got - 2010.06.03 17:08:30.
