data_PCOD9343684
_publ_section_title
;
Structure prediction by ZEFSAII (Michael W. Deem and Ramdas Pophale) SiO2 
 PCOD9343684
Probable space group: P B A 2
;
_chemical_formula_sum "Si O2"
_cell_formula_units_Z 22
_cell_length_a 8.756547
_cell_length_b 14.761576
_cell_length_c 8.466744
_cell_angle_alpha 90.000000
_cell_angle_beta 90.000000
_cell_angle_gamma 90.000000
_cell_volume 1094.415004
_symmetry_space_group_name_H-M "P B A 2"
_symmetry_group_IT_number 32
_symmetry_cell_setting 'orthorhombic'
loop_
_space_group_symop_operation_xyz
x,y,z
-x,-y,z
1/2-x,1/2+y,z
1/2+x,1/2-y,z
loop_
_atom_site_type_symbol
_atom_site_label
_atom_site_fract_x
_atom_site_fract_y
_atom_site_fract_z
Si Si1 0.000000 0.500000 0.737780
Si Si2 0.065976 0.645184 0.309200
Si Si3 0.464802 0.162877 0.937494
Si Si4 0.091400 0.823585 0.526955
Si Si5 0.678598 0.285800 0.746481
Si Si6 0.292322 0.981284 0.444338
O O1 0.047536 0.421566 0.856991
O O2 0.859846 0.489112 0.614945
O O3 0.080001 0.739601 0.403474
O O4 0.202705 0.573799 0.344420
O O5 0.918149 0.589532 0.372332
O O6 0.050949 0.660521 0.123573
O O7 0.562058 0.246489 0.875200
O O8 0.303557 0.161264 0.846843
O O9 0.223489 0.789483 0.649303
O O10 0.143958 0.919361 0.457621
O O11 0.931360 0.831973 0.618478
#
# Coordination Sequence:
#
# PCOD9343684 Si02
#       6
#     2   4   4   4   4   4
#     4  10  18  40  60  84 120 158 208 246 294 394
#     4  10  22  36  62  92 124 155 210 258 314 366
#     4  11  22  38  61  93 125 157 206 265 314 362
#     4  11  19  40  62  88 120 162 211 250 297 386
#     4  10  21  37  62  86 119 164 207 248 309 368
#     4  10  19  38  64  88 113 170 207 244 305 379
#
# _framework density 20.102063000000001
#
# number of rings (size 3 to 8) (size 9 to 14) (size 15 to 20)
#    0.000    1.818    3.636    4.364    2.545    0.000 
#    0.000    3.636    0.000    2.182    0.000    0.000 
#    0.000    0.000    0.000    0.000    0.000    0.000 
#
# Total GULP energy -122651.347022 kJ/mol
# GULP energy per Si atom -5575.061228 kJ/mol
# Density = 2.005631 g / cm^3
# Si number density = 20.102063 Si / 1000 Ang^3
#
#
#
# Elastic Constant Matrix: (Units=GPa)
#
#
# Indices 1 2 3 4 5 6 
#
# 1 67.5654 -4.0186 29.6516 0.0000 0.0000 0.0000
# 2 -4.0186 31.0738 46.3904 0.0000 0.0000 0.0000
# 3 29.6516 46.3904 166.3070 0.0000 0.0000 0.0000
# 4 0.0000 0.0000 0.0000 29.6437 0.0000 0.0000
# 5 0.0000 0.0000 0.0000 0.0000 15.6725 0.0000
# 6 0.0000 0.0000 0.0000 0.0000 0.0000 28.4521
#
#
#
# Elastic Compliance Matrix: (Units=1/GPa)
#
#
# Indices 1 2 3 4 5 6 
#
# 1 0.018536 0.012562 -0.006809 0.000000 0.000000 0.000000
# 2 0.012562 0.063661 -0.019998 0.000000 0.000000 0.000000
# 3 -0.006809 -0.019998 0.012805 0.000000 0.000000 0.000000
# 4 0.000000 0.000000 0.000000 0.033734 0.000000 0.000000
# 5 0.000000 0.000000 0.000000 0.000000 0.063806 0.000000
# 6 0.000000 0.000000 0.000000 0.000000 0.000000 0.035147
#
#
# Mechanical properties :
#
#
# Convention : Reuss Voigt Hill
#
# Bulk Modulus (GPa) = 15.03459 45.44366 30.23912
# Shear Modulus (GPa) = 17.96314 27.61519 22.78916
#
# Velocity S-wave (km/s) = 2.99255 3.71043 3.37066
# Velocity P-wave (km/s) = 4.40861 6.40406 5.49763
#
# Compressibility (1/GPa) = 0.06651328
#
# Stress axis : x y z
#
# Youngs Moduli (GPa) = 53.94944 15.70833 78.09332
#
# Poissons Ratio (x) = -0.19734 0.53174
# Poissons Ratio (y) = -0.67774 1.56167
# Poissons Ratio (z) = 0.36735 0.31413
#
# Static dielectric constant tensor:
#      x y z
#    x 1.777420 0.000000 0.000000 
#    y 0.000000 1.796880 0.000000 
#    z 0.000000 0.000000 1.664990 
# 
# From -- ./inp_files/2274.got.cif
#   From: 2010.05.17/outbox.cif.g08.bks.cpg/sg32_2_cif.got.tgz:2274.got - 2010.06.03 17:12:27.
