data_PCOD9343320
_publ_section_title
;
Structure prediction by ZEFSAII (Michael W. Deem and Ramdas Pophale) SiO2 
 PCOD9343320
Probable space group: P M N 21
;
_chemical_formula_sum "Si O2"
_cell_formula_units_Z 24
_cell_length_a 7.753365
_cell_length_b 14.829951
_cell_length_c 8.233926
_cell_angle_alpha 90.000000
_cell_angle_beta 90.000000
_cell_angle_gamma 90.000000
_cell_volume 946.753469
_symmetry_space_group_name_H-M "P M N 21"
_symmetry_group_IT_number 31
_symmetry_cell_setting 'orthorhombic'
loop_
_space_group_symop_operation_xyz
x,y,z
1/2-x,-y,1/2+z
-x,y,z
1/2+x,-y,1/2+z
loop_
_atom_site_type_symbol
_atom_site_label
_atom_site_fract_x
_atom_site_fract_y
_atom_site_fract_z
Si Si1 0.208602 0.469730 0.297200
Si Si2 0.706059 0.864113 0.797077
Si Si3 0.796838 0.638073 0.472367
Si Si4 0.289563 0.696408 0.986601
Si Si5 0.707141 0.972290 0.112927
Si Si6 0.294719 0.805504 0.303864
O O1 0.276031 0.570005 0.333267
O O2 0.260237 0.416451 0.136421
O O3 0.267414 0.403720 0.443827
O O4 0.000000 0.473406 0.298810
O O5 0.500000 0.859214 0.805501
O O6 0.767410 0.764183 0.841366
O O7 0.745545 0.924180 0.641082
O O8 0.770393 0.926112 0.947690
O O9 0.734376 0.740775 0.457409
O O10 0.000000 0.644173 0.452180
O O11 0.500000 0.695399 0.990549
O O12 0.232170 0.742918 0.152861
O O13 0.500000 0.969612 0.109168
O O14 0.772315 0.905191 0.257684
O O15 0.500000 0.814065 0.292864
#
# Coordination Sequence:
#
# PCOD9343320 Si02
#       6
#     4   4   4   4   4   4
#     4  10  21  37  56  77 104 139 174 208 255 314
#     4   9  18  33  53  76 103 135 174 220 260 300
#     4  11  23  36  54  82 109 134 171 216 257 301
#     4   8  16  34  57  76  97 135 181 214 252 311
#     4   9  19  34  52  76 104 138 177 212 257 314
#     4   9  18  36  58  75 101 141 177 212 257 310
#
# _framework density 25.349786999999999
#
# number of rings (size 3 to 8) (size 9 to 14) (size 15 to 20)
#    0.000    2.667    0.000    3.500    0.000    5.333 
#    0.000    9.167    0.000    0.000    0.000    0.000 
#    0.000    0.000    0.000    0.000    0.000    0.000 
#
# Total GULP energy -134016.414129 kJ/mol
# GULP energy per Si atom -5584.017255 kJ/mol
# Density = 2.529209 g / cm^3
# Si number density = 25.349787 Si / 1000 Ang^3
#
#
#
# Elastic Constant Matrix: (Units=GPa)
#
#
# Indices 1 2 3 4 5 6 
#
# 1 39.8590 3.5494 -17.3768 0.0000 0.0000 0.0000
# 2 3.5494 151.6857 -4.9100 0.0000 0.0000 0.0000
# 3 -17.3768 -4.9100 47.7896 0.0000 0.0000 0.0000
# 4 0.0000 0.0000 0.0000 45.0215 0.0000 0.0000
# 5 0.0000 0.0000 0.0000 0.0000 26.1666 0.0000
# 6 0.0000 0.0000 0.0000 0.0000 0.0000 -82.0195
#
#
#
# Elastic Compliance Matrix: (Units=1/GPa)
#
#
# Indices 1 2 3 4 5 6 
#
# 1 0.029833 -0.000348 0.010812 0.000000 0.000000 0.000000
# 2 -0.000348 0.006619 0.000553 0.000000 0.000000 0.000000
# 3 0.010812 0.000553 0.024913 0.000000 0.000000 0.000000
# 4 0.000000 0.000000 0.000000 0.022212 0.000000 0.000000
# 5 0.000000 0.000000 0.000000 0.000000 0.038217 0.000000
# 6 0.000000 0.000000 0.000000 0.000000 0.000000 -0.012192
#
#
# Mechanical properties :
#
#
# Convention : Reuss Voigt Hill
#
# Bulk Modulus (GPa) = 11.99056 22.42884 17.20970
# Shear Modulus (GPa) = 43.34027 15.03850 29.18938
#
# Velocity S-wave (km/s) = 4.13933 2.43829 3.39701
# Velocity P-wave (km/s) = 5.25221 4.09805 4.71061
#
# Compressibility (1/GPa) = 0.08339893
#
# Stress axis : x y z
#
# Youngs Moduli (GPa) = 33.52003 151.08848 40.13941
#
# Poissons Ratio (x) = 0.05259 -0.43398
# Poissons Ratio (y) = 0.01167 -0.02221
# Poissons Ratio (z) = -0.36241 -0.08362
#
# Static dielectric constant tensor:
#      x y z
#    x 1.901540 0.000000 0.000000 
#    y 0.000000 2.164830 0.000000 
#    z 0.000000 0.000000 2.132200 
# 
# From -- ./inp_files/1683.got.cif
#   From: 2010.05.17/outbox.cif.g08.bks.cpg/sg31_1_cif.got.tgz:1683.got - 2010.06.03 17:08:30.
