data_PCOD9343205
_publ_section_title
;
Structure prediction by ZEFSAII (Michael W. Deem and Ramdas Pophale) SiO2 
 PCOD9343205
Probable space group: P M N 21
;
_chemical_formula_sum "Si O2"
_cell_formula_units_Z 32
_cell_length_a 9.242420
_cell_length_b 10.761594
_cell_length_c 14.175520
_cell_angle_alpha 90.000000
_cell_angle_beta 90.000000
_cell_angle_gamma 90.000000
_cell_volume 1409.942179
_symmetry_space_group_name_H-M "P M N 21"
_symmetry_group_IT_number 31
_symmetry_cell_setting 'orthorhombic'
loop_
_space_group_symop_operation_xyz
x,y,z
1/2-x,-y,1/2+z
-x,y,z
1/2+x,-y,1/2+z
loop_
_atom_site_type_symbol
_atom_site_label
_atom_site_fract_x
_atom_site_fract_y
_atom_site_fract_z
Si Si1 0.334359 0.285563 0.631340
Si Si2 0.832832 0.037641 0.415011
Si Si3 0.336568 0.587356 0.979604
Si Si4 0.833251 0.582135 0.314380
Si Si5 0.332971 0.324868 0.091574
Si Si6 0.330329 0.956953 0.141788
Si Si7 0.670489 0.794514 0.420311
Si Si8 0.827841 0.189576 0.239946
O O1 0.500000 0.243436 0.628699
O O2 0.278454 0.325967 0.529476
O O3 0.325261 0.402802 0.702539
O O4 0.235041 0.175730 0.670561
O O5 0.818105 0.048346 0.527459
O O6 0.000000 0.001959 0.395436
O O7 0.728750 0.926049 0.384808
O O8 0.804531 0.158264 0.350515
O O9 0.500000 0.639313 0.987619
O O10 0.332272 0.459683 0.041966
O O11 0.310546 0.543772 0.872637
O O12 0.722429 0.681837 0.355271
O O13 0.000000 0.619082 0.340022
O O14 0.500000 0.286190 0.099963
O O15 0.254868 0.304003 0.191231
O O16 0.249109 0.235967 0.018955
O O17 0.500000 0.969524 0.165859
O O18 0.236959 0.067697 0.186761
O O19 0.500000 0.796097 0.431809
O O20 0.000000 0.202354 0.224568
#
# Coordination Sequence:
#
# PCOD9343205 Si02
#       8
#     4   4   4   4   4   4   4   4
#     4  11  23  40  62  89 120 154 197 252 300 347
#     4  10  22  38  55  80 120 162 193 231 295 360
#     4   9  20  40  63  84 113 153 196 238 290 361
#     4   9  20  39  61  85 116 157 197 239 301 361
#     4  10  20  37  59  82 114 152 189 237 298 352
#     4  11  23  40  61  85 121 166 198 235 297 362
#     4  11  20  31  56  88 115 147 195 248 285 335
#     4  11  22  37  59  89 119 153 199 246 290 350
#
# _framework density 22.695965999999999
#
# number of rings (size 3 to 8) (size 9 to 14) (size 15 to 20)
#    0.000    1.750    1.250    4.125    0.000    8.000 
#    2.250    0.000    0.000    0.000    0.000    0.000 
#    0.000    0.000    0.000    0.000    0.000    0.000 
#
# Total GULP energy -178897.290028 kJ/mol
# GULP energy per Si atom -5590.540313 kJ/mol
# Density = 2.264431 g / cm^3
# Si number density = 22.695966 Si / 1000 Ang^3
#
#
#
# Elastic Constant Matrix: (Units=GPa)
#
#
# Indices 1 2 3 4 5 6 
#
# 1 109.8485 26.6410 49.0162 0.0000 0.0000 0.0000
# 2 26.6410 42.4804 -2.5430 0.0000 0.0000 0.0000
# 3 49.0162 -2.5430 95.4398 0.0000 0.0000 0.0000
# 4 0.0000 0.0000 0.0000 37.0708 0.0000 0.0000
# 5 0.0000 0.0000 0.0000 0.0000 4.0883 0.0000
# 6 0.0000 0.0000 0.0000 0.0000 0.0000 -13.0300
#
#
#
# Elastic Compliance Matrix: (Units=1/GPa)
#
#
# Indices 1 2 3 4 5 6 
#
# 1 0.015092 -0.009945 -0.008016 0.000000 0.000000 0.000000
# 2 -0.009945 0.030131 0.005910 0.000000 0.000000 0.000000
# 3 -0.008016 0.005910 0.014752 0.000000 0.000000 0.000000
# 4 0.000000 0.000000 0.000000 0.026975 0.000000 0.000000
# 5 0.000000 0.000000 0.000000 0.000000 0.244601 0.000000
# 6 0.000000 0.000000 0.000000 0.000000 0.000000 -0.076746
#
#
# Mechanical properties :
#
#
# Convention : Reuss Voigt Hill
#
# Bulk Modulus (GPa) = 27.87522 43.77745 35.82634
# Shear Modulus (GPa) = 17.19013 17.26945 17.22979
#
# Velocity S-wave (km/s) = 2.75509 2.76144 2.75827
# Velocity P-wave (km/s) = 4.73597 5.43120 5.09545
#
# Compressibility (1/GPa) = 0.03587416
#
# Stress axis : x y z
#
# Youngs Moduli (GPa) = 66.25941 33.18862 67.78655
#
# Poissons Ratio (x) = 0.33005 0.54338
# Poissons Ratio (y) = 0.65893 -0.40064
# Poissons Ratio (z) = 0.53114 -0.19615
#
# Static dielectric constant tensor:
#      x y z
#    x 1.766250 0.000000 0.000000 
#    y 0.000000 1.871230 0.000000 
#    z 0.000000 0.000000 1.895740 
# 
# From -- ./inp_files/5079.got.cif
#   From: 2010.05.17/outbox.cif.g08.bks.cpg/sg31_3_cif.got.tgz:5079.got - 2010.06.03 17:08:30.
