data_PCOD9343644
_publ_section_title
;
Structure prediction by ZEFSAII (Michael W. Deem and Ramdas Pophale) SiO2 
 PCOD9343644
Probable space group: P B A 2
;
_chemical_formula_sum "Si O2"
_cell_formula_units_Z 28
_cell_length_a 20.870888
_cell_length_b 9.055979
_cell_length_c 5.502017
_cell_angle_alpha 90.000000
_cell_angle_beta 90.000000
_cell_angle_gamma 90.000000
_cell_volume 1039.916005
_symmetry_space_group_name_H-M "P B A 2"
_symmetry_group_IT_number 32
_symmetry_cell_setting 'orthorhombic'
loop_
_space_group_symop_operation_xyz
x,y,z
-x,-y,z
1/2-x,1/2+y,z
1/2+x,1/2-y,z
loop_
_atom_site_type_symbol
_atom_site_label
_atom_site_fract_x
_atom_site_fract_y
_atom_site_fract_z
Si Si1 0.718161 0.146393 0.946590
Si Si2 0.724991 0.876127 0.656487
Si Si3 0.604774 0.010421 0.403255
Si Si4 0.334923 0.677132 0.341456
Si Si5 0.569689 0.579127 0.211899
Si Si6 0.071749 0.402409 0.886988
Si Si7 0.032545 0.836383 0.726253
O O1 0.719308 0.973482 0.901317
O O2 0.767886 0.211446 0.755024
O O3 0.642215 0.173214 0.895678
O O4 0.721170 0.231347 0.198851
O O5 0.671619 0.927622 0.463865
O O6 0.795456 0.900816 0.551277
O O7 0.618482 0.188248 0.409073
O O8 0.568760 0.987537 0.657275
O O9 0.571317 0.003991 0.140327
O O10 0.377194 0.547803 0.230264
O O11 0.500000 0.500000 0.195590
O O12 0.563671 0.680529 0.455828
O O13 0.580796 0.658246 0.954366
O O14 0.021688 0.274315 0.828337
O O15 0.000000 0.000000 0.702757
#
# Coordination Sequence:
#
# PCOD9343644 Si02
#       7
#     4   4   4   4   4   4   4
#     4  10  23  35  57  78 117 159 197 239 298 351
#     4  11  22  37  55  81 112 162 200 242 292 359
#     4  10  20  33  51  77 105 157 186 230 286 351
#     4  11  22  36  56  79 124 156 191 249 299 352
#     4  10  20  29  52  79 113 152 182 230 305 367
#     4  10  18  34  50  77 113 152 181 234 293 353
#     4  10  17  28  48  75 109 143 182 224 289 366
#
# _framework density 26.925248
#
# number of rings (size 3 to 8) (size 9 to 14) (size 15 to 20)
#    0.000    1.714    2.857    6.000    8.000    0.000 
#    0.000    0.000    0.000    0.000    0.000    0.000 
#    0.000   25.143    0.000    0.000    0.000    0.000 
#
# Total GULP energy -156163.737832 kJ/mol
# GULP energy per Si atom -5577.276351 kJ/mol
# Density = 2.686396 g / cm^3
# Si number density = 26.925248 Si / 1000 Ang^3
#
#
#
# Elastic Constant Matrix: (Units=GPa)
#
#
# Indices 1 2 3 4 5 6 
#
# 1 78.7353 31.7525 13.7037 0.0000 0.0000 0.0000
# 2 31.7525 67.4603 14.2446 0.0000 0.0000 0.0000
# 3 13.7037 14.2446 204.1063 0.0000 0.0000 0.0000
# 4 0.0000 0.0000 0.0000 99.0813 0.0000 0.0000
# 5 0.0000 0.0000 0.0000 0.0000 19.9854 0.0000
# 6 0.0000 0.0000 0.0000 0.0000 0.0000 55.1212
#
#
#
# Elastic Compliance Matrix: (Units=1/GPa)
#
#
# Indices 1 2 3 4 5 6 
#
# 1 0.015737 -0.007291 -0.000548 0.000000 0.000000 0.000000
# 2 -0.007291 0.018424 -0.000796 0.000000 0.000000 0.000000
# 3 -0.000548 -0.000796 0.004992 0.000000 0.000000 0.000000
# 4 0.000000 0.000000 0.000000 0.010093 0.000000 0.000000
# 5 0.000000 0.000000 0.000000 0.000000 0.050036 0.000000
# 6 0.000000 0.000000 0.000000 0.000000 0.000000 0.018142
#
#
# Mechanical properties :
#
#
# Convention : Reuss Voigt Hill
#
# Bulk Modulus (GPa) = 45.70093 52.18929 48.94511
# Shear Modulus (GPa) = 35.21448 54.21101 44.71274
#
# Velocity S-wave (km/s) = 3.62036 4.49195 4.07950
# Velocity P-wave (km/s) = 5.87249 6.80651 6.35668
#
# Compressibility (1/GPa) = 0.02188139
#
# Stress axis : x y z
#
# Youngs Moduli (GPa) = 63.54631 54.27837 200.33059
#
# Poissons Ratio (x) = 0.39576 0.10972
# Poissons Ratio (y) = 0.46333 0.15951
# Poissons Ratio (z) = 0.03480 0.04322
#
# Static dielectric constant tensor:
#      x y z
#    x 2.078320 0.000000 0.000000 
#    y 0.000000 2.090990 0.000000 
#    z 0.000000 0.000000 2.331270 
# 
# From -- ./inp_files/1564.got.cif
#   From: 2010.05.17/outbox.cif.g08.bks.cpg/sg32_1_cif.got.tgz:1564.got - 2010.06.03 17:12:27.
