data_PCOD9343142
_publ_section_title
;
Structure prediction by ZEFSAII (Michael W. Deem and Ramdas Pophale) SiO2 
 PCOD9343142
Probable space group: P M N 21
;
_chemical_formula_sum "Si O2"
_cell_formula_units_Z 32
_cell_length_a 8.322588
_cell_length_b 11.818599
_cell_length_c 16.886479
_cell_angle_alpha 90.000000
_cell_angle_beta 90.000000
_cell_angle_gamma 90.000000
_cell_volume 1660.976537
_symmetry_space_group_name_H-M "P M N 21"
_symmetry_group_IT_number 31
_symmetry_cell_setting 'orthorhombic'
loop_
_space_group_symop_operation_xyz
x,y,z
1/2-x,-y,1/2+z
-x,y,z
1/2+x,-y,1/2+z
loop_
_atom_site_type_symbol
_atom_site_label
_atom_site_fract_x
_atom_site_fract_y
_atom_site_fract_z
Si Si1 0.804976 0.315747 0.737250
Si Si2 0.317458 0.233045 0.323154
Si Si3 0.313724 0.708425 0.563922
Si Si4 0.810778 0.055429 0.443427
Si Si5 0.805710 0.195551 0.900530
Si Si6 0.181089 0.902259 0.660973
Si Si7 0.692596 0.858234 0.111987
Si Si8 0.807530 0.429113 0.216244
O O1 0.752281 0.250388 0.817271
O O2 0.745249 0.249845 0.658778
O O3 0.750169 0.444597 0.731835
O O4 0.000000 0.312683 0.737323
O O5 0.500000 0.249277 0.351654
O O6 0.218331 0.161400 0.385911
O O7 0.320314 0.153769 0.245934
O O8 0.248787 0.349348 0.288463
O O9 0.500000 0.677097 0.554111
O O10 0.245582 0.729470 0.475912
O O11 0.297840 0.831210 0.605435
O O12 0.245183 0.623577 0.631705
O O13 0.500000 0.965163 0.951989
O O14 0.743452 0.098397 0.527947
O O15 0.739322 0.936353 0.413164
O O16 0.000000 0.199838 0.901837
O O17 0.000000 0.891762 0.626552
O O18 0.217010 0.033538 0.668002
O O19 0.500000 0.841169 0.101545
O O20 0.000000 0.424395 0.212864
#
# Coordination Sequence:
#
# PCOD9343142 Si02
#       8
#     4   4   4   4   4   4   4   4
#     4  10  21  39  59  79 110 154 198 234 275 336
#     4  10  20  35  58  83 108 145 189 228 276 338
#     4   9  18  33  55  82 111 142 177 229 284 329
#     4  11  21  34  55  85 120 148 182 233 286 336
#     4  10  20  36  59  85 114 147 189 235 283 341
#     4   9  16  31  55  80 106 140 180 220 268 334
#     4   9  18  33  53  78 112 148 181 223 275 333
#     4  10  21  39  58  80 113 146 188 238 285 335
#
# _framework density 19.265774
#
# number of rings (size 3 to 8) (size 9 to 14) (size 15 to 20)
#    0.000    2.250    1.250    1.875    0.000    3.500 
#    2.250    1.875    0.000    0.000    0.000    0.000 
#    0.000    0.000    0.000    0.000    0.000    0.000 
#
# Total GULP energy -178290.257029 kJ/mol
# GULP energy per Si atom -5571.570532 kJ/mol
# Density = 1.922192 g / cm^3
# Si number density = 19.265774 Si / 1000 Ang^3
#
#
#
# Elastic Constant Matrix: (Units=GPa)
#
#
# Indices 1 2 3 4 5 6 
#
# 1 15.1836 5.5799 9.8694 0.0000 0.0000 0.0000
# 2 5.5799 145.3886 68.3795 0.0000 0.0000 0.0000
# 3 9.8694 68.3795 81.7894 0.0000 0.0000 0.0000
# 4 0.0000 0.0000 0.0000 25.4972 0.0000 0.0000
# 5 0.0000 0.0000 0.0000 0.0000 10.6681 0.0000
# 6 0.0000 0.0000 0.0000 0.0000 0.0000 26.4052
#
#
#
# Elastic Compliance Matrix: (Units=1/GPa)
#
#
# Indices 1 2 3 4 5 6 
#
# 1 0.071882 0.002177 -0.010494 0.000000 0.000000 0.000000
# 2 0.002177 0.011401 -0.009795 0.000000 0.000000 0.000000
# 3 -0.010494 -0.009795 0.021681 0.000000 0.000000 0.000000
# 4 0.000000 0.000000 0.000000 0.039220 0.000000 0.000000
# 5 0.000000 0.000000 0.000000 0.000000 0.093737 0.000000
# 6 0.000000 0.000000 0.000000 0.000000 0.000000 0.037871
#
#
# Mechanical properties :
#
#
# Convention : Reuss Voigt Hill
#
# Bulk Modulus (GPa) = 14.54730 45.55771 30.05251
# Shear Modulus (GPa) = 14.92850 23.08294 19.00572
#
# Velocity S-wave (km/s) = 2.78667 3.46516 3.14427
# Velocity P-wave (km/s) = 4.23336 6.30143 5.36793
#
# Compressibility (1/GPa) = 0.06874126
#
# Stress axis : x y z
#
# Youngs Moduli (GPa) = 13.91173 87.71038 46.12247
#
# Poissons Ratio (x) = -0.19091 0.48399
# Poissons Ratio (y) = -0.03028 0.45175
# Poissons Ratio (z) = 0.14598 0.85908
#
# Static dielectric constant tensor:
#      x y z
#    x 1.697640 0.000000 0.000000 
#    y 0.000000 1.649660 0.000000 
#    z 0.000000 0.000000 1.719650 
# 
# From -- ./inp_files/4982.got.cif
#   From: 2010.05.17/outbox.cif.g08.bks.cpg/sg31_3_cif.got.tgz:4982.got - 2010.06.03 17:08:30.
