data_PCOD9343819
_publ_section_title
;
Structure prediction by ZEFSAII (Michael W. Deem and Ramdas Pophale) SiO2 
 PCOD9343819
Probable space group: P B A 2
;
_chemical_formula_sum "Si O2"
_cell_formula_units_Z 26
_cell_length_a 9.341103
_cell_length_b 14.108907
_cell_length_c 9.161078
_cell_angle_alpha 90.000000
_cell_angle_beta 90.000000
_cell_angle_gamma 90.000000
_cell_volume 1207.363695
_symmetry_space_group_name_H-M "P B A 2"
_symmetry_group_IT_number 32
_symmetry_cell_setting 'orthorhombic'
loop_
_space_group_symop_operation_xyz
x,y,z
-x,-y,z
1/2-x,1/2+y,z
1/2+x,1/2-y,z
loop_
_atom_site_type_symbol
_atom_site_label
_atom_site_fract_x
_atom_site_fract_y
_atom_site_fract_z
Si Si1 0.133697 0.777044 0.292630
Si Si2 0.152073 0.118668 0.285257
Si Si3 0.980866 0.355512 0.903394
Si Si4 0.777874 0.551100 0.415422
Si Si5 0.000000 0.000000 0.030704
Si Si6 0.686770 0.667217 0.959760
Si Si7 0.500000 0.000000 0.658402
Si Si8 0.000000 0.500000 0.161968
O O1 0.195873 0.671994 0.300200
O O2 0.205245 0.847131 0.408507
O O3 0.965067 0.797909 0.304807
O O4 0.182571 0.815148 0.134233
O O5 0.161923 0.033017 0.399827
O O6 0.099812 0.066124 0.136186
O O7 0.151466 0.338403 0.906329
O O8 0.942563 0.418983 0.765261
O O9 0.897305 0.257481 0.899584
O O10 0.952081 0.416816 0.050316
O O11 0.876622 0.538664 0.554261
O O12 0.875719 0.536302 0.269696
O O13 0.100755 0.930389 0.939301
#
# Coordination Sequence:
#
# PCOD9343819 Si02
#       8
#     4   4   4   4   2   4   2   2
#     4  11  22  36  67 110 127 173 220 294 348 408
#     4  11  21  38  61 101 143 162 220 277 358 407
#     4  11  23  44  64  98 132 179 230 277 343 412
#     4  11  21  43  65  99 135 178 224 286 343 411
#     4  10  20  36  66 110 136 168 216 300 348 410
#     4  11  21  38  69  96 136 169 228 281 346 406
#     4  10  28  44  66  92 142 188 230 282 344 414
#     4  10  20  36  70  96 126 170 218 286 338 398
#
# _framework density 21.534521999999999
#
# number of rings (size 3 to 8) (size 9 to 14) (size 15 to 20)
#    0.000    1.231    4.615    2.769    4.308    3.692 
#    2.769    0.000    6.769    0.000    0.000    0.000 
#    0.000    0.000    0.000    0.000    0.000    0.000 
#
# Total GULP energy -145330.399730 kJ/mol
# GULP energy per Si atom -5589.630759 kJ/mol
# Density = 2.148551 g / cm^3
# Si number density = 21.534522 Si / 1000 Ang^3
#
#
#
# Elastic Constant Matrix: (Units=GPa)
#
#
# Indices 1 2 3 4 5 6 
#
# 1 49.4935 26.0906 18.7714 0.0000 0.0000 0.0000
# 2 26.0906 124.9745 26.8671 0.0000 0.0000 0.0000
# 3 18.7714 26.8671 77.5702 0.0000 0.0000 0.0000
# 4 0.0000 0.0000 0.0000 9.9942 0.0000 0.0000
# 5 0.0000 0.0000 0.0000 0.0000 16.9248 0.0000
# 6 0.0000 0.0000 0.0000 0.0000 0.0000 46.8165
#
#
#
# Elastic Compliance Matrix: (Units=1/GPa)
#
#
# Indices 1 2 3 4 5 6 
#
# 1 0.024019 -0.004068 -0.004404 0.000000 0.000000 0.000000
# 2 -0.004068 0.009334 -0.002249 0.000000 0.000000 0.000000
# 3 -0.004404 -0.002249 0.014736 0.000000 0.000000 0.000000
# 4 0.000000 0.000000 0.000000 0.100058 0.000000 0.000000
# 5 0.000000 0.000000 0.000000 0.000000 0.059085 0.000000
# 6 0.000000 0.000000 0.000000 0.000000 0.000000 0.021360
#
#
# Mechanical properties :
#
#
# Convention : Reuss Voigt Hill
#
# Bulk Modulus (GPa) = 37.52409 43.94405 40.73407
# Shear Modulus (GPa) = 19.31131 26.76770 23.03950
#
# Velocity S-wave (km/s) = 2.99784 3.52946 3.27446
# Velocity P-wave (km/s) = 5.42639 6.08770 5.76653
#
# Compressibility (1/GPa) = 0.02664954
#
# Stress axis : x y z
#
# Youngs Moduli (GPa) = 41.63347 107.13233 67.86100
#
# Poissons Ratio (x) = 0.43578 0.29883
# Poissons Ratio (y) = 0.16935 0.15259
# Poissons Ratio (z) = 0.18334 0.24090
#
# Static dielectric constant tensor:
#      x y z
#    x 1.841200 0.000000 0.000000 
#    y 0.000000 1.833210 0.000000 
#    z 0.000000 0.000000 1.747080 
# 
# From -- ./inp_files/2770.got.cif
#   From: 2010.05.17/outbox.cif.g08.bks.cpg/sg32_2_cif.got.tgz:2770.got - 2010.06.03 17:12:27.
