data_PCOD9343119
_publ_section_title
;
Structure prediction by ZEFSAII (Michael W. Deem and Ramdas Pophale) SiO2 
 PCOD9343119
Probable space group: P M N 21
;
_chemical_formula_sum "Si O2"
_cell_formula_units_Z 32
_cell_length_a 11.207883
_cell_length_b 14.699670
_cell_length_c 10.195425
_cell_angle_alpha 90.000000
_cell_angle_beta 90.000000
_cell_angle_gamma 90.000000
_cell_volume 1679.718510
_symmetry_space_group_name_H-M "P M N 21"
_symmetry_group_IT_number 31
_symmetry_cell_setting 'orthorhombic'
loop_
_space_group_symop_operation_xyz
x,y,z
1/2-x,-y,1/2+z
-x,y,z
1/2+x,-y,1/2+z
loop_
_atom_site_type_symbol
_atom_site_label
_atom_site_fract_x
_atom_site_fract_y
_atom_site_fract_z
Si Si1 0.633927 0.654699 0.150940
Si Si2 0.362513 0.549139 0.398477
Si Si3 0.137407 0.934024 0.691056
Si Si4 0.633106 0.148686 0.470972
Si Si5 0.357193 0.858562 0.514020
Si Si6 0.862805 0.341292 0.136776
Si Si7 0.207834 0.653512 0.895554
Si Si8 0.184776 0.138757 0.707558
O O1 0.500000 0.619506 0.132635
O O2 0.691142 0.602404 0.274711
O O3 0.628343 0.762611 0.179134
O O4 0.706538 0.640555 0.019745
O O5 0.500000 0.581009 0.404309
O O6 0.312577 0.582435 0.537626
O O7 0.359550 0.441631 0.381016
O O8 0.251933 0.903266 0.603517
O O9 0.000000 0.896378 0.667294
O O10 0.126017 0.042243 0.675010
O O11 0.171534 0.907792 0.841697
O O12 0.500000 0.118996 0.498764
O O13 0.637396 0.254227 0.426360
O O14 0.705124 0.139177 0.605589
O O15 0.500000 0.889612 0.520661
O O16 0.361822 0.753609 0.558913
O O17 0.309224 0.864221 0.365329
O O18 0.784237 0.331693 0.265229
O O19 0.000000 0.362328 0.174675
#
# Coordination Sequence:
#
# PCOD9343119 Si02
#       8
#     4   4   4   4   4   4   4   4
#     4  10  20  35  55  82 111 147 193 245 294 348
#     4  10  20  35  57  83 112 151 195 244 300 357
#     4  11  23  41  63  93 125 162 203 254 312 372
#     4  10  23  41  60  87 126 164 202 249 311 369
#     4  11  22  41  65  91 122 164 208 256 307 363
#     4  10  20  36  58  85 118 154 199 252 301 355
#     4  11  20  35  58  85 115 155 193 242 301 365
#     4  11  22  38  64  86 118 161 206 252 301 359
#
# _framework density 19.050812000000001
#
# number of rings (size 3 to 8) (size 9 to 14) (size 15 to 20)
#    0.000    1.500    2.500    3.375    0.000    2.000 
#    0.000    2.500    0.000    1.500    0.000    0.000 
#    0.000    0.000    0.000    0.000    0.000    0.000 
#
# Total GULP energy -178157.551595 kJ/mol
# GULP energy per Si atom -5567.423487 kJ/mol
# Density = 1.900745 g / cm^3
# Si number density = 19.050812 Si / 1000 Ang^3
#
#
#
# Elastic Constant Matrix: (Units=GPa)
#
#
# Indices 1 2 3 4 5 6 
#
# 1 84.6013 16.6263 75.7684 0.0000 0.0000 0.0000
# 2 16.6263 92.0143 18.3005 0.0000 0.0000 0.0000
# 3 75.7684 18.3005 139.5315 0.0000 0.0000 0.0000
# 4 0.0000 0.0000 0.0000 24.4122 0.0000 0.0000
# 5 0.0000 0.0000 0.0000 0.0000 -8.8592 0.0000
# 6 0.0000 0.0000 0.0000 0.0000 0.0000 -25.8734
#
#
#
# Elastic Compliance Matrix: (Units=1/GPa)
#
#
# Indices 1 2 3 4 5 6 
#
# 1 0.023278 -0.001737 -0.012413 0.000000 0.000000 0.000000
# 2 -0.001737 0.011289 -0.000537 0.000000 0.000000 0.000000
# 3 -0.012413 -0.000537 0.013978 0.000000 0.000000 0.000000
# 4 0.000000 0.000000 0.000000 0.040963 0.000000 0.000000
# 5 0.000000 0.000000 0.000000 0.000000 -0.112877 0.000000
# 6 0.000000 0.000000 0.000000 0.000000 0.000000 -0.038650
#
#
# Mechanical properties :
#
#
# Convention : Reuss Voigt Hill
#
# Bulk Modulus (GPa) = 52.16474 59.72640 55.94557
# Shear Modulus (GPa) = -190.44799 11.63272 -89.40764
#
# Velocity S-wave (km/s) = -10.00927 2.47374 -6.85806
# Velocity P-wave (km/s) = 10.30239 6.29113 5.76892
#
# Compressibility (1/GPa) = 0.01917004
#
# Stress axis : x y z
#
# Youngs Moduli (GPa) = 42.95828 88.58455 71.54272
#
# Poissons Ratio (x) = 0.15391 0.88804
# Poissons Ratio (y) = 0.07464 0.03843
# Poissons Ratio (z) = 0.53323 0.04758
#
# Static dielectric constant tensor:
#      x y z
#    x 1.665290 0.000000 0.000000 
#    y 0.000000 1.675000 0.000000 
#    z 0.000000 0.000000 1.666050 
# 
# From -- ./inp_files/2224.got.cif
#   From: 2010.05.17/outbox.cif.g08.bks.cpg/sg31_2_cif.got.tgz:2224.got - 2010.06.03 17:08:30.
