data_PCOD9343540
_publ_section_title
;
Structure prediction by ZEFSAII (Michael W. Deem and Ramdas Pophale) SiO2 
 PCOD9343540
Probable space group: P M N 21
;
_chemical_formula_sum "Si O2"
_cell_formula_units_Z 32
_cell_length_a 7.948766
_cell_length_b 16.742845
_cell_length_c 10.794633
_cell_angle_alpha 90.000000
_cell_angle_beta 90.000000
_cell_angle_gamma 90.000000
_cell_volume 1436.603269
_symmetry_space_group_name_H-M "P M N 21"
_symmetry_group_IT_number 31
_symmetry_cell_setting 'orthorhombic'
loop_
_space_group_symop_operation_xyz
x,y,z
1/2-x,-y,1/2+z
-x,y,z
1/2+x,-y,1/2+z
loop_
_atom_site_type_symbol
_atom_site_label
_atom_site_fract_x
_atom_site_fract_y
_atom_site_fract_z
Si Si1 0.698336 0.094288 0.000000
Si Si2 0.799287 0.414228 0.986058
Si Si3 0.799508 0.911656 0.990781
Si Si4 0.204901 0.827315 0.746234
Si Si5 0.297371 0.335641 0.367801
Si Si6 0.695538 0.749042 0.390151
Si Si7 0.297086 0.246012 0.621938
Si Si8 0.308615 0.506810 0.742060
O O1 0.500000 0.083712 0.011875
O O2 0.770828 0.138922 0.119541
O O3 0.731891 0.322552 0.976136
O O4 0.767348 0.005171 0.998453
O O5 0.698875 0.589347 0.818185
O O6 0.782515 0.275829 0.747828
O O7 0.772330 0.449957 0.847619
O O8 0.000000 0.409398 0.006064
O O9 0.734490 0.881746 0.858609
O O10 0.000000 0.900931 0.991181
O O11 0.738516 0.844747 0.088433
O O12 0.245567 0.737201 0.777307
O O13 0.000000 0.831112 0.743670
O O14 0.500000 0.351297 0.363084
O O15 0.237608 0.531507 0.603915
O O16 0.500000 0.756951 0.419629
O O17 0.772977 0.837919 0.397408
O O18 0.500000 0.245729 0.635916
O O19 0.259334 0.303096 0.505190
O O20 0.500000 0.478021 0.722244
#
# Coordination Sequence:
#
# PCOD9343540 Si02
#       8
#     4   4   4   4   4   4   4   4
#     4  11  22  35  56  85 115 151 200 246 297 365
#     4  10  25  46  64  92 130 167 212 261 316 380
#     4   9  19  37  57  82 116 154 194 242 300 356
#     4   8  17  35  57  79 108 148 191 236 290 358
#     4   9  18  37  64  88 117 157 197 246 306 364
#     4  11  24  41  61  85 122 164 204 256 315 368
#     4   9  20  38  61  89 123 160 203 252 305 368
#     4  11  24  41  66  96 127 163 207 259 313 375
#
# _framework density 22.274764999999999
#
# number of rings (size 3 to 8) (size 9 to 14) (size 15 to 20)
#    0.000    2.250    0.000    3.375    3.500    3.000 
#    0.000    3.125    0.000    0.000    0.000    0.000 
#    0.000    0.000    0.000    0.000    0.000    0.000 
#
# Total GULP energy -178412.241209 kJ/mol
# GULP energy per Si atom -5575.382538 kJ/mol
# Density = 2.222407 g / cm^3
# Si number density = 22.274765 Si / 1000 Ang^3
#
#
#
# Elastic Constant Matrix: (Units=GPa)
#
#
# Indices 1 2 3 4 5 6 
#
# 1 20.0020 -1.5633 -0.1966 0.0000 0.0000 0.0000
# 2 -1.5633 77.4409 31.1179 0.0000 0.0000 0.0000
# 3 -0.1966 31.1179 95.6171 0.0000 0.0000 0.0000
# 4 0.0000 0.0000 0.0000 9.5386 0.0000 0.0000
# 5 0.0000 0.0000 0.0000 0.0000 21.5827 0.0000
# 6 0.0000 0.0000 0.0000 0.0000 0.0000 23.7895
#
#
#
# Elastic Compliance Matrix: (Units=1/GPa)
#
#
# Indices 1 2 3 4 5 6 
#
# 1 0.050080 0.001115 -0.000260 0.000000 0.000000 0.000000
# 2 0.001115 0.014881 -0.004840 0.000000 0.000000 0.000000
# 3 -0.000260 -0.004840 0.012033 0.000000 0.000000 0.000000
# 4 0.000000 0.000000 0.000000 0.104837 0.000000 0.000000
# 5 0.000000 0.000000 0.000000 0.000000 0.046333 0.000000
# 6 0.000000 0.000000 0.000000 0.000000 0.000000 0.042035
#
#
# Mechanical properties :
#
#
# Convention : Reuss Voigt Hill
#
# Bulk Modulus (GPa) = 14.48786 27.97510 21.23148
# Shear Modulus (GPa) = 16.60152 21.89563 19.24857
#
# Velocity S-wave (km/s) = 2.73299 3.13865 2.94282
# Velocity P-wave (km/s) = 4.05922 5.07161 4.59339
#
# Compressibility (1/GPa) = 0.06902330
#
# Stress axis : x y z
#
# Youngs Moduli (GPa) = 19.96817 67.20142 83.10377
#
# Poissons Ratio (x) = -0.07496 0.02161
# Poissons Ratio (y) = -0.02227 0.40226
# Poissons Ratio (z) = 0.00519 0.32529
#
# Static dielectric constant tensor:
#      x y z
#    x 1.784630 0.000000 0.000000 
#    y 0.000000 1.955450 0.000000 
#    z 0.000000 0.000000 1.873460 
# 
# From -- ./inp_files/3690.got.cif
#   From: 2010.05.17/outbox.cif.g08.bks.cpg/sg31_2_cif.got.tgz:3690.got - 2010.06.03 17:08:30.
