data_PCOD9343893
_publ_section_title
;
Structure prediction by ZEFSAII (Michael W. Deem and Ramdas Pophale) SiO2 
 PCOD9343893
Probable space group: P B A 2
;
_chemical_formula_sum "Si O2"
_cell_formula_units_Z 20
_cell_length_a 9.029574
_cell_length_b 16.539636
_cell_length_c 4.951035
_cell_angle_alpha 90.000000
_cell_angle_beta 90.000000
_cell_angle_gamma 90.000000
_cell_volume 739.416616
_symmetry_space_group_name_H-M "P B A 2"
_symmetry_group_IT_number 32
_symmetry_cell_setting 'orthorhombic'
loop_
_space_group_symop_operation_xyz
x,y,z
-x,-y,z
1/2-x,1/2+y,z
1/2+x,1/2-y,z
loop_
_atom_site_type_symbol
_atom_site_label
_atom_site_fract_x
_atom_site_fract_y
_atom_site_fract_z
Si Si1 0.000000 0.000000 0.514230
Si Si2 0.250996 0.113822 0.660738
Si Si3 0.389385 0.777574 0.772252
Si Si4 0.610615 0.777574 0.256208
Si Si5 0.000000 0.500000 0.514230
Si Si6 0.750996 0.613822 0.367722
O O1 0.890778 0.942816 0.679616
O O2 0.109221 0.942816 0.348845
O O3 0.206295 0.196277 0.810313
O O4 0.286487 0.149097 0.359169
O O5 0.393636 0.056731 0.696057
O O6 0.286487 0.850904 0.669291
O O7 0.500000 0.794093 0.014230
O O8 0.206296 0.803723 0.218147
O O9 0.500000 0.762768 0.514230
O O10 0.106364 0.443269 0.332403
#
# Coordination Sequence:
#
# PCOD9343893 Si02
#       6
#     2   4   4   4   2   4
#     4  10  20  44  70 106 154 196 242 306 378 444
#     4  10  22  42  76 104 152 192 254 300 378 438
#     4  11  24  46  77 107 143 192 253 307 362 439
#     4  11  24  46  77 107 143 192 253 307 362 439
#     4  10  20  44  70 106 154 196 242 306 378 444
#     4  10  22  42  76 104 152 192 254 300 378 438
#
# _framework density 27.048352000000001
#
# number of rings (size 3 to 8) (size 9 to 14) (size 15 to 20)
#    0.000    1.600    4.000    0.000    0.000    6.400 
#    0.000    2.000   17.600    0.000    0.000    0.000 
#    0.000    0.000    0.000    0.000    0.000    0.000 
#
# Total GULP energy -111971.541442 kJ/mol
# GULP energy per Si atom -5598.577072 kJ/mol
# Density = 2.698679 g / cm^3
# Si number density = 27.048352 Si / 1000 Ang^3
#
#
#
# Elastic Constant Matrix: (Units=GPa)
#
#
# Indices 1 2 3 4 5 6 
#
# 1 200.0880 91.3325 33.5366 0.0000 0.0000 0.0000
# 2 91.3325 213.4997 40.3531 0.0000 0.0000 0.0000
# 3 33.5366 40.3531 123.1107 0.0000 0.0000 0.0000
# 4 0.0000 0.0000 0.0000 29.6524 0.0000 0.0000
# 5 0.0000 0.0000 0.0000 0.0000 34.5379 0.0000
# 6 0.0000 0.0000 0.0000 0.0000 0.0000 61.1685
#
#
#
# Elastic Compliance Matrix: (Units=1/GPa)
#
#
# Indices 1 2 3 4 5 6 
#
# 1 0.006300 -0.002527 -0.000888 0.000000 0.000000 0.000000
# 2 -0.002527 0.006007 -0.001281 0.000000 0.000000 0.000000
# 3 -0.000888 -0.001281 0.008784 0.000000 0.000000 0.000000
# 4 0.000000 0.000000 0.000000 0.033724 0.000000 0.000000
# 5 0.000000 0.000000 0.000000 0.000000 0.028954 0.000000
# 6 0.000000 0.000000 0.000000 0.000000 0.000000 0.016348
#
#
# Mechanical properties :
#
#
# Convention : Reuss Voigt Hill
#
# Bulk Modulus (GPa) = 85.46831 96.34919 90.90875
# Shear Modulus (GPa) = 44.08814 49.83684 46.96249
#
# Velocity S-wave (km/s) = 4.04167 4.29710 4.17134
# Velocity P-wave (km/s) = 7.31075 7.76650 7.54207
#
# Compressibility (1/GPa) = 0.01170024
#
# Stress axis : x y z
#
# Youngs Moduli (GPa) = 158.72376 166.47120 113.83881
#
# Poissons Ratio (x) = 0.42073 0.10107
# Poissons Ratio (y) = 0.40115 0.14577
# Poissons Ratio (z) = 0.14092 0.21317
#
# Static dielectric constant tensor:
#      x y z
#    x 2.137600 0.000000 0.000000 
#    y 0.000000 2.088370 0.000000 
#    z 0.000000 0.000000 2.201620 
# 
# From -- ./inp_files/438.got.cif
#   From: 2010.05.17/outbox.cif.g08.bks.cpg/sg32_1_cif.got.tgz:438.got - 2010.06.03 17:12:27.
