data_PCOD9343516
_publ_section_title
;
Structure prediction by ZEFSAII (Michael W. Deem and Ramdas Pophale) SiO2 
 PCOD9343516
Probable space group: P M N 21
;
_chemical_formula_sum "Si O2"
_cell_formula_units_Z 32
_cell_length_a 32.574101
_cell_length_b 5.257527
_cell_length_c 8.845326
_cell_angle_alpha 90.000000
_cell_angle_beta 90.000000
_cell_angle_gamma 90.000000
_cell_volume 1514.843592
_symmetry_space_group_name_H-M "P M N 21"
_symmetry_group_IT_number 31
_symmetry_cell_setting 'orthorhombic'
loop_
_space_group_symop_operation_xyz
x,y,z
1/2-x,-y,1/2+z
-x,y,z
1/2+x,-y,1/2+z
loop_
_atom_site_type_symbol
_atom_site_label
_atom_site_fract_x
_atom_site_fract_y
_atom_site_fract_z
Si Si1 0.628183 0.503686 0.446080
Si Si2 0.199269 0.536377 0.161785
Si Si3 0.547121 0.679345 0.557129
Si Si4 0.601844 0.008652 0.355300
Si Si5 0.414674 0.208594 0.039975
Si Si6 0.725976 0.696532 0.962581
Si Si7 0.953589 0.287469 0.417160
Si Si8 0.820623 0.794151 0.458590
O O1 0.660303 0.580912 0.575131
O O2 0.581355 0.477170 0.506236
O O3 0.636342 0.218034 0.393975
O O4 0.624114 0.735051 0.327779
O O5 0.230359 0.644105 0.037640
O O6 0.222735 0.351590 0.280904
O O7 0.182290 0.750568 0.276970
O O8 0.500000 0.647810 0.505915
O O9 0.568986 0.927082 0.483725
O O10 0.547420 0.678571 0.737275
O O11 0.578932 0.129351 0.213252
O O12 0.426571 0.495274 0.997007
O O13 0.439770 0.999649 0.947224
O O14 0.366921 0.164881 0.005913
O O15 0.696331 0.471553 0.023414
O O16 0.708214 0.971191 0.999536
O O17 0.000000 0.323785 0.471877
#
# Coordination Sequence:
#
# PCOD9343516 Si02
#       8
#     4   4   4   4   4   4   4   4
#     4  10  23  41  68  96 128 174 220 273 335 399
#     4  10  25  43  69  95 136 171 226 277 347 407
#     4   9  23  42  65  97 131 172 224 276 334 401
#     4  10  25  41  64  98 128 177 218 277 330 404
#     4  12  24  46  67  98 138 176 232 277 344 409
#     4  10  25  41  66  96 129 173 220 278 342 403
#     4  11  25  41  69 100 136 178 223 281 340 408
#     4  10  25  39  68  96 128 177 217 279 338 405
#
# _framework density 21.124295
#
# number of rings (size 3 to 8) (size 9 to 14) (size 15 to 20)
#    1.500    0.250    0.000    2.625    8.750    3.500 
#    0.000    0.000    0.000    0.000    0.000    0.000 
#    0.000    0.000    0.000    0.000    0.000    0.000 
#
# Total GULP energy -178220.291749 kJ/mol
# GULP energy per Si atom -5569.384117 kJ/mol
# Density = 2.107622 g / cm^3
# Si number density = 21.124295 Si / 1000 Ang^3
#
#
#
# Elastic Constant Matrix: (Units=GPa)
#
#
# Indices 1 2 3 4 5 6 
#
# 1 50.4792 10.4549 25.9543 0.0000 0.0000 0.0000
# 2 10.4549 49.8690 14.8534 0.0000 0.0000 0.0000
# 3 25.9543 14.8534 39.4100 0.0000 0.0000 0.0000
# 4 0.0000 0.0000 0.0000 17.8936 0.0000 0.0000
# 5 0.0000 0.0000 0.0000 0.0000 20.1032 0.0000
# 6 0.0000 0.0000 0.0000 0.0000 0.0000 20.6137
#
#
#
# Elastic Compliance Matrix: (Units=1/GPa)
#
#
# Indices 1 2 3 4 5 6 
#
# 1 0.029961 -0.000455 -0.019560 0.000000 0.000000 0.000000
# 2 -0.000455 0.022595 -0.008216 0.000000 0.000000 0.000000
# 3 -0.019560 -0.008216 0.041353 0.000000 0.000000 0.000000
# 4 0.000000 0.000000 0.000000 0.055886 0.000000 0.000000
# 5 0.000000 0.000000 0.000000 0.000000 0.049743 0.000000
# 6 0.000000 0.000000 0.000000 0.000000 0.000000 0.048511
#
#
# Mechanical properties :
#
#
# Convention : Reuss Voigt Hill
#
# Bulk Modulus (GPa) = 26.70511 26.92039 26.81275
# Shear Modulus (GPa) = 15.77312 17.62182 16.69747
#
# Velocity S-wave (km/s) = 2.73551 2.89138 2.81452
# Velocity P-wave (km/s) = 4.75886 4.89063 4.82519
#
# Compressibility (1/GPa) = 0.03744602
#
# Stress axis : x y z
#
# Youngs Moduli (GPa) = 33.37620 44.25732 24.18226
#
# Poissons Ratio (x) = 0.02016 0.47301
# Poissons Ratio (y) = 0.01520 0.19868
# Poissons Ratio (z) = 0.65284 0.36362
#
# Static dielectric constant tensor:
#      x y z
#    x 1.764770 0.000000 0.000000 
#    y 0.000000 1.819270 0.000000 
#    z 0.000000 0.000000 1.815040 
# 
# From -- ./inp_files/3206.got.cif
#   From: 2010.05.17/outbox.cif.g08.bks.cpg/sg31_2_cif.got.tgz:3206.got - 2010.06.03 17:08:30.
