data_PCOD9343902
_publ_section_title
;
Structure prediction by ZEFSAII (Michael W. Deem and Ramdas Pophale) SiO2 
 PCOD9343902
Probable space group: P B A 2
;
_chemical_formula_sum "Si O2"
_cell_formula_units_Z 16
_cell_length_a 10.655776
_cell_length_b 10.678242
_cell_length_c 4.883853
_cell_angle_alpha 90.000000
_cell_angle_beta 90.000000
_cell_angle_gamma 90.000000
_cell_volume 555.708993
_symmetry_space_group_name_H-M "P B A 2"
_symmetry_group_IT_number 32
_symmetry_cell_setting 'orthorhombic'
loop_
_space_group_symop_operation_xyz
x,y,z
-x,-y,z
1/2-x,1/2+y,z
1/2+x,1/2-y,z
loop_
_atom_site_type_symbol
_atom_site_label
_atom_site_fract_x
_atom_site_fract_y
_atom_site_fract_z
Si Si1 0.089027 0.261983 0.707480
Si Si2 0.256571 0.971183 0.466767
Si Si3 0.546583 0.654977 0.183466
Si Si4 0.634770 0.894586 0.964008
O O1 0.210856 0.339424 0.611106
O O2 0.274512 0.070123 0.711910
O O3 0.002819 0.373532 0.836305
O O4 0.048357 0.154295 0.926399
O O5 0.472322 0.720271 0.425657
O O6 0.123605 0.958857 0.315130
O O7 0.347218 0.014109 0.221060
O O8 0.655089 0.754518 0.086505
#
# Coordination Sequence:
#
# PCOD9343902 Si02
#       4
#     4   4   4   4
#     4  10  21  36  55  89 123 144 210 260 300 371
#     4  12  21  35  64  81 123 172 183 264 336 325
#     4  10  22  36  51  93 121 149 206 260 293 392
#     4  10  21  34  55  90 120 150 211 254 303 373
#
# _framework density 28.79205
#
# number of rings (size 3 to 8) (size 9 to 14) (size 15 to 20)
#    1.500    0.000    2.500    3.750    3.500    0.000 
#    0.000    0.000    0.000    1.500    6.500    0.000 
#    0.000    0.000    0.000    0.000    0.000    0.000 
#
# Total GULP energy -89480.359254 kJ/mol
# GULP energy per Si atom -5592.522453 kJ/mol
# Density = 2.872652 g / cm^3
# Si number density = 28.792050 Si / 1000 Ang^3
#
#
#
# Elastic Constant Matrix: (Units=GPa)
#
#
# Indices 1 2 3 4 5 6 
#
# 1 111.6197 23.6494 62.7854 0.0000 0.0000 0.0000
# 2 23.6494 100.8985 44.9899 0.0000 0.0000 0.0000
# 3 62.7854 44.9899 249.8237 0.0000 0.0000 0.0000
# 4 0.0000 0.0000 0.0000 75.7983 0.0000 0.0000
# 5 0.0000 0.0000 0.0000 0.0000 65.9934 0.0000
# 6 0.0000 0.0000 0.0000 0.0000 0.0000 33.9546
#
#
#
# Elastic Compliance Matrix: (Units=1/GPa)
#
#
# Indices 1 2 3 4 5 6 
#
# 1 0.010616 -0.001412 -0.002414 0.000000 0.000000 0.000000
# 2 -0.001412 0.010964 -0.001620 0.000000 0.000000 0.000000
# 3 -0.002414 -0.001620 0.004901 0.000000 0.000000 0.000000
# 4 0.000000 0.000000 0.000000 0.013193 0.000000 0.000000
# 5 0.000000 0.000000 0.000000 0.000000 0.015153 0.000000
# 6 0.000000 0.000000 0.000000 0.000000 0.000000 0.029451
#
#
# Mechanical properties :
#
#
# Convention : Reuss Voigt Hill
#
# Bulk Modulus (GPa) = 64.14187 80.57681 72.35934
# Shear Modulus (GPa) = 49.81795 57.21040 53.51418
#
# Velocity S-wave (km/s) = 4.16416 4.46244 4.31588
# Velocity P-wave (km/s) = 6.74139 7.38902 7.07262
#
# Compressibility (1/GPa) = 0.01559044
#
# Stress axis : x y z
#
# Youngs Moduli (GPa) = 94.19884 91.20688 204.03584
#
# Poissons Ratio (x) = 0.12878 0.49248
# Poissons Ratio (y) = 0.13301 0.33046
# Poissons Ratio (z) = 0.22737 0.14772
#
# Static dielectric constant tensor:
#      x y z
#    x 2.294450 0.000000 0.000000 
#    y 0.000000 2.518710 0.000000 
#    z 0.000000 0.000000 2.037240 
# 
# From -- ./inp_files/704.got.cif
#   From: 2010.05.17/outbox.cif.g08.bks.cpg/sg32_1_cif.got.tgz:704.got - 2010.06.03 17:12:27.
