data_PCOD9343207
_publ_section_title
;
Structure prediction by ZEFSAII (Michael W. Deem and Ramdas Pophale) SiO2 
 PCOD9343207
Probable space group: P M N 21
;
_chemical_formula_sum "Si O2"
_cell_formula_units_Z 32
_cell_length_a 8.684506
_cell_length_b 16.661581
_cell_length_c 10.076039
_cell_angle_alpha 90.000000
_cell_angle_beta 90.000000
_cell_angle_gamma 90.000000
_cell_volume 1457.978662
_symmetry_space_group_name_H-M "P M N 21"
_symmetry_group_IT_number 31
_symmetry_cell_setting 'orthorhombic'
loop_
_space_group_symop_operation_xyz
x,y,z
1/2-x,-y,1/2+z
-x,y,z
1/2+x,-y,1/2+z
loop_
_atom_site_type_symbol
_atom_site_label
_atom_site_fract_x
_atom_site_fract_y
_atom_site_fract_z
Si Si1 0.176823 0.336557 0.628840
Si Si2 0.817585 0.824773 0.078174
Si Si3 0.684872 0.060297 0.804265
Si Si4 0.819508 0.497469 0.200821
Si Si5 0.683819 0.810743 0.509859
Si Si6 0.322981 0.353915 0.066106
Si Si7 0.314341 0.875128 0.803822
Si Si8 0.173735 0.628446 0.865133
O O1 0.239619 0.248414 0.656993
O O2 0.275784 0.410620 0.681994
O O3 0.202000 0.343838 0.469985
O O4 0.000000 0.345752 0.666170
O O5 0.780134 0.905764 0.157595
O O6 0.000000 0.812354 0.079191
O O7 0.760623 0.830082 0.927785
O O8 0.500000 0.062731 0.820811
O O9 0.734533 0.968353 0.815406
O O10 0.757104 0.121884 0.908707
O O11 0.769328 0.437935 0.079070
O O12 0.717849 0.461069 0.319605
O O13 0.000000 0.487213 0.224359
O O14 0.500000 0.804473 0.500967
O O15 0.753376 0.721451 0.489330
O O16 0.724080 0.841551 0.658431
O O17 0.500000 0.369534 0.027727
O O18 0.321784 0.328131 0.222789
O O19 0.500000 0.870655 0.817178
O O20 0.000000 0.633458 0.919370
#
# Coordination Sequence:
#
# PCOD9343207 Si02
#       8
#     4   4   4   4   4   4   4   4
#     4  12  23  38  60  88 123 164 209 260 318 380
#     4  11  24  42  65  95 130 170 215 266 322 388
#     4  10  23  43  63  89 128 167 207 259 324 391
#     4  10  20  37  59  85 118 156 201 254 309 368
#     4  11  22  37  62  93 125 161 210 264 318 382
#     4   9  19  36  57  84 118 154 201 252 306 367
#     4  10  22  41  66  94 124 163 210 262 321 389
#     4   9  19  36  58  84 114 153 205 257 308 371
#
# _framework density 21.948194999999998
#
# number of rings (size 3 to 8) (size 9 to 14) (size 15 to 20)
#    0.750    1.000    0.000    4.875    0.000    5.500 
#    2.250    0.000    0.000    0.000    0.000    0.000 
#    0.000    0.000    0.000    0.000    0.000    0.000 
#
# Total GULP energy -178694.613030 kJ/mol
# GULP energy per Si atom -5584.206657 kJ/mol
# Density = 2.189824 g / cm^3
# Si number density = 21.948195 Si / 1000 Ang^3
#
#
#
# Elastic Constant Matrix: (Units=GPa)
#
#
# Indices 1 2 3 4 5 6 
#
# 1 38.5900 6.9571 2.6525 0.0000 0.0000 0.0000
# 2 6.9571 98.0955 -1.2253 0.0000 0.0000 0.0000
# 3 2.6525 -1.2253 48.5448 0.0000 0.0000 0.0000
# 4 0.0000 0.0000 0.0000 29.6721 0.0000 0.0000
# 5 0.0000 0.0000 0.0000 0.0000 20.8194 0.0000
# 6 0.0000 0.0000 0.0000 0.0000 0.0000 47.4745
#
#
#
# Elastic Compliance Matrix: (Units=1/GPa)
#
#
# Indices 1 2 3 4 5 6 
#
# 1 0.026356 -0.001888 -0.001488 0.000000 0.000000 0.000000
# 2 -0.001888 0.010333 0.000364 0.000000 0.000000 0.000000
# 3 -0.001488 0.000364 0.020690 0.000000 0.000000 0.000000
# 4 0.000000 0.000000 0.000000 0.033702 0.000000 0.000000
# 5 0.000000 0.000000 0.000000 0.000000 0.048032 0.000000
# 6 0.000000 0.000000 0.000000 0.000000 0.000000 0.021064
#
#
# Mechanical properties :
#
#
# Convention : Reuss Voigt Hill
#
# Bulk Modulus (GPa) = 19.47214 22.44432 20.95823
# Shear Modulus (GPa) = 27.27499 31.38293 29.32896
#
# Velocity S-wave (km/s) = 3.52902 3.78546 3.65948
# Velocity P-wave (km/s) = 5.04940 5.41798 5.23693
#
# Compressibility (1/GPa) = 0.05135544
#
# Stress axis : x y z
#
# Youngs Moduli (GPa) = 37.94191 96.78122 48.33251
#
# Poissons Ratio (x) = 0.18270 0.07191
# Poissons Ratio (y) = 0.07163 -0.01759
# Poissons Ratio (z) = 0.05645 -0.03522
#
# Static dielectric constant tensor:
#      x y z
#    x 1.736560 0.000000 0.000000 
#    y 0.000000 1.828690 0.000000 
#    z 0.000000 0.000000 1.848870 
# 
# From -- ./inp_files/3745.got.cif
#   From: 2010.05.17/outbox.cif.g08.bks.cpg/sg31_2_cif.got.tgz:3745.got - 2010.06.03 17:08:30.
