data_PCOD9343999
_publ_section_title
;
Structure prediction by ZEFSAII (Michael W. Deem and Ramdas Pophale) SiO2 
 PCOD9343999
Probable space group: P B A 2
;
_chemical_formula_sum "Si O2"
_cell_formula_units_Z 28
_cell_length_a 20.128010
_cell_length_b 10.615023
_cell_length_c 5.103720
_cell_angle_alpha 90.000000
_cell_angle_beta 90.000000
_cell_angle_gamma 90.000000
_cell_volume 1090.457187
_symmetry_space_group_name_H-M "P B A 2"
_symmetry_group_IT_number 32
_symmetry_cell_setting 'orthorhombic'
loop_
_space_group_symop_operation_xyz
x,y,z
-x,-y,z
1/2-x,1/2+y,z
1/2+x,1/2-y,z
loop_
_atom_site_type_symbol
_atom_site_label
_atom_site_fract_x
_atom_site_fract_y
_atom_site_fract_z
Si Si1 0.926788 0.528733 0.351950
Si Si2 0.183665 0.616194 0.099968
Si Si3 0.961775 0.757796 0.045665
Si Si4 0.185612 0.373432 0.713665
Si Si5 0.828238 0.135364 0.748871
Si Si6 0.028397 0.859717 0.524220
Si Si7 0.672991 0.376108 0.062032
O O1 0.942930 0.612680 0.094587
O O2 0.876911 0.611631 0.526082
O O3 0.000000 0.500000 0.464976
O O4 0.878340 0.412252 0.287377
O O5 0.185689 0.492574 0.911489
O O6 0.173099 0.739978 0.927445
O O7 0.257972 0.625532 0.224053
O O8 0.018336 0.791861 0.250297
O O9 0.900564 0.842655 0.156564
O O10 0.987854 0.791178 0.759028
O O11 0.259162 0.373088 0.588445
O O12 0.180999 0.240294 0.859632
O O13 0.894109 0.136363 0.582424
O O14 0.831066 0.010851 0.926407
O O15 0.000000 0.000000 0.516111
#
# Coordination Sequence:
#
# PCOD9343999 Si02
#       7
#     4   4   4   4   4   4   4
#     4  12  27  45  73 108 149 199 257 318 388 468
#     4  10  23  46  73 104 146 195 260 309 383 456
#     4  12  26  47  73 109 154 200 252 316 390 455
#     4  10  23  48  72 107 145 204 250 313 387 459
#     4  10  23  46  74 104 152 191 259 316 376 462
#     4  12  26  45  71 111 149 200 251 316 388 454
#     4  10  21  48  74 104 146 200 250 317 382 463
#
# _framework density 25.677301
#
# number of rings (size 3 to 8) (size 9 to 14) (size 15 to 20)
#    0.000    1.143    2.857    2.143    2.000    1.714 
#    7.714    0.000    0.000    0.000    0.000    0.000 
#    0.000    0.000    0.000    0.000    0.000    0.000 
#
# Total GULP energy -156817.269470 kJ/mol
# GULP energy per Si atom -5600.616767 kJ/mol
# Density = 2.561886 g / cm^3
# Si number density = 25.677301 Si / 1000 Ang^3
#
#
#
# Elastic Constant Matrix: (Units=GPa)
#
#
# Indices 1 2 3 4 5 6 
#
# 1 234.3918 33.4358 8.6996 0.0000 0.0000 0.0000
# 2 33.4358 150.8777 24.2255 0.0000 0.0000 0.0000
# 3 8.6996 24.2255 33.6485 0.0000 0.0000 0.0000
# 4 0.0000 0.0000 0.0000 36.8866 0.0000 0.0000
# 5 0.0000 0.0000 0.0000 0.0000 26.5832 0.0000
# 6 0.0000 0.0000 0.0000 0.0000 0.0000 55.7811
#
#
#
# Elastic Compliance Matrix: (Units=1/GPa)
#
#
# Indices 1 2 3 4 5 6 
#
# 1 0.004413 -0.000899 -0.000494 0.000000 0.000000 0.000000
# 2 -0.000899 0.007677 -0.005295 0.000000 0.000000 0.000000
# 3 -0.000494 -0.005295 0.033659 0.000000 0.000000 0.000000
# 4 0.000000 0.000000 0.000000 0.027110 0.000000 0.000000
# 5 0.000000 0.000000 0.000000 0.000000 0.037618 0.000000
# 6 0.000000 0.000000 0.000000 0.000000 0.000000 0.017927
#
#
# Mechanical properties :
#
#
# Convention : Reuss Voigt Hill
#
# Bulk Modulus (GPa) = 30.88908 61.29331 46.09119
# Shear Modulus (GPa) = 32.77178 47.35398 40.06288
#
# Velocity S-wave (km/s) = 3.57640 4.29907 3.95428
# Velocity P-wave (km/s) = 5.39537 6.96887 6.23198
#
# Compressibility (1/GPa) = 0.03237390
#
# Stress axis : x y z
#
# Youngs Moduli (GPa) = 226.60924 130.25574 29.70988
#
# Poissons Ratio (x) = 0.11705 0.01468
# Poissons Ratio (y) = 0.20364 0.15731
# Poissons Ratio (z) = 0.11193 0.68970
#
# Static dielectric constant tensor:
#      x y z
#    x 2.103380 0.000000 0.000000 
#    y 0.000000 2.026420 0.000000 
#    z 0.000000 0.000000 2.010030 
# 
# From -- ./inp_files/1561.got.cif
#   From: 2010.05.17/outbox.cif.g08.bks.cpg/sg32_1_cif.got.tgz:1561.got - 2010.06.03 17:12:27.
