data_PCOD9343639
_publ_section_title
;
Structure prediction by ZEFSAII (Michael W. Deem and Ramdas Pophale) SiO2 
 PCOD9343639
Probable space group: P B A 2
;
_chemical_formula_sum "Si O2"
_cell_formula_units_Z 18
_cell_length_a 10.146518
_cell_length_b 11.348705
_cell_length_c 5.222318
_cell_angle_alpha 90.000000
_cell_angle_beta 90.000000
_cell_angle_gamma 90.000000
_cell_volume 601.349080
_symmetry_space_group_name_H-M "P B A 2"
_symmetry_group_IT_number 32
_symmetry_cell_setting 'orthorhombic'
loop_
_space_group_symop_operation_xyz
x,y,z
-x,-y,z
1/2-x,1/2+y,z
1/2+x,1/2-y,z
loop_
_atom_site_type_symbol
_atom_site_label
_atom_site_fract_x
_atom_site_fract_y
_atom_site_fract_z
Si Si1 0.199306 0.965368 0.633860
Si Si2 0.500000 0.000000 0.099467
Si Si3 0.665362 0.824511 0.803757
Si Si4 0.420792 0.367501 0.131174
Si Si5 0.587876 0.213218 0.450932
O O1 0.131411 0.942105 0.364877
O O2 0.293300 0.842303 0.627011
O O3 0.225431 0.109062 0.633343
O O4 0.110253 0.942057 0.879803
O O5 0.387670 0.049382 0.916957
O O6 0.562444 0.095805 0.281955
O O7 0.669459 0.747196 0.061516
O O8 0.539680 0.777428 0.640761
O O9 0.557013 0.310579 0.229099
#
# Coordination Sequence:
#
# PCOD9343639 Si02
#       5
#     4   2   4   4   4
#     4  12  23  40  68  89 130 182 198 270 368 367
#     4  10  16  32  64  94 116 162 186 292 342 368
#     4  11  21  39  62  99 130 155 221 285 323 401
#     4  11  27  37  59 106 128 162 218 280 315 423
#     4  11  21  39  62  99 130 155 221 285 323 401
#
# _framework density 29.932697999999998
#
# number of rings (size 3 to 8) (size 9 to 14) (size 15 to 20)
#    0.000    0.889    6.667    1.333    6.222    0.000 
#    0.000    0.000    0.000    8.000    0.000    0.000 
#    0.000    0.000    0.000    0.000    0.000    0.000 
#
# Total GULP energy -100473.163394 kJ/mol
# GULP energy per Si atom -5581.842411 kJ/mol
# Density = 2.986457 g / cm^3
# Si number density = 29.932698 Si / 1000 Ang^3
#
#
#
# Elastic Constant Matrix: (Units=GPa)
#
#
# Indices 1 2 3 4 5 6 
#
# 1 112.2677 -14.2642 17.6181 0.0000 0.0000 0.0000
# 2 -14.2642 124.1841 -17.6187 0.0000 0.0000 0.0000
# 3 17.6181 -17.6187 163.1967 0.0000 0.0000 0.0000
# 4 0.0000 0.0000 0.0000 -40.3740 0.0000 0.0000
# 5 0.0000 0.0000 0.0000 0.0000 -211.5114 0.0000
# 6 0.0000 0.0000 0.0000 0.0000 0.0000 85.1722
#
#
#
# Elastic Compliance Matrix: (Units=1/GPa)
#
#
# Indices 1 2 3 4 5 6 
#
# 1 0.009165 0.000926 -0.000889 0.000000 0.000000 0.000000
# 2 0.000926 0.008271 0.000793 0.000000 0.000000 0.000000
# 3 -0.000889 0.000793 0.006309 0.000000 0.000000 0.000000
# 4 0.000000 0.000000 0.000000 -0.024768 0.000000 0.000000
# 5 0.000000 0.000000 0.000000 0.000000 -0.004728 0.000000
# 6 0.000000 0.000000 0.000000 0.000000 0.000000 0.011741
#
#
# Mechanical properties :
#
#
# Convention : Reuss Voigt Hill
#
# Bulk Modulus (GPa) = 39.36159 41.23542 40.29850
# Shear Modulus (GPa) = 390.68174 -5.74843 192.46665
#
# Velocity S-wave (km/s) = 11.43693 -1.38731 8.02741
# Velocity P-wave (km/s) = 13.69610 3.35258 9.97053
#
# Compressibility (1/GPa) = 0.02540548
#
# Stress axis : x y z
#
# Youngs Moduli (GPa) = 109.11595 120.89726 158.49881
#
# Poissons Ratio (x) = -0.11201 0.14096
# Poissons Ratio (y) = -0.10110 -0.12568
# Poissons Ratio (z) = 0.09704 -0.09587
#
# Static dielectric constant tensor:
#      x y z
#    x 29.537820 0.000000 0.000000 
#    y 0.000000 2.530640 0.000000 
#    z 0.000000 0.000000 2.485400 
# 
# From -- ./inp_files/771.got.cif
#   From: 2010.05.17/outbox.cif.g08.bks.cpg/sg32_1_cif.got.tgz:771.got - 2010.06.03 17:12:27.
