data_PCOD9343824
_publ_section_title
;
Structure prediction by ZEFSAII (Michael W. Deem and Ramdas Pophale) SiO2 
 PCOD9343824
Probable space group: P B A 2
;
_chemical_formula_sum "Si O2"
_cell_formula_units_Z 30
_cell_length_a 16.471517
_cell_length_b 13.705893
_cell_length_c 6.803548
_cell_angle_alpha 90.000000
_cell_angle_beta 90.000000
_cell_angle_gamma 90.000000
_cell_volume 1535.947562
_symmetry_space_group_name_H-M "P B A 2"
_symmetry_group_IT_number 32
_symmetry_cell_setting 'orthorhombic'
loop_
_space_group_symop_operation_xyz
x,y,z
-x,-y,z
1/2-x,1/2+y,z
1/2+x,1/2-y,z
loop_
_atom_site_type_symbol
_atom_site_label
_atom_site_fract_x
_atom_site_fract_y
_atom_site_fract_z
Si Si1 0.703619 0.709419 0.477490
Si Si2 0.301659 0.911610 0.179478
Si Si3 0.738174 0.255153 0.878391
Si Si4 0.653845 0.866831 0.151978
Si Si5 0.427819 0.641213 0.955832
Si Si6 0.975037 0.166351 0.556804
Si Si7 0.500000 0.500000 0.238343
Si Si8 0.475641 0.815059 0.242282
O O1 0.740185 0.621287 0.350944
O O2 0.764313 0.740095 0.647248
O O3 0.687473 0.798436 0.328071
O O4 0.620097 0.684380 0.588640
O O5 0.392432 0.874658 0.234075
O O6 0.306920 0.026649 0.149690
O O7 0.274834 0.847343 0.990999
O O8 0.664306 0.326055 0.932654
O O9 0.819278 0.307578 0.958094
O O10 0.557278 0.872795 0.186270
O O11 0.474901 0.634818 0.748493
O O12 0.434201 0.544574 0.088597
O O13 0.468753 0.728321 0.081747
O O14 0.975370 0.085543 0.385196
O O15 0.012387 0.262804 0.453499
#
# Coordination Sequence:
#
# PCOD9343824 Si02
#       8
#     4   4   4   4   4   4   2   4
#     4  10  22  39  58  84 121 154 193 241 298 348
#     4  10  21  38  60  88 114 153 194 244 290 351
#     4  10  22  39  58  84 121 154 193 241 298 348
#     4  10  21  38  60  88 114 153 194 244 290 351
#     4  10  20  37  58  81 116 156 194 240 290 349
#     4  10  20  37  58  81 116 156 194 240 290 349
#     4  10  22  36  54  86 110 154 200 244 286 342
#     4   9  19  37  61  82 116 148 194 236 292 350
#
# _framework density 19.531915999999999
#
# number of rings (size 3 to 8) (size 9 to 14) (size 15 to 20)
#    0.000    2.133    0.000    2.400    1.867    3.200 
#    4.800    0.000    0.000    4.800    0.000    0.000 
#    0.000    0.000    0.000    0.000    0.000    0.000 
#
# Total GULP energy -167386.936130 kJ/mol
# GULP energy per Si atom -5579.564538 kJ/mol
# Density = 1.948746 g / cm^3
# Si number density = 19.531916 Si / 1000 Ang^3
#
#
#
# Elastic Constant Matrix: (Units=GPa)
#
#
# Indices 1 2 3 4 5 6 
#
# 1 49.6301 14.4758 11.9643 0.0000 0.0000 0.0000
# 2 14.4758 63.5650 1.0641 0.0000 0.0000 0.0000
# 3 11.9643 1.0641 76.0847 0.0000 0.0000 0.0000
# 4 0.0000 0.0000 0.0000 9.6433 0.0000 0.0000
# 5 0.0000 0.0000 0.0000 0.0000 18.1463 0.0000
# 6 0.0000 0.0000 0.0000 0.0000 0.0000 11.1050
#
#
#
# Elastic Compliance Matrix: (Units=1/GPa)
#
#
# Indices 1 2 3 4 5 6 
#
# 1 0.022458 -0.005057 -0.003461 0.000000 0.000000 0.000000
# 2 -0.005057 0.016874 0.000559 0.000000 0.000000 0.000000
# 3 -0.003461 0.000559 0.013680 0.000000 0.000000 0.000000
# 4 0.000000 0.000000 0.000000 0.103699 0.000000 0.000000
# 5 0.000000 0.000000 0.000000 0.000000 0.055108 0.000000
# 6 0.000000 0.000000 0.000000 0.000000 0.000000 0.090049
#
#
# Mechanical properties :
#
#
# Convention : Reuss Voigt Hill
#
# Bulk Modulus (GPa) = 26.95742 27.14312 27.05027
# Shear Modulus (GPa) = 15.14466 18.56396 16.85431
#
# Velocity S-wave (km/s) = 2.78759 3.08627 2.94072
# Velocity P-wave (km/s) = 4.91859 5.16014 5.04081
#
# Compressibility (1/GPa) = 0.03709554
#
# Stress axis : x y z
#
# Youngs Moduli (GPa) = 44.52717 59.26243 73.10129
#
# Poissons Ratio (x) = 0.29966 0.25299
# Poissons Ratio (y) = 0.22515 -0.04087
# Poissons Ratio (z) = 0.15410 -0.03314
#
# Static dielectric constant tensor:
#      x y z
#    x 1.705580 0.000000 0.000000 
#    y 0.000000 1.680700 0.000000 
#    z 0.000000 0.000000 1.664690 
# 
# From -- ./inp_files/1294.got.cif
#   From: 2010.05.17/outbox.cif.g08.bks.cpg/sg32_1_cif.got.tgz:1294.got - 2010.06.03 17:12:27.
