data_PCOD9343967
_publ_section_title
;
Structure prediction by ZEFSAII (Michael W. Deem and Ramdas Pophale) SiO2 
 PCOD9343967
Probable space group: P B A 2
;
_chemical_formula_sum "Si O2"
_cell_formula_units_Z 24
_cell_length_a 14.544366
_cell_length_b 9.108228
_cell_length_c 8.509888
_cell_angle_alpha 90.000000
_cell_angle_beta 90.000000
_cell_angle_gamma 90.000000
_cell_volume 1127.333811
_symmetry_space_group_name_H-M "P B A 2"
_symmetry_group_IT_number 32
_symmetry_cell_setting 'orthorhombic'
loop_
_space_group_symop_operation_xyz
x,y,z
-x,-y,z
1/2-x,1/2+y,z
1/2+x,1/2-y,z
loop_
_atom_site_type_symbol
_atom_site_label
_atom_site_fract_x
_atom_site_fract_y
_atom_site_fract_z
Si Si1 0.285166 0.377967 0.423940
Si Si2 0.181439 0.155054 0.231627
Si Si3 0.577420 0.122166 0.398728
Si Si4 0.960233 0.840763 0.682335
Si Si5 0.350958 0.256550 0.759802
Si Si6 0.712712 0.449095 0.880567
O O1 0.268342 0.245918 0.300985
O O2 0.336020 0.515824 0.346091
O O3 0.179447 0.433775 0.448138
O O4 0.327205 0.311021 0.582390
O O5 0.099666 0.274125 0.248803
O O6 0.200710 0.100168 0.058682
O O7 0.551372 0.233898 0.536680
O O8 0.500000 0.000000 0.378118
O O9 0.040789 0.769269 0.786068
O O10 0.866447 0.872559 0.774346
O O11 0.000000 0.000000 0.636028
O O12 0.301214 0.377736 0.867256
O O13 0.307874 0.102236 0.804461
#
# Coordination Sequence:
#
# PCOD9343967 Si02
#       6
#     4   4   4   4   4   4
#     4  10  21  41  65  92 123 168 215 259 307 386
#     4  10  22  40  63  89 131 164 205 259 323 376
#     4  10  23  40  63  94 127 161 213 263 312 384
#     4  10  22  41  63  92 125 164 216 264 313 373
#     4  11  22  38  68  88 124 169 214 259 312 372
#     4  11  22  42  59  96 128 164 209 261 318 381
#
# _framework density 21.289169999999999
#
# number of rings (size 3 to 8) (size 9 to 14) (size 15 to 20)
#    1.000    0.667    1.667    4.000    4.667    0.000 
#    3.000    8.333    0.000    0.000    0.000    0.000 
#    0.000    0.000    0.000    0.000    0.000    0.000 
#
# Total GULP energy -133940.467058 kJ/mol
# GULP energy per Si atom -5580.852794 kJ/mol
# Density = 2.124071 g / cm^3
# Si number density = 21.289170 Si / 1000 Ang^3
#
#
#
# Elastic Constant Matrix: (Units=GPa)
#
#
# Indices 1 2 3 4 5 6 
#
# 1 25.6337 -9.0315 -27.3856 0.0000 0.0000 0.0000
# 2 -9.0315 37.2332 25.7959 0.0000 0.0000 0.0000
# 3 -27.3856 25.7959 76.8075 0.0000 0.0000 0.0000
# 4 0.0000 0.0000 0.0000 30.4907 0.0000 0.0000
# 5 0.0000 0.0000 0.0000 0.0000 5.6332 0.0000
# 6 0.0000 0.0000 0.0000 0.0000 0.0000 37.5817
#
#
#
# Elastic Compliance Matrix: (Units=1/GPa)
#
#
# Indices 1 2 3 4 5 6 
#
# 1 0.063018 -0.000366 0.022592 0.000000 0.000000 0.000000
# 2 -0.000366 0.035004 -0.011887 0.000000 0.000000 0.000000
# 3 0.022592 -0.011887 0.025067 0.000000 0.000000 0.000000
# 4 0.000000 0.000000 0.000000 0.032797 0.000000 0.000000
# 5 0.000000 0.000000 0.000000 0.000000 0.177518 0.000000
# 6 0.000000 0.000000 0.000000 0.000000 0.000000 0.026609
#
#
# Mechanical properties :
#
#
# Convention : Reuss Voigt Hill
#
# Bulk Modulus (GPa) = 6.95567 13.15910 10.05739
# Shear Modulus (GPa) = 12.91132 24.76085 18.83608
#
# Velocity S-wave (km/s) = 2.46534 3.41408 2.97774
# Velocity P-wave (km/s) = 3.37316 4.66217 4.06903
#
# Compressibility (1/GPa) = 0.14376756
#
# Stress axis : x y z
#
# Youngs Moduli (GPa) = 15.86847 28.56791 39.89330
#
# Poissons Ratio (x) = 0.01046 -0.90127
# Poissons Ratio (y) = 0.00581 0.47420
# Poissons Ratio (z) = -0.35850 0.33958
#
# Static dielectric constant tensor:
#      x y z
#    x 1.809320 0.000000 0.000000 
#    y 0.000000 1.796080 0.000000 
#    z 0.000000 0.000000 1.741930 
# 
# From -- ./inp_files/2987.got.cif
#   From: 2010.05.17/outbox.cif.g08.bks.cpg/sg32_2_cif.got.tgz:2987.got - 2010.06.03 17:12:27.
