data_PCOD9343653
_publ_section_title
;
Structure prediction by ZEFSAII (Michael W. Deem and Ramdas Pophale) SiO2 
 PCOD9343653
Probable space group: P B A 2
;
_chemical_formula_sum "Si O2"
_cell_formula_units_Z 32
_cell_length_a 25.090010
_cell_length_b 7.144667
_cell_length_c 7.605396
_cell_angle_alpha 90.000000
_cell_angle_beta 90.000000
_cell_angle_gamma 90.000000
_cell_volume 1363.341511
_symmetry_space_group_name_H-M "P B A 2"
_symmetry_group_IT_number 32
_symmetry_cell_setting 'orthorhombic'
loop_
_space_group_symop_operation_xyz
x,y,z
-x,-y,z
1/2-x,1/2+y,z
1/2+x,1/2-y,z
loop_
_atom_site_type_symbol
_atom_site_label
_atom_site_fract_x
_atom_site_fract_y
_atom_site_fract_z
Si Si1 0.631402 0.822407 0.417300
Si Si2 0.128184 0.665326 0.017373
Si Si3 0.514994 0.717236 0.402486
Si Si4 0.099630 0.216150 0.032041
Si Si5 0.326703 0.662509 0.729340
Si Si6 0.513928 0.792065 0.988261
Si Si7 0.400722 0.751284 0.432331
Si Si8 0.295547 0.097979 0.718463
O O1 0.639564 0.765061 0.214769
O O2 0.573259 0.751181 0.479197
O O3 0.679148 0.792275 0.553173
O O4 0.626127 0.047563 0.410510
O O5 0.111558 0.442158 0.027467
O O6 0.074170 0.756721 0.938348
O O7 0.179001 0.686386 0.893519
O O8 0.500000 0.500000 0.395949
O O9 0.517257 0.795158 0.202915
O O10 0.461478 0.797053 0.490425
O O11 0.098784 0.163292 0.237191
O O12 0.040352 0.179518 0.955159
O O13 0.144295 0.122458 0.913103
O O14 0.367610 0.629477 0.569685
O O15 0.267728 0.584051 0.713427
O O16 0.317335 0.886728 0.722640
O O17 0.500000 0.000000 0.923329
#
# Coordination Sequence:
#
# PCOD9343653 Si02
#       8
#     4   4   4   4   4   4   4   4
#     4   9  18  34  54  73  98 134 168 198 241 299
#     4   8  15  30  52  75  96 122 160 203 243 288
#     4  10  18  29  50  80 107 127 156 203 253 296
#     4   8  15  30  52  75  96 122 160 203 243 288
#     4  10  21  35  51  72  98 131 172 211 245 287
#     4   8  14  29  52  74  99 129 162 199 241 300
#     4   9  18  34  54  73  98 134 168 198 241 299
#     4  10  21  35  51  72  98 131 172 211 245 287
#
# _framework density 23.471741999999999
#
# number of rings (size 3 to 8) (size 9 to 14) (size 15 to 20)
#    0.000    3.000    0.000    2.625    0.000    3.000 
#    0.000    8.750    0.000    6.000    0.000    0.000 
#    0.000    0.000    0.000    0.000    0.000    0.000 
#
# Total GULP energy -178666.099623 kJ/mol
# GULP energy per Si atom -5583.315613 kJ/mol
# Density = 2.341832 g / cm^3
# Si number density = 23.471742 Si / 1000 Ang^3
#
#
#
# Elastic Constant Matrix: (Units=GPa)
#
#
# Indices 1 2 3 4 5 6 
#
# 1 174.3609 -8.6168 80.5055 0.0000 0.0000 0.0000
# 2 -8.6168 54.0207 2.4134 0.0000 0.0000 0.0000
# 3 80.5055 2.4134 106.7974 0.0000 0.0000 0.0000
# 4 0.0000 0.0000 0.0000 1.0208 0.0000 0.0000
# 5 0.0000 0.0000 0.0000 0.0000 38.6625 0.0000
# 6 0.0000 0.0000 0.0000 0.0000 0.0000 31.5088
#
#
#
# Elastic Compliance Matrix: (Units=1/GPa)
#
#
# Indices 1 2 3 4 5 6 
#
# 1 0.008956 0.001732 -0.006790 0.000000 0.000000 0.000000
# 2 0.001732 0.018865 -0.001732 0.000000 0.000000 0.000000
# 3 -0.006790 -0.001732 0.014521 0.000000 0.000000 0.000000
# 4 0.000000 0.000000 0.000000 0.979638 0.000000 0.000000
# 5 0.000000 0.000000 0.000000 0.000000 0.025865 0.000000
# 6 0.000000 0.000000 0.000000 0.000000 0.000000 0.031737
#
#
# Mechanical properties :
#
#
# Convention : Reuss Voigt Hill
#
# Bulk Modulus (GPa) = 34.76826 53.75370 44.26098
# Shear Modulus (GPa) = 4.53412 31.63020 18.08216
#
# Velocity S-wave (km/s) = 1.39138 3.67493 2.77858
# Velocity P-wave (km/s) = 4.17447 6.39984 5.40297
#
# Compressibility (1/GPa) = 0.02876187
#
# Stress axis : x y z
#
# Youngs Moduli (GPa) = 111.65639 53.00805 68.86422
#
# Poissons Ratio (x) = -0.09181 0.46761
# Poissons Ratio (y) = -0.19338 0.11926
# Poissons Ratio (z) = 0.75819 0.09180
#
# Static dielectric constant tensor:
#      x y z
#    x 1.888010 0.000000 0.000000 
#    y 0.000000 1.998560 0.000000 
#    z 0.000000 0.000000 1.885610 
# 
# From -- ./inp_files/3369.got.cif
#   From: 2010.05.17/outbox.cif.g08.bks.cpg/sg32_2_cif.got.tgz:3369.got - 2010.06.03 17:12:27.
