data_PCOD9343252
_publ_section_title
;
Structure prediction by ZEFSAII (Michael W. Deem and Ramdas Pophale) SiO2 
 PCOD9343252
Probable space group: P M N 21
;
_chemical_formula_sum "Si O2"
_cell_formula_units_Z 32
_cell_length_a 11.870390
_cell_length_b 13.865866
_cell_length_c 9.199768
_cell_angle_alpha 90.000000
_cell_angle_beta 90.000000
_cell_angle_gamma 90.000000
_cell_volume 1514.219596
_symmetry_space_group_name_H-M "P M N 21"
_symmetry_group_IT_number 31
_symmetry_cell_setting 'orthorhombic'
loop_
_space_group_symop_operation_xyz
x,y,z
1/2-x,-y,1/2+z
-x,y,z
1/2+x,-y,1/2+z
loop_
_atom_site_type_symbol
_atom_site_label
_atom_site_fract_x
_atom_site_fract_y
_atom_site_fract_z
Si Si1 0.871775 0.502955 0.698780
Si Si2 0.120474 0.270827 0.175922
Si Si3 0.729091 0.101618 0.286927
Si Si4 0.627152 0.211061 0.844071
Si Si5 0.366371 0.016885 0.014360
Si Si6 0.374185 0.683345 0.993371
Si Si7 0.624089 0.221413 0.515464
Si Si8 0.235385 0.389462 0.952826
O O1 0.876118 0.406007 0.601678
O O2 0.811231 0.576544 0.589247
O O3 0.000000 0.533125 0.732036
O O4 0.805625 0.474130 0.845943
O O5 0.214576 0.190291 0.200322
O O6 0.122778 0.336902 0.320597
O O7 0.134601 0.334366 0.033417
O O8 0.000000 0.219931 0.172414
O O9 0.629584 0.145912 0.384062
O O10 0.816443 0.061587 0.405433
O O11 0.689102 0.021687 0.173101
O O12 0.500000 0.238576 0.886083
O O13 0.659651 0.120603 0.941566
O O14 0.625350 0.178147 0.676945
O O15 0.700992 0.306410 0.863196
O O16 0.500000 0.006606 0.026356
O O17 0.500000 0.733286 0.019026
O O18 0.248064 0.728068 0.009594
O O19 0.500000 0.273196 0.505461
#
# Coordination Sequence:
#
# PCOD9343252 Si02
#       8
#     4   4   4   4   4   4   4   4
#     4  11  24  41  65  96 129 170 219 275 332 398
#     4  10  21  39  63  91 126 175 217 269 328 389
#     4  11  22  40  66  95 133 170 215 270 328 393
#     4  10  21  39  63  91 129 171 212 268 329 389
#     4  11  23  41  64  95 132 171 217 271 330 395
#     4   9  19  38  61  90 130 168 213 267 330 390
#     4  10  20  38  64  96 129 167 220 266 324 394
#     4  12  22  42  64  92 131 168 218 270 328 398
#
# _framework density 21.132998000000001
#
# number of rings (size 3 to 8) (size 9 to 14) (size 15 to 20)
#    0.000    1.500    2.500    3.000    0.000    0.500 
#    0.000    8.125    0.000    0.000    0.000    0.000 
#    0.000    0.000    0.000    0.000    0.000    0.000 
#
# Total GULP energy -178261.006561 kJ/mol
# GULP energy per Si atom -5570.656455 kJ/mol
# Density = 2.108490 g / cm^3
# Si number density = 21.132998 Si / 1000 Ang^3
#
#
#
# Elastic Constant Matrix: (Units=GPa)
#
#
# Indices 1 2 3 4 5 6 
#
# 1 110.9209 28.8300 26.7934 0.0000 0.0000 0.0000
# 2 28.8300 30.1914 10.4081 0.0000 0.0000 0.0000
# 3 26.7934 10.4081 86.0208 0.0000 0.0000 0.0000
# 4 0.0000 0.0000 0.0000 35.3992 0.0000 0.0000
# 5 0.0000 0.0000 0.0000 0.0000 29.1381 0.0000
# 6 0.0000 0.0000 0.0000 0.0000 0.0000 44.2942
#
#
#
# Elastic Compliance Matrix: (Units=1/GPa)
#
#
# Indices 1 2 3 4 5 6 
#
# 1 0.012509 -0.011063 -0.002558 0.000000 0.000000 0.000000
# 2 -0.011063 0.044348 -0.001920 0.000000 0.000000 0.000000
# 3 -0.002558 -0.001920 0.012654 0.000000 0.000000 0.000000
# 4 0.000000 0.000000 0.000000 0.028249 0.000000 0.000000
# 5 0.000000 0.000000 0.000000 0.000000 0.034319 0.000000
# 6 0.000000 0.000000 0.000000 0.000000 0.000000 0.022576
#
#
# Mechanical properties :
#
#
# Convention : Reuss Voigt Hill
#
# Bulk Modulus (GPa) = 26.02159 39.91066 32.96612
# Shear Modulus (GPa) = 25.18301 32.50642 28.84471
#
# Velocity S-wave (km/s) = 3.45576 3.92622 3.69848
# Velocity P-wave (km/s) = 5.31630 6.28332 5.81993
#
# Compressibility (1/GPa) = 0.03842963
#
# Stress axis : x y z
#
# Youngs Moduli (GPa) = 79.94472 22.54891 79.02613
#
# Poissons Ratio (x) = 0.24946 0.20212
# Poissons Ratio (y) = 0.88442 0.15173
# Poissons Ratio (z) = 0.20447 0.04330
#
# Static dielectric constant tensor:
#      x y z
#    x 1.813100 0.000000 0.000000 
#    y 0.000000 1.761780 0.000000 
#    z 0.000000 0.000000 1.756770 
# 
# From -- ./inp_files/2234.got.cif
#   From: 2010.05.17/outbox.cif.g08.bks.cpg/sg31_2_cif.got.tgz:2234.got - 2010.06.03 17:08:30.
