data_PCOD9343591
_publ_section_title
;
Structure prediction by ZEFSAII (Michael W. Deem and Ramdas Pophale) SiO2 
 PCOD9343591
Probable space group: P M N 21
;
_chemical_formula_sum "Si O2"
_cell_formula_units_Z 24
_cell_length_a 18.450074
_cell_length_b 4.893101
_cell_length_c 12.455193
_cell_angle_alpha 90.000000
_cell_angle_beta 90.000000
_cell_angle_gamma 90.000000
_cell_volume 1124.430855
_symmetry_space_group_name_H-M "P M N 21"
_symmetry_group_IT_number 31
_symmetry_cell_setting 'orthorhombic'
loop_
_space_group_symop_operation_xyz
x,y,z
1/2-x,-y,1/2+z
-x,y,z
1/2+x,-y,1/2+z
loop_
_atom_site_type_symbol
_atom_site_label
_atom_site_fract_x
_atom_site_fract_y
_atom_site_fract_z
Si Si1 0.799500 0.380773 0.892000
Si Si2 0.084533 0.603958 0.052699
Si Si3 0.841275 0.636366 0.531050
Si Si4 0.712279 0.126654 0.245746
Si Si5 0.129497 0.106705 0.187090
Si Si6 0.582838 0.873063 0.934139
O O1 0.737254 0.304307 0.977453
O O2 0.765444 0.620144 0.820376
O O3 0.818319 0.118983 0.818594
O O4 0.867849 0.520914 0.949929
O O5 0.117506 0.410740 0.144711
O O6 0.000000 0.547457 0.035753
O O7 0.093342 0.908370 0.099262
O O8 0.836210 0.734112 0.653935
O O9 0.864328 0.328859 0.501097
O O10 0.900686 0.825310 0.475669
O O11 0.786710 0.019719 0.194096
O O12 0.098288 0.108210 0.307057
O O13 0.500000 0.791445 0.951740
#
# Coordination Sequence:
#
# PCOD9343591 Si02
#       6
#     4   4   4   4   4   4
#     4  12  24  44  69  98 137 177 227 281 334 407
#     4  12  26  43  67 102 138 178 220 280 351 403
#     4  12  24  43  69  98 134 177 225 275 333 408
#     4  12  25  43  69 103 128 174 236 281 329 399
#     4  12  23  42  70 100 137 167 223 289 342 401
#     4  12  25  43  66 101 139 175 217 278 348 402
#
# _framework density 21.344131999999998
#
# number of rings (size 3 to 8) (size 9 to 14) (size 15 to 20)
#    0.000    0.000    5.000    6.000    2.333    0.000 
#    0.000    5.000    0.000    0.000    0.000    0.000 
#    0.000    0.000    0.000    0.000    0.000    0.000 
#
# Total GULP energy -134186.386028 kJ/mol
# GULP energy per Si atom -5591.099418 kJ/mol
# Density = 2.129555 g / cm^3
# Si number density = 21.344132 Si / 1000 Ang^3
#
#
#
# Elastic Constant Matrix: (Units=GPa)
#
#
# Indices 1 2 3 4 5 6 
#
# 1 83.0223 -13.6072 24.2558 0.0000 0.0000 0.0000
# 2 -13.6072 79.6337 12.7927 0.0000 0.0000 0.0000
# 3 24.2558 12.7927 62.9209 0.0000 0.0000 0.0000
# 4 0.0000 0.0000 0.0000 45.4447 0.0000 0.0000
# 5 0.0000 0.0000 0.0000 0.0000 14.4752 0.0000
# 6 0.0000 0.0000 0.0000 0.0000 0.0000 23.6529
#
#
#
# Elastic Compliance Matrix: (Units=1/GPa)
#
#
# Indices 1 2 3 4 5 6 
#
# 1 0.014449 0.003477 -0.006277 0.000000 0.000000 0.000000
# 2 0.003477 0.013818 -0.004150 0.000000 0.000000 0.000000
# 3 -0.006277 -0.004150 0.019156 0.000000 0.000000 0.000000
# 4 0.000000 0.000000 0.000000 0.022005 0.000000 0.000000
# 5 0.000000 0.000000 0.000000 0.000000 0.069084 0.000000
# 6 0.000000 0.000000 0.000000 0.000000 0.000000 0.042278
#
#
# Mechanical properties :
#
#
# Convention : Reuss Voigt Hill
#
# Bulk Modulus (GPa) = 29.82912 30.27330 30.05121
# Shear Modulus (GPa) = 24.28790 30.19027 27.23909
#
# Velocity S-wave (km/s) = 3.37697 3.76500 3.57625
# Velocity P-wave (km/s) = 5.40471 5.75452 5.58236
#
# Compressibility (1/GPa) = 0.03352428
#
# Stress axis : x y z
#
# Youngs Moduli (GPa) = 69.21025 72.36771 52.20181
#
# Poissons Ratio (x) = -0.25164 0.32767
# Poissons Ratio (y) = -0.24066 0.21663
# Poissons Ratio (z) = 0.43443 0.30032
#
# Static dielectric constant tensor:
#      x y z
#    x 1.741910 0.000000 0.000000 
#    y 0.000000 1.740440 0.000000 
#    z 0.000000 0.000000 1.829130 
# 
# From -- ./inp_files/4336.got.cif
#   From: 2010.05.17/outbox.cif.g08.bks.cpg/sg31_3_cif.got.tgz:4336.got - 2010.06.03 17:08:30.
