data_PCOD9343840
_publ_section_title
;
Structure prediction by ZEFSAII (Michael W. Deem and Ramdas Pophale) SiO2 
 PCOD9343840
Probable space group: P B A 2
;
_chemical_formula_sum "Si O2"
_cell_formula_units_Z 24
_cell_length_a 9.452540
_cell_length_b 16.376759
_cell_length_c 7.277760
_cell_angle_alpha 90.000000
_cell_angle_beta 90.000000
_cell_angle_gamma 90.000000
_cell_volume 1126.611582
_symmetry_space_group_name_H-M "P B A 2"
_symmetry_group_IT_number 32
_symmetry_cell_setting 'orthorhombic'
loop_
_space_group_symop_operation_xyz
x,y,z
-x,-y,z
1/2-x,1/2+y,z
1/2+x,1/2-y,z
loop_
_atom_site_type_symbol
_atom_site_label
_atom_site_fract_x
_atom_site_fract_y
_atom_site_fract_z
Si Si1 0.344626 0.346418 0.112920
Si Si2 0.425375 0.912200 0.289261
Si Si3 0.554132 0.409963 0.387369
Si Si4 0.815933 0.699968 0.590829
Si Si5 0.487171 0.332306 0.752858
Si Si6 0.794383 0.313393 0.255635
O O1 0.207386 0.402613 0.149327
O O2 0.436367 0.349959 0.300960
O O3 0.285153 0.253954 0.096090
O O4 0.463207 0.363166 0.959342
O O5 0.370649 0.881440 0.488634
O O6 0.546139 0.844829 0.250926
O O7 0.500000 0.000000 0.288975
O O8 0.500000 0.500000 0.353998
O O9 0.558805 0.393330 0.605716
O O10 0.696378 0.392508 0.275193
O O11 0.676154 0.678702 0.699374
O O12 0.766791 0.763407 0.431551
O O13 0.930989 0.747182 0.715112
#
# Coordination Sequence:
#
# PCOD9343840 Si02
#       6
#     4   4   4   4   4   4
#     4  11  23  40  66  91 127 162 215 263 309 375
#     4  11  21  39  65  92 129 169 204 261 325 374
#     4  11  23  42  64  92 129 166 206 262 323 377
#     4  10  20  40  62  92 121 162 215 260 306 375
#     4  11  23  39  67  94 121 164 218 262 310 374
#     4  10  20  38  63  91 120 165 212 252 307 371
#
# _framework density 21.302816
#
# number of rings (size 3 to 8) (size 9 to 14) (size 15 to 20)
#    0.000    1.333    5.000    3.000    4.667    0.667 
#    0.000    0.833    3.667    0.000    0.000    0.000 
#    0.000    0.000    0.000    0.000    0.000    0.000 
#
# Total GULP energy -133720.165505 kJ/mol
# GULP energy per Si atom -5571.673563 kJ/mol
# Density = 2.125433 g / cm^3
# Si number density = 21.302816 Si / 1000 Ang^3
#
#
#
# Elastic Constant Matrix: (Units=GPa)
#
#
# Indices 1 2 3 4 5 6 
#
# 1 84.9945 -0.1219 21.6661 0.0000 0.0000 0.0000
# 2 -0.1219 58.4972 6.3334 0.0000 0.0000 0.0000
# 3 21.6661 6.3334 76.5673 0.0000 0.0000 0.0000
# 4 0.0000 0.0000 0.0000 8.9957 0.0000 0.0000
# 5 0.0000 0.0000 0.0000 0.0000 24.8441 0.0000
# 6 0.0000 0.0000 0.0000 0.0000 0.0000 28.5144
#
#
#
# Elastic Compliance Matrix: (Units=1/GPa)
#
#
# Indices 1 2 3 4 5 6 
#
# 1 0.012690 0.000419 -0.003626 0.000000 0.000000 0.000000
# 2 0.000419 0.017263 -0.001546 0.000000 0.000000 0.000000
# 3 -0.003626 -0.001546 0.014214 0.000000 0.000000 0.000000
# 4 0.000000 0.000000 0.000000 0.111164 0.000000 0.000000
# 5 0.000000 0.000000 0.000000 0.000000 0.040251 0.000000
# 6 0.000000 0.000000 0.000000 0.000000 0.000000 0.035070
#
#
# Mechanical properties :
#
#
# Convention : Reuss Voigt Hill
#
# Bulk Modulus (GPa) = 28.85053 30.64603 29.74828
# Shear Modulus (GPa) = 19.86391 25.28294 22.57342
#
# Velocity S-wave (km/s) = 3.05692 3.44879 3.25875
# Velocity P-wave (km/s) = 5.10217 5.50236 5.30604
#
# Compressibility (1/GPa) = 0.03466141
#
# Stress axis : x y z
#
# Youngs Moduli (GPa) = 78.80046 57.92690 70.35190
#
# Poissons Ratio (x) = -0.02427 0.25507
# Poissons Ratio (y) = -0.03302 0.10880
# Poissons Ratio (z) = 0.28570 0.08958
#
# Static dielectric constant tensor:
#      x y z
#    x 1.811310 0.000000 0.000000 
#    y 0.000000 1.826970 0.000000 
#    z 0.000000 0.000000 1.858760 
# 
# From -- ./inp_files/2390.got.cif
#   From: 2010.05.17/outbox.cif.g08.bks.cpg/sg32_2_cif.got.tgz:2390.got - 2010.06.03 17:12:27.
