data_PCOD9343733
_publ_section_title
;
Structure prediction by ZEFSAII (Michael W. Deem and Ramdas Pophale) SiO2 
 PCOD9343733
Probable space group: P B A 2
;
_chemical_formula_sum "Si O2"
_cell_formula_units_Z 32
_cell_length_a 30.057399
_cell_length_b 5.417966
_cell_length_c 8.518105
_cell_angle_alpha 90.000000
_cell_angle_beta 90.000000
_cell_angle_gamma 90.000000
_cell_volume 1387.173108
_symmetry_space_group_name_H-M "P B A 2"
_symmetry_group_IT_number 32
_symmetry_cell_setting 'orthorhombic'
loop_
_space_group_symop_operation_xyz
x,y,z
-x,-y,z
1/2-x,1/2+y,z
1/2+x,1/2-y,z
loop_
_atom_site_type_symbol
_atom_site_label
_atom_site_fract_x
_atom_site_fract_y
_atom_site_fract_z
Si Si1 0.858761 0.412693 0.751480
Si Si2 0.770866 0.608759 0.168762
Si Si3 0.043395 0.164839 0.639933
Si Si4 0.385796 0.355422 0.459943
Si Si5 0.633343 0.293850 0.212825
Si Si6 0.450759 0.996388 0.347309
Si Si7 0.604662 0.424097 0.872473
Si Si8 0.763542 0.182229 0.809614
O O1 0.863965 0.359711 0.564393
O O2 0.865314 0.696159 0.798896
O O3 0.812488 0.296127 0.807323
O O4 0.892788 0.217151 0.830396
O O5 0.750481 0.358831 0.236448
O O6 0.824093 0.619918 0.185332
O O7 0.755586 0.627365 0.984466
O O8 0.042658 0.400844 0.527668
O O9 0.055651 0.178980 0.823315
O O10 0.088600 0.033290 0.579765
O O11 0.000000 0.000000 0.613580
O O12 0.354413 0.507927 0.346726
O O13 0.427019 0.258139 0.356927
O O14 0.587624 0.165989 0.268543
O O15 0.620854 0.419358 0.050374
O O16 0.500000 0.000000 0.276429
O O17 0.736043 0.409126 0.734316
#
# Coordination Sequence:
#
# PCOD9343733 Si02
#       8
#     4   4   4   4   4   4   4   4
#     4  11  22  42  68  97 128 175 235 283 343 423
#     4  10  21  39  64  93 132 182 227 276 352 430
#     4  10  20  40  64  95 126 173 233 285 338 415
#     4  10  23  41  66  93 135 180 227 282 349 420
#     4  11  26  41  66 106 140 185 232 298 365 437
#     4  11  22  43  70  93 136 189 236 282 357 434
#     4  11  23  40  66  99 132 173 226 294 350 410
#     4  10  19  35  61  92 123 167 219 279 337 408
#
# _framework density 23.068498999999999
#
# number of rings (size 3 to 8) (size 9 to 14) (size 15 to 20)
#    0.000    1.500    2.500    3.750    3.500    0.000 
#    2.250    1.875    0.000    0.000    0.000    0.000 
#    0.000    0.000    0.000    0.000    0.000    0.000 
#
# Total GULP energy -178227.317150 kJ/mol
# GULP energy per Si atom -5569.603661 kJ/mol
# Density = 2.301599 g / cm^3
# Si number density = 23.068499 Si / 1000 Ang^3
#
#
#
# Elastic Constant Matrix: (Units=GPa)
#
#
# Indices 1 2 3 4 5 6 
#
# 1 87.1851 5.9380 13.1190 0.0000 0.0000 0.0000
# 2 5.9380 99.2892 0.4437 0.0000 0.0000 0.0000
# 3 13.1190 0.4437 43.8346 0.0000 0.0000 0.0000
# 4 0.0000 0.0000 0.0000 12.4171 0.0000 0.0000
# 5 0.0000 0.0000 0.0000 0.0000 17.4649 0.0000
# 6 0.0000 0.0000 0.0000 0.0000 0.0000 38.4496
#
#
#
# Elastic Compliance Matrix: (Units=1/GPa)
#
#
# Indices 1 2 3 4 5 6 
#
# 1 0.012060 -0.000705 -0.003602 0.000000 0.000000 0.000000
# 2 -0.000705 0.010113 0.000109 0.000000 0.000000 0.000000
# 3 -0.003602 0.000109 0.023890 0.000000 0.000000 0.000000
# 4 0.000000 0.000000 0.000000 0.080534 0.000000 0.000000
# 5 0.000000 0.000000 0.000000 0.000000 0.057258 0.000000
# 6 0.000000 0.000000 0.000000 0.000000 0.000000 0.026008
#
#
# Mechanical properties :
#
#
# Convention : Reuss Voigt Hill
#
# Bulk Modulus (GPa) = 26.54927 29.92336 28.23631
# Shear Modulus (GPa) = 21.66235 27.72022 24.69129
#
# Velocity S-wave (km/s) = 3.06771 3.47024 3.27516
# Velocity P-wave (km/s) = 4.90730 5.39040 5.15452
#
# Compressibility (1/GPa) = 0.03766583
#
# Stress axis : x y z
#
# Youngs Moduli (GPa) = 82.91934 98.87993 41.85855
#
# Poissons Ratio (x) = 0.06972 0.15078
# Poissons Ratio (y) = 0.05847 -0.00455
# Poissons Ratio (z) = 0.29869 -0.01074
#
# Static dielectric constant tensor:
#      x y z
#    x 2.092570 0.000000 0.000000 
#    y 0.000000 1.990920 0.000000 
#    z 0.000000 0.000000 2.051600 
# 
# From -- ./inp_files/2070.got.cif
#   From: 2010.05.17/outbox.cif.g08.bks.cpg/sg32_2_cif.got.tgz:2070.got - 2010.06.03 17:12:27.
