data_PCOD9343897
_publ_section_title
;
Structure prediction by ZEFSAII (Michael W. Deem and Ramdas Pophale) SiO2 
 PCOD9343897
Probable space group: P B A 2
;
_chemical_formula_sum "Si O2"
_cell_formula_units_Z 20
_cell_length_a 17.197019
_cell_length_b 8.222006
_cell_length_c 5.399767
_cell_angle_alpha 90.000000
_cell_angle_beta 90.000000
_cell_angle_gamma 90.000000
_cell_volume 763.494620
_symmetry_space_group_name_H-M "P B A 2"
_symmetry_group_IT_number 32
_symmetry_cell_setting 'orthorhombic'
loop_
_space_group_symop_operation_xyz
x,y,z
-x,-y,z
1/2-x,1/2+y,z
1/2+x,1/2-y,z
loop_
_atom_site_type_symbol
_atom_site_label
_atom_site_fract_x
_atom_site_fract_y
_atom_site_fract_z
Si Si1 0.303419 0.991008 0.610990
Si Si2 0.000000 0.500000 0.194565
Si Si3 0.500000 0.500000 0.080896
Si Si4 0.747766 0.609501 0.113773
Si Si5 0.390784 0.733725 0.352078
Si Si6 0.603218 0.777506 0.888080
O O1 0.360084 0.147461 0.636536
O O2 0.249351 0.993941 0.368361
O O3 0.345786 0.813506 0.587453
O O4 0.255946 0.990981 0.862177
O O5 0.034954 0.354263 0.348458
O O6 0.067166 0.566565 0.020323
O O7 0.431581 0.569191 0.260019
O O8 0.537047 0.639203 0.903707
O O9 0.826410 0.714738 0.148521
O O10 0.671712 0.712651 0.063266
#
# Coordination Sequence:
#
# PCOD9343897 Si02
#       6
#     4   2   2   4   4   4
#     4  10  23  46  76 104 148 211 264 311 395 487
#     4  10  20  44  74 104 146 210 240 312 398 484
#     4  10  24  44  76 122 170 190 270 352 400 454
#     4  10  24  43  78 104 145 202 277 312 377 477
#     4   9  22  43  74 110 153 201 263 315 400 469
#     4  11  23  44  80 109 159 205 268 324 398 479
#
# _framework density 26.195339000000001
#
# number of rings (size 3 to 8) (size 9 to 14) (size 15 to 20)
#    1.200    0.800    2.000    0.000    2.800    5.600 
#    0.000    3.000    8.800    0.000    0.000    0.000 
#    0.000    0.000    0.000    0.000    0.000    0.000 
#
# Total GULP energy -111609.937879 kJ/mol
# GULP energy per Si atom -5580.496894 kJ/mol
# Density = 2.613572 g / cm^3
# Si number density = 26.195339 Si / 1000 Ang^3
#
#
#
# Elastic Constant Matrix: (Units=GPa)
#
#
# Indices 1 2 3 4 5 6 
#
# 1 104.1844 37.1067 35.5400 0.0000 0.0000 0.0000
# 2 37.1067 123.3095 44.6439 0.0000 0.0000 0.0000
# 3 35.5400 44.6439 158.0462 0.0000 0.0000 0.0000
# 4 0.0000 0.0000 0.0000 40.7515 0.0000 0.0000
# 5 0.0000 0.0000 0.0000 0.0000 21.0245 0.0000
# 6 0.0000 0.0000 0.0000 0.0000 0.0000 64.9281
#
#
#
# Elastic Compliance Matrix: (Units=1/GPa)
#
#
# Indices 1 2 3 4 5 6 
#
# 1 0.011164 -0.002730 -0.001739 0.000000 0.000000 0.000000
# 2 -0.002730 0.009701 -0.002126 0.000000 0.000000 0.000000
# 3 -0.001739 -0.002126 0.007319 0.000000 0.000000 0.000000
# 4 0.000000 0.000000 0.000000 0.024539 0.000000 0.000000
# 5 0.000000 0.000000 0.000000 0.000000 0.047564 0.000000
# 6 0.000000 0.000000 0.000000 0.000000 0.000000 0.015402
#
#
# Mechanical properties :
#
#
# Convention : Reuss Voigt Hill
#
# Bulk Modulus (GPa) = 66.69828 68.90236 67.80032
# Shear Modulus (GPa) = 37.34772 43.22412 40.28592
#
# Velocity S-wave (km/s) = 3.77999 4.06651 3.92587
# Velocity P-wave (km/s) = 6.67595 6.95766 6.81826
#
# Compressibility (1/GPa) = 0.01499289
#
# Stress axis : x y z
#
# Youngs Moduli (GPa) = 89.57400 103.08220 136.62964
#
# Poissons Ratio (x) = 0.28139 0.23765
# Poissons Ratio (y) = 0.24452 0.29053
# Poissons Ratio (z) = 0.15580 0.21920
#
# Static dielectric constant tensor:
#      x y z
#    x 2.095210 0.000000 0.000000 
#    y 0.000000 2.133020 0.000000 
#    z 0.000000 0.000000 2.054830 
# 
# From -- ./inp_files/1405.got.cif
#   From: 2010.05.17/outbox.cif.g08.bks.cpg/sg32_1_cif.got.tgz:1405.got - 2010.06.03 17:12:27.
