data_PCOD9343010
_publ_section_title
;
Structure prediction by ZEFSAII (Michael W. Deem and Ramdas Pophale) SiO2 
 PCOD9343010
Probable space group: P M N 21
;
_chemical_formula_sum "Si O2"
_cell_formula_units_Z 32
_cell_length_a 7.870722
_cell_length_b 15.681593
_cell_length_c 11.672116
_cell_angle_alpha 90.000000
_cell_angle_beta 90.000000
_cell_angle_gamma 90.000000
_cell_volume 1440.636275
_symmetry_space_group_name_H-M "P M N 21"
_symmetry_group_IT_number 31
_symmetry_cell_setting 'orthorhombic'
loop_
_space_group_symop_operation_xyz
x,y,z
1/2-x,-y,1/2+z
-x,y,z
1/2+x,-y,1/2+z
loop_
_atom_site_type_symbol
_atom_site_label
_atom_site_fract_x
_atom_site_fract_y
_atom_site_fract_z
Si Si1 0.196272 0.202486 0.061540
Si Si2 0.801475 0.649216 0.397118
Si Si3 0.708376 0.656445 0.730953
Si Si4 0.808324 0.980671 0.502458
Si Si5 0.704414 0.947521 0.246991
Si Si6 0.706395 0.757801 0.196730
Si Si7 0.800329 0.490989 0.057778
Si Si8 0.696930 0.670247 0.983825
O O1 0.255794 0.253650 0.173230
O O2 0.300468 0.120741 0.025267
O O3 0.000000 0.175619 0.073694
O O4 0.206851 0.276442 0.966851
O O5 0.776934 0.678494 0.268160
O O6 0.726882 0.559984 0.438535
O O7 0.000000 0.649756 0.426271
O O8 0.500000 0.652959 0.727092
O O9 0.762812 0.575861 0.654080
O O10 0.774149 0.655743 0.859487
O O11 0.745228 0.990801 0.370368
O O12 0.000000 0.013730 0.499761
O O13 0.731319 0.016902 0.623061
O O14 0.500000 0.949474 0.241129
O O15 0.759827 0.848292 0.248589
O O16 0.500000 0.754492 0.200106
O O17 0.764845 0.743804 0.066328
O O18 0.000000 0.506374 0.076106
O O19 0.707930 0.580416 0.049104
O O20 0.500000 0.691427 0.963429
#
# Coordination Sequence:
#
# PCOD9343010 Si02
#       8
#     4   4   4   4   4   4   4   4
#     4  10  19  36  62  87 114 152 193 241 305 360
#     4  11  21  35  59  86 113 148 196 245 288 348
#     4   8  18  36  56  79 111 150 194 239 292 363
#     4  11  23  39  63  97 127 163 213 261 314 381
#     4  10  23  42  63  90 129 170 212 262 319 383
#     4  10  21  38  60  85 118 159 199 244 304 364
#     4  10  21  37  56  82 115 154 195 240 301 361
#     4  10  21  37  57  84 115 152 200 250 299 358
#
# _framework density 22.212406999999999
#
# number of rings (size 3 to 8) (size 9 to 14) (size 15 to 20)
#    0.000    2.000    1.250    3.000    1.750    2.500 
#    0.000    5.625    0.000    0.000    0.000    0.000 
#    0.000    0.000    0.000    0.000    0.000    0.000 
#
# Total GULP energy -178469.417308 kJ/mol
# GULP energy per Si atom -5577.169291 kJ/mol
# Density = 2.216185 g / cm^3
# Si number density = 22.212407 Si / 1000 Ang^3
#
#
#
# Elastic Constant Matrix: (Units=GPa)
#
#
# Indices 1 2 3 4 5 6 
#
# 1 35.3020 -9.8057 10.4342 0.0000 0.0000 0.0000
# 2 -9.8057 29.8824 28.7203 0.0000 0.0000 0.0000
# 3 10.4342 28.7203 164.7291 0.0000 0.0000 0.0000
# 4 0.0000 0.0000 0.0000 24.4179 0.0000 0.0000
# 5 0.0000 0.0000 0.0000 0.0000 16.1520 0.0000
# 6 0.0000 0.0000 0.0000 0.0000 0.0000 3.9776
#
#
#
# Elastic Compliance Matrix: (Units=1/GPa)
#
#
# Indices 1 2 3 4 5 6 
#
# 1 0.034237 0.016000 -0.004958 0.000000 0.000000 0.000000
# 2 0.016000 0.047678 -0.009326 0.000000 0.000000 0.000000
# 3 -0.004958 -0.009326 0.008011 0.000000 0.000000 0.000000
# 4 0.000000 0.000000 0.000000 0.040954 0.000000 0.000000
# 5 0.000000 0.000000 0.000000 0.000000 0.061912 0.000000
# 6 0.000000 0.000000 0.000000 0.000000 0.000000 0.251409
#
#
# Mechanical properties :
#
#
# Convention : Reuss Voigt Hill
#
# Bulk Modulus (GPa) = 10.71160 32.06789 21.38974
# Shear Modulus (GPa) = 10.59575 22.28047 16.43811
#
# Velocity S-wave (km/s) = 2.18645 3.17056 2.72332
# Velocity P-wave (km/s) = 3.34767 5.27935 4.42032
#
# Compressibility (1/GPa) = 0.09335676
#
# Stress axis : x y z
#
# Youngs Moduli (GPa) = 29.20840 20.97397 124.83430
#
# Poissons Ratio (x) = -0.33558 0.61895
# Poissons Ratio (y) = -0.46733 1.16421
# Poissons Ratio (z) = 0.14482 0.19560
#
# Static dielectric constant tensor:
#      x y z
#    x 1.737590 0.000000 0.000000 
#    y 0.000000 1.772120 0.000000 
#    z 0.000000 0.000000 1.913630 
# 
# From -- ./inp_files/3728.got.cif
#   From: 2010.05.17/outbox.cif.g08.bks.cpg/sg31_2_cif.got.tgz:3728.got - 2010.06.03 17:08:30.
