data_PCOD9343545
_publ_section_title
;
Structure prediction by ZEFSAII (Michael W. Deem and Ramdas Pophale) SiO2 
 PCOD9343545
Probable space group: P M N 21
;
_chemical_formula_sum "Si O2"
_cell_formula_units_Z 32
_cell_length_a 34.265214
_cell_length_b 9.947349
_cell_length_c 5.022108
_cell_angle_alpha 90.000000
_cell_angle_beta 90.000000
_cell_angle_gamma 90.000000
_cell_volume 1711.775680
_symmetry_space_group_name_H-M "P M N 21"
_symmetry_group_IT_number 31
_symmetry_cell_setting 'orthorhombic'
loop_
_space_group_symop_operation_xyz
x,y,z
1/2-x,-y,1/2+z
-x,y,z
1/2+x,-y,1/2+z
loop_
_atom_site_type_symbol
_atom_site_label
_atom_site_fract_x
_atom_site_fract_y
_atom_site_fract_z
Si Si1 0.622672 0.838436 0.161140
Si Si2 0.330070 0.760575 0.675375
Si Si3 0.725501 0.999998 0.608754
Si Si4 0.330070 0.239422 0.542124
Si Si5 0.456801 0.902854 0.361374
Si Si6 0.877328 0.838437 0.556359
Si Si7 0.222262 0.500001 0.108744
Si Si8 0.956801 0.902855 0.356125
O O1 0.652909 0.792888 0.385222
O O2 0.579533 0.810632 0.279700
O O3 0.624775 1.000000 0.108747
O O4 0.635016 0.766943 0.888812
O O5 0.305468 0.624963 0.679471
O O6 0.300839 0.883287 0.734471
O O7 0.699160 0.116707 0.483034
O O8 0.750000 0.944473 0.358755
O O9 0.364984 0.233054 0.328688
O O10 0.305468 0.375033 0.538022
O O11 0.347091 0.207113 0.832279
O O12 0.500000 0.843290 0.415164
O O13 0.446242 0.999999 0.608750
O O14 0.460806 1.000000 0.108750
O O15 0.920467 0.810632 0.437799
O O16 0.250000 0.532628 0.358743
O O17 0.000000 0.843291 0.302334
#
# Coordination Sequence:
#
# PCOD9343545 Si02
#       8
#     4   4   4   4   4   4   4   4
#     4  11  19  35  56  87 117 145 184 235 280 334
#     4  12  23  38  59  83 109 149 186 237 287 335
#     4  12  22  36  54  80 103 134 179 230 288 340
#     4  12  23  38  59  83 109 149 186 237 287 335
#     4   9  17  29  49  81 121 156 181 218 278 337
#     4  11  19  35  56  87 117 145 184 235 280 334
#     4  12  26  46  60  78 111 150 195 242 284 346
#     4   9  17  29  49  81 121 156 181 218 278 337
#
# _framework density 18.694040000000001
#
# number of rings (size 3 to 8) (size 9 to 14) (size 15 to 20)
#    0.000    1.000    2.500    7.500    0.000    0.000 
#    0.000    0.000    0.000    0.000    0.000    5.250 
#    0.000    0.000    0.000    0.000    0.000    0.000 
#
# Total GULP energy -178605.243723 kJ/mol
# GULP energy per Si atom -5581.413866 kJ/mol
# Density = 1.865149 g / cm^3
# Si number density = 18.694040 Si / 1000 Ang^3
#
#
#
# Elastic Constant Matrix: (Units=GPa)
#
#
# Indices 1 2 3 4 5 6 
#
# 1 99.7325 39.7168 11.9446 0.0000 0.0000 0.0000
# 2 39.7168 72.7177 3.4001 0.0000 0.0000 0.0000
# 3 11.9446 3.4001 104.9887 0.0000 0.0000 0.0000
# 4 0.0000 0.0000 0.0000 16.6551 0.0000 0.0000
# 5 0.0000 0.0000 0.0000 0.0000 159.4627 0.0000
# 6 0.0000 0.0000 0.0000 0.0000 0.0000 18.0641
#
#
#
# Elastic Compliance Matrix: (Units=1/GPa)
#
#
# Indices 1 2 3 4 5 6 
#
# 1 0.012975 -0.007028 -0.001249 0.000000 0.000000 0.000000
# 2 -0.007028 0.017580 0.000230 0.000000 0.000000 0.000000
# 3 -0.001249 0.000230 0.009659 0.000000 0.000000 0.000000
# 4 0.000000 0.000000 0.000000 0.060041 0.000000 0.000000
# 5 0.000000 0.000000 0.000000 0.000000 0.006271 0.000000
# 6 0.000000 0.000000 0.000000 0.000000 0.000000 0.055358
#
#
# Mechanical properties :
#
#
# Convention : Reuss Voigt Hill
#
# Bulk Modulus (GPa) = 41.45748 43.06243 42.25996
# Shear Modulus (GPa) = 26.87892 53.66154 40.27023
#
# Velocity S-wave (km/s) = 3.79599 5.36353 4.64634
# Velocity P-wave (km/s) = 6.43721 7.83850 7.17216
#
# Compressibility (1/GPa) = 0.02412110
#
# Stress axis : x y z
#
# Youngs Moduli (GPa) = 77.06932 56.88332 103.52576
#
# Poissons Ratio (x) = 0.39980 0.12926
# Poissons Ratio (y) = 0.54168 -0.02384
# Poissons Ratio (z) = 0.09623 -0.01310
#
# Static dielectric constant tensor:
#      x y z
#    x 1.739180 0.000000 0.000000 
#    y 0.000000 1.622580 0.000000 
#    z 0.000000 0.000000 1.644940 
# 
# From -- ./inp_files/1355.got.cif
#   From: 2010.05.17/outbox.cif.g08.bks.cpg/sg31_1_cif.got.tgz:1355.got - 2010.06.03 17:08:30.
