data_PCOD9343353
_publ_section_title
;
Structure prediction by ZEFSAII (Michael W. Deem and Ramdas Pophale) SiO2 
 PCOD9343353
Probable space group: P M N 21
;
_chemical_formula_sum "Si O2"
_cell_formula_units_Z 32
_cell_length_a 7.644019
_cell_length_b 13.704245
_cell_length_c 13.574421
_cell_angle_alpha 90.000000
_cell_angle_beta 90.000000
_cell_angle_gamma 90.000000
_cell_volume 1421.995383
_symmetry_space_group_name_H-M "P M N 21"
_symmetry_group_IT_number 31
_symmetry_cell_setting 'orthorhombic'
loop_
_space_group_symop_operation_xyz
x,y,z
1/2-x,-y,1/2+z
-x,y,z
1/2+x,-y,1/2+z
loop_
_atom_site_type_symbol
_atom_site_label
_atom_site_fract_x
_atom_site_fract_y
_atom_site_fract_z
Si Si1 0.798384 0.220180 0.176300
Si Si2 0.804215 0.515612 0.936754
Si Si3 0.793792 0.105772 0.986800
Si Si4 0.785231 0.167652 0.770232
Si Si5 0.303029 0.435596 0.130945
Si Si6 0.288188 0.891915 0.055988
Si Si7 0.299597 0.613729 0.244838
Si Si8 0.711079 0.738635 0.892368
O O1 0.792073 0.334144 0.147149
O O2 0.723376 0.217292 0.287719
O O3 0.000000 0.187197 0.184870
O O4 0.718904 0.161653 0.083421
O O5 0.806519 0.438192 0.849369
O O6 0.756216 0.624324 0.902099
O O7 0.000000 0.521046 0.977378
O O8 0.685577 0.467944 0.018986
O O9 0.724325 0.132065 0.877774
O O10 0.000000 0.131900 0.984020
O O11 0.772460 0.991577 0.006312
O O12 0.731196 0.112291 0.670374
O O13 0.726306 0.278970 0.753309
O O14 0.000000 0.165553 0.772687
O O15 0.215120 0.529895 0.179749
O O16 0.000000 0.577196 0.673173
O O17 0.500000 0.890521 0.056457
O O18 0.230583 0.800832 0.987575
O O19 0.500000 0.626812 0.206086
O O20 0.500000 0.743598 0.889476
#
# Coordination Sequence:
#
# PCOD9343353 Si02
#       8
#     4   4   4   4   4   4   4   4
#     4  10  21  38  59  85 119 157 197 245 300 357
#     4  11  21  35  57  87 120 157 197 240 288 346
#     4  10  22  39  61  86 113 152 197 246 302 356
#     4   9  18  36  58  81 112 150 193 235 286 355
#     4  11  21  35  57  87 120 157 197 240 288 346
#     4  10  22  39  61  86 113 152 197 246 302 356
#     4   9  18  34  56  81 112 150 191 231 278 343
#     4  10  21  38  59  85 119 157 197 245 300 357
#
# _framework density 22.503588000000001
#
# number of rings (size 3 to 8) (size 9 to 14) (size 15 to 20)
#    0.000    2.000    1.250    2.250    1.750    5.000 
#    0.000    0.000    0.000    3.000    0.000    0.000 
#    0.000    0.000    0.000    0.000    0.000    0.000 
#
# Total GULP energy -178562.397464 kJ/mol
# GULP energy per Si atom -5580.074921 kJ/mol
# Density = 2.245237 g / cm^3
# Si number density = 22.503588 Si / 1000 Ang^3
#
#
#
# Elastic Constant Matrix: (Units=GPa)
#
#
# Indices 1 2 3 4 5 6 
#
# 1 49.4346 -12.2149 9.3042 0.0000 0.0000 0.0000
# 2 -12.2149 72.8909 11.4934 0.0000 0.0000 0.0000
# 3 9.3042 11.4934 113.4329 0.0000 0.0000 0.0000
# 4 0.0000 0.0000 0.0000 40.0668 0.0000 0.0000
# 5 0.0000 0.0000 0.0000 0.0000 7.3181 0.0000
# 6 0.0000 0.0000 0.0000 0.0000 0.0000 29.4713
#
#
#
# Elastic Compliance Matrix: (Units=1/GPa)
#
#
# Indices 1 2 3 4 5 6 
#
# 1 0.021618 0.003966 -0.002175 0.000000 0.000000 0.000000
# 2 0.003966 0.014669 -0.001812 0.000000 0.000000 0.000000
# 3 -0.002175 -0.001812 0.009178 0.000000 0.000000 0.000000
# 4 0.000000 0.000000 0.000000 0.024958 0.000000 0.000000
# 5 0.000000 0.000000 0.000000 0.000000 0.136648 0.000000
# 6 0.000000 0.000000 0.000000 0.000000 0.000000 0.033931
#
#
# Mechanical properties :
#
#
# Convention : Reuss Voigt Hill
#
# Bulk Modulus (GPa) = 22.01522 28.10264 25.05893
# Shear Modulus (GPa) = 19.51706 30.51628 25.01667
#
# Velocity S-wave (km/s) = 2.94817 3.68647 3.33780
# Velocity P-wave (km/s) = 4.62527 5.53491 5.10041
#
# Compressibility (1/GPa) = 0.04542313
#
# Stress axis : x y z
#
# Youngs Moduli (GPa) = 46.25780 68.16938 108.95925
#
# Poissons Ratio (x) = -0.27034 0.23699
# Poissons Ratio (y) = -0.18344 0.19739
# Poissons Ratio (z) = 0.10061 0.12350
#
# Static dielectric constant tensor:
#      x y z
#    x 1.868750 0.000000 0.000000 
#    y 0.000000 1.770460 0.000000 
#    z 0.000000 0.000000 1.809990 
# 
# From -- ./inp_files/3698.got.cif
#   From: 2010.05.17/outbox.cif.g08.bks.cpg/sg31_2_cif.got.tgz:3698.got - 2010.06.03 17:08:30.
