data_PCOD9343431
_publ_section_title
;
Structure prediction by ZEFSAII (Michael W. Deem and Ramdas Pophale) SiO2 
 PCOD9343431
Probable space group: P M N 21
;
_chemical_formula_sum "Si O2"
_cell_formula_units_Z 24
_cell_length_a 11.611114
_cell_length_b 17.041610
_cell_length_c 5.048110
_cell_angle_alpha 90.000000
_cell_angle_beta 90.000000
_cell_angle_gamma 90.000000
_cell_volume 998.880008
_symmetry_space_group_name_H-M "P M N 21"
_symmetry_group_IT_number 31
_symmetry_cell_setting 'orthorhombic'
loop_
_space_group_symop_operation_xyz
x,y,z
1/2-x,-y,1/2+z
-x,y,z
1/2+x,-y,1/2+z
loop_
_atom_site_type_symbol
_atom_site_label
_atom_site_fract_x
_atom_site_fract_y
_atom_site_fract_z
Si Si1 0.784080 0.960646 0.799510
Si Si2 0.129375 0.673187 0.515267
Si Si3 0.000000 0.142077 0.029334
Si Si4 0.500000 0.971082 0.039187
Si Si5 0.126997 0.334389 0.700117
Si Si6 0.317777 0.495103 0.214240
Si Si7 0.212332 0.211715 0.284177
O O1 0.750356 0.873450 0.886042
O O2 0.696951 0.993345 0.573475
O O3 0.894019 0.973193 0.612222
O O4 0.126806 0.588946 0.660563
O O5 0.170539 0.743741 0.703994
O O6 0.000000 0.686511 0.404027
O O7 0.246156 0.668988 0.338077
O O8 0.000000 0.079882 0.273113
O O9 0.119308 0.190584 0.056598
O O10 0.000000 0.097781 0.755467
O O11 0.123922 0.425545 0.610116
O O12 0.142261 0.269899 0.472950
O O13 0.000000 0.323689 0.829013
O O14 0.296191 0.505427 0.526999
#
# Coordination Sequence:
#
# PCOD9343431 Si02
#       7
#     4   4   2   2   4   4   4
#     4  12  26  46  71 102 139 187 237 295 373 444
#     4  11  27  48  70 106 156 202 246 309 385 455
#     4  12  26  44  82 102 144 180 252 320 374 428
#     4  12  24  50  70 106 138 192 238 310 374 454
#     4  11  25  45  75 110 144 194 261 316 370 442
#     4  10  21  47  74 108 148 199 252 311 378 447
#     4  12  26  44  72 109 143 191 248 314 370 445
#
# _framework density 24.026907000000001
#
# number of rings (size 3 to 8) (size 9 to 14) (size 15 to 20)
#    0.000    0.667    5.833    0.500    7.000    0.667 
#    0.000    4.167    0.000    0.000    0.000    0.000 
#    0.000    0.000    0.000    0.000    0.000    0.000 
#
# Total GULP energy -133729.495670 kJ/mol
# GULP energy per Si atom -5572.062320 kJ/mol
# Density = 2.397222 g / cm^3
# Si number density = 24.026907 Si / 1000 Ang^3
#
#
#
# Elastic Constant Matrix: (Units=GPa)
#
#
# Indices 1 2 3 4 5 6 
#
# 1 174.5551 38.5190 26.3195 0.0000 0.0000 0.0000
# 2 38.5190 162.3175 22.8098 0.0000 0.0000 0.0000
# 3 26.3195 22.8098 74.5037 0.0000 0.0000 0.0000
# 4 0.0000 0.0000 0.0000 33.4060 0.0000 0.0000
# 5 0.0000 0.0000 0.0000 0.0000 22.9286 0.0000
# 6 0.0000 0.0000 0.0000 0.0000 0.0000 -450.6724
#
#
#
# Elastic Compliance Matrix: (Units=1/GPa)
#
#
# Indices 1 2 3 4 5 6 
#
# 1 0.006278 -0.001231 -0.001841 0.000000 0.000000 0.000000
# 2 -0.001231 0.006679 -0.001610 0.000000 0.000000 0.000000
# 3 -0.001841 -0.001610 0.014565 0.000000 0.000000 0.000000
# 4 0.000000 0.000000 0.000000 0.029935 0.000000 0.000000
# 5 0.000000 0.000000 0.000000 0.000000 0.043614 0.000000
# 6 0.000000 0.000000 0.000000 0.000000 0.000000 -0.002219
#
#
# Mechanical properties :
#
#
# Convention : Reuss Voigt Hill
#
# Bulk Modulus (GPa) = 55.07022 65.18590 60.12806
# Shear Modulus (GPa) = 43.75641 -57.28570 -6.76464
#
# Velocity S-wave (km/s) = 4.27211 -4.88816 -1.67975
# Velocity P-wave (km/s) = 6.87783 2.16090 4.61709
#
# Compressibility (1/GPa) = 0.01815864
#
# Stress axis : x y z
#
# Youngs Moduli (GPa) = 159.28389 149.71933 68.65596
#
# Poissons Ratio (x) = 0.18433 0.12639
# Poissons Ratio (y) = 0.19610 0.11053
# Poissons Ratio (z) = 0.29323 0.24104
#
# Static dielectric constant tensor:
#      x y z
#    x 2.051500 0.000000 0.000000 
#    y 0.000000 1.940610 0.000000 
#    z 0.000000 0.000000 1.978220 
# 
# From -- ./inp_files/388.got.cif
#   From: 2010.05.17/outbox.cif.g08.bks.cpg/sg31_1_cif.got.tgz:388.got - 2010.06.03 17:08:30.
