data_PCOD9343091
_publ_section_title
;
Structure prediction by ZEFSAII (Michael W. Deem and Ramdas Pophale) SiO2 
 PCOD9343091
Probable space group: P M N 21
;
_chemical_formula_sum "Si O2"
_cell_formula_units_Z 32
_cell_length_a 8.283561
_cell_length_b 17.017781
_cell_length_c 10.657369
_cell_angle_alpha 90.000000
_cell_angle_beta 90.000000
_cell_angle_gamma 90.000000
_cell_volume 1502.346149
_symmetry_space_group_name_H-M "P M N 21"
_symmetry_group_IT_number 31
_symmetry_cell_setting 'orthorhombic'
loop_
_space_group_symop_operation_xyz
x,y,z
1/2-x,-y,1/2+z
-x,y,z
1/2+x,-y,1/2+z
loop_
_atom_site_type_symbol
_atom_site_label
_atom_site_fract_x
_atom_site_fract_y
_atom_site_fract_z
Si Si1 0.694211 0.521353 0.355410
Si Si2 0.314233 0.925226 0.090500
Si Si3 0.308911 0.738309 0.702798
Si Si4 0.319219 0.155744 0.819946
Si Si5 0.691422 0.422657 0.122292
Si Si6 0.313710 0.098275 0.100917
Si Si7 0.197232 0.233992 0.478651
Si Si8 0.305464 0.688219 0.239885
O O1 0.500000 0.516173 0.360700
O O2 0.754431 0.455225 0.257258
O O3 0.750427 0.529601 0.499448
O O4 0.739858 0.602368 0.285103
O O5 0.500000 0.939290 0.051344
O O6 0.305334 0.883200 0.224843
O O7 0.239341 0.011096 0.110218
O O8 0.247453 0.856646 0.999883
O O9 0.500000 0.726174 0.700271
O O10 0.234302 0.669548 0.618479
O O11 0.272883 0.827522 0.662314
O O12 0.248014 0.732307 0.846329
O O13 0.500000 0.147523 0.766523
O O14 0.274000 0.246688 0.828237
O O15 0.315875 0.116118 0.953544
O O16 0.500000 0.431339 0.123843
O O17 0.500000 0.096893 0.147635
O O18 0.243438 0.286711 0.598501
O O19 0.000000 0.231282 0.477764
O O20 0.500000 0.694373 0.246937
#
# Coordination Sequence:
#
# PCOD9343091 Si02
#       8
#     4   4   4   4   4   4   4   4
#     4  10  23  42  67  96 125 164 211 257 309 376
#     4   9  19  37  57  79 111 153 194 241 299 358
#     4  11  23  38  62  89 121 163 208 252 305 374
#     4  10  20  34  54  81 110 142 186 238 292 354
#     4  11  25  43  65  95 133 168 207 263 318 372
#     4  10  22  37  56  80 115 154 192 245 306 358
#     4   8  17  34  59  85 112 153 199 245 297 359
#     4   9  18  37  62  83 111 151 197 241 296 361
#
# _framework density 21.300018999999999
#
# number of rings (size 3 to 8) (size 9 to 14) (size 15 to 20)
#    0.000    2.250    0.000    2.625    3.500    5.000 
#    0.000    5.000    0.000    0.000    0.000    0.000 
#    0.000    0.000    0.000    0.000    0.000    0.000 
#
# Total GULP energy -178481.465456 kJ/mol
# GULP energy per Si atom -5577.545795 kJ/mol
# Density = 2.125154 g / cm^3
# Si number density = 21.300019 Si / 1000 Ang^3
#
#
#
# Elastic Constant Matrix: (Units=GPa)
#
#
# Indices 1 2 3 4 5 6 
#
# 1 22.2555 8.8572 13.9583 0.0000 0.0000 0.0000
# 2 8.8572 84.9646 32.6295 0.0000 0.0000 0.0000
# 3 13.9583 32.6295 89.7285 0.0000 0.0000 0.0000
# 4 0.0000 0.0000 0.0000 21.5254 0.0000 0.0000
# 5 0.0000 0.0000 0.0000 0.0000 17.0806 0.0000
# 6 0.0000 0.0000 0.0000 0.0000 0.0000 3.7417
#
#
#
# Elastic Compliance Matrix: (Units=1/GPa)
#
#
# Indices 1 2 3 4 5 6 
#
# 1 0.050280 -0.002601 -0.006876 0.000000 0.000000 0.000000
# 2 -0.002601 0.013815 -0.004619 0.000000 0.000000 0.000000
# 3 -0.006876 -0.004619 0.013894 0.000000 0.000000 0.000000
# 4 0.000000 0.000000 0.000000 0.046457 0.000000 0.000000
# 5 0.000000 0.000000 0.000000 0.000000 0.058546 0.000000
# 6 0.000000 0.000000 0.000000 0.000000 0.000000 0.267258
#
#
# Mechanical properties :
#
#
# Convention : Reuss Voigt Hill
#
# Bulk Modulus (GPa) = 20.08138 34.20429 27.14284
# Shear Modulus (GPa) = 10.10019 17.90311 14.00165
#
# Velocity S-wave (km/s) = 2.17995 2.90232 2.56667
# Velocity P-wave (km/s) = 3.97298 5.22728 4.64268
#
# Compressibility (1/GPa) = 0.04979738
#
# Stress axis : x y z
#
# Youngs Moduli (GPa) = 19.88847 72.38711 71.97319
#
# Poissons Ratio (x) = 0.18827 0.49488
# Poissons Ratio (y) = 0.05173 0.33245
# Poissons Ratio (z) = 0.13675 0.33436
#
# Static dielectric constant tensor:
#      x y z
#    x 1.778620 0.000000 0.000000 
#    y 0.000000 1.802580 0.000000 
#    z 0.000000 0.000000 1.777660 
# 
# From -- ./inp_files/3750.got.cif
#   From: 2010.05.17/outbox.cif.g08.bks.cpg/sg31_2_cif.got.tgz:3750.got - 2010.06.03 17:08:30.
