data_PCOD9343047
_publ_section_title
;
Structure prediction by ZEFSAII (Michael W. Deem and Ramdas Pophale) SiO2 
 PCOD9343047
Probable space group: P M N 21
;
_chemical_formula_sum "Si O2"
_cell_formula_units_Z 32
_cell_length_a 7.497042
_cell_length_b 25.580154
_cell_length_c 7.681081
_cell_angle_alpha 90.000000
_cell_angle_beta 90.000000
_cell_angle_gamma 90.000000
_cell_volume 1473.043064
_symmetry_space_group_name_H-M "P M N 21"
_symmetry_group_IT_number 31
_symmetry_cell_setting 'orthorhombic'
loop_
_space_group_symop_operation_xyz
x,y,z
1/2-x,-y,1/2+z
-x,y,z
1/2+x,-y,1/2+z
loop_
_atom_site_type_symbol
_atom_site_label
_atom_site_fract_x
_atom_site_fract_y
_atom_site_fract_z
Si Si1 0.787965 0.560643 0.564550
Si Si2 0.781226 0.246717 0.783201
Si Si3 0.781002 0.166231 0.487057
Si Si4 0.713777 0.555198 0.967397
Si Si5 0.285296 0.058904 0.100685
Si Si6 0.792513 0.364440 0.753862
Si Si7 0.202082 0.054358 0.498849
Si Si8 0.288630 0.827139 0.588536
O O1 0.749703 0.569054 0.767605
O O2 0.717939 0.503166 0.509771
O O3 0.715688 0.604502 0.435308
O O4 0.000000 0.560623 0.540291
O O5 0.730354 0.212620 0.615250
O O6 0.717575 0.306252 0.770758
O O7 0.000000 0.246911 0.789071
O O8 0.719161 0.216133 0.955695
O O9 0.717292 0.109515 0.558455
O O10 0.719320 0.174491 0.287497
O O11 0.000000 0.163468 0.484396
O O12 0.500000 0.552706 0.991078
O O13 0.784658 0.597681 0.104571
O O14 0.500000 0.057789 0.110101
O O15 0.202893 0.061681 0.291968
O O16 0.237751 0.114096 0.014275
O O17 0.220043 0.003289 0.027409
O O18 0.000000 0.357127 0.707052
O O19 0.000000 0.052176 0.568010
O O20 0.500000 0.818912 0.602572
#
# Coordination Sequence:
#
# PCOD9343047 Si02
#       8
#     4   4   4   4   4   4   4   4
#     4  11  22  36  58  86 118 157 190 228 286 340
#     4   9  18  32  57  82 103 141 189 229 271 319
#     4   8  15  30  49  73 102 131 174 225 265 316
#     4  10  21  36  57  84 117 154 190 236 283 329
#     4  10  20  32  50  77 106 138 173 218 273 327
#     4  10  21  38  58  88 119 147 192 241 279 328
#     4   9  19  33  49  73 105 137 174 220 271 327
#     4   9  18  33  54  77 104 141 178 223 276 324
#
# _framework density 21.723738000000001
#
# number of rings (size 3 to 8) (size 9 to 14) (size 15 to 20)
#    0.000    2.500    1.250    1.500    1.750    3.000 
#    0.000    4.375    0.000    3.000    0.000    0.000 
#    0.000    0.000    0.000    0.000    0.000    0.000 
#
# Total GULP energy -178544.284493 kJ/mol
# GULP energy per Si atom -5579.508890 kJ/mol
# Density = 2.167429 g / cm^3
# Si number density = 21.723738 Si / 1000 Ang^3
#
#
#
# Elastic Constant Matrix: (Units=GPa)
#
#
# Indices 1 2 3 4 5 6 
#
# 1 63.1532 6.7844 -6.3699 0.0000 0.0000 0.0000
# 2 6.7844 244.7225 97.2338 0.0000 0.0000 0.0000
# 3 -6.3699 97.2338 122.2275 0.0000 0.0000 0.0000
# 4 0.0000 0.0000 0.0000 36.0381 0.0000 0.0000
# 5 0.0000 0.0000 0.0000 0.0000 10.1927 0.0000
# 6 0.0000 0.0000 0.0000 0.0000 0.0000 18.4869
#
#
#
# Elastic Compliance Matrix: (Units=1/GPa)
#
#
# Indices 1 2 3 4 5 6 
#
# 1 0.016134 -0.001142 0.001750 0.000000 0.000000 0.000000
# 2 -0.001142 0.006056 -0.004877 0.000000 0.000000 0.000000
# 3 0.001750 -0.004877 0.012152 0.000000 0.000000 0.000000
# 4 0.000000 0.000000 0.000000 0.027748 0.000000 0.000000
# 5 0.000000 0.000000 0.000000 0.000000 0.098109 0.000000
# 6 0.000000 0.000000 0.000000 0.000000 0.000000 0.054092
#
#
# Mechanical properties :
#
#
# Convention : Reuss Voigt Hill
#
# Bulk Modulus (GPa) = 38.75631 69.48887 54.12259
# Shear Modulus (GPa) = 21.60461 35.10719 28.35590
#
# Velocity S-wave (km/s) = 3.15702 4.02440 3.61681
# Velocity P-wave (km/s) = 5.58286 7.32471 6.51228
#
# Compressibility (1/GPa) = 0.02580225
#
# Stress axis : x y z
#
# Youngs Moduli (GPa) = 61.98201 165.13556 82.28907
#
# Poissons Ratio (x) = 0.18866 -0.14398
# Poissons Ratio (y) = 0.07081 0.40131
# Poissons Ratio (z) = -0.10845 0.80535
#
# Static dielectric constant tensor:
#      x y z
#    x 1.838110 0.000000 0.000000 
#    y 0.000000 1.825610 0.000000 
#    z 0.000000 0.000000 1.757860 
# 
# From -- ./inp_files/1893.got.cif
#   From: 2010.05.17/outbox.cif.g08.bks.cpg/sg31_1_cif.got.tgz:1893.got - 2010.06.03 17:08:30.
