data_PCOD9343256
_publ_section_title
;
Structure prediction by ZEFSAII (Michael W. Deem and Ramdas Pophale) SiO2 
 PCOD9343256
Probable space group: P M N 21
;
_chemical_formula_sum "Si O2"
_cell_formula_units_Z 32
_cell_length_a 30.529112
_cell_length_b 4.916924
_cell_length_c 9.204623
_cell_angle_alpha 90.000000
_cell_angle_beta 90.000000
_cell_angle_gamma 90.000000
_cell_volume 1381.699732
_symmetry_space_group_name_H-M "P M N 21"
_symmetry_group_IT_number 31
_symmetry_cell_setting 'orthorhombic'
loop_
_space_group_symop_operation_xyz
x,y,z
1/2-x,-y,1/2+z
-x,y,z
1/2+x,-y,1/2+z
loop_
_atom_site_type_symbol
_atom_site_label
_atom_site_fract_x
_atom_site_fract_y
_atom_site_fract_z
Si Si1 0.252320 0.873874 0.677240
Si Si2 0.550016 0.965128 0.144726
Si Si3 0.287540 0.791130 0.955491
Si Si4 0.124592 0.888814 0.441708
Si Si5 0.661043 0.205073 0.641216
Si Si6 0.550676 0.455319 0.346031
Si Si7 0.324937 0.426074 0.177997
Si Si8 0.136348 0.311543 0.960325
O O1 0.201151 0.843769 0.729420
O O2 0.241692 0.951097 0.507902
O O3 0.292349 0.090222 0.694478
O O4 0.271339 0.674495 0.803979
O O5 0.500000 0.039682 0.112460
O O6 0.551350 0.665378 0.211255
O O7 0.579647 0.998846 0.004075
O O8 0.564057 0.165410 0.277394
O O9 0.286697 0.579206 0.087884
O O10 0.337766 0.882184 0.947488
O O11 0.128307 0.781626 0.278435
O O12 0.139990 0.668311 0.560101
O O13 0.664336 0.496302 0.567027
O O14 0.642398 0.989502 0.522537
O O15 0.500000 0.441576 0.398608
O O16 0.586433 0.575031 0.457030
O O17 0.345460 0.611382 0.301306
#
# Coordination Sequence:
#
# PCOD9343256 Si02
#       8
#     4   4   4   4   4   4   4   4
#     4  10  24  40  57  91 123 168 217 268 324 382
#     4  10  20  38  68 100 127 164 214 271 319 388
#     4  10  23  39  61  88 123 167 213 272 318 380
#     4  10  23  43  60  95 127 170 216 267 327 390
#     4  11  28  42  64  92 139 173 214 271 337 384
#     4  10  21  39  68 101 131 163 216 272 325 389
#     4  11  24  37  71  85 127 172 231 266 324 389
#     4  12  25  44  66  98 129 177 218 271 326 400
#
# _framework density 23.159880999999999
#
# number of rings (size 3 to 8) (size 9 to 14) (size 15 to 20)
#    0.000    1.500    1.250    2.250   12.250    1.000 
#    0.000    1.250    0.000    0.000    0.000    0.000 
#    0.000    0.000    0.000    0.000    0.000    0.000 
#
# Total GULP energy -178338.837945 kJ/mol
# GULP energy per Si atom -5573.088686 kJ/mol
# Density = 2.310717 g / cm^3
# Si number density = 23.159881 Si / 1000 Ang^3
#
#
#
# Elastic Constant Matrix: (Units=GPa)
#
#
# Indices 1 2 3 4 5 6 
#
# 1 73.6866 -0.4895 42.3266 0.0000 0.0000 0.0000
# 2 -0.4895 58.3592 14.4818 0.0000 0.0000 0.0000
# 3 42.3266 14.4818 102.8214 0.0000 0.0000 0.0000
# 4 0.0000 0.0000 0.0000 37.7829 0.0000 0.0000
# 5 0.0000 0.0000 0.0000 0.0000 40.2924 0.0000
# 6 0.0000 0.0000 0.0000 0.0000 0.0000 19.4356
#
#
#
# Elastic Compliance Matrix: (Units=1/GPa)
#
#
# Indices 1 2 3 4 5 6 
#
# 1 0.018010 0.002063 -0.007705 0.000000 0.000000 0.000000
# 2 0.002063 0.017992 -0.003383 0.000000 0.000000 0.000000
# 3 -0.007705 -0.003383 0.013374 0.000000 0.000000 0.000000
# 4 0.000000 0.000000 0.000000 0.026467 0.000000 0.000000
# 5 0.000000 0.000000 0.000000 0.000000 0.024819 0.000000
# 6 0.000000 0.000000 0.000000 0.000000 0.000000 0.051452
#
#
# Mechanical properties :
#
#
# Convention : Reuss Voigt Hill
#
# Bulk Modulus (GPa) = 31.92203 38.61168 35.26686
# Shear Modulus (GPa) = 27.68465 31.40539 29.54502
#
# Velocity S-wave (km/s) = 3.46116 3.68642 3.57557
# Velocity P-wave (km/s) = 5.45767 5.90149 5.68391
#
# Compressibility (1/GPa) = 0.03132633
#
# Stress axis : x y z
#
# Youngs Moduli (GPa) = 55.52386 55.57989 74.77365
#
# Poissons Ratio (x) = -0.11466 0.57609
# Poissons Ratio (y) = -0.11454 0.25298
# Poissons Ratio (z) = 0.42778 0.18804
#
# Static dielectric constant tensor:
#      x y z
#    x 1.873460 0.000000 0.000000 
#    y 0.000000 2.104870 0.000000 
#    z 0.000000 0.000000 1.955040 
# 
# From -- ./inp_files/3177.got.cif
#   From: 2010.05.17/outbox.cif.g08.bks.cpg/sg31_2_cif.got.tgz:3177.got - 2010.06.03 17:08:30.
