data_PCOD9343254
_publ_section_title
;
Structure prediction by ZEFSAII (Michael W. Deem and Ramdas Pophale) SiO2 
 PCOD9343254
Probable space group: P M N 21
;
_chemical_formula_sum "Si O2"
_cell_formula_units_Z 32
_cell_length_a 17.504806
_cell_length_b 5.128937
_cell_length_c 15.368573
_cell_angle_alpha 90.000000
_cell_angle_beta 90.000000
_cell_angle_gamma 90.000000
_cell_volume 1379.806577
_symmetry_space_group_name_H-M "P M N 21"
_symmetry_group_IT_number 31
_symmetry_cell_setting 'orthorhombic'
loop_
_space_group_symop_operation_xyz
x,y,z
1/2-x,-y,1/2+z
-x,y,z
1/2+x,-y,1/2+z
loop_
_atom_site_type_symbol
_atom_site_label
_atom_site_fract_x
_atom_site_fract_y
_atom_site_fract_z
Si Si1 0.804288 0.040676 0.528810
Si Si2 0.587180 0.778934 0.257774
Si Si3 0.873574 0.420124 0.944214
Si Si4 0.164505 0.043854 0.242085
Si Si5 0.588815 0.693948 0.908015
Si Si6 0.718757 0.311516 0.874147
Si Si7 0.821904 0.718893 0.695578
Si Si8 0.361190 0.101755 0.557915
O O1 0.772559 0.933499 0.437511
O O2 0.879473 0.186839 0.498039
O O3 0.823542 0.811936 0.595462
O O4 0.729312 0.181831 0.566464
O O5 0.500000 0.796054 0.225450
O O6 0.584466 0.683387 0.358275
O O7 0.629433 0.057711 0.247273
O O8 0.636942 0.556465 0.209438
O O9 0.790149 0.486080 0.901588
O O10 0.898706 0.671666 0.999724
O O11 0.869569 0.175902 0.009894
O O12 0.212474 0.799836 0.278673
O O13 0.232053 0.251268 0.221017
O O14 0.117477 0.955230 0.157748
O O15 0.112096 0.141704 0.321498
O O16 0.500000 0.651018 0.910597
O O17 0.638773 0.437245 0.896820
#
# Coordination Sequence:
#
# PCOD9343254 Si02
#       8
#     4   4   4   4   4   4   4   4
#     4   9  22  38  60  94 125 164 218 260 316 382
#     4  12  26  42  64  96 130 170 210 264 335 387
#     4  11  21  41  65  93 124 167 208 277 317 382
#     4  10  23  40  66  97 123 172 219 271 315 384
#     4  11  23  39  61  91 136 175 211 263 331 396
#     4  10  20  38  65  90 127 165 217 261 319 387
#     4  11  24  42  69  96 129 169 218 269 314 387
#     4  10  22  38  70  97 121 158 227 273 314 367
#
# _framework density 23.191655999999998
#
# number of rings (size 3 to 8) (size 9 to 14) (size 15 to 20)
#    0.000    1.500    2.500    1.875    5.250    5.000 
#    0.000    1.250    0.000    0.000    0.000    0.000 
#    0.000    0.000    0.000    0.000    0.000    0.000 
#
# Total GULP energy -178658.603649 kJ/mol
# GULP energy per Si atom -5583.081364 kJ/mol
# Density = 2.313887 g / cm^3
# Si number density = 23.191656 Si / 1000 Ang^3
#
#
#
# Elastic Constant Matrix: (Units=GPa)
#
#
# Indices 1 2 3 4 5 6 
#
# 1 85.1975 -2.6094 -23.7596 0.0000 0.0000 0.0000
# 2 -2.6094 81.7008 3.0078 0.0000 0.0000 0.0000
# 3 -23.7596 3.0078 86.8614 0.0000 0.0000 0.0000
# 4 0.0000 0.0000 0.0000 25.5295 0.0000 0.0000
# 5 0.0000 0.0000 0.0000 0.0000 -2.9216 0.0000
# 6 0.0000 0.0000 0.0000 0.0000 0.0000 4.3028
#
#
#
# Elastic Compliance Matrix: (Units=1/GPa)
#
#
# Indices 1 2 3 4 5 6 
#
# 1 0.012713 0.000278 0.003468 0.000000 0.000000 0.000000
# 2 0.000278 0.012261 -0.000348 0.000000 0.000000 0.000000
# 3 0.003468 -0.000348 0.012473 0.000000 0.000000 0.000000
# 4 0.000000 0.000000 0.000000 0.039170 0.000000 0.000000
# 5 0.000000 0.000000 0.000000 0.000000 -0.342281 0.000000
# 6 0.000000 0.000000 0.000000 0.000000 0.000000 0.232407
#
#
# Mechanical properties :
#
#
# Convention : Reuss Voigt Hill
#
# Bulk Modulus (GPa) = 22.60230 23.00413 22.80322
# Shear Modulus (GPa) = -197.60347 23.85687 -86.87330
#
# Velocity S-wave (km/s) = -9.24065 3.21079 -6.12700
# Velocity P-wave (km/s) = 10.20224 4.86685 6.34032
#
# Compressibility (1/GPa) = 0.04424329
#
# Stress axis : x y z
#
# Youngs Moduli (GPa) = 78.65934 81.55610 80.17171
#
# Poissons Ratio (x) = -0.02270 -0.27802
# Poissons Ratio (y) = -0.02190 0.02793
# Poissons Ratio (z) = -0.27278 0.02842
#
# Static dielectric constant tensor:
#      x y z
#    x 1.887500 0.000000 0.000000 
#    y 0.000000 1.919390 0.000000 
#    z 0.000000 0.000000 1.928600 
# 
# From -- ./inp_files/5528.got.cif
#   From: 2010.05.17/outbox.cif.g08.bks.cpg/sg31_3_cif.got.tgz:5528.got - 2010.06.03 17:08:30.
