data_PCOD9343738
_publ_section_title
;
Structure prediction by ZEFSAII (Michael W. Deem and Ramdas Pophale) SiO2 
 PCOD9343738
Probable space group: P B A 2
;
_chemical_formula_sum "Si O2"
_cell_formula_units_Z 28
_cell_length_a 9.027972
_cell_length_b 25.341827
_cell_length_c 5.267825
_cell_angle_alpha 90.000000
_cell_angle_beta 90.000000
_cell_angle_gamma 90.000000
_cell_volume 1205.200947
_symmetry_space_group_name_H-M "P B A 2"
_symmetry_group_IT_number 32
_symmetry_cell_setting 'orthorhombic'
loop_
_space_group_symop_operation_xyz
x,y,z
-x,-y,z
1/2-x,1/2+y,z
1/2+x,1/2-y,z
loop_
_atom_site_type_symbol
_atom_site_label
_atom_site_fract_x
_atom_site_fract_y
_atom_site_fract_z
Si Si1 0.987136 0.732973 0.505440
Si Si2 0.224807 0.385943 0.998374
Si Si3 0.908194 0.947266 0.641784
Si Si4 0.172540 0.505736 0.960782
Si Si5 0.582736 0.826479 0.006439
Si Si6 0.181182 0.826291 0.498587
Si Si7 0.659223 0.401724 0.144818
O O1 0.046311 0.713991 0.232079
O O2 0.030974 0.793690 0.534225
O O3 0.814675 0.717361 0.514606
O O4 0.066671 0.700906 0.733365
O O5 0.237106 0.448553 0.021958
O O6 0.281079 0.365989 0.725854
O O7 0.301688 0.354297 0.227046
O O8 0.049651 0.369796 0.014753
O O9 0.915716 0.905474 0.416929
O O10 0.744680 0.969531 0.708009
O O11 0.944383 0.919332 0.911176
O O12 0.000000 0.000000 0.588693
O O13 0.000000 0.500000 0.938841
O O14 0.225236 0.549126 0.160919
O O15 0.741940 0.852230 0.064417
#
# Coordination Sequence:
#
# PCOD9343738 Si02
#       7
#     4   4   4   4   4   4   4
#     4  10  21  38  60  82 113 149 189 245 296 344
#     4  10  20  36  58  89 117 150 185 245 296 343
#     4  10  22  38  56  78 123 164 193 230 293 342
#     4  10  22  37  63  91 123 152 202 242 292 353
#     4  10  19  36  60  88 111 149 192 242 295 340
#     4  10  22  38  60  81 118 147 195 239 297 346
#     4  10  21  36  60  86 116 154 198 235 281 358
#
# _framework density 23.232638999999999
#
# number of rings (size 3 to 8) (size 9 to 14) (size 15 to 20)
#    0.857    1.143    1.429    2.143    2.000    1.714 
#    0.000    4.286    0.000    0.000    0.000    0.000 
#    0.000    0.000    0.000    0.000    0.000    0.000 
#
# Total GULP energy -156495.091586 kJ/mol
# GULP energy per Si atom -5589.110414 kJ/mol
# Density = 2.317976 g / cm^3
# Si number density = 23.232639 Si / 1000 Ang^3
#
#
#
# Elastic Constant Matrix: (Units=GPa)
#
#
# Indices 1 2 3 4 5 6 
#
# 1 59.3461 11.4353 4.2330 0.0000 0.0000 0.0000
# 2 11.4353 71.1603 3.7957 0.0000 0.0000 0.0000
# 3 4.2330 3.7957 123.6314 0.0000 0.0000 0.0000
# 4 0.0000 0.0000 0.0000 10.4202 0.0000 0.0000
# 5 0.0000 0.0000 0.0000 0.0000 22.7230 0.0000
# 6 0.0000 0.0000 0.0000 0.0000 0.0000 49.1849
#
#
#
# Elastic Compliance Matrix: (Units=1/GPa)
#
#
# Indices 1 2 3 4 5 6 
#
# 1 0.017421 -0.002772 -0.000511 0.000000 0.000000 0.000000
# 2 -0.002772 0.014517 -0.000351 0.000000 0.000000 0.000000
# 3 -0.000511 -0.000351 0.008117 0.000000 0.000000 0.000000
# 4 0.000000 0.000000 0.000000 0.095968 0.000000 0.000000
# 5 0.000000 0.000000 0.000000 0.000000 0.044008 0.000000
# 6 0.000000 0.000000 0.000000 0.000000 0.000000 0.020331
#
#
# Mechanical properties :
#
#
# Convention : Reuss Voigt Hill
#
# Bulk Modulus (GPa) = 30.50079 32.56287 31.53183
# Shear Modulus (GPa) = 22.87706 32.11054 27.49380
#
# Velocity S-wave (km/s) = 3.14139 3.72173 3.44381
# Velocity P-wave (km/s) = 5.12978 5.70218 5.42354
#
# Compressibility (1/GPa) = 0.03278604
#
# Stress axis : x y z
#
# Youngs Moduli (GPa) = 57.40210 68.88485 123.20070
#
# Poissons Ratio (x) = 0.19096 0.06300
# Poissons Ratio (y) = 0.15913 0.04322
# Poissons Ratio (z) = 0.02935 0.02416
#
# Static dielectric constant tensor:
#      x y z
#    x 1.945880 0.000000 0.000000 
#    y 0.000000 1.870860 0.000000 
#    z 0.000000 0.000000 1.870650 
# 
# From -- ./inp_files/993.got.cif
#   From: 2010.05.17/outbox.cif.g08.bks.cpg/sg32_1_cif.got.tgz:993.got - 2010.06.03 17:12:27.
