data_PCOD9343975
_publ_section_title
;
Structure prediction by ZEFSAII (Michael W. Deem and Ramdas Pophale) SiO2 
 PCOD9343975
Probable space group: P B A 2
;
_chemical_formula_sum "Si O2"
_cell_formula_units_Z 32
_cell_length_a 17.859072
_cell_length_b 13.463484
_cell_length_c 6.691886
_cell_angle_alpha 90.000000
_cell_angle_beta 90.000000
_cell_angle_gamma 90.000000
_cell_volume 1609.032738
_symmetry_space_group_name_H-M "P B A 2"
_symmetry_group_IT_number 32
_symmetry_cell_setting 'orthorhombic'
loop_
_space_group_symop_operation_xyz
x,y,z
-x,-y,z
1/2-x,1/2+y,z
1/2+x,1/2-y,z
loop_
_atom_site_type_symbol
_atom_site_label
_atom_site_fract_x
_atom_site_fract_y
_atom_site_fract_z
Si Si1 0.546480 0.697325 0.132450
Si Si2 0.208193 0.515722 0.490509
Si Si3 0.626905 0.897267 0.108919
Si Si4 0.948907 0.909852 0.449518
Si Si5 0.922862 0.550994 0.780712
Si Si6 0.418585 0.715566 0.829042
Si Si7 0.169394 0.963195 0.195794
Si Si8 0.229031 0.114019 0.875867
O O1 0.564919 0.813292 0.132951
O O2 0.502824 0.662930 0.328223
O O3 0.622059 0.632364 0.131186
O O4 0.488547 0.674099 0.954898
O O5 0.163780 0.576204 0.320321
O O6 0.265996 0.448160 0.362852
O O7 0.145517 0.463928 0.626751
O O8 0.254685 0.583334 0.647141
O O9 0.692504 0.852710 0.969507
O O10 0.597696 0.993214 0.986822
O O11 0.915358 0.845348 0.624742
O O12 0.888917 0.960374 0.301258
O O13 0.000000 0.000000 0.529760
O O14 0.000000 0.500000 0.707696
O O15 0.931868 0.667878 0.808164
O O16 0.336527 0.692710 0.916597
O O17 0.204958 0.016389 0.002710
#
# Coordination Sequence:
#
# PCOD9343975 Si02
#       8
#     4   4   4   4   4   4   4   4
#     4  11  24  39  67  97 131 170 212 269 334 388
#     4  10  23  43  66  91 134 175 211 285 323 391
#     4  10  24  44  63  92 132 172 221 270 322 390
#     4  10  23  38  64 103 131 165 212 270 338 400
#     4  11  25  44  64  97 131 175 232 271 328 393
#     4  12  24  40  68  96 131 176 218 273 330 396
#     4  10  21  42  63  97 133 164 211 269 339 398
#     4  10  22  40  66  93 132 167 220 268 332 395
#
# _framework density 19.887725
#
# number of rings (size 3 to 8) (size 9 to 14) (size 15 to 20)
#    0.000    1.500    3.750    0.000    3.500    5.500 
#    0.000    0.000    0.000    0.000    0.000    0.000 
#    0.000    0.000    0.000    0.000    0.000    0.000 
#
# Total GULP energy -178576.142865 kJ/mol
# GULP energy per Si atom -5580.504465 kJ/mol
# Density = 1.984246 g / cm^3
# Si number density = 19.887725 Si / 1000 Ang^3
#
#
#
# Elastic Constant Matrix: (Units=GPa)
#
#
# Indices 1 2 3 4 5 6 
#
# 1 97.5380 30.3467 21.3661 0.0000 0.0000 0.0000
# 2 30.3467 77.9838 38.1821 0.0000 0.0000 0.0000
# 3 21.3661 38.1821 60.8767 0.0000 0.0000 0.0000
# 4 0.0000 0.0000 0.0000 15.0848 0.0000 0.0000
# 5 0.0000 0.0000 0.0000 0.0000 39.7330 0.0000
# 6 0.0000 0.0000 0.0000 0.0000 0.0000 19.5899
#
#
#
# Elastic Compliance Matrix: (Units=1/GPa)
#
#
# Indices 1 2 3 4 5 6 
#
# 1 0.011803 -0.003701 -0.001821 0.000000 0.000000 0.000000
# 2 -0.003701 0.019667 -0.011036 0.000000 0.000000 0.000000
# 3 -0.001821 -0.011036 0.023988 0.000000 0.000000 0.000000
# 4 0.000000 0.000000 0.000000 0.066292 0.000000 0.000000
# 5 0.000000 0.000000 0.000000 0.000000 0.025168 0.000000
# 6 0.000000 0.000000 0.000000 0.000000 0.000000 0.051047
#
#
# Mechanical properties :
#
#
# Convention : Reuss Voigt Hill
#
# Bulk Modulus (GPa) = 44.76167 46.24318 45.50242
# Shear Modulus (GPa) = 20.96190 24.64845 22.80517
#
# Velocity S-wave (km/s) = 3.25008 3.52430 3.38996
# Velocity P-wave (km/s) = 6.05310 6.31376 6.18480
#
# Compressibility (1/GPa) = 0.02234054
#
# Stress axis : x y z
#
# Youngs Moduli (GPa) = 84.72484 50.84654 41.68812
#
# Poissons Ratio (x) = 0.18821 0.07591
# Poissons Ratio (y) = 0.31360 0.46008
# Poissons Ratio (z) = 0.15428 0.56115
#
# Static dielectric constant tensor:
#      x y z
#    x 1.735280 0.000000 0.000000 
#    y 0.000000 1.687960 0.000000 
#    z 0.000000 0.000000 1.713190 
# 
# From -- ./inp_files/1487.got.cif
#   From: 2010.05.17/outbox.cif.g08.bks.cpg/sg32_1_cif.got.tgz:1487.got - 2010.06.03 17:12:27.
