data_PCOD9343614
_publ_section_title
;
Structure prediction by ZEFSAII (Michael W. Deem and Ramdas Pophale) SiO2 
 PCOD9343614
Probable space group: P M N 21
;
_chemical_formula_sum "Si O2"
_cell_formula_units_Z 32
_cell_length_a 9.000000
_cell_length_b 12.000000
_cell_length_c 15.000000
_cell_angle_alpha 90.000000
_cell_angle_beta 90.000000
_cell_angle_gamma 90.000000
_cell_volume 1620.000000
_symmetry_space_group_name_H-M "P M N 21"
_symmetry_group_IT_number 31
_symmetry_cell_setting 'orthorhombic'
loop_
_space_group_symop_operation_xyz
x,y,z
1/2-x,-y,1/2+z
-x,y,z
1/2+x,-y,1/2+z
loop_
_atom_site_type_symbol
_atom_site_label
_atom_site_fract_x
_atom_site_fract_y
_atom_site_fract_z
Si Si1 0.675662 0.089929 0.165600
Si Si2 0.327536 0.802022 0.391801
Si Si3 0.679258 0.185552 0.350573
Si Si4 0.822826 0.556111 0.071311
Si Si5 0.178702 0.420153 0.376579
Si Si6 0.178959 0.638620 0.260501
Si Si7 0.179077 0.979330 0.001351
Si Si8 0.170191 0.299199 0.082348
O O1 0.500000 0.072150 0.160505
O O2 0.718132 0.100627 0.269807
O O3 0.753941 0.002622 0.098843
O O4 0.720015 0.211503 0.126753
O O5 0.500000 0.816811 0.366310
O O6 0.240113 0.746899 0.311039
O O7 0.275451 0.917619 0.436498
O O8 0.320540 0.717241 0.475712
O O9 0.500000 0.199484 0.348051
O O10 0.756710 0.304497 0.338393
O O11 0.718484 0.131499 0.446404
O O12 0.774799 0.628508 0.156878
O O13 0.803647 0.427761 0.102288
O O14 0.000000 0.573529 0.055695
O O15 0.738979 0.571456 0.978043
O O16 0.224187 0.527906 0.317244
O O17 0.000000 0.416397 0.376726
O O18 0.000000 0.640632 0.261266
O O19 0.000000 0.984344 0.009101
O O20 0.000000 0.269656 0.108218
#
# Coordination Sequence:
#
# PCOD9343614 Si02
#       8
#     4   4   4   4   4   4   4   4
#     4  10  20  34  58  90 115 144 191 243 285 330
#     4   9  17  32  56  79 102 140 186 229 275 329
#     4  10  22  41  61  82 116 157 191 230 287 348
#     4  10  20  36  55  78 114 157 190 223 281 348
#     4  11  23  38  58  87 119 150 189 240 284 332
#     4  10  21  35  54  82 117 150 183 230 284 336
#     4   9  20  40  61  81 110 150 191 234 286 341
#     4   9  17  32  55  79 109 150 189 229 278 334
#
# _framework density 19.753086
#
# number of rings (size 3 to 8) (size 9 to 14) (size 15 to 20)
#    0.000    2.250    1.250    2.250    0.000    6.000 
#    2.250    0.000    0.000    0.000    0.000    0.000 
#    0.000    0.000    0.000    0.000    0.000    0.000 
#
# Total GULP energy -178609.539047 kJ/mol
# GULP energy per Si atom -5581.548095 kJ/mol
# Density = 1.970813 g / cm^3
# Si number density = 19.753086 Si / 1000 Ang^3
#
#
#
# Elastic Constant Matrix: (Units=GPa)
#
#
# Indices 1 2 3 4 5 6 
#
# 1 26.6975 3.7274 20.7149 0.0000 0.0000 0.0000
# 2 3.7274 16.0692 -11.6365 0.0000 0.0000 0.0000
# 3 20.7149 -11.6365 83.0811 0.0000 0.0000 0.0000
# 4 0.0000 0.0000 0.0000 28.3434 0.0000 0.0000
# 5 0.0000 0.0000 0.0000 0.0000 31.9279 0.0000
# 6 0.0000 0.0000 0.0000 0.0000 0.0000 19.0502
#
#
#
# Elastic Compliance Matrix: (Units=1/GPa)
#
#
# Indices 1 2 3 4 5 6 
#
# 1 0.054085 -0.024829 -0.016963 0.000000 0.000000 0.000000
# 2 -0.024829 0.080654 0.017487 0.000000 0.000000 0.000000
# 3 -0.016963 0.017487 0.018715 0.000000 0.000000 0.000000
# 4 0.000000 0.000000 0.000000 0.035282 0.000000 0.000000
# 5 0.000000 0.000000 0.000000 0.000000 0.031321 0.000000
# 6 0.000000 0.000000 0.000000 0.000000 0.000000 0.052493
#
#
# Mechanical properties :
#
#
# Convention : Reuss Voigt Hill
#
# Bulk Modulus (GPa) = 9.53796 16.82885 13.18341
# Shear Modulus (GPa) = 14.04074 23.40044 18.72059
#
# Velocity S-wave (km/s) = 2.66900 3.44560 3.08186
# Velocity P-wave (km/s) = 3.78644 4.93636 4.39914
#
# Compressibility (1/GPa) = 0.10484422
#
# Stress axis : x y z
#
# Youngs Moduli (GPa) = 18.48945 12.39866 53.43268
#
# Poissons Ratio (x) = 0.30785 0.90637
# Poissons Ratio (y) = 0.45908 -0.93439
# Poissons Ratio (z) = 0.31363 -0.21682
#
# Static dielectric constant tensor:
#      x y z
#    x 1.667380 0.000000 0.000000 
#    y 0.000000 1.704090 0.000000 
#    z 0.000000 0.000000 1.714980 
# 
# From -- ./inp_files/5001.got.cif
#   From: 2010.05.17/outbox.ucp.g08.bks.cvg/sg31_3_cif.got.tgz:5001.got - 2010.06.11 10:34:26.
