data_PCOD9343136
_publ_section_title
;
Structure prediction by ZEFSAII (Michael W. Deem and Ramdas Pophale) SiO2 
 PCOD9343136
Probable space group: P M N 21
;
_chemical_formula_sum "Si O2"
_cell_formula_units_Z 32
_cell_length_a 8.909009
_cell_length_b 11.696164
_cell_length_c 16.136338
_cell_angle_alpha 90.000000
_cell_angle_beta 90.000000
_cell_angle_gamma 90.000000
_cell_volume 1681.426273
_symmetry_space_group_name_H-M "P M N 21"
_symmetry_group_IT_number 31
_symmetry_cell_setting 'orthorhombic'
loop_
_space_group_symop_operation_xyz
x,y,z
1/2-x,-y,1/2+z
-x,y,z
1/2+x,-y,1/2+z
loop_
_atom_site_type_symbol
_atom_site_label
_atom_site_fract_x
_atom_site_fract_y
_atom_site_fract_z
Si Si1 0.176330 0.959027 0.164360
Si Si2 0.679257 0.631137 0.772999
Si Si3 0.820880 0.586165 0.952214
Si Si4 0.667096 0.781205 0.062816
Si Si5 0.679058 0.614421 0.585580
Si Si6 0.828546 0.876343 0.783931
Si Si7 0.336744 0.968215 0.923419
Si Si8 0.176551 0.855626 0.546793
O O1 0.267380 0.009476 0.241085
O O2 0.217067 0.059484 0.098634
O O3 0.000000 0.955605 0.177609
O O4 0.235022 0.834741 0.136490
O O5 0.500000 0.626072 0.784287
O O6 0.754362 0.583796 0.858200
O O7 0.716180 0.578604 0.681519
O O8 0.731994 0.763568 0.765410
O O9 0.000000 0.603585 0.945074
O O10 0.745845 0.688110 0.005056
O O11 0.794559 0.477144 0.012408
O O12 0.500000 0.742832 0.088537
O O13 0.647517 0.892288 0.005239
O O14 0.500000 0.639257 0.586560
O O15 0.770369 0.728129 0.563189
O O16 0.000000 0.853172 0.764034
O O17 0.800400 0.908874 0.878348
O O18 0.500000 0.957824 0.879243
O O19 0.312747 0.097486 0.952900
O O20 0.000000 0.868959 0.570039
#
# Coordination Sequence:
#
# PCOD9343136 Si02
#       8
#     4   4   4   4   4   4   4   4
#     4  11  21  34  55  82 118 154 187 237 299 356
#     4  11  22  39  61  87 118 157 202 255 307 363
#     4  11  23  40  62  90 120 159 207 256 305 364
#     4  10  20  36  57  83 115 151 193 240 293 357
#     4  10  23  41  62  87 121 162 206 251 306 365
#     4  12  22  33  55  88 119 152 198 248 295 363
#     4   9  19  34  53  81 117 150 185 235 294 354
#     4  10  20  35  57  84 114 149 194 240 291 354
#
# _framework density 19.031462000000001
#
# number of rings (size 3 to 8) (size 9 to 14) (size 15 to 20)
#    0.000    1.500    2.500    4.500    0.000    4.000 
#    0.000    1.250    0.000    4.500    0.000    0.000 
#    0.000    0.000    0.000    0.000    0.000    0.000 
#
# Total GULP energy -178187.242058 kJ/mol
# GULP energy per Si atom -5568.351314 kJ/mol
# Density = 1.898815 g / cm^3
# Si number density = 19.031462 Si / 1000 Ang^3
#
#
#
# Elastic Constant Matrix: (Units=GPa)
#
#
# Indices 1 2 3 4 5 6 
#
# 1 71.4405 22.1769 15.6849 0.0000 0.0000 0.0000
# 2 22.1769 53.4711 20.1653 0.0000 0.0000 0.0000
# 3 15.6849 20.1653 34.3433 0.0000 0.0000 0.0000
# 4 0.0000 0.0000 0.0000 27.9050 0.0000 0.0000
# 5 0.0000 0.0000 0.0000 0.0000 23.1917 0.0000
# 6 0.0000 0.0000 0.0000 0.0000 0.0000 31.7667
#
#
#
# Elastic Compliance Matrix: (Units=1/GPa)
#
#
# Indices 1 2 3 4 5 6 
#
# 1 0.016601 -0.005171 -0.004546 0.000000 0.000000 0.000000
# 2 -0.005171 0.025631 -0.012688 0.000000 0.000000 0.000000
# 3 -0.004546 -0.012688 0.038644 0.000000 0.000000 0.000000
# 4 0.000000 0.000000 0.000000 0.035836 0.000000 0.000000
# 5 0.000000 0.000000 0.000000 0.000000 0.043119 0.000000
# 6 0.000000 0.000000 0.000000 0.000000 0.000000 0.031479
#
#
# Mechanical properties :
#
#
# Convention : Reuss Voigt Hill
#
# Bulk Modulus (GPa) = 27.72652 30.58990 29.15821
# Shear Modulus (GPa) = 20.14975 23.32121 21.73548
#
# Velocity S-wave (km/s) = 3.25739 3.50437 3.38314
# Velocity P-wave (km/s) = 5.36170 5.69933 5.53309
#
# Compressibility (1/GPa) = 0.03606655
#
# Stress axis : x y z
#
# Youngs Moduli (GPa) = 60.23798 39.01472 25.87730
#
# Poissons Ratio (x) = 0.20174 0.11763
# Poissons Ratio (y) = 0.31148 0.32834
# Poissons Ratio (z) = 0.27382 0.49503
#
# Static dielectric constant tensor:
#      x y z
#    x 1.616590 0.000000 0.000000 
#    y 0.000000 1.655020 0.000000 
#    z 0.000000 0.000000 1.844250 
# 
# From -- ./inp_files/5878.got.cif
#   From: 2010.05.17/outbox.cif.g08.bks.cpg/sg31_3_cif.got.tgz:5878.got - 2010.06.03 17:08:30.
