data_PCOD9343972
_publ_section_title
;
Structure prediction by ZEFSAII (Michael W. Deem and Ramdas Pophale) SiO2 
 PCOD9343972
Probable space group: P B A 2
;
_chemical_formula_sum "Si O2"
_cell_formula_units_Z 18
_cell_length_a 8.781499
_cell_length_b 15.742890
_cell_length_c 5.047188
_cell_angle_alpha 90.000000
_cell_angle_beta 90.000000
_cell_angle_gamma 90.000000
_cell_volume 697.754424
_symmetry_space_group_name_H-M "P B A 2"
_symmetry_group_IT_number 32
_symmetry_cell_setting 'orthorhombic'
loop_
_space_group_symop_operation_xyz
x,y,z
-x,-y,z
1/2-x,1/2+y,z
1/2+x,1/2-y,z
loop_
_atom_site_type_symbol
_atom_site_label
_atom_site_fract_x
_atom_site_fract_y
_atom_site_fract_z
Si Si1 0.500000 0.000000 0.168340
Si Si2 0.456789 0.202482 0.634990
Si Si3 0.901207 0.119946 0.838379
Si Si4 0.639222 0.161906 0.182606
Si Si5 0.734474 0.440922 0.776935
O O1 0.572741 0.076721 0.321684
O O2 0.361546 0.035063 0.993195
O O3 0.378155 0.292606 0.685885
O O4 0.571893 0.224853 0.395230
O O5 0.325290 0.129438 0.602975
O O6 0.553267 0.178262 0.901423
O O7 0.080231 0.103494 0.879295
O O8 0.829067 0.035386 0.703109
O O9 0.810177 0.140226 0.108120
#
# Coordination Sequence:
#
# PCOD9343972 Si02
#       5
#     2   4   4   4   4
#     4   8  18  40  68  98 136 184 232 290 366 438
#     4  11  23  43  68 100 142 192 241 302 375 441
#     4  10  21  41  69 104 143 188 249 311 364 439
#     4  10  23  41  67  96 136 185 238 296 365 436
#     4   9  20  41  70 104 143 190 246 306 371 441
#
# _framework density 25.797039999999999
#
# number of rings (size 3 to 8) (size 9 to 14) (size 15 to 20)
#    0.000    2.222    0.000    1.333    0.000    8.889 
#    0.000    8.889    0.000   37.333    0.000    0.000 
#    0.000    0.000    0.000    0.000    0.000    0.000 
#
# Total GULP energy -100355.544227 kJ/mol
# GULP energy per Si atom -5575.308013 kJ/mol
# Density = 2.573833 g / cm^3
# Si number density = 25.797040 Si / 1000 Ang^3
#
#
#
# Elastic Constant Matrix: (Units=GPa)
#
#
# Indices 1 2 3 4 5 6 
#
# 1 233.5867 59.5636 71.9307 0.0000 0.0000 0.0000
# 2 59.5636 114.8107 4.5645 0.0000 0.0000 0.0000
# 3 71.9307 4.5645 82.8842 0.0000 0.0000 0.0000
# 4 0.0000 0.0000 0.0000 -4.9788 0.0000 0.0000
# 5 0.0000 0.0000 0.0000 0.0000 27.8948 0.0000
# 6 0.0000 0.0000 0.0000 0.0000 0.0000 51.3180
#
#
#
# Elastic Compliance Matrix: (Units=1/GPa)
#
#
# Indices 1 2 3 4 5 6 
#
# 1 0.006936 -0.003366 -0.005834 0.000000 0.000000 0.000000
# 2 -0.003366 0.010363 0.002351 0.000000 0.000000 0.000000
# 3 -0.005834 0.002351 0.016999 0.000000 0.000000 0.000000
# 4 0.000000 0.000000 0.000000 -0.200852 0.000000 0.000000
# 5 0.000000 0.000000 0.000000 0.000000 0.035849 0.000000
# 6 0.000000 0.000000 0.000000 0.000000 0.000000 0.019486
#
#
# Mechanical properties :
#
#
# Convention : Reuss Voigt Hill
#
# Bulk Modulus (GPa) = 48.54736 78.15546 63.35141
# Shear Modulus (GPa) = -55.15506 34.52832 -10.31337
#
# Velocity S-wave (km/s) = -4.62891 3.66247 -2.00164
# Velocity P-wave (km/s) = 3.11597 6.94600 4.38963
#
# Compressibility (1/GPa) = 0.02059844
#
# Stress axis : x y z
#
# Youngs Moduli (GPa) = 144.17492 96.49682 58.82847
#
# Poissons Ratio (x) = 0.32485 0.34321
# Poissons Ratio (y) = 0.48536 -0.13830
# Poissons Ratio (z) = 0.84112 -0.22685
#
# Static dielectric constant tensor:
#      x y z
#    x 2.786410 0.000000 0.000000 
#    y 0.000000 2.173840 0.000000 
#    z 0.000000 0.000000 2.079540 
# 
# From -- ./inp_files/384.got.cif
#   From: 2010.05.17/outbox.cif.g08.bks.cpg/sg32_1_cif.got.tgz:384.got - 2010.06.03 17:12:27.
