data_PCOD9343116
_publ_section_title
;
Structure prediction by ZEFSAII (Michael W. Deem and Ramdas Pophale) SiO2 
 PCOD9343116
Probable space group: P M N 21
;
_chemical_formula_sum "Si O2"
_cell_formula_units_Z 32
_cell_length_a 7.381135
_cell_length_b 13.126229
_cell_length_c 14.350901
_cell_angle_alpha 90.000000
_cell_angle_beta 90.000000
_cell_angle_gamma 90.000000
_cell_volume 1390.408115
_symmetry_space_group_name_H-M "P M N 21"
_symmetry_group_IT_number 31
_symmetry_cell_setting 'orthorhombic'
loop_
_space_group_symop_operation_xyz
x,y,z
1/2-x,-y,1/2+z
-x,y,z
1/2+x,-y,1/2+z
loop_
_atom_site_type_symbol
_atom_site_label
_atom_site_fract_x
_atom_site_fract_y
_atom_site_fract_z
Si Si1 0.721752 0.621153 0.810460
Si Si2 0.716139 0.681170 0.611241
Si Si3 0.720283 0.055379 0.884334
Si Si4 0.217243 0.580395 0.409468
Si Si5 0.291658 0.837111 0.878107
Si Si6 0.292877 0.911573 0.599860
Si Si7 0.279361 0.136098 0.593930
Si Si8 0.219720 0.748481 0.265970
O O1 0.500000 0.619481 0.813547
O O2 0.774427 0.615540 0.701279
O O3 0.782336 0.531697 0.879775
O O4 0.787326 0.731507 0.844239
O O5 0.500000 0.691285 0.617642
O O6 0.747881 0.627082 0.511780
O O7 0.786465 0.798697 0.618338
O O8 0.500000 0.051113 0.890923
O O9 0.767952 0.149038 0.820435
O O10 0.785088 0.945986 0.847546
O O11 0.791243 0.077800 0.987503
O O12 0.285521 0.655460 0.327956
O O13 0.000000 0.578597 0.403111
O O14 0.500000 0.835384 0.847059
O O15 0.284541 0.843947 0.989761
O O16 0.500000 0.910186 0.634663
O O17 0.217475 0.023169 0.627454
O O18 0.500000 0.132024 0.592643
O O19 0.222071 0.227777 0.661231
O O20 0.000000 0.741017 0.264017
#
# Coordination Sequence:
#
# PCOD9343116 Si02
#       8
#     4   4   4   4   4   4   4   4
#     4   9  20  36  55  77 102 137 175 210 254 306
#     4  10  20  35  55  79 103 132 171 215 257 302
#     4   9  16  28  49  73  99 131 168 207 247 299
#     4  10  20  37  56  75 104 138 174 213 253 302
#     4   9  18  33  51  73 102 134 171 212 254 300
#     4   9  17  29  48  74 105 133 164 208 257 301
#     4   9  18  31  49  76 108 140 170 206 257 309
#     4   9  17  29  49  75  99 133 173 205 245 301
#
# _framework density 23.014824999999998
#
# number of rings (size 3 to 8) (size 9 to 14) (size 15 to 20)
#    0.000    2.750    1.250    0.000    1.750    1.000 
#    0.000    4.375    0.000    0.000    0.000    0.000 
#    0.000    0.000    0.000    0.000    0.000    0.000 
#
# Total GULP energy -178525.563517 kJ/mol
# GULP energy per Si atom -5578.923860 kJ/mol
# Density = 2.296244 g / cm^3
# Si number density = 23.014825 Si / 1000 Ang^3
#
#
#
# Elastic Constant Matrix: (Units=GPa)
#
#
# Indices 1 2 3 4 5 6 
#
# 1 84.0089 8.3683 -2.3714 0.0000 0.0000 0.0000
# 2 8.3683 128.5433 43.4624 0.0000 0.0000 0.0000
# 3 -2.3714 43.4624 90.2468 0.0000 0.0000 0.0000
# 4 0.0000 0.0000 0.0000 29.4929 0.0000 0.0000
# 5 0.0000 0.0000 0.0000 0.0000 11.5790 0.0000
# 6 0.0000 0.0000 0.0000 0.0000 0.0000 1.7063
#
#
#
# Elastic Compliance Matrix: (Units=1/GPa)
#
#
# Indices 1 2 3 4 5 6 
#
# 1 0.012033 -0.001063 0.000828 0.000000 0.000000 0.000000
# 2 -0.001063 0.009387 -0.004548 0.000000 0.000000 0.000000
# 3 0.000828 -0.004548 0.013293 0.000000 0.000000 0.000000
# 4 0.000000 0.000000 0.000000 0.033906 0.000000 0.000000
# 5 0.000000 0.000000 0.000000 0.000000 0.086363 0.000000
# 6 0.000000 0.000000 0.000000 0.000000 0.000000 0.586071
#
#
# Mechanical properties :
#
#
# Convention : Reuss Voigt Hill
#
# Bulk Modulus (GPa) = 39.76892 44.63531 42.20211
# Shear Modulus (GPa) = 6.58760 25.44495 16.01627
#
# Velocity S-wave (km/s) = 1.69368 3.32865 2.64087
# Velocity P-wave (km/s) = 4.59804 5.84888 5.26077
#
# Compressibility (1/GPa) = 0.02514526
#
# Stress axis : x y z
#
# Youngs Moduli (GPa) = 83.10612 106.53453 75.22746
#
# Poissons Ratio (x) = 0.11329 -0.06231
# Poissons Ratio (y) = 0.08838 0.34217
# Poissons Ratio (z) = -0.06884 0.48457
#
# Static dielectric constant tensor:
#      x y z
#    x 1.910500 0.000000 0.000000 
#    y 0.000000 1.864250 0.000000 
#    z 0.000000 0.000000 1.843400 
# 
# From -- ./inp_files/4992.got.cif
#   From: 2010.05.17/outbox.cif.g08.bks.cpg/sg31_3_cif.got.tgz:4992.got - 2010.06.03 17:08:30.
