data_PCOD9343208
_publ_section_title
;
Structure prediction by ZEFSAII (Michael W. Deem and Ramdas Pophale) SiO2 
 PCOD9343208
Probable space group: P M N 21
;
_chemical_formula_sum "Si O2"
_cell_formula_units_Z 32
_cell_length_a 8.204161
_cell_length_b 10.836030
_cell_length_c 14.438607
_cell_angle_alpha 90.000000
_cell_angle_beta 90.000000
_cell_angle_gamma 90.000000
_cell_volume 1283.599883
_symmetry_space_group_name_H-M "P M N 21"
_symmetry_group_IT_number 31
_symmetry_cell_setting 'orthorhombic'
loop_
_space_group_symop_operation_xyz
x,y,z
1/2-x,-y,1/2+z
-x,y,z
1/2+x,-y,1/2+z
loop_
_atom_site_type_symbol
_atom_site_label
_atom_site_fract_x
_atom_site_fract_y
_atom_site_fract_z
Si Si1 0.690695 0.931654 0.862130
Si Si2 0.310505 0.811479 0.342690
Si Si3 0.695243 0.653285 0.518142
Si Si4 0.690149 0.963707 0.068617
Si Si5 0.184832 0.709690 0.074461
Si Si6 0.193843 0.193561 0.184946
Si Si7 0.692811 0.558409 0.231656
Si Si8 0.312358 0.578947 0.904770
O O1 0.500000 0.902002 0.874488
O O2 0.760180 0.835403 0.787437
O O3 0.706450 0.069022 0.820005
O O4 0.761480 0.947590 0.964804
O O5 0.500000 0.843293 0.327915
O O6 0.288777 0.770986 0.449673
O O7 0.274854 0.687067 0.286610
O O8 0.500000 0.623149 0.519624
O O9 0.756469 0.696844 0.618678
O O10 0.789007 0.546089 0.464790
O O11 0.500000 0.999610 0.063987
O O12 0.703706 0.823712 0.105805
O O13 0.778888 0.066704 0.128239
O O14 0.221413 0.587099 0.134674
O O15 0.000000 0.746396 0.089194
O O16 0.217289 0.676680 0.967484
O O17 0.000000 0.214618 0.192804
O O18 0.500000 0.545473 0.218588
O O19 0.755003 0.453489 0.301426
O O20 0.500000 0.614477 0.902881
#
# Coordination Sequence:
#
# PCOD9343208 Si02
#       8
#     4   4   4   4   4   4   4   4
#     4  10  21  34  53  83 119 157 198 245 299 362
#     4   9  17  31  55  83 114 152 192 242 295 351
#     4   9  18  35  58  82 113 152 199 252 303 356
#     4  11  23  39  58  88 127 163 201 257 315 366
#     4  12  25  43  65  90 122 166 211 257 312 371
#     4  10  20  37  59  85 118 161 205 247 302 368
#     4  10  21  40  65  95 124 157 205 259 309 367
#     4  11  23  41  65  92 123 160 203 257 313 369
#
# _framework density 24.929888999999999
#
# number of rings (size 3 to 8) (size 9 to 14) (size 15 to 20)
#    0.000    1.750    1.250    4.500    0.000    6.000 
#    2.250    0.000    0.000    0.000    0.000    0.000 
#    0.000    0.000    0.000    0.000    0.000    0.000 
#
# Total GULP energy -179055.747599 kJ/mol
# GULP energy per Si atom -5595.492112 kJ/mol
# Density = 2.487315 g / cm^3
# Si number density = 24.929889 Si / 1000 Ang^3
#
#
#
# Elastic Constant Matrix: (Units=GPa)
#
#
# Indices 1 2 3 4 5 6 
#
# 1 36.2130 3.8396 10.6751 0.0000 0.0000 0.0000
# 2 3.8396 89.0068 3.5526 0.0000 0.0000 0.0000
# 3 10.6751 3.5526 137.4088 0.0000 0.0000 0.0000
# 4 0.0000 0.0000 0.0000 41.1211 0.0000 0.0000
# 5 0.0000 0.0000 0.0000 0.0000 27.6199 0.0000
# 6 0.0000 0.0000 0.0000 0.0000 0.0000 17.7063
#
#
#
# Elastic Compliance Matrix: (Units=1/GPa)
#
#
# Indices 1 2 3 4 5 6 
#
# 1 0.028376 -0.001137 -0.002175 0.000000 0.000000 0.000000
# 2 -0.001137 0.011292 -0.000204 0.000000 0.000000 0.000000
# 3 -0.002175 -0.000204 0.007452 0.000000 0.000000 0.000000
# 4 0.000000 0.000000 0.000000 0.024318 0.000000 0.000000
# 5 0.000000 0.000000 0.000000 0.000000 0.036206 0.000000
# 6 0.000000 0.000000 0.000000 0.000000 0.000000 0.056477
#
#
# Mechanical properties :
#
#
# Convention : Reuss Voigt Hill
#
# Bulk Modulus (GPa) = 24.94494 33.19590 29.07042
# Shear Modulus (GPa) = 27.09790 33.59356 30.34573
#
# Velocity S-wave (km/s) = 3.30049 3.67484 3.49269
# Velocity P-wave (km/s) = 4.95501 5.59916 5.28690
#
# Compressibility (1/GPa) = 0.04008829
#
# Stress axis : x y z
#
# Youngs Moduli (GPa) = 35.24085 88.55601 134.19581
#
# Poissons Ratio (x) = 0.10071 0.29189
# Poissons Ratio (y) = 0.04008 0.02732
# Poissons Ratio (z) = 0.07665 0.01803
#
# Static dielectric constant tensor:
#      x y z
#    x 1.848150 0.000000 0.000000 
#    y 0.000000 2.015500 0.000000 
#    z 0.000000 0.000000 2.070640 
# 
# From -- ./inp_files/4973.got.cif
#   From: 2010.05.17/outbox.cif.g08.bks.cpg/sg31_3_cif.got.tgz:4973.got - 2010.06.03 17:08:30.
