data_PCOD9343351
_publ_section_title
;
Structure prediction by ZEFSAII (Michael W. Deem and Ramdas Pophale) SiO2 
 PCOD9343351
Probable space group: P M N 21
;
_chemical_formula_sum "Si O2"
_cell_formula_units_Z 32
_cell_length_a 8.365207
_cell_length_b 16.861530
_cell_length_c 10.875781
_cell_angle_alpha 90.000000
_cell_angle_beta 90.000000
_cell_angle_gamma 90.000000
_cell_volume 1534.030963
_symmetry_space_group_name_H-M "P M N 21"
_symmetry_group_IT_number 31
_symmetry_cell_setting 'orthorhombic'
loop_
_space_group_symop_operation_xyz
x,y,z
1/2-x,-y,1/2+z
-x,y,z
1/2+x,-y,1/2+z
loop_
_atom_site_type_symbol
_atom_site_label
_atom_site_fract_x
_atom_site_fract_y
_atom_site_fract_z
Si Si1 0.806652 0.516109 0.325060
Si Si2 0.191281 0.920302 0.065633
Si Si3 0.309481 0.741832 0.678617
Si Si4 0.306319 0.169042 0.812182
Si Si5 0.690421 0.418849 0.093788
Si Si6 0.308206 0.099910 0.066150
Si Si7 0.191113 0.237473 0.450121
Si Si8 0.193050 0.675159 0.191727
O O1 0.755566 0.447912 0.227578
O O2 0.753610 0.532847 0.468764
O O3 0.753006 0.592381 0.245408
O O4 0.000000 0.512731 0.331706
O O5 0.239497 0.882338 0.195466
O O6 0.000000 0.924798 0.057003
O O7 0.259846 0.008357 0.068043
O O8 0.248911 0.852998 0.970266
O O9 0.500000 0.733015 0.669750
O O10 0.232156 0.675305 0.590527
O O11 0.264264 0.833651 0.654941
O O12 0.256255 0.728679 0.819331
O O13 0.500000 0.169428 0.816809
O O14 0.253150 0.257684 0.787241
O O15 0.247683 0.131048 0.935164
O O16 0.500000 0.427244 0.095509
O O17 0.500000 0.104770 0.075465
O O18 0.249746 0.294289 0.559694
O O19 0.000000 0.235308 0.452923
O O20 0.000000 0.674132 0.187746
#
# Coordination Sequence:
#
# PCOD9343351 Si02
#       8
#     4   4   4   4   4   4   4   4
#     4  10  23  43  67  98 135 170 211 267 325 384
#     4  10  21  38  58  85 119 158 202 249 308 373
#     4  11  25  43  62  88 128 169 210 266 325 379
#     4   8  17  35  57  79 111 150 189 241 301 360
#     4  11  25  44  68  97 132 173 220 269 325 391
#     4  11  22  37  60  87 117 157 204 252 309 375
#     4  10  22  39  60  88 124 163 206 260 315 371
#     4   9  18  37  64  88 116 158 202 248 310 375
#
# _framework density 20.860074999999998
#
# number of rings (size 3 to 8) (size 9 to 14) (size 15 to 20)
#    0.000    2.000    0.000    3.375    3.500    5.500 
#    0.000    8.125    0.000    0.000    0.000    0.000 
#    0.000    0.000    0.000    0.000    0.000    0.000 
#
# Total GULP energy -178390.314744 kJ/mol
# GULP energy per Si atom -5574.697336 kJ/mol
# Density = 2.081260 g / cm^3
# Si number density = 20.860075 Si / 1000 Ang^3
#
#
#
# Elastic Constant Matrix: (Units=GPa)
#
#
# Indices 1 2 3 4 5 6 
#
# 1 17.7835 6.2483 15.3034 0.0000 0.0000 0.0000
# 2 6.2483 80.6992 51.5964 0.0000 0.0000 0.0000
# 3 15.3034 51.5964 99.0813 0.0000 0.0000 0.0000
# 4 0.0000 0.0000 0.0000 11.7271 0.0000 0.0000
# 5 0.0000 0.0000 0.0000 0.0000 17.0772 0.0000
# 6 0.0000 0.0000 0.0000 0.0000 0.0000 40.3817
#
#
#
# Elastic Compliance Matrix: (Units=1/GPa)
#
#
# Indices 1 2 3 4 5 6 
#
# 1 0.065084 0.002081 -0.011136 0.000000 0.000000 0.000000
# 2 0.002081 0.018643 -0.010030 0.000000 0.000000 0.000000
# 3 -0.011136 -0.010030 0.017036 0.000000 0.000000 0.000000
# 4 0.000000 0.000000 0.000000 0.085273 0.000000 0.000000
# 5 0.000000 0.000000 0.000000 0.000000 0.058558 0.000000
# 6 0.000000 0.000000 0.000000 0.000000 0.000000 0.024764
#
#
# Mechanical properties :
#
#
# Convention : Reuss Voigt Hill
#
# Bulk Modulus (GPa) = 15.97630 38.20669 27.09150
# Shear Modulus (GPa) = 15.22574 22.13159 18.67867
#
# Velocity S-wave (km/s) = 2.70459 3.26076 2.99561
# Velocity P-wave (km/s) = 4.17475 5.70370 4.99804
#
# Compressibility (1/GPa) = 0.06259271
#
# Stress axis : x y z
#
# Youngs Moduli (GPa) = 15.36480 53.63847 58.70016
#
# Poissons Ratio (x) = -0.11160 0.65368
# Poissons Ratio (y) = -0.03197 0.58875
# Poissons Ratio (z) = 0.17110 0.53799
#
# Static dielectric constant tensor:
#      x y z
#    x 1.722600 0.000000 0.000000 
#    y 0.000000 1.920500 0.000000 
#    z 0.000000 0.000000 1.792560 
# 
# From -- ./inp_files/3749.got.cif
#   From: 2010.05.17/outbox.cif.g08.bks.cpg/sg31_2_cif.got.tgz:3749.got - 2010.06.03 17:08:30.
