data_PCOD9343481
_publ_section_title
;
Structure prediction by ZEFSAII (Michael W. Deem and Ramdas Pophale) SiO2 
 PCOD9343481
Probable space group: P M N 21
;
_chemical_formula_sum "Si O2"
_cell_formula_units_Z 24
_cell_length_a 14.451590
_cell_length_b 9.808737
_cell_length_c 8.119839
_cell_angle_alpha 90.000000
_cell_angle_beta 90.000000
_cell_angle_gamma 90.000000
_cell_volume 1151.002164
_symmetry_space_group_name_H-M "P M N 21"
_symmetry_group_IT_number 31
_symmetry_cell_setting 'orthorhombic'
loop_
_space_group_symop_operation_xyz
x,y,z
1/2-x,-y,1/2+z
-x,y,z
1/2+x,-y,1/2+z
loop_
_atom_site_type_symbol
_atom_site_label
_atom_site_fract_x
_atom_site_fract_y
_atom_site_fract_z
Si Si1 0.000000 0.316439 0.899781
Si Si2 0.000000 0.232453 0.514363
Si Si3 0.305336 0.179463 0.995037
Si Si4 0.804970 0.935665 0.862194
Si Si5 0.800377 0.426839 0.866198
Si Si6 0.500000 0.075828 0.889648
Si Si7 0.000000 0.012480 0.010624
Si Si8 0.797034 0.316387 0.494219
O O1 0.000000 0.262498 0.710174
O O2 0.906354 0.402914 0.922786
O O3 0.000000 0.177684 0.006050
O O4 0.904685 0.295772 0.445556
O O5 0.000000 0.070254 0.483204
O O6 0.265666 0.329493 0.973678
O O7 0.243840 0.080926 0.880759
O O8 0.409932 0.160459 0.937927
O O9 0.296993 0.123750 0.179789
O O10 0.751333 0.829925 0.979042
O O11 0.909650 0.957339 0.918462
O O12 0.794555 0.374153 0.679088
O O13 0.761443 0.578237 0.885119
O O14 0.500000 0.038800 0.697420
#
# Coordination Sequence:
#
# PCOD9343481 Si02
#       8
#     2   2   4   4   4   2   2   4
#     4  10  22  41  66  91 126 172 218 268 328 387
#     4  10  22  41  66  91 126 172 218 268 328 387
#     4  12  24  41  65  96 131 169 217 270 323 382
#     4  12  24  41  65  96 131 169 217 270 323 382
#     4  11  24  43  66  95 132 174 221 271 328 390
#     4  12  24  39  66  99 130 170 220 270 326 387
#     4  12  24  39  66  99 130 170 220 270 326 387
#     4  11  24  43  66  95 132 174 221 271 328 390
#
# _framework density 20.851395
#
# number of rings (size 3 to 8) (size 9 to 14) (size 15 to 20)
#    0.000    0.667    3.333    5.500    0.000    2.667 
#    0.000    5.000    0.000    0.000    0.000    0.000 
#    0.000    0.000    0.000    0.000    0.000    0.000 
#
# Total GULP energy -134364.905291 kJ/mol
# GULP energy per Si atom -5598.537720 kJ/mol
# Density = 2.080394 g / cm^3
# Si number density = 20.851395 Si / 1000 Ang^3
#
#
#
# Elastic Constant Matrix: (Units=GPa)
#
#
# Indices 1 2 3 4 5 6 
#
# 1 154.6273 25.4776 25.6358 0.0000 0.0000 0.0000
# 2 25.4776 77.3367 -0.2638 0.0000 0.0000 0.0000
# 3 25.6358 -0.2638 54.2201 0.0000 0.0000 0.0000
# 4 0.0000 0.0000 0.0000 38.4099 0.0000 0.0000
# 5 0.0000 0.0000 0.0000 0.0000 72.6180 0.0000
# 6 0.0000 0.0000 0.0000 0.0000 0.0000 26.4221
#
#
#
# Elastic Compliance Matrix: (Units=1/GPa)
#
#
# Indices 1 2 3 4 5 6 
#
# 1 0.007461 -0.002470 -0.003540 0.000000 0.000000 0.000000
# 2 -0.002470 0.013748 0.001235 0.000000 0.000000 0.000000
# 3 -0.003540 0.001235 0.020123 0.000000 0.000000 0.000000
# 4 0.000000 0.000000 0.000000 0.026035 0.000000 0.000000
# 5 0.000000 0.000000 0.000000 0.000000 0.013771 0.000000
# 6 0.000000 0.000000 0.000000 0.000000 0.000000 0.037847
#
#
# Mechanical properties :
#
#
# Convention : Reuss Voigt Hill
#
# Bulk Modulus (GPa) = 31.46386 43.09815 37.28100
# Shear Modulus (GPa) = 35.93787 43.17897 39.55842
#
# Velocity S-wave (km/s) = 4.15604 4.55554 4.36036
# Velocity P-wave (km/s) = 6.17677 6.95590 6.57788
#
# Compressibility (1/GPa) = 0.03178249
#
# Stress axis : x y z
#
# Youngs Moduli (GPa) = 134.03063 72.73574 49.69456
#
# Poissons Ratio (x) = 0.17966 0.17590
# Poissons Ratio (y) = 0.33106 -0.06136
# Poissons Ratio (z) = 0.47442 -0.08981
#
# Static dielectric constant tensor:
#      x y z
#    x 1.726530 0.000000 0.000000 
#    y 0.000000 1.593470 0.000000 
#    z 0.000000 0.000000 1.761250 
# 
# From -- ./inp_files/2460.got.cif
#   From: 2010.05.17/outbox.cif.g08.bks.cpg/sg31_2_cif.got.tgz:2460.got - 2010.06.03 17:08:30.
