data_PCOD9343081
_publ_section_title
;
Structure prediction by ZEFSAII (Michael W. Deem and Ramdas Pophale) SiO2 
 PCOD9343081
Probable space group: P M N 21
;
_chemical_formula_sum "Si O2"
_cell_formula_units_Z 32
_cell_length_a 9.007109
_cell_length_b 7.181772
_cell_length_c 28.963197
_cell_angle_alpha 90.000000
_cell_angle_beta 90.000000
_cell_angle_gamma 90.000000
_cell_volume 1873.542418
_symmetry_space_group_name_H-M "P M N 21"
_symmetry_group_IT_number 31
_symmetry_cell_setting 'orthorhombic'
loop_
_space_group_symop_operation_xyz
x,y,z
1/2-x,-y,1/2+z
-x,y,z
1/2+x,-y,1/2+z
loop_
_atom_site_type_symbol
_atom_site_label
_atom_site_fract_x
_atom_site_fract_y
_atom_site_fract_z
Si Si1 0.676805 0.770387 0.734560
Si Si2 0.677944 0.488675 0.055956
Si Si3 0.821887 0.493966 0.663257
Si Si4 0.822765 0.201318 0.988419
Si Si5 0.821887 0.493967 0.805864
Si Si6 0.323018 0.827912 0.234561
Si Si7 0.322056 0.488665 0.413165
Si Si8 0.177236 0.201308 0.480702
O O1 0.500000 0.765080 0.734560
O O2 0.740579 0.658683 0.690463
O O3 0.740579 0.658681 0.778657
O O4 0.735836 0.980393 0.734561
O O5 0.500000 0.459486 0.052912
O O6 0.717229 0.512246 0.109479
O O7 0.759436 0.316271 0.031813
O O8 0.713023 0.671271 0.025501
O O9 0.788737 0.302283 0.690337
O O10 0.000000 0.522661 0.667374
O O11 0.786979 0.328739 0.943620
O O12 0.000000 0.185089 0.991665
O O13 0.750000 0.000005 0.984560
O O14 0.788737 0.302281 0.778785
O O15 0.782770 0.487762 0.859642
O O16 0.000000 0.522661 0.801746
O O17 0.500000 0.865770 0.234561
O O18 0.500000 0.459474 0.416208
O O19 0.240562 0.316262 0.437308
O O20 0.000000 0.185079 0.477456
#
# Coordination Sequence:
#
# PCOD9343081 Si02
#       8
#     4   4   4   4   4   4   4   4
#     4  11  22  34  51  79 111 137 165 211 268 314
#     4   9  19  36  56  77 102 135 176 218 257 301
#     4   9  19  37  58  76  98 135 180 218 252 300
#     4  10  20  34  53  79 109 139 172 212 259 309
#     4   9  19  37  58  76  98 135 180 218 252 300
#     4   9  18  34  55  77 101 135 177 215 254 306
#     4   9  19  36  56  77 102 135 176 218 257 301
#     4  10  20  34  53  79 109 139 172 212 259 309
#
# _framework density 17.079944999999999
#
# number of rings (size 3 to 8) (size 9 to 14) (size 15 to 20)
#    0.000    2.500    0.000    2.625    0.000    6.000 
#    0.000    5.000    0.000    0.000    0.000    0.000 
#    0.000    0.000    0.000    0.000    0.000    0.000 
#
# Total GULP energy -178557.393174 kJ/mol
# GULP energy per Si atom -5579.918537 kJ/mol
# Density = 1.704107 g / cm^3
# Si number density = 17.079945 Si / 1000 Ang^3
#
#
#
# Elastic Constant Matrix: (Units=GPa)
#
#
# Indices 1 2 3 4 5 6 
#
# 1 52.2557 72.4998 57.6132 0.0000 0.0000 0.0000
# 2 72.4998 162.5500 79.0385 0.0000 0.0000 0.0000
# 3 57.6132 79.0385 161.8088 0.0000 0.0000 0.0000
# 4 0.0000 0.0000 0.0000 5.4792 0.0000 0.0000
# 5 0.0000 0.0000 0.0000 0.0000 25.3160 0.0000
# 6 0.0000 0.0000 0.0000 0.0000 0.0000 19.3811
#
#
#
# Elastic Compliance Matrix: (Units=1/GPa)
#
#
# Indices 1 2 3 4 5 6 
#
# 1 0.063024 -0.022556 -0.011422 0.000000 0.000000 0.000000
# 2 -0.022556 0.016141 0.000147 0.000000 0.000000 0.000000
# 3 -0.011422 0.000147 0.010175 0.000000 0.000000 0.000000
# 4 0.000000 0.000000 0.000000 0.182508 0.000000 0.000000
# 5 0.000000 0.000000 0.000000 0.000000 0.039501 0.000000
# 6 0.000000 0.000000 0.000000 0.000000 0.000000 0.051597
#
#
# Mechanical properties :
#
#
# Convention : Reuss Voigt Hill
#
# Bulk Modulus (GPa) = 46.13035 88.32417 67.22726
# Shear Modulus (GPa) = 11.41988 21.19948 16.30968
#
# Velocity S-wave (km/s) = 2.58856 3.52688 3.09350
# Velocity P-wave (km/s) = 6.00011 8.27101 7.22534
#
# Compressibility (1/GPa) = 0.02167770
#
# Stress axis : x y z
#
# Youngs Moduli (GPa) = 15.86703 61.95538 98.27598
#
# Poissons Ratio (x) = 1.39744 1.12255
# Poissons Ratio (y) = 0.35789 -0.01443
# Poissons Ratio (z) = 0.18124 -0.00910
#
# Static dielectric constant tensor:
#      x y z
#    x 1.567880 0.000000 0.000000 
#    y 0.000000 1.543850 0.000000 
#    z 0.000000 0.000000 1.569040 
# 
# From -- ./inp_files/6610.got.cif
#   From: 2010.05.17/outbox.cif.g08.bks.cpg/sg31_4_cif.got.tgz:6610.got - 2010.06.03 17:08:30.
