data_PCOD9343920
_publ_section_title
;
Structure prediction by ZEFSAII (Michael W. Deem and Ramdas Pophale) SiO2 
 PCOD9343920
Probable space group: P B A 2
;
_chemical_formula_sum "Si O2"
_cell_formula_units_Z 32
_cell_length_a 11.616837
_cell_length_b 7.769065
_cell_length_c 15.133488
_cell_angle_alpha 90.000000
_cell_angle_beta 90.000000
_cell_angle_gamma 90.000000
_cell_volume 1365.826980
_symmetry_space_group_name_H-M "P B A 2"
_symmetry_group_IT_number 32
_symmetry_cell_setting 'orthorhombic'
loop_
_space_group_symop_operation_xyz
x,y,z
-x,-y,z
1/2-x,1/2+y,z
1/2+x,1/2-y,z
loop_
_atom_site_type_symbol
_atom_site_label
_atom_site_fract_x
_atom_site_fract_y
_atom_site_fract_z
Si Si1 0.378122 0.900254 0.125000
Si Si2 0.126778 0.032577 0.174214
Si Si3 0.386419 0.888702 0.923162
Si Si4 0.886792 0.116236 0.716888
Si Si5 0.746886 0.367128 0.818976
Si Si6 0.455699 0.305494 0.532373
Si Si7 0.591295 0.138770 0.403474
Si Si8 0.343779 0.463049 0.366577
O O1 0.373179 0.737436 0.189253
O O2 0.500000 0.000000 0.138408
O O3 0.253731 0.994733 0.133176
O O4 0.383655 0.830520 0.024231
O O5 0.125662 0.923847 0.265380
O O6 0.000000 0.000000 0.130386
O O7 0.362082 0.742477 0.851388
O O8 0.500000 0.000000 0.910295
O O9 0.281315 0.017360 0.902131
O O10 0.855695 0.251108 0.793137
O O11 0.890026 0.216993 0.623988
O O12 0.784758 0.978940 0.733199
O O13 0.000000 0.000000 0.728004
O O14 0.500000 0.500000 0.544601
O O15 0.554620 0.170447 0.506746
O O16 0.386048 0.328414 0.440988
O O17 0.608607 0.341926 0.378839
O O18 0.500000 0.000000 0.366317
O O19 0.709147 0.044547 0.382131
#
# Coordination Sequence:
#
# PCOD9343920 Si02
#       8
#     4   4   4   4   4   4   4   4
#     4  11  25  44  67  97 134 178 229 287 351 421
#     4  12  25  42  66  98 134 174 226 287 347 410
#     4  10  21  41  64  91 127 169 218 269 334 410
#     4  10  21  38  59  91 128 162 209 264 323 393
#     4  10  21  37  64  94 125 166 211 267 332 400
#     4   9  21  41  61  87 123 164 210 259 318 387
#     4  11  23  40  63  89 121 167 218 271 327 390
#     4  11  24  41  63  91 126 170 219 268 328 401
#
# _framework density 23.429030000000001
#
# number of rings (size 3 to 8) (size 9 to 14) (size 15 to 20)
#    0.000    1.500    0.000    4.875    0.000    8.000 
#    0.000    7.500    0.000    0.000    0.000    0.000 
#    0.000    0.000    0.000    0.000    0.000    0.000 
#
# Total GULP energy -178150.271931 kJ/mol
# GULP energy per Si atom -5567.195998 kJ/mol
# Density = 2.337570 g / cm^3
# Si number density = 23.429030 Si / 1000 Ang^3
#
#
#
# Elastic Constant Matrix: (Units=GPa)
#
#
# Indices 1 2 3 4 5 6 
#
# 1 144.7764 7.0548 16.7188 0.0000 0.0000 0.0000
# 2 7.0548 38.1879 6.2902 0.0000 0.0000 0.0000
# 3 16.7188 6.2902 109.4687 0.0000 0.0000 0.0000
# 4 0.0000 0.0000 0.0000 19.2321 0.0000 0.0000
# 5 0.0000 0.0000 0.0000 0.0000 87.9100 0.0000
# 6 0.0000 0.0000 0.0000 0.0000 0.0000 40.7859
#
#
#
# Elastic Compliance Matrix: (Units=1/GPa)
#
#
# Indices 1 2 3 4 5 6 
#
# 1 0.007080 -0.001141 -0.001016 0.000000 0.000000 0.000000
# 2 -0.001141 0.026620 -0.001355 0.000000 0.000000 0.000000
# 3 -0.001016 -0.001355 0.009368 0.000000 0.000000 0.000000
# 4 0.000000 0.000000 0.000000 0.051997 0.000000 0.000000
# 5 0.000000 0.000000 0.000000 0.000000 0.011375 0.000000
# 6 0.000000 0.000000 0.000000 0.000000 0.000000 0.024518
#
#
# Mechanical properties :
#
#
# Convention : Reuss Voigt Hill
#
# Bulk Modulus (GPa) = 27.74331 39.17338 33.45834
# Shear Modulus (GPa) = 33.33399 47.07687 40.20543
#
# Velocity S-wave (km/s) = 3.77605 4.48743 4.14702
# Velocity P-wave (km/s) = 5.55684 6.60346 6.10263
#
# Compressibility (1/GPa) = 0.03604473
#
# Stress axis : x y z
#
# Youngs Moduli (GPa) = 141.24124 37.56536 106.74577
#
# Poissons Ratio (x) = 0.04285 0.10843
# Poissons Ratio (y) = 0.16111 0.14468
# Poissons Ratio (z) = 0.14347 0.05092
#
# Static dielectric constant tensor:
#      x y z
#    x 1.078010 0.000000 0.000000 
#    y 0.000000 1.933280 0.000000 
#    z 0.000000 0.000000 1.894950 
# 
# From -- ./inp_files/4173.got.cif
#   From: 2010.05.17/outbox.cif.g08.bks.cpg/sg32_3_cif.got.tgz:4173.got - 2010.06.03 17:12:27.
