data_PCOD9343219
_publ_section_title
;
Structure prediction by ZEFSAII (Michael W. Deem and Ramdas Pophale) SiO2 
 PCOD9343219
Probable space group: P M N 21
;
_chemical_formula_sum "Si O2"
_cell_formula_units_Z 32
_cell_length_a 8.688298
_cell_length_b 12.747021
_cell_length_c 14.386571
_cell_angle_alpha 90.000000
_cell_angle_beta 90.000000
_cell_angle_gamma 90.000000
_cell_volume 1593.311545
_symmetry_space_group_name_H-M "P M N 21"
_symmetry_group_IT_number 31
_symmetry_cell_setting 'orthorhombic'
loop_
_space_group_symop_operation_xyz
x,y,z
1/2-x,-y,1/2+z
-x,y,z
1/2+x,-y,1/2+z
loop_
_atom_site_type_symbol
_atom_site_label
_atom_site_fract_x
_atom_site_fract_y
_atom_site_fract_z
Si Si1 0.175461 0.058597 0.095670
Si Si2 0.322175 0.913412 0.371799
Si Si3 0.676919 0.246172 0.191522
Si Si4 0.681414 0.862612 0.859732
Si Si5 0.315065 0.318473 0.861585
Si Si6 0.813034 0.614850 0.162066
Si Si7 0.315976 0.171534 0.561795
Si Si8 0.817005 0.410431 0.053166
O O1 0.297403 0.135868 0.139516
O O2 0.000000 0.084037 0.126651
O O3 0.208276 0.937277 0.115752
O O4 0.178130 0.074082 0.984386
O O5 0.500000 0.914017 0.341232
O O6 0.246043 0.800998 0.351778
O O7 0.237959 0.018755 0.337096
O O8 0.500000 0.278588 0.190055
O O9 0.736142 0.221801 0.294195
O O10 0.778378 0.327436 0.133820
O O11 0.500000 0.857158 0.847776
O O12 0.728142 0.838070 0.965101
O O13 0.500000 0.314199 0.863651
O O14 0.264988 0.384088 0.770103
O O15 0.257156 0.370489 0.957204
O O16 0.770119 0.726634 0.118675
O O17 0.760024 0.521178 0.095090
O O18 0.000000 0.609111 0.162692
O O19 0.500000 0.176304 0.542300
O O20 0.000000 0.415414 0.038455
#
# Coordination Sequence:
#
# PCOD9343219 Si02
#       8
#     4   4   4   4   4   4   4   4
#     4   9  18  33  58  87 122 160 199 247 310 371
#     4  10  20  37  60  90 126 164 204 252 312 374
#     4  12  24  38  59  89 124 164 214 260 307 369
#     4  11  23  38  59  90 129 170 209 256 315 375
#     4  11  22  39  64  94 122 159 210 261 312 373
#     4   9  22  42  66  93 123 164 209 256 315 376
#     4   9  19  40  63  88 124 163 205 253 313 375
#     4  11  23  43  65  89 126 168 210 259 316 371
#
# _framework density 20.083957999999999
#
# number of rings (size 3 to 8) (size 9 to 14) (size 15 to 20)
#    0.000    1.750    1.250    4.125    1.750    3.000 
#    0.000    7.500    0.000    0.000    0.000    0.000 
#    0.000    0.000    0.000    0.000    0.000    0.000 
#
# Total GULP energy -178767.843572 kJ/mol
# GULP energy per Si atom -5586.495112 kJ/mol
# Density = 2.003825 g / cm^3
# Si number density = 20.083958 Si / 1000 Ang^3
#
#
#
# Elastic Constant Matrix: (Units=GPa)
#
#
# Indices 1 2 3 4 5 6 
#
# 1 41.1565 6.1084 0.3088 0.0000 0.0000 0.0000
# 2 6.1084 94.0366 26.3084 0.0000 0.0000 0.0000
# 3 0.3088 26.3084 62.6326 0.0000 0.0000 0.0000
# 4 0.0000 0.0000 0.0000 17.6917 0.0000 0.0000
# 5 0.0000 0.0000 0.0000 0.0000 18.7099 0.0000
# 6 0.0000 0.0000 0.0000 0.0000 0.0000 1814.4690
#
#
#
# Elastic Compliance Matrix: (Units=1/GPa)
#
#
# Indices 1 2 3 4 5 6 
#
# 1 0.024555 -0.001769 0.000622 0.000000 0.000000 0.000000
# 2 -0.001769 0.012178 -0.005106 0.000000 0.000000 0.000000
# 3 0.000622 -0.005106 0.018108 0.000000 0.000000 0.000000
# 4 0.000000 0.000000 0.000000 0.056524 0.000000 0.000000
# 5 0.000000 0.000000 0.000000 0.000000 0.053448 0.000000
# 6 0.000000 0.000000 0.000000 0.000000 0.000000 0.000551
#
#
# Mechanical properties :
#
#
# Convention : Reuss Voigt Hill
#
# Bulk Modulus (GPa) = 23.62163 29.25299 26.43731
# Shear Modulus (GPa) = 26.04413 381.18079 203.61246
#
# Velocity S-wave (km/s) = 3.60497 13.79151 10.07972
# Velocity P-wave (km/s) = 5.39580 16.37695 12.19261
#
# Compressibility (1/GPa) = 0.04233408
#
# Stress axis : x y z
#
# Youngs Moduli (GPa) = 40.72426 82.11743 55.22430
#
# Poissons Ratio (x) = 0.14527 -0.03435
# Poissons Ratio (y) = 0.07204 0.28200
# Poissons Ratio (z) = -0.02533 0.41933
#
# Static dielectric constant tensor:
#      x y z
#    x 1.687240 0.000000 0.000000 
#    y 0.000000 1.710320 0.000000 
#    z 0.000000 0.000000 1.721900 
# 
# From -- ./inp_files/5030.got.cif
#   From: 2010.05.17/outbox.cif.g08.bks.cpg/sg31_3_cif.got.tgz:5030.got - 2010.06.03 17:08:30.
