data_PCOD9343872
_publ_section_title
;
Structure prediction by ZEFSAII (Michael W. Deem and Ramdas Pophale) SiO2 
 PCOD9343872
Probable space group: P B A 2
;
_chemical_formula_sum "Si O2"
_cell_formula_units_Z 22
_cell_length_a 13.041086
_cell_length_b 9.941200
_cell_length_c 7.531937
_cell_angle_alpha 90.000000
_cell_angle_beta 90.000000
_cell_angle_gamma 90.000000
_cell_volume 976.470773
_symmetry_space_group_name_H-M "P B A 2"
_symmetry_group_IT_number 32
_symmetry_cell_setting 'orthorhombic'
loop_
_space_group_symop_operation_xyz
x,y,z
-x,-y,z
1/2-x,1/2+y,z
1/2+x,1/2-y,z
loop_
_atom_site_type_symbol
_atom_site_label
_atom_site_fract_x
_atom_site_fract_y
_atom_site_fract_z
Si Si1 0.520554 0.220207 0.578560
Si Si2 0.640305 0.818306 0.268417
Si Si3 0.273024 0.906146 0.419943
Si Si4 0.629755 0.878200 0.875861
Si Si5 0.790695 0.097495 0.803015
Si Si6 0.000000 0.000000 0.773524
O O1 0.447875 0.214310 0.407912
O O2 0.627272 0.159851 0.512591
O O3 0.460028 0.138080 0.732430
O O4 0.528730 0.369043 0.658475
O O5 0.720515 0.695461 0.282057
O O6 0.696991 0.953255 0.333747
O O7 0.595557 0.847366 0.074981
O O8 0.200864 0.927261 0.591117
O O9 0.709642 0.757265 0.830079
O O10 0.692389 0.016375 0.867701
O O11 0.897864 0.041859 0.881441
#
# Coordination Sequence:
#
# PCOD9343872 Si02
#       6
#     4   4   4   4   4   2
#     4  11  24  44  67 100 137 177 226 279 346 407
#     4  12  25  45  68 104 133 179 230 285 340 412
#     4  12  23  46  71  97 140 180 223 285 346 405
#     4  11  24  44  69 100 138 174 233 278 345 404
#     4  11  21  44  70  94 133 182 218 277 340 406
#     4  10  20  40  72  94 126 178 224 270 334 398
#
# _framework density 22.530117000000001
#
# number of rings (size 3 to 8) (size 9 to 14) (size 15 to 20)
#    0.000    0.727    5.455    3.818    0.000    0.000 
#   16.364    0.909    0.000    0.000    0.000    0.000 
#    0.000    0.000    0.000    0.000    0.000    0.000 
#
# Total GULP energy -123102.354693 kJ/mol
# GULP energy per Si atom -5595.561577 kJ/mol
# Density = 2.247884 g / cm^3
# Si number density = 22.530117 Si / 1000 Ang^3
#
#
#
# Elastic Constant Matrix: (Units=GPa)
#
#
# Indices 1 2 3 4 5 6 
#
# 1 86.7994 14.7077 -8.6664 0.0000 0.0000 0.0000
# 2 14.7077 104.6076 -24.5620 0.0000 0.0000 0.0000
# 3 -8.6664 -24.5620 78.4994 0.0000 0.0000 0.0000
# 4 0.0000 0.0000 0.0000 21.5856 0.0000 0.0000
# 5 0.0000 0.0000 0.0000 0.0000 -22.9989 0.0000
# 6 0.0000 0.0000 0.0000 0.0000 0.0000 29.8596
#
#
#
# Elastic Compliance Matrix: (Units=1/GPa)
#
#
# Indices 1 2 3 4 5 6 
#
# 1 0.011854 -0.001467 0.000850 0.000000 0.000000 0.000000
# 2 -0.001467 0.010499 0.003123 0.000000 0.000000 0.000000
# 3 0.000850 0.003123 0.013810 0.000000 0.000000 0.000000
# 4 0.000000 0.000000 0.000000 0.046327 0.000000 0.000000
# 5 0.000000 0.000000 0.000000 0.000000 -0.043480 0.000000
# 6 0.000000 0.000000 0.000000 0.000000 0.000000 0.033490
#
#
# Mechanical properties :
#
#
# Convention : Reuss Voigt Hill
#
# Bulk Modulus (GPa) = 24.28685 25.87389 25.08037
# Shear Modulus (GPa) = 61.56572 24.91772 43.24172
#
# Velocity S-wave (km/s) = 5.23310 3.32923 4.38572
# Velocity P-wave (km/s) = 6.87872 5.12712 6.06648
#
# Compressibility (1/GPa) = 0.04117454
#
# Stress axis : x y z
#
# Youngs Moduli (GPa) = 84.35790 95.24583 72.41144
#
# Poissons Ratio (x) = 0.13974 -0.06152
# Poissons Ratio (y) = 0.12377 -0.22615
# Poissons Ratio (z) = -0.07167 -0.29747
#
# Static dielectric constant tensor:
#      x y z
#    x 1.860880 0.000000 0.000000 
#    y 0.000000 1.846880 0.000000 
#    z 0.000000 0.000000 1.827700 
# 
# From -- ./inp_files/3007.got.cif
#   From: 2010.05.17/outbox.cif.g08.bks.cpg/sg32_2_cif.got.tgz:3007.got - 2010.06.03 17:12:27.
