data_PCOD9343712
_publ_section_title
;
Structure prediction by ZEFSAII (Michael W. Deem and Ramdas Pophale) SiO2 
 PCOD9343712
Probable space group: P B A 2
;
_chemical_formula_sum "Si O2"
_cell_formula_units_Z 22
_cell_length_a 5.469834
_cell_length_b 28.953242
_cell_length_c 5.008990
_cell_angle_alpha 90.000000
_cell_angle_beta 90.000000
_cell_angle_gamma 90.000000
_cell_volume 793.270879
_symmetry_space_group_name_H-M "P B A 2"
_symmetry_group_IT_number 32
_symmetry_cell_setting 'orthorhombic'
loop_
_space_group_symop_operation_xyz
x,y,z
-x,-y,z
1/2-x,1/2+y,z
1/2+x,1/2-y,z
loop_
_atom_site_type_symbol
_atom_site_label
_atom_site_fract_x
_atom_site_fract_y
_atom_site_fract_z
Si Si1 0.319087 0.345236 0.926470
Si Si2 0.188177 0.765383 0.329240
Si Si3 0.790620 0.073662 0.611407
Si Si4 0.690591 0.819202 0.922870
Si Si5 0.699254 0.908598 0.308788
Si Si6 0.500000 0.000000 0.354829
O O1 0.315662 0.400856 0.898911
O O2 0.322194 0.316730 0.204724
O O3 0.558090 0.327849 0.770696
O O4 0.072328 0.326112 0.799703
O O5 0.441245 0.751695 0.466231
O O6 0.197300 0.728864 0.078208
O O7 0.541867 0.096572 0.492716
O O8 0.045604 0.084327 0.463210
O O9 0.709727 0.021363 0.549003
O O10 0.706493 0.863760 0.124440
O O11 0.625795 0.958944 0.185576
#
# Coordination Sequence:
#
# PCOD9343712 Si02
#       6
#     4   4   4   4   4   2
#     4  10  19  34  58  83 110 146 179 229 274 326
#     4   8  16  30  52  76 106 140 174 208 272 320
#     4  10  20  36  59  78 110 148 184 224 278 328
#     4  10  19  34  58  83 110 146 179 229 274 326
#     4  10  20  36  59  78 110 148 184 224 278 328
#     4   8  22  36  60  72 110 148 184 228 278 336
#
# _framework density 27.733276
#
# number of rings (size 3 to 8) (size 9 to 14) (size 15 to 20)
#    1.091    1.455    0.000    2.727    0.000    0.000 
#    0.000    0.909    0.000   58.909    0.000    0.000 
#    0.000    0.000    0.000    0.000    0.000    0.000 
#
# Total GULP energy -122668.362311 kJ/mol
# GULP energy per Si atom -5575.834651 kJ/mol
# Density = 2.767015 g / cm^3
# Si number density = 27.733276 Si / 1000 Ang^3
#
#
#
# Elastic Constant Matrix: (Units=GPa)
#
#
# Indices 1 2 3 4 5 6 
#
# 1 263.5783 13.5002 14.9739 0.0000 0.0000 0.0000
# 2 13.5002 168.7054 51.4501 0.0000 0.0000 0.0000
# 3 14.9739 51.4501 55.5483 0.0000 0.0000 0.0000
# 4 0.0000 0.0000 0.0000 52.0310 0.0000 0.0000
# 5 0.0000 0.0000 0.0000 0.0000 -57.3960 0.0000
# 6 0.0000 0.0000 0.0000 0.0000 0.0000 39.3302
#
#
#
# Elastic Compliance Matrix: (Units=1/GPa)
#
#
# Indices 1 2 3 4 5 6 
#
# 1 0.003853 0.000012 -0.001049 0.000000 0.000000 0.000000
# 2 0.000012 0.008261 -0.007655 0.000000 0.000000 0.000000
# 3 -0.001049 -0.007655 0.025375 0.000000 0.000000 0.000000
# 4 0.000000 0.000000 0.000000 0.019219 0.000000 0.000000
# 5 0.000000 0.000000 0.000000 0.000000 -0.017423 0.000000
# 6 0.000000 0.000000 0.000000 0.000000 0.000000 0.025426
#
#
# Mechanical properties :
#
#
# Convention : Reuss Voigt Hill
#
# Bulk Modulus (GPa) = 49.74066 71.96448 60.85257
# Shear Modulus (GPa) = 56.30770 33.98689 45.14730
#
# Velocity S-wave (km/s) = 4.51081 3.50450 4.03911
# Velocity P-wave (km/s) = 6.71596 6.51003 6.61380
#
# Compressibility (1/GPa) = 0.02010428
#
# Stress axis : x y z
#
# Youngs Moduli (GPa) = 259.54076 121.05050 39.40850
#
# Poissons Ratio (x) = -0.00142 0.04136
# Poissons Ratio (y) = -0.00305 0.30166
# Poissons Ratio (z) = 0.27239 0.92661
#
# Static dielectric constant tensor:
#      x y z
#    x 2.348510 0.000000 0.000000 
#    y 0.000000 2.189920 0.000000 
#    z 0.000000 0.000000 2.111060 
# 
# From -- ./inp_files/235.got.cif
#   From: 2010.05.17/outbox.cif.g08.bks.cpg/sg32_1_cif.got.tgz:235.got - 2010.06.03 17:12:27.
