data_PCOD9343241
_publ_section_title
;
Structure prediction by ZEFSAII (Michael W. Deem and Ramdas Pophale) SiO2 
 PCOD9343241
Probable space group: P M N 21
;
_chemical_formula_sum "Si O2"
_cell_formula_units_Z 24
_cell_length_a 16.704474
_cell_length_b 8.059324
_cell_length_c 7.240038
_cell_angle_alpha 90.000000
_cell_angle_beta 90.000000
_cell_angle_gamma 90.000000
_cell_volume 974.702918
_symmetry_space_group_name_H-M "P M N 21"
_symmetry_group_IT_number 31
_symmetry_cell_setting 'orthorhombic'
loop_
_space_group_symop_operation_xyz
x,y,z
1/2-x,-y,1/2+z
-x,y,z
1/2+x,-y,1/2+z
loop_
_atom_site_type_symbol
_atom_site_label
_atom_site_fract_x
_atom_site_fract_y
_atom_site_fract_z
Si Si1 0.163029 0.297210 0.256820
Si Si2 0.500000 0.172111 0.950952
Si Si3 0.669320 0.218808 0.289341
Si Si4 0.673484 0.833623 0.345474
Si Si5 0.500000 0.672444 0.279601
Si Si6 0.159552 0.675041 0.363294
Si Si7 0.000000 0.200789 0.427065
Si Si8 0.000000 0.685028 0.861452
O O1 0.244858 0.269771 0.370446
O O2 0.149348 0.494281 0.273511
O O3 0.082332 0.212685 0.322362
O O4 0.177802 0.204128 0.063900
O O5 0.420384 0.215957 0.837915
O O6 0.500000 0.981593 0.014995
O O7 0.500000 0.274024 0.141327
O O8 0.589229 0.252383 0.408094
O O9 0.672886 0.020511 0.271099
O O10 0.665309 0.318617 0.091863
O O11 0.585448 0.761279 0.300952
O O12 0.757342 0.749440 0.287336
O O13 0.500000 0.509530 0.400530
O O14 0.500000 0.640965 0.061384
#
# Coordination Sequence:
#
# PCOD9343241 Si02
#       8
#     4   2   4   4   2   4   2   2
#     4  11  24  43  66  99 136 176 227 287 340 403
#     4  10  20  38  61  91 124 170 223 270 323 400
#     4  10  21  41  66  95 133 179 224 277 341 412
#     4  11  24  43  66  99 136 176 227 287 340 403
#     4  12  23  40  68  97 131 180 229 282 347 416
#     4  10  21  41  66  95 133 179 224 277 341 412
#     4  12  23  40  68  97 131 180 229 282 347 416
#     4  10  20  38  61  91 124 170 223 270 323 400
#
# _framework density 24.622886000000001
#
# number of rings (size 3 to 8) (size 9 to 14) (size 15 to 20)
#    0.000    1.333    0.000    7.500    0.000    2.667 
#    0.000   10.000    0.000    0.000    0.000    0.000 
#    0.000    0.000    0.000    0.000    0.000    0.000 
#
# Total GULP energy -133877.169464 kJ/mol
# GULP energy per Si atom -5578.215394 kJ/mol
# Density = 2.456684 g / cm^3
# Si number density = 24.622886 Si / 1000 Ang^3
#
#
#
# Elastic Constant Matrix: (Units=GPa)
#
#
# Indices 1 2 3 4 5 6 
#
# 1 251.5779 22.4746 4.2456 0.0000 0.0000 0.0000
# 2 22.4746 106.6043 -13.8823 0.0000 0.0000 0.0000
# 3 4.2456 -13.8823 79.0232 0.0000 0.0000 0.0000
# 4 0.0000 0.0000 0.0000 13.0779 0.0000 0.0000
# 5 0.0000 0.0000 0.0000 0.0000 33.7745 0.0000
# 6 0.0000 0.0000 0.0000 0.0000 0.0000 52.5615
#
#
#
# Elastic Compliance Matrix: (Units=1/GPa)
#
#
# Indices 1 2 3 4 5 6 
#
# 1 0.004062 -0.000906 -0.000377 0.000000 0.000000 0.000000
# 2 -0.000906 0.009802 0.001771 0.000000 0.000000 0.000000
# 3 -0.000377 0.001771 0.012986 0.000000 0.000000 0.000000
# 4 0.000000 0.000000 0.000000 0.076465 0.000000 0.000000
# 5 0.000000 0.000000 0.000000 0.000000 0.029608 0.000000
# 6 0.000000 0.000000 0.000000 0.000000 0.000000 0.019025
#
#
# Mechanical properties :
#
#
# Convention : Reuss Voigt Hill
#
# Bulk Modulus (GPa) = 35.93833 51.43125 43.68479
# Shear Modulus (GPa) = 31.20159 48.17393 39.68776
#
# Velocity S-wave (km/s) = 3.56361 4.42800 4.01911
# Velocity P-wave (km/s) = 5.61779 6.86118 6.27038
#
# Compressibility (1/GPa) = 0.02782544
#
# Stress axis : x y z
#
# Youngs Moduli (GPa) = 246.17351 102.02034 77.00706
#
# Poissons Ratio (x) = 0.09238 0.02906
# Poissons Ratio (y) = 0.22292 -0.13635
# Poissons Ratio (z) = 0.09289 -0.18064
#
# Static dielectric constant tensor:
#      x y z
#    x 1.908600 0.000000 0.000000 
#    y 0.000000 1.850420 0.000000 
#    z 0.000000 0.000000 2.103000 
# 
# From -- ./inp_files/2466.got.cif
#   From: 2010.05.17/outbox.cif.g08.bks.cpg/sg31_2_cif.got.tgz:2466.got - 2010.06.03 17:08:30.
