data_PCOD9343781
_publ_section_title
;
Structure prediction by ZEFSAII (Michael W. Deem and Ramdas Pophale) SiO2 
 PCOD9343781
Probable space group: P B A 2
;
_chemical_formula_sum "Si O2"
_cell_formula_units_Z 32
_cell_length_a 22.436838
_cell_length_b 13.154014
_cell_length_c 6.665401
_cell_angle_alpha 90.000000
_cell_angle_beta 90.000000
_cell_angle_gamma 90.000000
_cell_volume 1967.189666
_symmetry_space_group_name_H-M "P B A 2"
_symmetry_group_IT_number 32
_symmetry_cell_setting 'orthorhombic'
loop_
_space_group_symop_operation_xyz
x,y,z
-x,-y,z
1/2-x,1/2+y,z
1/2+x,1/2-y,z
loop_
_atom_site_type_symbol
_atom_site_label
_atom_site_fract_x
_atom_site_fract_y
_atom_site_fract_z
Si Si1 0.277724 0.380207 0.629770
Si Si2 0.235073 0.073066 0.371602
Si Si3 0.648616 0.809790 0.522214
Si Si4 0.092083 0.535897 0.826792
Si Si5 0.937017 0.599290 0.467140
Si Si6 0.937076 0.397070 0.250541
Si Si7 0.825787 0.717389 0.357825
Si Si8 0.710359 0.061641 0.020657
O O1 0.289991 0.485633 0.516076
O O2 0.330288 0.299304 0.598692
O O3 0.220344 0.331169 0.517615
O O4 0.257758 0.401254 0.856013
O O5 0.292211 0.124371 0.479001
O O6 0.189424 0.164601 0.333670
O O7 0.259037 0.018773 0.170980
O O8 0.609274 0.870392 0.683322
O O9 0.610032 0.812033 0.317141
O O10 0.061838 0.447551 0.691202
O O11 0.056631 0.580907 0.016199
O O12 0.154090 0.489650 0.910258
O O13 0.911642 0.503748 0.338705
O O14 0.891424 0.690584 0.437208
O O15 0.000957 0.619636 0.367460
O O16 0.812607 0.656336 0.153055
#
# Coordination Sequence:
#
# PCOD9343781 Si02
#       8
#     4   4   4   4   4   4   4   4
#     4  10  20  33  51  75 105 138 172 217 259 315
#     4  10  20  32  51  76 107 134 173 215 265 310
#     4  10  20  32  50  77 103 134 178 210 262 314
#     4  11  18  33  52  75 107 139 169 213 257 318
#     4  10  20  34  50  78 104 136 178 208 263 312
#     4  10  20  33  52  73 108 138 170 215 260 314
#     4  10  20  33  50  77 106 136 170 219 260 315
#     4  11  18  31  51  75 106 139 168 207 266 316
#
# _framework density 16.266859
#
# number of rings (size 3 to 8) (size 9 to 14) (size 15 to 20)
#    0.000    1.750    5.000    1.500    1.750    5.000 
#    0.000    0.000    0.000    0.750    0.000    0.000 
#    0.000    0.000    0.000    0.000    0.000    0.000 
#
# Total GULP energy -178412.766543 kJ/mol
# GULP energy per Si atom -5575.398954 kJ/mol
# Density = 1.622983 g / cm^3
# Si number density = 16.266859 Si / 1000 Ang^3
#
#
#
# Elastic Constant Matrix: (Units=GPa)
#
#
# Indices 1 2 3 4 5 6 
#
# 1 74.7187 43.7060 31.8580 0.0000 0.0000 0.0000
# 2 43.7060 101.7473 40.3231 0.0000 0.0000 0.0000
# 3 31.8580 40.3231 107.4329 0.0000 0.0000 0.0000
# 4 0.0000 0.0000 0.0000 11.6832 0.0000 0.0000
# 5 0.0000 0.0000 0.0000 0.0000 19.7752 0.0000
# 6 0.0000 0.0000 0.0000 0.0000 0.0000 23.0081
#
#
#
# Elastic Compliance Matrix: (Units=1/GPa)
#
#
# Indices 1 2 3 4 5 6 
#
# 1 0.018645 -0.006834 -0.002964 0.000000 0.000000 0.000000
# 2 -0.006834 0.014051 -0.003247 0.000000 0.000000 0.000000
# 3 -0.002964 -0.003247 0.011406 0.000000 0.000000 0.000000
# 4 0.000000 0.000000 0.000000 0.085593 0.000000 0.000000
# 5 0.000000 0.000000 0.000000 0.000000 0.050568 0.000000
# 6 0.000000 0.000000 0.000000 0.000000 0.000000 0.043463
#
#
# Mechanical properties :
#
#
# Convention : Reuss Voigt Hill
#
# Bulk Modulus (GPa) = 55.52169 57.29703 56.40936
# Shear Modulus (GPa) = 19.54498 22.09407 20.81953
#
# Velocity S-wave (km/s) = 3.47006 3.68941 3.58141
# Velocity P-wave (km/s) = 7.08950 7.31086 7.20103
#
# Compressibility (1/GPa) = 0.01801098
#
# Stress axis : x y z
#
# Youngs Moduli (GPa) = 53.63384 71.16989 87.67514
#
# Poissons Ratio (x) = 0.48641 0.25985
# Poissons Ratio (y) = 0.36656 0.28469
# Poissons Ratio (z) = 0.15896 0.23109
#
# Static dielectric constant tensor:
#      x y z
#    x 1.562210 0.000000 0.000000 
#    y 0.000000 1.533640 0.000000 
#    z 0.000000 0.000000 1.590510 
# 
# From -- ./inp_files/1680.got.cif
#   From: 2010.05.17/outbox.cif.g08.bks.cpg/sg32_1_cif.got.tgz:1680.got - 2010.06.03 17:12:27.
