data_PCOD9343657
_publ_section_title
;
Structure prediction by ZEFSAII (Michael W. Deem and Ramdas Pophale) SiO2 
 PCOD9343657
Probable space group: P B A 2
;
_chemical_formula_sum "Si O2"
_cell_formula_units_Z 32
_cell_length_a 5.257605
_cell_length_b 25.443079
_cell_length_c 11.714413
_cell_angle_alpha 90.000000
_cell_angle_beta 90.000000
_cell_angle_gamma 90.000000
_cell_volume 1567.033037
_symmetry_space_group_name_H-M "P B A 2"
_symmetry_group_IT_number 32
_symmetry_cell_setting 'orthorhombic'
loop_
_space_group_symop_operation_xyz
x,y,z
-x,-y,z
1/2-x,1/2+y,z
1/2+x,1/2-y,z
loop_
_atom_site_type_symbol
_atom_site_label
_atom_site_fract_x
_atom_site_fract_y
_atom_site_fract_z
Si Si1 0.160031 0.784352 0.769120
Si Si2 0.960500 0.218597 0.011603
Si Si3 0.603876 0.608516 0.656485
Si Si4 0.018450 0.628770 0.347976
Si Si5 0.343745 0.547187 0.469441
Si Si6 0.122120 0.549118 0.705398
Si Si7 0.476803 0.235184 0.469749
Si Si8 0.025307 0.823478 0.263003
O O1 0.444374 0.760930 0.766673
O O2 0.105900 0.830318 0.680229
O O3 0.115818 0.810837 0.895580
O O4 0.758056 0.266680 0.007323
O O5 0.915282 0.194944 0.136163
O O6 0.521663 0.592729 0.526587
O O7 0.380738 0.580896 0.733962
O O8 0.886059 0.587508 0.682330
O O9 0.125275 0.574511 0.396032
O O10 0.010002 0.673926 0.444816
O O11 0.244902 0.652066 0.269358
O O12 0.740627 0.633929 0.294781
O O13 0.500000 0.500000 0.413478
O O14 0.224246 0.524274 0.585733
O O15 0.000000 0.500000 0.773078
O O16 0.721166 0.254133 0.533673
O O17 0.463078 0.274188 0.355381
#
# Coordination Sequence:
#
# PCOD9343657 Si02
#       8
#     4   4   4   4   4   4   4   4
#     4  10  21  36  54  83 116 148 184 223 273 342
#     4  10  18  31  55  78 106 146 183 222 262 309
#     4  10  20  35  57  77 111 144 180 232 285 332
#     4  10  20  29  48  74 103 137 174 221 265 313
#     4  10  22  36  56  78 105 138 189 238 283 327
#     4  10  18  35  57  80  99 135 183 244 278 321
#     4   8  14  26  40  59  92 125 157 196 236 292
#     4  10  18  31  49  74 106 138 175 215 258 316
#
# _framework density 20.420756000000001
#
# number of rings (size 3 to 8) (size 9 to 14) (size 15 to 20)
#    0.750    1.500    1.250    4.125    1.750    0.000 
#    0.000    3.750    0.000    0.000    0.000    4.375 
#    0.000    1.000    0.000    0.000    0.000    0.000 
#
# Total GULP energy -178214.808077 kJ/mol
# GULP energy per Si atom -5569.212752 kJ/mol
# Density = 2.037428 g / cm^3
# Si number density = 20.420756 Si / 1000 Ang^3
#
#
#
# Elastic Constant Matrix: (Units=GPa)
#
#
# Indices 1 2 3 4 5 6 
#
# 1 131.5748 16.9629 0.7089 0.0000 0.0000 0.0000
# 2 16.9629 68.4727 12.7194 0.0000 0.0000 0.0000
# 3 0.7089 12.7194 55.6187 0.0000 0.0000 0.0000
# 4 0.0000 0.0000 0.0000 8.6704 0.0000 0.0000
# 5 0.0000 0.0000 0.0000 0.0000 15.9598 0.0000
# 6 0.0000 0.0000 0.0000 0.0000 0.0000 37.4860
#
#
#
# Elastic Compliance Matrix: (Units=1/GPa)
#
#
# Indices 1 2 3 4 5 6 
#
# 1 0.007858 -0.002014 0.000360 0.000000 0.000000 0.000000
# 2 -0.002014 0.015768 -0.003580 0.000000 0.000000 0.000000
# 3 0.000360 -0.003580 0.018794 0.000000 0.000000 0.000000
# 4 0.000000 0.000000 0.000000 0.115335 0.000000 0.000000
# 5 0.000000 0.000000 0.000000 0.000000 0.062657 0.000000
# 6 0.000000 0.000000 0.000000 0.000000 0.000000 0.026677
#
#
# Mechanical properties :
#
#
# Convention : Reuss Voigt Hill
#
# Bulk Modulus (GPa) = 31.29628 35.16097 33.22862
# Shear Modulus (GPa) = 18.64232 27.44157 23.04194
#
# Velocity S-wave (km/s) = 3.02472 3.66978 3.36275
# Velocity P-wave (km/s) = 5.24953 5.93397 5.60221
#
# Compressibility (1/GPa) = 0.03195268
#
# Stress axis : x y z
#
# Youngs Moduli (GPa) = 127.26059 63.41853 53.20914
#
# Poissons Ratio (x) = 0.12770 -0.01917
# Poissons Ratio (y) = 0.25625 0.19051
# Poissons Ratio (z) = -0.04586 0.22706
#
# Static dielectric constant tensor:
#      x y z
#    x 1.818620 0.000000 0.000000 
#    y 0.000000 1.753590 0.000000 
#    z 0.000000 0.000000 1.775240 
# 
# From -- ./inp_files/3613.got.cif
#   From: 2010.05.17/outbox.cif.g08.bks.cpg/sg32_2_cif.got.tgz:3613.got - 2010.06.03 17:12:27.
