data_PCOD9343811
_publ_section_title
;
Structure prediction by ZEFSAII (Michael W. Deem and Ramdas Pophale) SiO2 
 PCOD9343811
Probable space group: P B A 2
;
_chemical_formula_sum "Si O2"
_cell_formula_units_Z 32
_cell_length_a 13.637219
_cell_length_b 17.079526
_cell_length_c 7.565749
_cell_angle_alpha 90.000000
_cell_angle_beta 90.000000
_cell_angle_gamma 90.000000
_cell_volume 1762.193349
_symmetry_space_group_name_H-M "P B A 2"
_symmetry_group_IT_number 32
_symmetry_cell_setting 'orthorhombic'
loop_
_space_group_symop_operation_xyz
x,y,z
-x,-y,z
1/2-x,1/2+y,z
1/2+x,1/2-y,z
loop_
_atom_site_type_symbol
_atom_site_label
_atom_site_fract_x
_atom_site_fract_y
_atom_site_fract_z
Si Si1 0.765377 0.271618 0.617600
Si Si2 0.543261 0.845459 0.782259
Si Si3 0.675217 0.983223 0.935145
Si Si4 0.837624 0.605845 0.236289
Si Si5 0.834268 0.605995 0.635047
Si Si6 0.024057 0.253195 0.124490
Si Si7 0.191859 0.157042 0.962606
Si Si8 0.309113 0.262565 0.224922
O O1 0.873451 0.301288 0.670421
O O2 0.735819 0.181563 0.653012
O O3 0.695322 0.320000 0.753647
O O4 0.763060 0.275374 0.403686
O O5 0.445841 0.868753 0.677155
O O6 0.592763 0.922381 0.868885
O O7 0.508710 0.789882 0.939037
O O8 0.696294 0.040880 0.773753
O O9 0.769522 0.930741 0.982135
O O10 0.642902 0.037626 0.097424
O O11 0.833342 0.575964 0.435228
O O12 0.735973 0.651305 0.199106
O O13 0.915113 0.677233 0.218547
O O14 0.926209 0.234095 0.231813
O O15 0.094402 0.181735 0.067514
O O16 0.273919 0.211386 0.058400
#
# Coordination Sequence:
#
# PCOD9343811 Si02
#       8
#     4   4   4   4   4   4   4   4
#     4  10  20  36  59  83 113 151 193 238 280 337
#     4  11  21  35  60  86 114 145 190 242 280 338
#     4  11  22  37  52  86 119 149 183 235 294 353
#     4  10  23  37  59  82 121 156 183 238 288 347
#     4  11  21  39  58  85 119 153 188 231 295 345
#     4  11  19  38  62  84 109 149 200 240 282 334
#     4  10  21  37  57  84 115 147 190 246 281 341
#     4  10  20  37  60  83 109 154 198 233 286 337
#
# _framework density 18.159188
#
# number of rings (size 3 to 8) (size 9 to 14) (size 15 to 20)
#    0.000    1.500    5.000    1.875    0.000    2.000 
#    4.500    0.625    0.000    0.000    0.000    0.000 
#    0.000    0.000    0.000    0.000    0.000    0.000 
#
# Total GULP energy -178429.727897 kJ/mol
# GULP energy per Si atom -5575.928997 kJ/mol
# Density = 1.811786 g / cm^3
# Si number density = 18.159188 Si / 1000 Ang^3
#
#
#
# Elastic Constant Matrix: (Units=GPa)
#
#
# Indices 1 2 3 4 5 6 
#
# 1 82.9306 43.6271 19.7471 0.0000 0.0000 0.0000
# 2 43.6271 76.1453 34.6383 0.0000 0.0000 0.0000
# 3 19.7471 34.6383 84.7418 0.0000 0.0000 0.0000
# 4 0.0000 0.0000 0.0000 3.9261 0.0000 0.0000
# 5 0.0000 0.0000 0.0000 0.0000 22.5656 0.0000
# 6 0.0000 0.0000 0.0000 0.0000 0.0000 19.7936
#
#
#
# Elastic Compliance Matrix: (Units=1/GPa)
#
#
# Indices 1 2 3 4 5 6 
#
# 1 0.017261 -0.009901 0.000025 0.000000 0.000000 0.000000
# 2 -0.009901 0.021812 -0.006608 0.000000 0.000000 0.000000
# 3 0.000025 -0.006608 0.014496 0.000000 0.000000 0.000000
# 4 0.000000 0.000000 0.000000 0.254705 0.000000 0.000000
# 5 0.000000 0.000000 0.000000 0.000000 0.044315 0.000000
# 6 0.000000 0.000000 0.000000 0.000000 0.000000 0.050521
#
#
# Mechanical properties :
#
#
# Convention : Reuss Voigt Hill
#
# Bulk Modulus (GPa) = 48.54479 48.87141 48.70810
# Shear Modulus (GPa) = 11.28809 18.97741 15.13275
#
# Velocity S-wave (km/s) = 2.49593 3.23624 2.88989
# Velocity P-wave (km/s) = 5.92429 6.39809 6.16574
#
# Compressibility (1/GPa) = 0.02059953
#
# Stress axis : x y z
#
# Youngs Moduli (GPa) = 57.93443 45.84735 68.98484
#
# Poissons Ratio (x) = 0.45393 -0.00170
# Poissons Ratio (y) = 0.57360 0.45587
# Poissons Ratio (z) = -0.00143 0.30297
#
# Static dielectric constant tensor:
#      x y z
#    x 1.665740 0.000000 0.000000 
#    y 0.000000 1.611280 0.000000 
#    z 0.000000 0.000000 1.644870 
# 
# From -- ./inp_files/2847.got.cif
#   From: 2010.05.17/outbox.cif.g08.bks.cpg/sg32_2_cif.got.tgz:2847.got - 2010.06.03 17:12:27.
