data_PCOD9343444
_publ_section_title
;
Structure prediction by ZEFSAII (Michael W. Deem and Ramdas Pophale) SiO2 
 PCOD9343444
Probable space group: P M N 21
;
_chemical_formula_sum "Si O2"
_cell_formula_units_Z 28
_cell_length_a 29.414701
_cell_length_b 5.301353
_cell_length_c 9.001130
_cell_angle_alpha 90.000000
_cell_angle_beta 90.000000
_cell_angle_gamma 90.000000
_cell_volume 1403.615630
_symmetry_space_group_name_H-M "P M N 21"
_symmetry_group_IT_number 31
_symmetry_cell_setting 'orthorhombic'
loop_
_space_group_symop_operation_xyz
x,y,z
1/2-x,-y,1/2+z
-x,y,z
1/2+x,-y,1/2+z
loop_
_atom_site_type_symbol
_atom_site_label
_atom_site_fract_x
_atom_site_fract_y
_atom_site_fract_z
Si Si1 0.167817 0.169899 0.476050
Si Si2 0.168599 0.899380 0.176186
Si Si3 0.899187 0.904678 0.900625
Si Si4 0.899579 0.405473 0.696145
Si Si5 0.000000 0.473321 0.706552
Si Si6 0.229663 0.527207 0.307963
Si Si7 0.262143 0.173087 0.085880
Si Si8 0.500000 0.029059 0.392418
O O1 0.134196 0.355999 0.559798
O O2 0.212273 0.314918 0.418738
O O3 0.149913 0.029801 0.327255
O O4 0.190043 0.968572 0.587736
O O5 0.184910 0.619025 0.220062
O O6 0.217181 0.026120 0.135757
O O7 0.135712 0.907073 0.036741
O O8 0.892938 0.655871 0.797040
O O9 0.951169 0.911590 0.963992
O O10 0.895371 0.157420 0.800795
O O11 0.951284 0.422272 0.633804
O O12 0.000000 0.765381 0.757676
O O13 0.000000 0.263191 0.839947
O O14 0.264829 0.411805 0.194813
O O15 0.246253 0.745837 0.415644
#
# Coordination Sequence:
#
# PCOD9343444 Si02
#       8
#     4   4   4   4   2   4   4   2
#     4  10  23  40  56  84 120 157 200 251 304 354
#     4  10  23  40  56  84 120 157 200 251 304 354
#     4  10  22  38  64  93 117 156 202 250 298 364
#     4  10  22  38  64  93 117 156 202 250 298 364
#     4   8  16  36  59  87 122 148 190 249 304 348
#     4  10  22  40  58  75 116 159 194 252 294 350
#     4  10  22  40  56  80 112 156 198 242 298 350
#     4   8  16  36  59  87 122 148 190 249 304 348
#
# _framework density 19.94848
#
# number of rings (size 3 to 8) (size 9 to 14) (size 15 to 20)
#    0.000    2.286    0.000    0.857    8.000    5.714 
#    2.571    0.714    0.000    0.857    0.000    0.000 
#    0.000    0.000    0.000    0.000    0.000    0.000 
#
# Total GULP energy -156067.933808 kJ/mol
# GULP energy per Si atom -5573.854779 kJ/mol
# Density = 1.990308 g / cm^3
# Si number density = 19.948480 Si / 1000 Ang^3
#
#
#
# Elastic Constant Matrix: (Units=GPa)
#
#
# Indices 1 2 3 4 5 6 
#
# 1 66.7007 6.7005 42.4834 0.0000 0.0000 0.0000
# 2 6.7005 85.5812 17.6991 0.0000 0.0000 0.0000
# 3 42.4834 17.6991 61.8671 0.0000 0.0000 0.0000
# 4 0.0000 0.0000 0.0000 28.8752 0.0000 0.0000
# 5 0.0000 0.0000 0.0000 0.0000 26.0617 0.0000
# 6 0.0000 0.0000 0.0000 0.0000 0.0000 20.0122
#
#
#
# Elastic Compliance Matrix: (Units=1/GPa)
#
#
# Indices 1 2 3 4 5 6 
#
# 1 0.026912 0.001823 -0.019001 0.000000 0.000000 0.000000
# 2 0.001823 0.012543 -0.004840 0.000000 0.000000 0.000000
# 3 -0.019001 -0.004840 0.030596 0.000000 0.000000 0.000000
# 4 0.000000 0.000000 0.000000 0.034632 0.000000 0.000000
# 5 0.000000 0.000000 0.000000 0.000000 0.038371 0.000000
# 6 0.000000 0.000000 0.000000 0.000000 0.000000 0.049969
#
#
# Mechanical properties :
#
#
# Convention : Reuss Voigt Hill
#
# Bulk Modulus (GPa) = 38.44120 38.65722 38.54921
# Shear Modulus (GPa) = 20.34741 24.80757 22.57749
#
# Velocity S-wave (km/s) = 3.19721 3.53027 3.36786
# Velocity P-wave (km/s) = 5.73947 6.00314 5.87279
#
# Compressibility (1/GPa) = 0.02601376
#
# Stress axis : x y z
#
# Youngs Moduli (GPa) = 37.15847 79.72537 32.68361
#
# Poissons Ratio (x) = -0.14531 0.62104
# Poissons Ratio (y) = -0.06773 0.15819
# Poissons Ratio (z) = 0.70606 0.38587
#
# Static dielectric constant tensor:
#      x y z
#    x 1.715650 0.000000 0.000000 
#    y 0.000000 1.789460 0.000000 
#    z 0.000000 0.000000 1.688540 
# 
# From -- ./inp_files/3146.got.cif
#   From: 2010.05.17/outbox.cif.g08.bks.cpg/sg31_2_cif.got.tgz:3146.got - 2010.06.03 17:08:30.
