data_PCOD9343076
_publ_section_title
;
Structure prediction by ZEFSAII (Michael W. Deem and Ramdas Pophale) SiO2 
 PCOD9343076
Probable space group: P M N 21
;
_chemical_formula_sum "Si O2"
_cell_formula_units_Z 32
_cell_length_a 7.730567
_cell_length_b 11.727675
_cell_length_c 16.948038
_cell_angle_alpha 90.000000
_cell_angle_beta 90.000000
_cell_angle_gamma 90.000000
_cell_volume 1536.535858
_symmetry_space_group_name_H-M "P M N 21"
_symmetry_group_IT_number 31
_symmetry_cell_setting 'orthorhombic'
loop_
_space_group_symop_operation_xyz
x,y,z
1/2-x,-y,1/2+z
-x,y,z
1/2+x,-y,1/2+z
loop_
_atom_site_type_symbol
_atom_site_label
_atom_site_fract_x
_atom_site_fract_y
_atom_site_fract_z
Si Si1 0.211495 0.715328 0.937330
Si Si2 0.293716 0.329826 0.741899
Si Si3 0.290808 0.442483 0.579900
Si Si4 0.291457 0.437264 0.293415
Si Si5 0.297619 0.934874 0.609169
Si Si6 0.291191 0.024511 0.439280
Si Si7 0.795999 0.675668 0.631593
Si Si8 0.291405 0.072354 0.765307
O O1 0.268903 0.645979 0.861402
O O2 0.000000 0.718131 0.937016
O O3 0.265906 0.641842 0.011800
O O4 0.269915 0.844866 0.938558
O O5 0.500000 0.318747 0.733486
O O6 0.225194 0.385800 0.661036
O O7 0.260063 0.431079 0.803752
O O8 0.227142 0.203115 0.757444
O O9 0.500000 0.444121 0.581834
O O10 0.232686 0.573045 0.570079
O O11 0.500000 0.435433 0.291160
O O12 0.226215 0.382253 0.211827
O O13 0.500000 0.966695 0.607358
O O14 0.226741 0.969927 0.522317
O O15 0.283170 0.798542 0.616329
O O16 0.228210 0.996732 0.689533
O O17 0.500000 0.022337 0.443021
O O18 0.248437 0.971296 0.353721
O O19 0.000000 0.695009 0.640314
O O20 0.500000 0.072490 0.760281
#
# Coordination Sequence:
#
# PCOD9343076 Si02
#       8
#     4   4   4   4   4   4   4   4
#     4   9  17  32  54  76  98 127 169 216 258 304
#     4   9  18  33  52  74 101 133 169 208 256 312
#     4   9  17  32  55  77  98 131 173 215 260 316
#     4   9  18  32  51  75 101 130 165 209 259 310
#     4  10  21  37  57  79 107 145 185 221 262 321
#     4  10  21  37  57  81 107 141 186 227 265 320
#     4  10  20  34  52  76 107 138 171 215 267 317
#     4  10  21  37  56  80 111 145 180 223 273 320
#
# _framework density 20.826066000000001
#
# number of rings (size 3 to 8) (size 9 to 14) (size 15 to 20)
#    0.000    2.500    0.000    1.875    0.000    7.000 
#    0.000    5.625    0.000    3.000    0.000    0.000 
#    0.000    0.000    0.000    0.000    0.000    0.000 
#
# Total GULP energy -178393.069816 kJ/mol
# GULP energy per Si atom -5574.783432 kJ/mol
# Density = 2.077867 g / cm^3
# Si number density = 20.826066 Si / 1000 Ang^3
#
#
#
# Elastic Constant Matrix: (Units=GPa)
#
#
# Indices 1 2 3 4 5 6 
#
# 1 33.6738 -2.7455 5.9583 0.0000 0.0000 0.0000
# 2 -2.7455 208.5262 106.5367 0.0000 0.0000 0.0000
# 3 5.9583 106.5367 138.3757 0.0000 0.0000 0.0000
# 4 0.0000 0.0000 0.0000 36.2466 0.0000 0.0000
# 5 0.0000 0.0000 0.0000 0.0000 15.4822 0.0000
# 6 0.0000 0.0000 0.0000 0.0000 0.0000 17.8384
#
#
#
# Elastic Compliance Matrix: (Units=1/GPa)
#
#
# Indices 1 2 3 4 5 6 
#
# 1 0.030310 0.001757 -0.002658 0.000000 0.000000 0.000000
# 2 0.001757 0.008007 -0.006240 0.000000 0.000000 0.000000
# 3 -0.002658 -0.006240 0.012146 0.000000 0.000000 0.000000
# 4 0.000000 0.000000 0.000000 0.027589 0.000000 0.000000
# 5 0.000000 0.000000 0.000000 0.000000 0.064590 0.000000
# 6 0.000000 0.000000 0.000000 0.000000 0.000000 0.056059
#
#
# Mechanical properties :
#
#
# Convention : Reuss Voigt Hill
#
# Bulk Modulus (GPa) = 27.63922 66.67496 47.15709
# Shear Modulus (GPa) = 22.21800 31.96852 27.09326
#
# Velocity S-wave (km/s) = 3.26979 3.92219 3.61075
# Velocity P-wave (km/s) = 5.24935 7.25232 6.33055
#
# Compressibility (1/GPa) = 0.03618047
#
# Stress axis : x y z
#
# Youngs Moduli (GPa) = 32.99219 124.89346 82.33485
#
# Poissons Ratio (x) = -0.21943 0.21883
# Poissons Ratio (y) = -0.05797 0.51378
# Poissons Ratio (z) = 0.08769 0.77936
#
# Static dielectric constant tensor:
#      x y z
#    x 1.810460 0.000000 0.000000 
#    y 0.000000 1.722390 0.000000 
#    z 0.000000 0.000000 1.778610 
# 
# From -- ./inp_files/5020.got.cif
#   From: 2010.05.17/outbox.cif.g08.bks.cpg/sg31_3_cif.got.tgz:5020.got - 2010.06.03 17:08:30.
