data_PCOD9343588
_publ_section_title
;
Structure prediction by ZEFSAII (Michael W. Deem and Ramdas Pophale) SiO2 
 PCOD9343588
Probable space group: P M N 21
;
_chemical_formula_sum "Si O2"
_cell_formula_units_Z 20
_cell_length_a 27.743837
_cell_length_b 5.710982
_cell_length_c 4.832451
_cell_angle_alpha 90.000000
_cell_angle_beta 90.000000
_cell_angle_gamma 90.000000
_cell_volume 765.675542
_symmetry_space_group_name_H-M "P M N 21"
_symmetry_group_IT_number 31
_symmetry_cell_setting 'orthorhombic'
loop_
_space_group_symop_operation_xyz
x,y,z
1/2-x,-y,1/2+z
-x,y,z
1/2+x,-y,1/2+z
loop_
_atom_site_type_symbol
_atom_site_label
_atom_site_fract_x
_atom_site_fract_y
_atom_site_fract_z
Si Si1 0.079028 0.028977 0.738870
Si Si2 0.245947 0.147144 0.971495
Si Si3 0.152598 0.657673 0.610486
Si Si4 0.000000 0.689307 0.002121
Si Si5 0.000000 0.342318 0.510713
Si Si6 0.856986 0.357578 0.113181
O O1 0.120303 0.886937 0.574783
O O2 0.045379 0.168655 0.523670
O O3 0.103940 0.199317 0.960729
O O4 0.045604 0.846751 0.911503
O O5 0.244023 0.087828 0.648699
O O6 0.291732 0.306805 0.035363
O O7 0.194920 0.237792 0.076206
O O8 0.134011 0.445592 0.421605
O O9 0.147448 0.592605 0.929958
O O10 0.000000 0.562259 0.300543
O O11 0.000000 0.463731 0.807756
#
# Coordination Sequence:
#
# PCOD9343588 Si02
#       6
#     4   4   4   2   2   4
#     4  11  28  52  82 118 156 202 264 333 386 476
#     4  12  24  48  74 110 164 212 254 318 382 454
#     4  12  27  47  77 115 159 209 261 315 386 461
#     4  11  28  55  83 112 155 203 258 329 411 468
#     4  11  28  55  83 112 155 203 258 329 411 468
#     4  12  27  47  77 115 159 209 261 315 386 461
#
# _framework density 26.120723000000002
#
# number of rings (size 3 to 8) (size 9 to 14) (size 15 to 20)
#    0.000    0.400    2.000    4.800    0.000   12.800 
#    0.000    3.000    0.000    0.000    0.000    0.000 
#    0.000    0.000    0.000    0.000    0.000    0.000 
#
# Total GULP energy -112270.748603 kJ/mol
# GULP energy per Si atom -5613.537430 kJ/mol
# Density = 2.606127 g / cm^3
# Si number density = 26.120723 Si / 1000 Ang^3
#
#
#
# Elastic Constant Matrix: (Units=GPa)
#
#
# Indices 1 2 3 4 5 6 
#
# 1 119.4269 37.3650 43.8235 0.0000 0.0000 0.0000
# 2 37.3650 73.9376 3.3032 0.0000 0.0000 0.0000
# 3 43.8235 3.3032 72.7328 0.0000 0.0000 0.0000
# 4 0.0000 0.0000 0.0000 52.3034 0.0000 0.0000
# 5 0.0000 0.0000 0.0000 0.0000 30.2200 0.0000
# 6 0.0000 0.0000 0.0000 0.0000 0.0000 68.5438
#
#
#
# Elastic Compliance Matrix: (Units=1/GPa)
#
#
# Indices 1 2 3 4 5 6 
#
# 1 0.013147 -0.006303 -0.007635 0.000000 0.000000 0.000000
# 2 -0.006303 0.016574 0.003045 0.000000 0.000000 0.000000
# 3 -0.007635 0.003045 0.018211 0.000000 0.000000 0.000000
# 4 0.000000 0.000000 0.000000 0.019119 0.000000 0.000000
# 5 0.000000 0.000000 0.000000 0.000000 0.033091 0.000000
# 6 0.000000 0.000000 0.000000 0.000000 0.000000 0.014589
#
#
# Mechanical properties :
#
#
# Convention : Reuss Voigt Hill
#
# Bulk Modulus (GPa) = 38.24685 48.34231 43.29458
# Shear Modulus (GPa) = 34.42747 42.32048 38.37397
#
# Velocity S-wave (km/s) = 3.63438 4.02952 3.83704
# Velocity P-wave (km/s) = 5.68206 6.34010 6.02008
#
# Compressibility (1/GPa) = 0.02614594
#
# Stress axis : x y z
#
# Youngs Moduli (GPa) = 76.06287 60.33517 54.91159
#
# Poissons Ratio (x) = 0.38028 0.41926
# Poissons Ratio (y) = 0.47941 -0.16720
# Poissons Ratio (z) = 0.58076 -0.18372
#
# Static dielectric constant tensor:
#      x y z
#    x 2.042620 0.000000 0.000000 
#    y 0.000000 2.059780 0.000000 
#    z 0.000000 0.000000 1.948440 
# 
# From -- ./inp_files/1301.got.cif
#   From: 2010.05.17/outbox.cif.g08.bks.cpg/sg31_1_cif.got.tgz:1301.got - 2010.06.03 17:08:30.
