data_PCOD9343757
_publ_section_title
;
Structure prediction by ZEFSAII (Michael W. Deem and Ramdas Pophale) SiO2 
 PCOD9343757
Probable space group: P B A 2
;
_chemical_formula_sum "Si O2"
_cell_formula_units_Z 28
_cell_length_a 5.307477
_cell_length_b 29.429363
_cell_length_c 8.104788
_cell_angle_alpha 90.000000
_cell_angle_beta 90.000000
_cell_angle_gamma 90.000000
_cell_volume 1265.932770
_symmetry_space_group_name_H-M "P B A 2"
_symmetry_group_IT_number 32
_symmetry_cell_setting 'orthorhombic'
loop_
_space_group_symop_operation_xyz
x,y,z
-x,-y,z
1/2-x,1/2+y,z
1/2+x,1/2-y,z
loop_
_atom_site_type_symbol
_atom_site_label
_atom_site_fract_x
_atom_site_fract_y
_atom_site_fract_z
Si Si1 0.482479 0.737914 0.098710
Si Si2 0.959897 0.868013 0.028284
Si Si3 0.048354 0.409846 0.894057
Si Si4 0.427897 0.399375 0.395485
Si Si5 0.500000 0.500000 0.327443
Si Si6 0.930575 0.372669 0.569659
Si Si7 0.000000 0.500000 0.105946
Si Si8 0.020483 0.275236 0.731149
O O1 0.731869 0.750288 0.195267
O O2 0.481545 0.685948 0.045010
O O3 0.479516 0.769128 0.932027
O O4 0.178387 0.886174 0.907442
O O5 0.678745 0.881163 0.976088
O O6 0.021888 0.890630 0.203221
O O7 0.053237 0.456816 0.991285
O O8 0.971193 0.412416 0.703749
O O9 0.448283 0.453470 0.425257
O O10 0.153845 0.379938 0.439057
O O11 0.653672 0.375296 0.493827
O O12 0.248837 0.507682 0.216912
O O13 0.971410 0.325624 0.667415
O O14 0.289778 0.256488 0.675292
#
# Coordination Sequence:
#
# PCOD9343757 Si02
#       8
#     4   4   4   4   2   4   2   4
#     4  10  20  36  63  93 124 168 225 278 327 384
#     4  12  23  44  70 100 131 181 237 278 335 412
#     4  12  23  41  70 100 134 172 233 291 329 409
#     4  12  26  45  69 100 143 184 224 281 346 425
#     4  12  24  48  70  98 138 188 224 270 360 410
#     4  12  26  43  67 106 140 181 227 283 354 401
#     4  12  22  42  70 106 126 174 238 288 336 388
#     4  10  19  38  63  91 128 177 219 268 337 398
#
# _framework density 22.118079000000002
#
# number of rings (size 3 to 8) (size 9 to 14) (size 15 to 20)
#    0.000    0.571    2.857    7.714    0.000    1.143 
#    0.000    4.286    0.000    0.000    0.000    0.000 
#    0.000    0.000    0.000    0.000    0.000    0.000 
#
# Total GULP energy -156673.232002 kJ/mol
# GULP energy per Si atom -5595.472572 kJ/mol
# Density = 2.206774 g / cm^3
# Si number density = 22.118079 Si / 1000 Ang^3
#
#
#
# Elastic Constant Matrix: (Units=GPa)
#
#
# Indices 1 2 3 4 5 6 
#
# 1 99.0852 21.6958 -14.6529 0.0000 0.0000 0.0000
# 2 21.6958 85.4339 -16.4774 0.0000 0.0000 0.0000
# 3 -14.6529 -16.4774 29.5756 0.0000 0.0000 0.0000
# 4 0.0000 0.0000 0.0000 49.4715 0.0000 0.0000
# 5 0.0000 0.0000 0.0000 0.0000 25.9253 0.0000
# 6 0.0000 0.0000 0.0000 0.0000 0.0000 33.5060
#
#
#
# Elastic Compliance Matrix: (Units=1/GPa)
#
#
# Indices 1 2 3 4 5 6 
#
# 1 0.011183 -0.001985 0.004435 0.000000 0.000000 0.000000
# 2 -0.001985 0.013466 0.006519 0.000000 0.000000 0.000000
# 3 0.004435 0.006519 0.039641 0.000000 0.000000 0.000000
# 4 0.000000 0.000000 0.000000 0.020214 0.000000 0.000000
# 5 0.000000 0.000000 0.000000 0.000000 0.038572 0.000000
# 6 0.000000 0.000000 0.000000 0.000000 0.000000 0.029845
#
#
# Mechanical properties :
#
#
# Convention : Reuss Voigt Hill
#
# Bulk Modulus (GPa) = 12.16122 21.69177 16.92649
# Shear Modulus (GPa) = 30.78970 36.68250 33.73610
#
# Velocity S-wave (km/s) = 3.73508 4.07687 3.90971
# Velocity P-wave (km/s) = 4.91033 5.65594 5.29627
#
# Compressibility (1/GPa) = 0.08222857
#
# Stress axis : x y z
#
# Youngs Moduli (GPa) = 89.42413 74.25971 25.22650
#
# Poissons Ratio (x) = 0.14737 -0.11187
# Poissons Ratio (y) = 0.17746 -0.16446
# Poissons Ratio (z) = -0.39657 -0.48411
#
# Static dielectric constant tensor:
#      x y z
#    x 1.872630 0.000000 0.000000 
#    y 0.000000 1.796710 0.000000 
#    z 0.000000 0.000000 1.802640 
# 
# From -- ./inp_files/2036.got.cif
#   From: 2010.05.17/outbox.cif.g08.bks.cpg/sg32_2_cif.got.tgz:2036.got - 2010.06.03 17:12:27.
