data_PCOD9343214
_publ_section_title
;
Structure prediction by ZEFSAII (Michael W. Deem and Ramdas Pophale) SiO2 
 PCOD9343214
Probable space group: P M N 21
;
_chemical_formula_sum "Si O2"
_cell_formula_units_Z 24
_cell_length_a 9.035144
_cell_length_b 14.392613
_cell_length_c 8.201144
_cell_angle_alpha 90.000000
_cell_angle_beta 90.000000
_cell_angle_gamma 90.000000
_cell_volume 1066.471279
_symmetry_space_group_name_H-M "P M N 21"
_symmetry_group_IT_number 31
_symmetry_cell_setting 'orthorhombic'
loop_
_space_group_symop_operation_xyz
x,y,z
1/2-x,-y,1/2+z
-x,y,z
1/2+x,-y,1/2+z
loop_
_atom_site_type_symbol
_atom_site_label
_atom_site_fract_x
_atom_site_fract_y
_atom_site_fract_z
Si Si1 0.671614 0.310722 0.452530
Si Si2 0.330661 0.199900 0.111103
Si Si3 0.821571 0.865488 0.132184
Si Si4 0.829063 0.364684 0.939646
Si Si5 0.675535 0.955106 0.447641
Si Si6 0.669944 0.523913 0.781283
O O1 0.500000 0.337897 0.486062
O O2 0.671092 0.249002 0.286617
O O3 0.727852 0.238668 0.588260
O O4 0.766910 0.399868 0.407353
O O5 0.500000 0.174178 0.074284
O O6 0.269792 0.275887 0.983075
O O7 0.228028 0.110171 0.096493
O O8 0.754702 0.909954 0.293290
O O9 0.000000 0.862291 0.143032
O O10 0.784304 0.939165 0.989558
O O11 0.822796 0.427883 0.104611
O O12 0.000000 0.338856 0.912246
O O13 0.764391 0.430595 0.799955
O O14 0.500000 0.950305 0.426275
O O15 0.500000 0.502205 0.819302
#
# Coordination Sequence:
#
# PCOD9343214 Si02
#       6
#     4   4   4   4   4   4
#     4   9  19  37  59  81 108 145 186 228 276 329
#     4  10  20  37  60  83 111 147 185 228 279 330
#     4  10  22  39  58  82 113 147 184 228 276 327
#     4  10  21  37  57  82 112 146 186 230 275 328
#     4  11  23  38  58  85 114 146 186 229 275 328
#     4  10  21  36  56  83 112 145 185 229 279 330
#
# _framework density 22.504123
#
# number of rings (size 3 to 8) (size 9 to 14) (size 15 to 20)
#    0.000    2.000    0.000    3.000    0.000    7.333 
#    0.000    1.667    0.000    0.000    0.000    0.000 
#    0.000    0.000    0.000    0.000    0.000    0.000 
#
# Total GULP energy -134280.430755 kJ/mol
# GULP energy per Si atom -5595.017948 kJ/mol
# Density = 2.245290 g / cm^3
# Si number density = 22.504123 Si / 1000 Ang^3
#
#
#
# Elastic Constant Matrix: (Units=GPa)
#
#
# Indices 1 2 3 4 5 6 
#
# 1 32.7129 6.9581 7.6140 0.0000 0.0000 0.0000
# 2 6.9581 84.8482 6.7369 0.0000 0.0000 0.0000
# 3 7.6140 6.7369 59.4214 0.0000 0.0000 0.0000
# 4 0.0000 0.0000 0.0000 41.2083 0.0000 0.0000
# 5 0.0000 0.0000 0.0000 0.0000 27.1855 0.0000
# 6 0.0000 0.0000 0.0000 0.0000 0.0000 27.8823
#
#
#
# Elastic Compliance Matrix: (Units=1/GPa)
#
#
# Indices 1 2 3 4 5 6 
#
# 1 0.031954 -0.002316 -0.003832 0.000000 0.000000 0.000000
# 2 -0.002316 0.012061 -0.001071 0.000000 0.000000 0.000000
# 3 -0.003832 -0.001071 0.017441 0.000000 0.000000 0.000000
# 4 0.000000 0.000000 0.000000 0.024267 0.000000 0.000000
# 5 0.000000 0.000000 0.000000 0.000000 0.036784 0.000000
# 6 0.000000 0.000000 0.000000 0.000000 0.000000 0.035865
#
#
# Mechanical properties :
#
#
# Convention : Reuss Voigt Hill
#
# Bulk Modulus (GPa) = 21.26824 24.40004 22.83414
# Shear Modulus (GPa) = 26.52776 29.63345 28.08061
#
# Velocity S-wave (km/s) = 3.43708 3.63271 3.53625
# Velocity P-wave (km/s) = 5.02222 5.33493 5.18094
#
# Compressibility (1/GPa) = 0.04701848
#
# Stress axis : x y z
#
# Youngs Moduli (GPa) = 31.29544 82.91393 57.33511
#
# Poissons Ratio (x) = 0.19204 0.21970
# Poissons Ratio (y) = 0.07248 0.06138
# Poissons Ratio (z) = 0.11992 0.08877
#
# Static dielectric constant tensor:
#      x y z
#    x 1.752250 0.000000 0.000000 
#    y 0.000000 1.837590 0.000000 
#    z 0.000000 0.000000 1.898900 
# 
# From -- ./inp_files/1666.got.cif
#   From: 2010.05.17/outbox.cif.g08.bks.cpg/sg31_1_cif.got.tgz:1666.got - 2010.06.03 17:08:30.
