data_PCOD9343720
_publ_section_title
;
Structure prediction by ZEFSAII (Michael W. Deem and Ramdas Pophale) SiO2 
 PCOD9343720
Probable space group: P B A 2
;
_chemical_formula_sum "Si O2"
_cell_formula_units_Z 30
_cell_length_a 5.314142
_cell_length_b 33.508370
_cell_length_c 7.105245
_cell_angle_alpha 90.000000
_cell_angle_beta 90.000000
_cell_angle_gamma 90.000000
_cell_volume 1265.218446
_symmetry_space_group_name_H-M "P B A 2"
_symmetry_group_IT_number 32
_symmetry_cell_setting 'orthorhombic'
loop_
_space_group_symop_operation_xyz
x,y,z
-x,-y,z
1/2-x,1/2+y,z
1/2+x,1/2-y,z
loop_
_atom_site_type_symbol
_atom_site_label
_atom_site_fract_x
_atom_site_fract_y
_atom_site_fract_z
Si Si1 0.000000 0.000000 0.671391
Si Si2 0.373035 0.133398 0.788221
Si Si3 0.377526 0.226136 0.749735
Si Si4 0.622277 0.770153 0.206467
Si Si5 0.872542 0.086328 0.819557
Si Si6 0.634198 0.600476 0.270164
Si Si7 0.747691 0.512742 0.316894
Si Si8 0.132418 0.641968 0.244015
O O1 0.919050 0.039677 0.778702
O O2 0.780927 0.990048 0.516759
O O3 0.389765 0.178612 0.709333
O O4 0.613417 0.105645 0.743984
O O5 0.110077 0.111717 0.744801
O O6 0.373107 0.137597 0.016713
O O7 0.621865 0.251491 0.688468
O O8 0.375644 0.228214 0.978797
O O9 0.337168 0.760873 0.261503
O O10 0.704126 0.812793 0.282038
O O11 0.864730 0.092456 0.045208
O O12 0.723339 0.559068 0.357842
O O13 0.352158 0.613386 0.317424
O O14 0.852008 0.632187 0.310489
O O15 0.500000 0.500000 0.204858
O O16 0.000000 0.500000 0.218015
#
# Coordination Sequence:
#
# PCOD9343720 Si02
#       8
#     2   4   4   4   4   4   4   4
#     4  10  26  38  58  76 108 138 182 222 274 322
#     4   9  18  31  46  74 108 137 173 216 258 309
#     4   9  15  24  42  66 100 141 171 197 249 313
#     4   9  15  23  38  65 101 140 166 197 247 306
#     4  10  21  34  54  76 106 140 175 218 268 313
#     4  10  19  35  53  76 101 138 174 217 261 313
#     4  10  23  39  56  76 103 134 169 229 260 314
#     4   9  17  29  47  72 104 137 174 210 253 309
#
# _framework density 23.711321999999999
#
# number of rings (size 3 to 8) (size 9 to 14) (size 15 to 20)
#    0.400    2.133    0.000    2.400    2.800    6.400 
#    0.000    0.000    0.000    0.000    0.000    0.000 
#    0.000   21.333    0.000    0.000    0.000    0.000 
#
# Total GULP energy -167563.226916 kJ/mol
# GULP energy per Si atom -5585.440897 kJ/mol
# Density = 2.365735 g / cm^3
# Si number density = 23.711322 Si / 1000 Ang^3
#
#
#
# Elastic Constant Matrix: (Units=GPa)
#
#
# Indices 1 2 3 4 5 6 
#
# 1 186.0211 67.5961 -5.9838 0.0000 0.0000 0.0000
# 2 67.5961 149.0492 -6.4205 0.0000 0.0000 0.0000
# 3 -5.9838 -6.4205 90.8673 0.0000 0.0000 0.0000
# 4 0.0000 0.0000 0.0000 -15.0310 0.0000 0.0000
# 5 0.0000 0.0000 0.0000 0.0000 -20.5288 0.0000
# 6 0.0000 0.0000 0.0000 0.0000 0.0000 19.3504
#
#
#
# Elastic Compliance Matrix: (Units=1/GPa)
#
#
# Indices 1 2 3 4 5 6 
#
# 1 0.006441 -0.002912 0.000218 0.000000 0.000000 0.000000
# 2 -0.002912 0.008046 0.000377 0.000000 0.000000 0.000000
# 3 0.000218 0.000377 0.011046 0.000000 0.000000 0.000000
# 4 0.000000 0.000000 0.000000 -0.066529 0.000000 0.000000
# 5 0.000000 0.000000 0.000000 0.000000 -0.048712 0.000000
# 6 0.000000 0.000000 0.000000 0.000000 0.000000 0.051678
#
#
# Mechanical properties :
#
#
# Convention : Reuss Voigt Hill
#
# Bulk Modulus (GPa) = 47.84713 59.59127 53.71920
# Shear Modulus (GPa) = -189.17365 21.47452 -83.84957
#
# Velocity S-wave (km/s) = -8.94177 3.01269 -5.95310
# Velocity P-wave (km/s) = 9.29430 6.10641 4.95458
#
# Compressibility (1/GPa) = 0.02089990
#
# Stress axis : x y z
#
# Youngs Moduli (GPa) = 155.26109 124.28743 90.53003
#
# Poissons Ratio (x) = 0.36187 -0.01977
# Poissons Ratio (y) = 0.45205 -0.03411
# Poissons Ratio (z) = -0.03391 -0.04683
#
# Static dielectric constant tensor:
#      x y z
#    x 1.895010 0.000000 0.000000 
#    y 0.000000 1.861620 0.000000 
#    z 0.000000 0.000000 1.976380 
# 
# From -- ./inp_files/2065.got.cif
#   From: 2010.05.17/outbox.cif.g08.bks.cpg/sg32_2_cif.got.tgz:2065.got - 2010.06.03 17:12:27.
