data_PCOD9343867
_publ_section_title
;
Structure prediction by ZEFSAII (Michael W. Deem and Ramdas Pophale) SiO2 
 PCOD9343867
Probable space group: P B A 2
;
_chemical_formula_sum "Si O2"
_cell_formula_units_Z 16
_cell_length_a 10.212903
_cell_length_b 12.077416
_cell_length_c 4.918826
_cell_angle_alpha 90.000000
_cell_angle_beta 90.000000
_cell_angle_gamma 90.000000
_cell_volume 606.714945
_symmetry_space_group_name_H-M "P B A 2"
_symmetry_group_IT_number 32
_symmetry_cell_setting 'orthorhombic'
loop_
_space_group_symop_operation_xyz
x,y,z
-x,-y,z
1/2-x,1/2+y,z
1/2+x,1/2-y,z
loop_
_atom_site_type_symbol
_atom_site_label
_atom_site_fract_x
_atom_site_fract_y
_atom_site_fract_z
Si Si1 0.477987 0.373517 0.075960
Si Si2 0.520923 0.242855 0.576922
Si Si3 0.786952 0.572810 0.276969
Si Si4 0.355559 0.055040 0.752988
O O1 0.500000 0.500000 0.003118
O O2 0.515100 0.347907 0.383953
O O3 0.321225 0.361087 0.106403
O O4 0.552879 0.291148 0.873581
O O5 0.609306 0.159496 0.400046
O O6 0.384564 0.178488 0.646657
O O7 0.754326 0.505650 0.553021
O O8 0.829784 0.476038 0.065480
O O9 0.500000 0.000000 0.713679
#
# Coordination Sequence:
#
# PCOD9343867 Si02
#       4
#     4   4   4   4
#     4  12  27  44  64 102 147 186 236 297 359 433
#     4  11  24  44  69  99 138 189 242 290 356 440
#     4  11  23  42  69  99 134 179 230 295 360 413
#     4  10  20  40  68  98 126 168 234 294 341 416
#
# _framework density 26.371524999999998
#
# number of rings (size 3 to 8) (size 9 to 14) (size 15 to 20)
#    0.000    1.000    0.000    9.000    0.000    6.000 
#    0.000    0.000    0.000    0.000    0.000    0.000 
#    0.000    0.000    0.000    0.000    0.000    0.000 
#
# Total GULP energy -89214.862212 kJ/mol
# GULP energy per Si atom -5575.928888 kJ/mol
# Density = 2.631150 g / cm^3
# Si number density = 26.371525 Si / 1000 Ang^3
#
#
#
# Elastic Constant Matrix: (Units=GPa)
#
#
# Indices 1 2 3 4 5 6 
#
# 1 56.2673 4.3572 51.8423 0.0000 0.0000 0.0000
# 2 4.3572 52.7329 78.4579 0.0000 0.0000 0.0000
# 3 51.8423 78.4579 203.5269 0.0000 0.0000 0.0000
# 4 0.0000 0.0000 0.0000 54.1077 0.0000 0.0000
# 5 0.0000 0.0000 0.0000 0.0000 25.0418 0.0000
# 6 0.0000 0.0000 0.0000 0.0000 0.0000 16.3578
#
#
#
# Elastic Compliance Matrix: (Units=1/GPa)
#
#
# Indices 1 2 3 4 5 6 
#
# 1 0.031054 0.021580 -0.016229 0.000000 0.000000 0.000000
# 2 0.021580 0.059465 -0.028420 0.000000 0.000000 0.000000
# 3 -0.016229 -0.028420 0.020003 0.000000 0.000000 0.000000
# 4 0.000000 0.000000 0.000000 0.018482 0.000000 0.000000
# 5 0.000000 0.000000 0.000000 0.000000 0.039933 0.000000
# 6 0.000000 0.000000 0.000000 0.000000 0.000000 0.061133
#
#
# Mechanical properties :
#
#
# Convention : Reuss Voigt Hill
#
# Bulk Modulus (GPa) = 15.53184 64.64909 40.09046
# Shear Modulus (GPa) = 16.79722 30.95946 23.87834
#
# Velocity S-wave (km/s) = 2.52652 3.43005 3.01235
# Velocity P-wave (km/s) = 3.79651 6.34468 5.22821
#
# Compressibility (1/GPa) = 0.06438386
#
# Stress axis : x y z
#
# Youngs Moduli (GPa) = 32.20200 16.81669 49.99274
#
# Poissons Ratio (x) = -0.36291 0.81134
# Poissons Ratio (y) = -0.69493 1.42080
# Poissons Ratio (z) = 0.52261 0.47793
#
# Static dielectric constant tensor:
#      x y z
#    x 2.194910 0.000000 0.000000 
#    y 0.000000 2.145380 0.000000 
#    z 0.000000 0.000000 2.054910 
# 
# From -- ./inp_files/684.got.cif
#   From: 2010.05.17/outbox.cif.g08.bks.cpg/sg32_1_cif.got.tgz:684.got - 2010.06.03 17:12:27.
