data_PCOD9343947
_publ_section_title
;
Structure prediction by ZEFSAII (Michael W. Deem and Ramdas Pophale) SiO2 
 PCOD9343947
Probable space group: P B A 2
;
_chemical_formula_sum "Si O2"
_cell_formula_units_Z 26
_cell_length_a 15.411029
_cell_length_b 8.192147
_cell_length_c 8.514768
_cell_angle_alpha 90.000000
_cell_angle_beta 90.000000
_cell_angle_gamma 90.000000
_cell_volume 1074.984479
_symmetry_space_group_name_H-M "P B A 2"
_symmetry_group_IT_number 32
_symmetry_cell_setting 'orthorhombic'
loop_
_space_group_symop_operation_xyz
x,y,z
-x,-y,z
1/2-x,1/2+y,z
1/2+x,1/2-y,z
loop_
_atom_site_type_symbol
_atom_site_label
_atom_site_fract_x
_atom_site_fract_y
_atom_site_fract_z
Si Si1 0.822166 0.416016 0.095090
Si Si2 0.265597 0.799878 0.889279
Si Si3 0.453670 0.669843 0.848769
Si Si4 0.000000 0.500000 0.027751
Si Si5 0.787199 0.550878 0.546560
Si Si6 0.531662 0.186571 0.508864
Si Si7 0.850443 0.237904 0.402690
O O1 0.916501 0.483437 0.131942
O O2 0.805004 0.311136 0.248162
O O3 0.817658 0.303322 0.939053
O O4 0.772428 0.572702 0.032607
O O5 0.350628 0.681553 0.887773
O O6 0.270938 0.892304 0.724547
O O7 0.500000 0.500000 0.894754
O O8 0.467372 0.702444 0.664333
O O9 0.489284 0.835172 0.928925
O O10 0.820975 0.366666 0.537246
O O11 0.698008 0.573759 0.451901
O O12 0.866142 0.658181 0.471440
O O13 0.455263 0.261286 0.399255
O O14 0.500000 0.000000 0.543673
#
# Coordination Sequence:
#
# PCOD9343947 Si02
#       7
#     4   4   4   2   4   4   4
#     4  11  24  41  64  97 135 180 224 278 357 416
#     4  10  23  41  64  97 133 174 229 288 330 411
#     4  10  21  39  66  99 129 172 227 292 335 404
#     4  10  24  40  64  96 136 180 228 278 354 412
#     4  10  22  40  65  96 125 175 232 278 339 407
#     4   9  20  38  64  91 131 169 224 280 339 411
#     4  11  23  40  67  93 133 181 219 284 350 419
#
# _framework density 24.186395999999998
#
# number of rings (size 3 to 8) (size 9 to 14) (size 15 to 20)
#    0.000    1.846    0.769    1.846    9.692    2.462 
#    0.000    0.000    0.000    0.923    0.000    0.000 
#    0.000    0.000    0.000    0.000    0.000    0.000 
#
# Total GULP energy -145020.832925 kJ/mol
# GULP energy per Si atom -5577.724343 kJ/mol
# Density = 2.413135 g / cm^3
# Si number density = 24.186396 Si / 1000 Ang^3
#
#
#
# Elastic Constant Matrix: (Units=GPa)
#
#
# Indices 1 2 3 4 5 6 
#
# 1 77.6994 13.3759 17.7374 0.0000 0.0000 0.0000
# 2 13.3759 57.9364 16.3012 0.0000 0.0000 0.0000
# 3 17.7374 16.3012 85.4765 0.0000 0.0000 0.0000
# 4 0.0000 0.0000 0.0000 24.2793 0.0000 0.0000
# 5 0.0000 0.0000 0.0000 0.0000 -9.5625 0.0000
# 6 0.0000 0.0000 0.0000 0.0000 0.0000 34.3596
#
#
#
# Elastic Compliance Matrix: (Units=1/GPa)
#
#
# Indices 1 2 3 4 5 6 
#
# 1 0.013851 -0.002525 -0.002393 0.000000 0.000000 0.000000
# 2 -0.002525 0.018699 -0.003042 0.000000 0.000000 0.000000
# 3 -0.002393 -0.003042 0.012776 0.000000 0.000000 0.000000
# 4 0.000000 0.000000 0.000000 0.041187 0.000000 0.000000
# 5 0.000000 0.000000 0.000000 0.000000 -0.104575 0.000000
# 6 0.000000 0.000000 0.000000 0.000000 0.000000 0.029104
#
#
# Mechanical properties :
#
#
# Convention : Reuss Voigt Hill
#
# Bulk Modulus (GPa) = 34.00576 35.10458 34.55517
# Shear Modulus (GPa) = 136.00576 21.39514 78.70045
#
# Velocity S-wave (km/s) = 7.50696 2.97744 5.71050
# Velocity P-wave (km/s) = 9.44614 5.13477 7.60248
#
# Compressibility (1/GPa) = 0.02940678
#
# Stress axis : x y z
#
# Youngs Moduli (GPa) = 72.19724 53.47846 78.27281
#
# Poissons Ratio (x) = 0.13501 0.18729
# Poissons Ratio (y) = 0.18227 0.23812
# Poissons Ratio (z) = 0.17275 0.16269
#
# Static dielectric constant tensor:
#      x y z
#    x 1.979690 0.000000 0.000000 
#    y 0.000000 2.055700 0.000000 
#    z 0.000000 0.000000 1.921720 
# 
# From -- ./inp_files/3219.got.cif
#   From: 2010.05.17/outbox.cif.g08.bks.cpg/sg32_2_cif.got.tgz:3219.got - 2010.06.03 17:12:27.
