data_PCOD9343300
_publ_section_title
;
Structure prediction by ZEFSAII (Michael W. Deem and Ramdas Pophale) SiO2 
 PCOD9343300
Probable space group: P M N 21
;
_chemical_formula_sum "Si O2"
_cell_formula_units_Z 32
_cell_length_a 7.533444
_cell_length_b 15.040293
_cell_length_c 12.762764
_cell_angle_alpha 90.000000
_cell_angle_beta 90.000000
_cell_angle_gamma 90.000000
_cell_volume 1446.087592
_symmetry_space_group_name_H-M "P M N 21"
_symmetry_group_IT_number 31
_symmetry_cell_setting 'orthorhombic'
loop_
_space_group_symop_operation_xyz
x,y,z
1/2-x,-y,1/2+z
-x,y,z
1/2+x,-y,1/2+z
loop_
_atom_site_type_symbol
_atom_site_label
_atom_site_fract_x
_atom_site_fract_y
_atom_site_fract_z
Si Si1 0.206956 0.843508 0.143910
Si Si2 0.787435 0.668332 0.850403
Si Si3 0.217604 0.649502 0.087407
Si Si4 0.787405 0.462964 0.159293
Si Si5 0.792096 0.024948 0.064742
Si Si6 0.203131 0.827394 0.720375
Si Si7 0.215239 0.154737 0.881623
Si Si8 0.715582 0.696665 0.529105
O O1 0.282009 0.745374 0.126086
O O2 0.217355 0.864115 0.266731
O O3 0.000000 0.838146 0.113014
O O4 0.286039 0.927400 0.082177
O O5 0.751692 0.592851 0.763900
O O6 0.717610 0.765193 0.811907
O O7 0.000000 0.678663 0.853783
O O8 0.729356 0.641533 0.965788
O O9 0.280123 0.563227 0.151162
O O10 0.000000 0.649513 0.092504
O O11 0.000000 0.467257 0.152174
O O12 0.727206 0.402144 0.060438
O O13 0.781238 0.082860 0.171827
O O14 0.000000 0.014448 0.042033
O O15 0.720835 0.084118 0.968933
O O16 0.213678 0.759238 0.622284
O O17 0.000000 0.848284 0.747058
O O18 0.267833 0.253305 0.922968
O O19 0.000000 0.152198 0.879213
O O20 0.500000 0.699937 0.534458
#
# Coordination Sequence:
#
# PCOD9343300 Si02
#       8
#     4   4   4   4   4   4   4   4
#     4  10  21  36  52  72 100 133 168 204 244 295
#     4   9  18  33  53  76 101 131 166 205 249 294
#     4   9  19  35  52  72 102 137 168 199 245 302
#     4   9  17  32  54  76  99 132 171 206 242 291
#     4   9  19  35  53  72  98 134 169 201 246 303
#     4   9  16  27  49  78 100 121 160 211 248 280
#     4   9  18  33  52  74  99 128 164 206 251 295
#     4   8  15  29  49  72  99 130 162 196 241 296
#
# _framework density 22.128672999999999
#
# number of rings (size 3 to 8) (size 9 to 14) (size 15 to 20)
#    0.000    3.000    0.000    1.125    0.000    5.000 
#    0.000    5.625    0.000    0.000    0.000    0.000 
#    0.000    0.000    0.000    0.000    0.000    0.000 
#
# Total GULP energy -178370.666699 kJ/mol
# GULP energy per Si atom -5574.083334 kJ/mol
# Density = 2.207831 g / cm^3
# Si number density = 22.128673 Si / 1000 Ang^3
#
#
#
# Elastic Constant Matrix: (Units=GPa)
#
#
# Indices 1 2 3 4 5 6 
#
# 1 52.0928 5.9539 -5.9747 0.0000 0.0000 0.0000
# 2 5.9539 172.3842 52.0491 0.0000 0.0000 0.0000
# 3 -5.9747 52.0491 63.4628 0.0000 0.0000 0.0000
# 4 0.0000 0.0000 0.0000 22.7373 0.0000 0.0000
# 5 0.0000 0.0000 0.0000 0.0000 12.8065 0.0000
# 6 0.0000 0.0000 0.0000 0.0000 0.0000 -2.7990
#
#
#
# Elastic Compliance Matrix: (Units=1/GPa)
#
#
# Indices 1 2 3 4 5 6 
#
# 1 0.019754 -0.001653 0.003216 0.000000 0.000000 0.000000
# 2 -0.001653 0.007849 -0.006593 0.000000 0.000000 0.000000
# 3 0.003216 -0.006593 0.021467 0.000000 0.000000 0.000000
# 4 0.000000 0.000000 0.000000 0.043981 0.000000 0.000000
# 5 0.000000 0.000000 0.000000 0.000000 0.078086 0.000000
# 6 0.000000 0.000000 0.000000 0.000000 0.000000 -0.357274
#
#
# Mechanical properties :
#
#
# Convention : Reuss Voigt Hill
#
# Bulk Modulus (GPa) = 25.63483 43.55513 34.59498
# Shear Modulus (GPa) = -30.66093 22.27639 -4.19227
#
# Velocity S-wave (km/s) = -3.72637 3.17626 -1.37790
# Velocity P-wave (km/s) = 2.62771 5.75994 3.62436
#
# Compressibility (1/GPa) = 0.03900942
#
# Stress axis : x y z
#
# Youngs Moduli (GPa) = 50.62192 127.40981 46.58301
#
# Poissons Ratio (x) = 0.21063 -0.14979
# Poissons Ratio (y) = 0.08369 0.30711
# Poissons Ratio (z) = -0.16278 0.83998
#
# Static dielectric constant tensor:
#      x y z
#    x 1.837270 0.000000 0.000000 
#    y 0.000000 1.853950 0.000000 
#    z 0.000000 0.000000 1.809200 
# 
# From -- ./inp_files/3669.got.cif
#   From: 2010.05.17/outbox.cif.g08.bks.cpg/sg31_2_cif.got.tgz:3669.got - 2010.06.03 17:08:30.
