data_PCOD9343663
_publ_section_title
;
Structure prediction by ZEFSAII (Michael W. Deem and Ramdas Pophale) SiO2 
 PCOD9343663
Probable space group: P B A 2
;
_chemical_formula_sum "Si O2"
_cell_formula_units_Z 24
_cell_length_a 13.391588
_cell_length_b 14.752920
_cell_length_c 5.413388
_cell_angle_alpha 90.000000
_cell_angle_beta 90.000000
_cell_angle_gamma 90.000000
_cell_volume 1069.496143
_symmetry_space_group_name_H-M "P B A 2"
_symmetry_group_IT_number 32
_symmetry_cell_setting 'orthorhombic'
loop_
_space_group_symop_operation_xyz
x,y,z
-x,-y,z
1/2-x,1/2+y,z
1/2+x,1/2-y,z
loop_
_atom_site_type_symbol
_atom_site_label
_atom_site_fract_x
_atom_site_fract_y
_atom_site_fract_z
Si Si1 0.691136 0.878190 0.219160
Si Si2 0.048644 0.901951 0.719164
Si Si3 0.398385 0.323123 0.219164
Si Si4 0.368239 0.728617 0.219162
Si Si5 0.414399 0.771036 0.719162
Si Si6 0.581924 0.921333 0.719160
O O1 0.661908 0.770735 0.219160
O O2 0.809955 0.866355 0.219161
O O3 0.646838 0.920767 0.468775
O O4 0.646838 0.920767 0.969544
O O5 0.110694 0.880025 0.470854
O O6 0.954866 0.831790 0.719165
O O7 0.110694 0.880026 0.967476
O O8 0.000000 0.000000 0.719161
O O9 0.513463 0.289089 0.219164
O O10 0.351621 0.783519 0.471167
O O11 0.351622 0.783521 0.967158
O O12 0.513858 0.831060 0.719160
O O13 0.500000 0.000000 0.719161
#
# Coordination Sequence:
#
# PCOD9343663 Si02
#       6
#     4   4   4   4   4   4
#     4  12  21  40  66  93 116 171 212 249 319 374
#     4  10  18  32  61  82 112 152 197 240 307 366
#     4  10  19  37  58  83 118 158 191 249 309 358
#     4  10  20  35  67  82 120 159 204 250 305 370
#     4  10  19  40  59  86 123 164 194 257 319 354
#     4  12  23  40  68  90 128 169 215 260 313 375
#
# _framework density 22.440473999999998
#
# number of rings (size 3 to 8) (size 9 to 14) (size 15 to 20)
#    0.000    1.333    6.667    2.000    0.000    0.000 
#    0.000    0.000   44.000    0.000    0.000    0.000 
#    0.000    0.000    0.000    0.000    0.000    0.000 
#
# Total GULP energy -133999.272629 kJ/mol
# GULP energy per Si atom -5583.303026 kJ/mol
# Density = 2.238940 g / cm^3
# Si number density = 22.440474 Si / 1000 Ang^3
#
#
#
# Elastic Constant Matrix: (Units=GPa)
#
#
# Indices 1 2 3 4 5 6 
#
# 1 47.5432 -18.3180 -5.6492 0.0000 0.0000 0.0000
# 2 -18.3180 59.4525 -16.4875 0.0000 0.0000 0.0000
# 3 -5.6492 -16.4875 226.0276 0.0000 0.0000 0.0000
# 4 0.0000 0.0000 0.0000 12.3537 0.0000 0.0000
# 5 0.0000 0.0000 0.0000 0.0000 9.0823 0.0000
# 6 0.0000 0.0000 0.0000 0.0000 0.0000 10.9994
#
#
#
# Elastic Compliance Matrix: (Units=1/GPa)
#
#
# Indices 1 2 3 4 5 6 
#
# 1 0.024167 0.007771 0.001171 0.000000 0.000000 0.000000
# 2 0.007771 0.019666 0.001629 0.000000 0.000000 0.000000
# 3 0.001171 0.001629 0.004572 0.000000 0.000000 0.000000
# 4 0.000000 0.000000 0.000000 0.080947 0.000000 0.000000
# 5 0.000000 0.000000 0.000000 0.000000 0.110104 0.000000
# 6 0.000000 0.000000 0.000000 0.000000 0.000000 0.090914
#
#
# Mechanical properties :
#
#
# Convention : Reuss Voigt Hill
#
# Bulk Modulus (GPa) = 14.37905 28.01266 21.19585
# Shear Modulus (GPa) = 15.04162 31.38564 23.21363
#
# Velocity S-wave (km/s) = 2.59180 3.74387 3.21978
# Velocity P-wave (km/s) = 3.92150 5.58560 4.82582
#
# Compressibility (1/GPa) = 0.06954564
#
# Stress axis : x y z
#
# Youngs Moduli (GPa) = 41.37941 50.84893 218.70785
#
# Poissons Ratio (x) = -0.39513 -0.25607
# Poissons Ratio (y) = -0.32155 -0.35622
# Poissons Ratio (z) = -0.04845 -0.08282
#
# Static dielectric constant tensor:
#      x y z
#    x 1.736210 0.000000 0.000000 
#    y 0.000000 1.862990 0.000000 
#    z 0.000000 0.000000 2.005090 
# 
# From -- ./inp_files/1211.got.cif
#   From: 2010.05.17/outbox.cif.g08.bks.cpg/sg32_1_cif.got.tgz:1211.got - 2010.06.03 17:12:27.
