data_PCOD9343906
_publ_section_title
;
Structure prediction by ZEFSAII (Michael W. Deem and Ramdas Pophale) SiO2 
 PCOD9343906
Probable space group: P B A 2
;
_chemical_formula_sum "Si O2"
_cell_formula_units_Z 32
_cell_length_a 17.614862
_cell_length_b 5.258232
_cell_length_c 16.055039
_cell_angle_alpha 90.000000
_cell_angle_beta 90.000000
_cell_angle_gamma 90.000000
_cell_volume 1487.066376
_symmetry_space_group_name_H-M "P B A 2"
_symmetry_group_IT_number 32
_symmetry_cell_setting 'orthorhombic'
loop_
_space_group_symop_operation_xyz
x,y,z
-x,-y,z
1/2-x,1/2+y,z
1/2+x,1/2-y,z
loop_
_atom_site_type_symbol
_atom_site_label
_atom_site_fract_x
_atom_site_fract_y
_atom_site_fract_z
Si Si1 0.040785 0.751175 0.858720
Si Si2 0.705463 0.632665 0.799409
Si Si3 0.203862 0.285510 0.034392
Si Si4 0.909153 0.003197 0.461678
Si Si5 0.707279 0.190511 0.235107
Si Si6 0.203908 0.847788 0.600709
Si Si7 0.409483 0.996213 0.361239
Si Si8 0.973112 0.749430 0.041708
O O1 0.129192 0.776042 0.843264
O O2 0.000000 0.500000 0.824749
O O3 0.000000 0.000000 0.823343
O O4 0.024200 0.750472 0.957729
O O5 0.730303 0.344095 0.818723
O O6 0.691136 0.642382 0.699956
O O7 0.246687 0.542066 0.007232
O O8 0.202591 0.301562 0.135185
O O9 0.114653 0.258238 0.014074
O O10 0.868712 0.075858 0.547310
O O11 0.887935 0.227508 0.396738
O O12 0.887569 0.726048 0.426861
O O13 0.000000 0.000000 0.471156
O O14 0.731504 0.474400 0.260050
O O15 0.631111 0.089306 0.276905
O O16 0.233922 0.565889 0.581006
O O17 0.500000 0.000000 0.351698
O O18 0.000000 0.500000 0.089291
O O19 0.000000 0.000000 0.089037
#
# Coordination Sequence:
#
# PCOD9343906 Si02
#       8
#     4   4   4   4   4   4   4   4
#     4  10  21  39  59  86 117 146 187 234 281 343
#     4  10  21  39  60  84 116 152 191 238 289 342
#     4  10  21  39  60  84 116 152 191 238 289 342
#     4  10  21  36  53  78 112 147 186 231 281 334
#     4  10  21  36  56  82 109 144 190 232 278 333
#     4  10  21  36  56  82 109 144 190 232 278 333
#     4  10  21  36  53  78 112 147 186 231 281 334
#     4  10  21  39  59  86 117 146 187 234 281 343
#
# _framework density 21.518878000000001
#
# number of rings (size 3 to 8) (size 9 to 14) (size 15 to 20)
#    0.000    2.000    0.000    3.000    0.000    4.000 
#    0.000   18.750    0.000    0.000    0.000    0.000 
#    0.000    0.000    0.000    0.000    0.000    0.000 
#
# Total GULP energy -178786.350725 kJ/mol
# GULP energy per Si atom -5587.073460 kJ/mol
# Density = 2.146990 g / cm^3
# Si number density = 21.518878 Si / 1000 Ang^3
#
#
#
# Elastic Constant Matrix: (Units=GPa)
#
#
# Indices 1 2 3 4 5 6 
#
# 1 74.2211 34.7676 21.5120 0.0000 0.0000 0.0000
# 2 34.7676 155.1292 17.6768 0.0000 0.0000 0.0000
# 3 21.5120 17.6768 43.8837 0.0000 0.0000 0.0000
# 4 0.0000 0.0000 0.0000 49.0882 0.0000 0.0000
# 5 0.0000 0.0000 0.0000 0.0000 4.9855 0.0000
# 6 0.0000 0.0000 0.0000 0.0000 0.0000 37.6878
#
#
#
# Elastic Compliance Matrix: (Units=1/GPa)
#
#
# Indices 1 2 3 4 5 6 
#
# 1 0.016928 -0.002985 -0.007096 0.000000 0.000000 0.000000
# 2 -0.002985 0.007283 -0.001470 0.000000 0.000000 0.000000
# 3 -0.007096 -0.001470 0.026858 0.000000 0.000000 0.000000
# 4 0.000000 0.000000 0.000000 0.020371 0.000000 0.000000
# 5 0.000000 0.000000 0.000000 0.000000 0.200581 0.000000
# 6 0.000000 0.000000 0.000000 0.000000 0.000000 0.026534
#
#
# Mechanical properties :
#
#
# Convention : Reuss Voigt Hill
#
# Bulk Modulus (GPa) = 35.75699 46.79409 41.27554
# Shear Modulus (GPa) = 15.10664 31.63748 23.37206
#
# Velocity S-wave (km/s) = 2.65244 3.83850 3.29921
# Velocity P-wave (km/s) = 5.10227 6.43726 5.80825
#
# Compressibility (1/GPa) = 0.02796656
#
# Stress axis : x y z
#
# Youngs Moduli (GPa) = 59.07246 137.30881 37.23273
#
# Poissons Ratio (x) = 0.40993 0.26420
# Poissons Ratio (y) = 0.17636 0.05474
# Poissons Ratio (z) = 0.41917 0.20186
#
# Static dielectric constant tensor:
#      x y z
#    x 1.759490 0.000000 0.000000 
#    y 0.000000 1.779730 0.000000 
#    z 0.000000 0.000000 1.764240 
# 
# From -- ./inp_files/4248.got.cif
#   From: 2010.05.17/outbox.cif.g08.bks.cpg/sg32_3_cif.got.tgz:4248.got - 2010.06.03 17:12:27.
