data_PCOD9343101
_publ_section_title
;
Structure prediction by ZEFSAII (Michael W. Deem and Ramdas Pophale) SiO2 
 PCOD9343101
Probable space group: P M N 21
;
_chemical_formula_sum "Si O2"
_cell_formula_units_Z 32
_cell_length_a 8.840380
_cell_length_b 12.717257
_cell_length_c 14.339449
_cell_angle_alpha 90.000000
_cell_angle_beta 90.000000
_cell_angle_gamma 90.000000
_cell_volume 1612.118066
_symmetry_space_group_name_H-M "P M N 21"
_symmetry_group_IT_number 31
_symmetry_cell_setting 'orthorhombic'
loop_
_space_group_symop_operation_xyz
x,y,z
1/2-x,-y,1/2+z
-x,y,z
1/2+x,-y,1/2+z
loop_
_atom_site_type_symbol
_atom_site_label
_atom_site_fract_x
_atom_site_fract_y
_atom_site_fract_z
Si Si1 0.822700 0.254428 0.048890
Si Si2 0.179329 0.650876 0.170037
Si Si3 0.826290 0.593141 0.878329
Si Si4 0.828378 0.562613 0.654480
Si Si5 0.318356 0.822392 0.893763
Si Si6 0.815933 0.080213 0.195329
Si Si7 0.181691 0.877288 0.084619
Si Si8 0.821655 0.628080 0.388533
O O1 0.789232 0.357476 0.110155
O O2 0.767305 0.158764 0.112677
O O3 0.000000 0.241309 0.031443
O O4 0.738220 0.278796 0.953294
O O5 0.278617 0.555476 0.132210
O O6 0.214579 0.761513 0.123680
O O7 0.209304 0.653929 0.280730
O O8 0.000000 0.628605 0.157637
O O9 0.824356 0.579515 0.765887
O O10 0.742654 0.702413 0.899617
O O11 0.754484 0.483952 0.913617
O O12 0.000000 0.601325 0.910216
O O13 0.000000 0.584121 0.622739
O O14 0.500000 0.819776 0.893977
O O15 0.266025 0.876439 0.796252
O O16 0.258400 0.885183 0.983660
O O17 0.000000 0.082951 0.198473
O O18 0.770918 0.964656 0.160404
O O19 0.000000 0.886489 0.072889
O O20 0.000000 0.615940 0.398913
#
# Coordination Sequence:
#
# PCOD9343101 Si02
#       8
#     4   4   4   4   4   4   4   4
#     4  11  21  36  58  85 118 162 203 242 301 362
#     4   9  20  38  59  82 117 158 195 242 304 362
#     4  10  20  36  58  86 119 159 200 246 301 359
#     4  10  20  34  56  85 118 153 195 247 297 351
#     4  11  22  39  62  90 119 155 199 250 302 357
#     4   9  21  41  63  85 118 161 203 246 298 359
#     4  10  22  42  64  88 117 158 206 249 300 361
#     4  10  21  36  56  87 122 160 201 250 301 359
#
# _framework density 19.849663
#
# number of rings (size 3 to 8) (size 9 to 14) (size 15 to 20)
#    0.000    2.000    1.250    1.875    1.750    3.000 
#    0.000    3.750    0.000    0.000    0.000    0.000 
#    0.000    0.000    0.000    0.000    0.000    0.000 
#
# Total GULP energy -178709.720358 kJ/mol
# GULP energy per Si atom -5584.678761 kJ/mol
# Density = 1.980448 g / cm^3
# Si number density = 19.849663 Si / 1000 Ang^3
#
#
#
# Elastic Constant Matrix: (Units=GPa)
#
#
# Indices 1 2 3 4 5 6 
#
# 1 34.4213 18.0793 15.5386 0.0000 0.0000 0.0000
# 2 18.0793 81.1950 23.5384 0.0000 0.0000 0.0000
# 3 15.5386 23.5384 82.4526 0.0000 0.0000 0.0000
# 4 0.0000 0.0000 0.0000 24.8636 0.0000 0.0000
# 5 0.0000 0.0000 0.0000 0.0000 29.5643 0.0000
# 6 0.0000 0.0000 0.0000 0.0000 0.0000 17.0491
#
#
#
# Elastic Compliance Matrix: (Units=1/GPa)
#
#
# Indices 1 2 3 4 5 6 
#
# 1 0.034490 -0.006318 -0.004696 0.000000 0.000000 0.000000
# 2 -0.006318 0.014585 -0.002973 0.000000 0.000000 0.000000
# 3 -0.004696 -0.002973 0.013862 0.000000 0.000000 0.000000
# 4 0.000000 0.000000 0.000000 0.040220 0.000000 0.000000
# 5 0.000000 0.000000 0.000000 0.000000 0.033825 0.000000
# 6 0.000000 0.000000 0.000000 0.000000 0.000000 0.058654
#
#
# Mechanical properties :
#
#
# Convention : Reuss Voigt Hill
#
# Bulk Modulus (GPa) = 28.60232 34.70905 31.65568
# Shear Modulus (GPa) = 21.25272 23.68957 22.47115
#
# Velocity S-wave (km/s) = 3.27568 3.45838 3.36827
# Velocity P-wave (km/s) = 5.36167 5.78542 5.57757
#
# Compressibility (1/GPa) = 0.03496219
#
# Stress axis : x y z
#
# Youngs Moduli (GPa) = 28.99363 68.56474 72.14031
#
# Poissons Ratio (x) = 0.43322 0.33878
# Poissons Ratio (y) = 0.18319 0.21447
# Poissons Ratio (z) = 0.13616 0.20384
#
# Static dielectric constant tensor:
#      x y z
#    x 1.673890 0.000000 0.000000 
#    y 0.000000 1.675490 0.000000 
#    z 0.000000 0.000000 1.736110 
# 
# From -- ./inp_files/5026.got.cif
#   From: 2010.05.17/outbox.cif.g08.bks.cpg/sg31_3_cif.got.tgz:5026.got - 2010.06.03 17:08:30.
