data_PCOD9343601
_publ_section_title
;
Structure prediction by ZEFSAII (Michael W. Deem and Ramdas Pophale) SiO2 
 PCOD9343601
Probable space group: P M N 21
;
_chemical_formula_sum "Si O2"
_cell_formula_units_Z 32
_cell_length_a 9.000000
_cell_length_b 15.000000
_cell_length_c 12.000000
_cell_angle_alpha 90.000000
_cell_angle_beta 90.000000
_cell_angle_gamma 90.000000
_cell_volume 1620.000000
_symmetry_space_group_name_H-M "P M N 21"
_symmetry_group_IT_number 31
_symmetry_cell_setting 'orthorhombic'
loop_
_space_group_symop_operation_xyz
x,y,z
1/2-x,-y,1/2+z
-x,y,z
1/2+x,-y,1/2+z
loop_
_atom_site_type_symbol
_atom_site_label
_atom_site_fract_x
_atom_site_fract_y
_atom_site_fract_z
Si Si1 0.670372 0.441049 0.852880
Si Si2 0.324595 0.634413 0.793117
Si Si3 0.669102 0.329199 0.075554
Si Si4 0.821975 0.162020 0.355016
Si Si5 0.823513 0.172905 0.962384
Si Si6 0.322899 0.148124 0.586829
Si Si7 0.177680 0.278799 0.745281
Si Si8 0.180771 0.043412 0.142716
O O1 0.500000 0.432916 0.812770
O O2 0.704416 0.545437 0.863144
O O3 0.769602 0.378438 0.774055
O O4 0.678695 0.396529 0.973388
O O5 0.500000 0.634437 0.763075
O O6 0.220758 0.624286 0.686713
O O7 0.294627 0.732139 0.841549
O O8 0.500000 0.295122 0.082262
O O9 0.783393 0.249918 0.050605
O O10 0.730532 0.131944 0.461660
O O11 0.775857 0.106223 0.245640
O O12 0.000000 0.149730 0.370718
O O13 0.766148 0.213232 0.846078
O O14 0.000000 0.164454 0.949380
O O15 0.766580 0.084507 0.024180
O O16 0.500000 0.157116 0.593213
O O17 0.245443 0.235709 0.635377
O O18 0.275009 0.059236 0.654226
O O19 0.000000 0.276412 0.741823
O O20 0.000000 0.045386 0.139436
#
# Coordination Sequence:
#
# PCOD9343601 Si02
#       8
#     4   4   4   4   4   4   4   4
#     4   9  20  37  57  84 116 153 196 243 295 347
#     4  10  20  37  61  83 113 156 195 238 293 352
#     4  10  19  32  52  83 117 145 186 244 294 341
#     4  10  21  40  62  85 116 155 200 241 292 360
#     4   9  17  35  60  81 105 146 195 240 288 346
#     4  11  24  39  58  86 124 161 194 243 300 350
#     4  10  21  37  60  86 116 155 198 241 289 351
#     4   9  19  37  60  84 113 151 192 240 295 347
#
# _framework density 19.753086
#
# number of rings (size 3 to 8) (size 9 to 14) (size 15 to 20)
#    0.000    2.250    1.250    1.125    1.750    3.000 
#    0.000    3.125    0.000    0.000    0.000    0.000 
#    0.000    0.000    0.000    0.000    0.000    0.000 
#
# Total GULP energy -178326.891486 kJ/mol
# GULP energy per Si atom -5572.715359 kJ/mol
# Density = 1.970813 g / cm^3
# Si number density = 19.753086 Si / 1000 Ang^3
#
#
#
# Elastic Constant Matrix: (Units=GPa)
#
#
# Indices 1 2 3 4 5 6 
#
# 1 8.9469 23.8487 12.8213 0.0000 0.0000 0.0000
# 2 23.8487 91.2028 13.8421 0.0000 0.0000 0.0000
# 3 12.8213 13.8421 41.0274 0.0000 0.0000 0.0000
# 4 0.0000 0.0000 0.0000 10.4125 0.0000 0.0000
# 5 0.0000 0.0000 0.0000 0.0000 26.5952 0.0000
# 6 0.0000 0.0000 0.0000 0.0000 0.0000 16.5173
#
#
#
# Elastic Compliance Matrix: (Units=1/GPa)
#
#
# Indices 1 2 3 4 5 6 
#
# 1 1.867290 -0.421287 -0.441400 0.000000 0.000000 0.000000
# 2 -0.421287 0.106605 0.095687 0.000000 0.000000 0.000000
# 3 -0.441400 0.095687 0.130030 0.000000 0.000000 0.000000
# 4 0.000000 0.000000 0.000000 0.096038 0.000000 0.000000
# 5 0.000000 0.000000 0.000000 0.000000 0.037601 0.000000
# 6 0.000000 0.000000 0.000000 0.000000 0.000000 0.060543
#
#
# Mechanical properties :
#
#
# Convention : Reuss Voigt Hill
#
# Bulk Modulus (GPa) = 1.75462 26.91127 14.33295
# Shear Modulus (GPa) = 1.24314 16.74934 8.99624
#
# Velocity S-wave (km/s) = 0.79417 2.91509 2.13641
# Velocity P-wave (km/s) = 1.31573 4.99838 3.65478
#
# Compressibility (1/GPa) = 0.56992361
#
# Stress axis : x y z
#
# Youngs Moduli (GPa) = 0.53554 9.38044 7.69053
#
# Poissons Ratio (x) = 3.95186 3.39460
# Poissons Ratio (y) = 0.22561 -0.73589
# Poissons Ratio (z) = 0.23639 -0.89759
#
# Static dielectric constant tensor:
#      x y z
#    x 1.666900 0.000000 0.000000 
#    y 0.000000 1.705190 0.000000 
#    z 0.000000 0.000000 1.719480 
# 
# From -- ./inp_files/3683.got.cif
#   From: 2010.05.17/outbox.ucp.g08.bks.cvg/sg31_2_cif.got.tgz:3683.got - 2010.06.11 10:34:26.
