data_PCOD9343767
_publ_section_title
;
Structure prediction by ZEFSAII (Michael W. Deem and Ramdas Pophale) SiO2 
 PCOD9343767
Probable space group: P B A 2
;
_chemical_formula_sum "Si O2"
_cell_formula_units_Z 28
_cell_length_a 7.864966
_cell_length_b 26.532872
_cell_length_c 5.578097
_cell_angle_alpha 90.000000
_cell_angle_beta 90.000000
_cell_angle_gamma 90.000000
_cell_volume 1164.038041
_symmetry_space_group_name_H-M "P B A 2"
_symmetry_group_IT_number 32
_symmetry_cell_setting 'orthorhombic'
loop_
_space_group_symop_operation_xyz
x,y,z
-x,-y,z
1/2-x,1/2+y,z
1/2+x,1/2-y,z
loop_
_atom_site_type_symbol
_atom_site_label
_atom_site_fract_x
_atom_site_fract_y
_atom_site_fract_z
Si Si1 0.387774 0.302845 0.255700
Si Si2 0.953311 0.901823 0.398395
Si Si3 0.423796 0.101456 0.640138
Si Si4 0.110170 0.704902 0.517804
Si Si5 0.500000 0.000000 0.381812
Si Si6 0.500000 0.500000 0.669056
Si Si7 0.289747 0.721711 0.028641
Si Si8 0.254133 0.046930 0.021908
O O1 0.416761 0.356235 0.373829
O O2 0.450683 0.261196 0.451603
O O3 0.520320 0.297645 0.037705
O O4 0.220461 0.279677 0.129804
O O5 0.773455 0.892576 0.540667
O O6 0.034471 0.950575 0.516676
O O7 0.891354 0.919097 0.137375
O O8 0.502564 0.155732 0.578543
O O9 0.509693 0.052302 0.526111
O O10 0.394438 0.084770 0.913563
O O11 0.200016 0.694210 0.257735
O O12 0.211006 0.712513 0.769175
O O13 0.338214 0.010810 0.215569
O O14 0.334262 0.513111 0.822775
#
# Coordination Sequence:
#
# PCOD9343767 Si02
#       8
#     4   4   4   4   2   2   4   4
#     4  10  22  40  62  93 119 170 202 265 301 383
#     4  10  19  39  63  86 123 160 211 246 311 373
#     4  10  20  38  63  88 119 165 207 255 306 377
#     4  10  23  39  64  93 122 163 208 258 304 377
#     4  10  22  38  62  92 120 160 210 262 310 380
#     4  10  22  36  62  94 122 164 202 260 310 386
#     4  10  23  37  66  88 128 157 214 248 318 360
#     4  10  21  38  64  88 122 164 208 258 317 375
#
# _framework density 24.054196999999998
#
# number of rings (size 3 to 8) (size 9 to 14) (size 15 to 20)
#    0.857    1.143    1.429    1.714    4.000    2.286 
#    0.000    8.571    0.000    0.000    0.000    0.000 
#    0.000    0.000    0.000    0.000    0.000    0.000 
#
# Total GULP energy -156053.106668 kJ/mol
# GULP energy per Si atom -5573.325238 kJ/mol
# Density = 2.399945 g / cm^3
# Si number density = 24.054197 Si / 1000 Ang^3
#
#
#
# Elastic Constant Matrix: (Units=GPa)
#
#
# Indices 1 2 3 4 5 6 
#
# 1 21.5130 1.5678 6.3877 0.0000 0.0000 0.0000
# 2 1.5678 147.7528 34.4046 0.0000 0.0000 0.0000
# 3 6.3877 34.4046 111.3477 0.0000 0.0000 0.0000
# 4 0.0000 0.0000 0.0000 9.1526 0.0000 0.0000
# 5 0.0000 0.0000 0.0000 0.0000 18.6191 0.0000
# 6 0.0000 0.0000 0.0000 0.0000 0.0000 19.5211
#
#
#
# Elastic Compliance Matrix: (Units=1/GPa)
#
#
# Indices 1 2 3 4 5 6 
#
# 1 0.047292 0.000140 -0.002756 0.000000 0.000000 0.000000
# 2 0.000140 0.007293 -0.002262 0.000000 0.000000 0.000000
# 3 -0.002756 -0.002262 0.009838 0.000000 0.000000 0.000000
# 4 0.000000 0.000000 0.000000 0.109258 0.000000 0.000000
# 5 0.000000 0.000000 0.000000 0.000000 0.053708 0.000000
# 6 0.000000 0.000000 0.000000 0.000000 0.000000 0.051227
#
#
# Mechanical properties :
#
#
# Convention : Reuss Voigt Hill
#
# Bulk Modulus (GPa) = 18.29251 40.59262 29.44256
# Shear Modulus (GPa) = 16.30824 25.34214 20.82519
#
# Velocity S-wave (km/s) = 2.60663 3.24935 2.94557
# Velocity P-wave (km/s) = 4.08418 5.56685 4.88213
#
# Compressibility (1/GPa) = 0.05466718
#
# Stress axis : x y z
#
# Youngs Moduli (GPa) = 21.14534 137.11454 101.64912
#
# Poissons Ratio (x) = -0.01920 0.28017
# Poissons Ratio (y) = -0.00296 0.22988
# Poissons Ratio (z) = 0.05828 0.31008
#
# Static dielectric constant tensor:
#      x y z
#    x 2.087870 0.000000 0.000000 
#    y 0.000000 2.053640 0.000000 
#    z 0.000000 0.000000 1.946740 
# 
# From -- ./inp_files/1063.got.cif
#   From: 2010.05.17/outbox.cif.g08.bks.cpg/sg32_1_cif.got.tgz:1063.got - 2010.06.03 17:12:27.
