data_PCOD9343520
_publ_section_title
;
Structure prediction by ZEFSAII (Michael W. Deem and Ramdas Pophale) SiO2 
 PCOD9343520
Probable space group: P M N 21
;
_chemical_formula_sum "Si O2"
_cell_formula_units_Z 32
_cell_length_a 16.270277
_cell_length_b 7.503981
_cell_length_c 11.646885
_cell_angle_alpha 90.000000
_cell_angle_beta 90.000000
_cell_angle_gamma 90.000000
_cell_volume 1421.989730
_symmetry_space_group_name_H-M "P M N 21"
_symmetry_group_IT_number 31
_symmetry_cell_setting 'orthorhombic'
loop_
_space_group_symop_operation_xyz
x,y,z
1/2-x,-y,1/2+z
-x,y,z
1/2+x,-y,1/2+z
loop_
_atom_site_type_symbol
_atom_site_label
_atom_site_fract_x
_atom_site_fract_y
_atom_site_fract_z
Si Si1 0.405401 0.714269 0.779410
Si Si2 0.401662 0.479628 0.112321
Si Si3 0.814001 0.242199 0.745941
Si Si4 0.366355 0.438257 0.575817
Si Si5 0.408559 0.303041 0.342815
Si Si6 0.402716 0.936778 0.438418
Si Si7 0.791056 0.526029 0.425390
Si Si8 0.664734 0.041230 0.664360
O O1 0.500000 0.695312 0.818948
O O2 0.395685 0.585067 0.666527
O O3 0.336563 0.639814 0.865718
O O4 0.385417 0.920741 0.753453
O O5 0.500000 0.491168 0.108686
O O6 0.360013 0.670741 0.137678
O O7 0.371749 0.382508 0.228843
O O8 0.364185 0.387754 0.000174
O O9 0.884801 0.198466 0.837495
O O10 0.750611 0.360843 0.823521
O O11 0.757343 0.079918 0.703003
O O12 0.413432 0.427979 0.454256
O O13 0.276476 0.478002 0.522336
O O14 0.369867 0.240009 0.633157
O O15 0.500000 0.250498 0.308262
O O16 0.370151 0.123304 0.387380
O O17 0.500000 0.943889 0.469070
O O18 0.347068 0.920739 0.550478
#
# Coordination Sequence:
#
# PCOD9343520 Si02
#       8
#     4   4   4   4   4   4   4   4
#     4  12  27  46  72 101 141 189 234 287 354 417
#     4  11  23  42  67  97 135 180 228 276 342 416
#     4  12  24  41  68 100 133 183 230 285 341 412
#     4  11  22  45  71  99 136 175 234 293 340 405
#     4   9  20  38  65  96 131 170 221 285 343 404
#     4  10  23  42  65  99 135 172 224 289 350 404
#     4  12  24  44  66 101 138 184 228 282 341 411
#     4  11  25  42  68 103 133 175 229 287 345 409
#
# _framework density 22.503679999999999
#
# number of rings (size 3 to 8) (size 9 to 14) (size 15 to 20)
#    0.000    1.000    3.750    2.250    3.500    2.500 
#    0.000    0.000    0.000    1.500    0.000    0.000 
#    0.000    0.000    0.000    0.000    0.000    0.000 
#
# Total GULP energy -178369.463901 kJ/mol
# GULP energy per Si atom -5574.045747 kJ/mol
# Density = 2.245246 g / cm^3
# Si number density = 22.503680 Si / 1000 Ang^3
#
#
#
# Elastic Constant Matrix: (Units=GPa)
#
#
# Indices 1 2 3 4 5 6 
#
# 1 98.9382 6.1141 28.0442 0.0000 0.0000 0.0000
# 2 6.1141 44.6200 10.6436 0.0000 0.0000 0.0000
# 3 28.0442 10.6436 67.9521 0.0000 0.0000 0.0000
# 4 0.0000 0.0000 0.0000 37.0356 0.0000 0.0000
# 5 0.0000 0.0000 0.0000 0.0000 28.1330 0.0000
# 6 0.0000 0.0000 0.0000 0.0000 0.0000 24.4974
#
#
#
# Elastic Compliance Matrix: (Units=1/GPa)
#
#
# Indices 1 2 3 4 5 6 
#
# 1 0.011455 -0.000459 -0.004656 0.000000 0.000000 0.000000
# 2 -0.000459 0.023300 -0.003460 0.000000 0.000000 0.000000
# 3 -0.004656 -0.003460 0.017180 0.000000 0.000000 0.000000
# 4 0.000000 0.000000 0.000000 0.027001 0.000000 0.000000
# 5 0.000000 0.000000 0.000000 0.000000 0.035545 0.000000
# 6 0.000000 0.000000 0.000000 0.000000 0.000000 0.040821
#
#
# Mechanical properties :
#
#
# Convention : Reuss Voigt Hill
#
# Bulk Modulus (GPa) = 28.74810 33.45713 31.10262
# Shear Modulus (GPa) = 27.16701 29.04710 28.10705
#
# Velocity S-wave (km/s) = 3.47828 3.59663 3.53795
# Velocity P-wave (km/s) = 5.37902 5.66986 5.52635
#
# Compressibility (1/GPa) = 0.03478490
#
# Stress axis : x y z
#
# Youngs Moduli (GPa) = 87.29522 42.91894 58.20829
#
# Poissons Ratio (x) = 0.01970 0.27101
# Poissons Ratio (y) = 0.04008 0.20140
# Poissons Ratio (z) = 0.40643 0.14850
#
# Static dielectric constant tensor:
#      x y z
#    x 1.819770 0.000000 0.000000 
#    y 0.000000 1.919790 0.000000 
#    z 0.000000 0.000000 1.902060 
# 
# From -- ./inp_files/4297.got.cif
#   From: 2010.05.17/outbox.cif.g08.bks.cpg/sg31_3_cif.got.tgz:4297.got - 2010.06.03 17:08:30.
