data_PCOD9343529
_publ_section_title
;
Structure prediction by ZEFSAII (Michael W. Deem and Ramdas Pophale) SiO2 
 PCOD9343529
Probable space group: P M N 21
;
_chemical_formula_sum "Si O2"
_cell_formula_units_Z 20
_cell_length_a 9.854059
_cell_length_b 8.962607
_cell_length_c 11.210957
_cell_angle_alpha 90.000000
_cell_angle_beta 90.000000
_cell_angle_gamma 90.000000
_cell_volume 990.129952
_symmetry_space_group_name_H-M "P M N 21"
_symmetry_group_IT_number 31
_symmetry_cell_setting 'orthorhombic'
loop_
_space_group_symop_operation_xyz
x,y,z
1/2-x,-y,1/2+z
-x,y,z
1/2+x,-y,1/2+z
loop_
_atom_site_type_symbol
_atom_site_label
_atom_site_fract_x
_atom_site_fract_y
_atom_site_fract_z
Si Si1 0.000000 0.671259 0.690670
Si Si2 0.723270 0.390191 0.999220
Si Si3 0.500000 0.440997 0.459763
Si Si4 0.000000 0.030738 0.694591
Si Si5 0.776516 0.884129 0.327548
Si Si6 0.500000 0.888888 0.916262
Si Si7 0.000000 0.716466 0.176520
Si Si8 0.000000 0.448969 0.343042
O O1 0.135988 0.620806 0.620012
O O2 0.000000 0.599514 0.820837
O O3 0.000000 0.850932 0.686210
O O4 0.736240 0.227389 0.939695
O O5 0.630070 0.489937 0.913248
O O6 0.867847 0.466941 0.997378
O O7 0.500000 0.288316 0.535184
O O8 0.866045 0.077957 0.767645
O O9 0.000000 0.103619 0.561330
O O10 0.869712 0.797272 0.231484
O O11 0.866391 0.023254 0.371332
O O12 0.500000 0.727668 0.854350
O O13 0.000000 0.544850 0.222353
#
# Coordination Sequence:
#
# PCOD9343529 Si02
#       8
#     2   4   2   2   4   2   2   2
#     4  11  26  48  68 105 144 182 228 302 348 418
#     4  10  23  47  66  99 140 178 226 292 354 402
#     4  12  27  38  76 101 130 183 249 279 344 423
#     4  12  25  40  78 102 138 181 242 284 352 427
#     4  10  23  45  68  96 143 180 222 288 358 400
#     4  11  23  45  68 103 136 190 224 287 349 419
#     4   9  23  45  62 103 141 177 228 295 335 417
#     4   9  22  40  74  92 137 183 227 279 352 412
#
# _framework density 20.199368
#
# number of rings (size 3 to 8) (size 9 to 14) (size 15 to 20)
#    0.000    1.600    2.000    1.800   11.200    1.600 
#    0.000    2.000    0.000    0.000    0.000    0.000 
#    0.000    0.000    0.000    0.000    0.000    0.000 
#
# Total GULP energy -111741.786492 kJ/mol
# GULP energy per Si atom -5587.089325 kJ/mol
# Density = 2.015339 g / cm^3
# Si number density = 20.199368 Si / 1000 Ang^3
#
#
#
# Elastic Constant Matrix: (Units=GPa)
#
#
# Indices 1 2 3 4 5 6 
#
# 1 171.2019 21.8735 70.8048 0.0000 0.0000 0.0000
# 2 21.8735 73.0617 27.6043 0.0000 0.0000 0.0000
# 3 70.8048 27.6043 137.3784 0.0000 0.0000 0.0000
# 4 0.0000 0.0000 0.0000 20.3213 0.0000 0.0000
# 5 0.0000 0.0000 0.0000 0.0000 0.8444 0.0000
# 6 0.0000 0.0000 0.0000 0.0000 0.0000 19.0975
#
#
#
# Elastic Compliance Matrix: (Units=1/GPa)
#
#
# Indices 1 2 3 4 5 6 
#
# 1 0.007471 -0.000846 -0.003681 0.000000 0.000000 0.000000
# 2 -0.000846 0.014907 -0.002559 0.000000 0.000000 0.000000
# 3 -0.003681 -0.002559 0.009690 0.000000 0.000000 0.000000
# 4 0.000000 0.000000 0.000000 0.049209 0.000000 0.000000
# 5 0.000000 0.000000 0.000000 0.000000 1.184335 0.000000
# 6 0.000000 0.000000 0.000000 0.000000 0.000000 0.052363
#
#
# Mechanical properties :
#
#
# Convention : Reuss Voigt Hill
#
# Bulk Modulus (GPa) = 55.87586 69.13414 62.50500
# Shear Modulus (GPa) = 3.73660 25.47659 14.60659
#
# Velocity S-wave (km/s) = 1.36157 3.55527 2.69201
# Velocity P-wave (km/s) = 5.49491 7.15216 6.37760
#
# Compressibility (1/GPa) = 0.01789682
#
# Stress axis : x y z
#
# Youngs Moduli (GPa) = 133.84318 67.08100 103.19404
#
# Poissons Ratio (x) = 0.05676 0.37983
# Poissons Ratio (y) = 0.11325 0.26411
# Poissons Ratio (z) = 0.49264 0.17168
#
# Static dielectric constant tensor:
#      x y z
#    x 1.698240 0.000000 0.000000 
#    y 0.000000 1.710150 0.000000 
#    z 0.000000 0.000000 1.737400 
# 
# From -- ./inp_files/3418.got.cif
#   From: 2010.05.17/outbox.cif.g08.bks.cpg/sg31_2_cif.got.tgz:3418.got - 2010.06.03 17:08:30.
