data_PCOD9343069
_publ_section_title
;
Structure prediction by ZEFSAII (Michael W. Deem and Ramdas Pophale) SiO2 
 PCOD9343069
Probable space group: P M N 21
;
_chemical_formula_sum "Si O2"
_cell_formula_units_Z 32
_cell_length_a 21.039034
_cell_length_b 7.886719
_cell_length_c 9.519689
_cell_angle_alpha 90.000000
_cell_angle_beta 90.000000
_cell_angle_gamma 90.000000
_cell_volume 1579.591992
_symmetry_space_group_name_H-M "P M N 21"
_symmetry_group_IT_number 31
_symmetry_cell_setting 'orthorhombic'
loop_
_space_group_symop_operation_xyz
x,y,z
1/2-x,-y,1/2+z
-x,y,z
1/2+x,-y,1/2+z
loop_
_atom_site_type_symbol
_atom_site_label
_atom_site_fract_x
_atom_site_fract_y
_atom_site_fract_z
Si Si1 0.430595 0.066016 0.403560
Si Si2 0.429040 0.290051 0.146562
Si Si3 0.429040 0.209949 0.818828
Si Si4 0.204557 0.013650 0.925727
Si Si5 0.206163 0.842147 0.208345
Si Si6 0.706163 0.342147 0.257045
Si Si7 0.069405 0.566018 0.061830
Si Si8 0.795443 0.486351 0.039663
O O1 0.500000 0.999915 0.442275
O O2 0.430181 0.118879 0.239967
O O3 0.370527 0.951221 0.435098
O O4 0.422992 0.249999 0.482695
O O5 0.500000 0.368235 0.168614
O O6 0.365536 0.381828 0.202658
O O7 0.422072 0.250000 0.982695
O O8 0.500000 0.131765 0.796777
O O9 0.365536 0.118172 0.762732
O O10 0.430181 0.381120 0.725423
O O11 0.206987 0.840631 0.832084
O O12 0.246804 0.142984 0.839183
O O13 0.226155 0.966910 0.082012
O O14 0.206986 0.659370 0.133306
O O15 0.753196 0.357017 0.126208
O O16 0.726155 0.466909 0.383379
O O17 0.129473 0.451223 0.030291
O O18 0.000000 0.499918 0.023114
#
# Coordination Sequence:
#
# PCOD9343069 Si02
#       8
#     4   4   4   4   4   4   4   4
#     4   9  15  29  50  71  97 125 163 213 254 287
#     4   9  17  29  48  75 100 126 165 214 257 291
#     4   9  17  29  48  75 100 126 165 214 257 291
#     4  10  20  34  49  77 103 135 168 206 256 302
#     4  10  21  33  51  74 106 134 169 207 252 306
#     4  10  21  33  51  74 106 134 169 207 252 306
#     4   9  15  29  50  71  97 125 163 213 254 287
#     4  10  20  34  49  77 103 135 168 206 256 302
#
# _framework density 20.258396000000001
#
# number of rings (size 3 to 8) (size 9 to 14) (size 15 to 20)
#    0.000    2.500    5.000    0.000    7.000    0.000 
#    0.000    0.000    0.000    1.500    0.000    7.000 
#    0.000    0.000    0.000    0.000    0.000    0.000 
#
# Total GULP energy -178234.342840 kJ/mol
# GULP energy per Si atom -5569.823214 kJ/mol
# Density = 2.021229 g / cm^3
# Si number density = 20.258396 Si / 1000 Ang^3
#
#
#
# Elastic Constant Matrix: (Units=GPa)
#
#
# Indices 1 2 3 4 5 6 
#
# 1 121.3361 19.1645 21.9089 0.0000 0.0000 0.0000
# 2 19.1645 45.6018 17.2298 0.0000 0.0000 0.0000
# 3 21.9089 17.2298 122.3957 0.0000 0.0000 0.0000
# 4 0.0000 0.0000 0.0000 24.8329 0.0000 0.0000
# 5 0.0000 0.0000 0.0000 0.0000 35.3301 0.0000
# 6 0.0000 0.0000 0.0000 0.0000 0.0000 2.7318
#
#
#
# Elastic Compliance Matrix: (Units=1/GPa)
#
#
# Indices 1 2 3 4 5 6 
#
# 1 0.008975 -0.003342 -0.001136 0.000000 0.000000 0.000000
# 2 -0.003342 0.024406 -0.002837 0.000000 0.000000 0.000000
# 3 -0.001136 -0.002837 0.008773 0.000000 0.000000 0.000000
# 4 0.000000 0.000000 0.000000 0.040269 0.000000 0.000000
# 5 0.000000 0.000000 0.000000 0.000000 0.028304 0.000000
# 6 0.000000 0.000000 0.000000 0.000000 0.000000 0.366054
#
#
# Mechanical properties :
#
#
# Convention : Reuss Voigt Hill
#
# Bulk Modulus (GPa) = 36.33480 45.10444 40.71962
# Shear Modulus (GPa) = 9.98829 27.98101 18.98465
#
# Velocity S-wave (km/s) = 2.22287 3.72049 3.06457
# Velocity P-wave (km/s) = 4.95609 6.38506 5.71541
#
# Compressibility (1/GPa) = 0.02752182
#
# Stress axis : x y z
#
# Youngs Moduli (GPa) = 111.42554 40.97411 113.98653
#
# Poissons Ratio (x) = 0.13695 0.12948
# Poissons Ratio (y) = 0.37243 0.32342
# Poissons Ratio (z) = 0.12657 0.11626
#
# Static dielectric constant tensor:
#      x y z
#    x 1.794470 0.000000 0.000000 
#    y 0.000000 1.761770 0.000000 
#    z 0.000000 0.000000 1.729940 
# 
# From -- ./inp_files/3008.got.cif
#   From: 2010.05.17/outbox.cif.g08.bks.cpg/sg31_2_cif.got.tgz:3008.got - 2010.06.03 17:08:30.
