data_PCOD9343198
_publ_section_title
;
Structure prediction by ZEFSAII (Michael W. Deem and Ramdas Pophale) SiO2 
 PCOD9343198
Probable space group: P M N 21
;
_chemical_formula_sum "Si O2"
_cell_formula_units_Z 32
_cell_length_a 7.462945
_cell_length_b 15.339805
_cell_length_c 12.519139
_cell_angle_alpha 90.000000
_cell_angle_beta 90.000000
_cell_angle_gamma 90.000000
_cell_volume 1433.192548
_symmetry_space_group_name_H-M "P M N 21"
_symmetry_group_IT_number 31
_symmetry_cell_setting 'orthorhombic'
loop_
_space_group_symop_operation_xyz
x,y,z
1/2-x,-y,1/2+z
-x,y,z
1/2+x,-y,1/2+z
loop_
_atom_site_type_symbol
_atom_site_label
_atom_site_fract_x
_atom_site_fract_y
_atom_site_fract_z
Si Si1 0.784267 0.862854 0.740740
Si Si2 0.713004 0.830637 0.983652
Si Si3 0.280474 0.949475 0.182003
Si Si4 0.213944 0.354009 0.760464
Si Si5 0.209109 0.726297 0.578811
Si Si6 0.214488 0.173412 0.865650
Si Si7 0.704689 0.448149 0.969830
Si Si8 0.217511 0.364393 0.515842
O O1 0.740833 0.868125 0.865652
O O2 0.714670 0.775734 0.681903
O O3 0.000000 0.860658 0.732276
O O4 0.723186 0.950183 0.680162
O O5 0.500000 0.824205 0.003075
O O6 0.780529 0.891294 0.081031
O O7 0.784288 0.731147 0.982324
O O8 0.500000 0.947603 0.181148
O O9 0.224348 0.909131 0.296825
O O10 0.258028 0.254680 0.788565
O O11 0.298917 0.413659 0.849658
O O12 0.260650 0.373933 0.640482
O O13 0.000000 0.362696 0.771704
O O14 0.217365 0.796000 0.480992
O O15 0.285537 0.633359 0.537559
O O16 0.000000 0.709373 0.599325
O O17 0.000000 0.167329 0.876957
O O18 0.500000 0.458584 0.009041
O O19 0.784954 0.544801 0.967516
O O20 0.000000 0.361176 0.501348
#
# Coordination Sequence:
#
# PCOD9343198 Si02
#       8
#     4   4   4   4   4   4   4   4
#     4  10  22  37  52  76 112 145 168 207 267 319
#     4  10  20  37  58  79 102 135 179 218 256 308
#     4   9  18  34  55  76 102 135 169 211 262 308
#     4   9  16  30  51  74  97 128 172 217 257 301
#     4   9  19  34  50  72 107 142 169 204 261 316
#     4   9  16  30  54  76  95 126 173 222 254 292
#     4   9  18  32  50  74 103 138 174 210 256 310
#     4   9  17  32  54  75 100 135 174 213 257 306
#
# _framework density 22.327774999999999
#
# number of rings (size 3 to 8) (size 9 to 14) (size 15 to 20)
#    0.000    2.750    1.250    0.000    1.750    1.500 
#    0.000    4.375    0.000    0.000    0.000    0.000 
#    0.000    0.000    0.000    0.000    0.000    0.000 
#
# Total GULP energy -178428.286663 kJ/mol
# GULP energy per Si atom -5575.883958 kJ/mol
# Density = 2.227696 g / cm^3
# Si number density = 22.327775 Si / 1000 Ang^3
#
#
#
# Elastic Constant Matrix: (Units=GPa)
#
#
# Indices 1 2 3 4 5 6 
#
# 1 52.6036 11.2315 -2.6717 0.0000 0.0000 0.0000
# 2 11.2315 149.4229 43.0060 0.0000 0.0000 0.0000
# 3 -2.6717 43.0060 52.7908 0.0000 0.0000 0.0000
# 4 0.0000 0.0000 0.0000 18.0221 0.0000 0.0000
# 5 0.0000 0.0000 0.0000 0.0000 21.5186 0.0000
# 6 0.0000 0.0000 0.0000 0.0000 0.0000 2.2656
#
#
#
# Elastic Compliance Matrix: (Units=1/GPa)
#
#
# Indices 1 2 3 4 5 6 
#
# 1 0.019648 -0.002303 0.002870 0.000000 0.000000 0.000000
# 2 -0.002303 0.009012 -0.007458 0.000000 0.000000 0.000000
# 3 0.002870 -0.007458 0.025164 0.000000 0.000000 0.000000
# 4 0.000000 0.000000 0.000000 0.055487 0.000000 0.000000
# 5 0.000000 0.000000 0.000000 0.000000 0.046471 0.000000
# 6 0.000000 0.000000 0.000000 0.000000 0.000000 0.441386
#
#
# Mechanical properties :
#
#
# Convention : Reuss Voigt Hill
#
# Bulk Modulus (GPa) = 24.97379 39.77212 32.37295
# Shear Modulus (GPa) = 8.00900 21.91137 14.96019
#
# Velocity S-wave (km/s) = 1.89600 3.13605 2.59129
# Velocity P-wave (km/s) = 4.00030 5.56458 4.84598
#
# Compressibility (1/GPa) = 0.04004199
#
# Stress axis : x y z
#
# Youngs Moduli (GPa) = 50.89681 110.96167 39.73952
#
# Poissons Ratio (x) = 0.25554 -0.11407
# Poissons Ratio (y) = 0.11722 0.29639
# Poissons Ratio (z) = -0.14610 0.82758
#
# Static dielectric constant tensor:
#      x y z
#    x 1.868160 0.000000 0.000000 
#    y 0.000000 1.848100 0.000000 
#    z 0.000000 0.000000 1.789790 
# 
# From -- ./inp_files/3629.got.cif
#   From: 2010.05.17/outbox.cif.g08.bks.cpg/sg31_2_cif.got.tgz:3629.got - 2010.06.03 17:08:30.
