data_PCOD9343792
_publ_section_title
;
Structure prediction by ZEFSAII (Michael W. Deem and Ramdas Pophale) SiO2 
 PCOD9343792
Probable space group: P B A 2
;
_chemical_formula_sum "Si O2"
_cell_formula_units_Z 28
_cell_length_a 7.605158
_cell_length_b 20.097460
_cell_length_c 8.115842
_cell_angle_alpha 90.000000
_cell_angle_beta 90.000000
_cell_angle_gamma 90.000000
_cell_volume 1240.460666
_symmetry_space_group_name_H-M "P B A 2"
_symmetry_group_IT_number 32
_symmetry_cell_setting 'orthorhombic'
loop_
_space_group_symop_operation_xyz
x,y,z
-x,-y,z
1/2-x,1/2+y,z
1/2+x,1/2-y,z
loop_
_atom_site_type_symbol
_atom_site_label
_atom_site_fract_x
_atom_site_fract_y
_atom_site_fract_z
Si Si1 0.846019 0.792339 0.213450
Si Si2 0.064965 0.836510 0.658916
Si Si3 0.942388 0.295826 0.452571
Si Si4 0.674990 0.888905 0.695200
Si Si5 0.550349 0.069212 0.986279
Si Si6 0.313944 0.321291 0.033996
Si Si7 0.691118 0.526295 0.691271
O O1 0.708717 0.826780 0.334664
O O2 0.747547 0.754048 0.067667
O O3 0.914416 0.731362 0.327127
O O4 0.012112 0.831630 0.144764
O O5 0.105462 0.772646 0.549046
O O6 0.144326 0.906507 0.593783
O O7 0.854899 0.847324 0.678647
O O8 0.137877 0.826899 0.842733
O O9 0.973240 0.349188 0.594921
O O10 0.612692 0.899776 0.883322
O O11 0.714912 0.961412 0.617612
O O12 0.683709 0.045360 0.842087
O O13 0.500000 0.000000 0.074933
O O14 0.660330 0.126335 0.075114
O O15 0.500000 0.500000 0.751868
#
# Coordination Sequence:
#
# PCOD9343792 Si02
#       7
#     4   4   4   4   4   4   4
#     4  10  24  39  54  82 132 164 195 248 319 368
#     4  10  21  35  65  92 114 156 215 257 301 367
#     4  11  22  38  58  88 120 164 206 257 305 369
#     4  10  20  34  61  95 118 149 202 262 309 358
#     4   9  19  36  63  92 122 154 207 266 311 361
#     4  10  23  39  59  87 121 163 203 254 315 370
#     4   8  17  35  55  94 122 150 191 267 312 354
#
# _framework density 22.57226
#
# number of rings (size 3 to 8) (size 9 to 14) (size 15 to 20)
#    0.000    2.286    1.429    0.000    8.000    1.143 
#    0.000    0.000    6.286    0.000    0.000    0.000 
#    0.000    0.000    0.000    0.000    0.000    0.000 
#
# Total GULP energy -156142.041053 kJ/mol
# GULP energy per Si atom -5576.501466 kJ/mol
# Density = 2.252088 g / cm^3
# Si number density = 22.572260 Si / 1000 Ang^3
#
#
#
# Elastic Constant Matrix: (Units=GPa)
#
#
# Indices 1 2 3 4 5 6 
#
# 1 69.8202 12.9681 5.8486 0.0000 0.0000 0.0000
# 2 12.9681 91.5231 24.5845 0.0000 0.0000 0.0000
# 3 5.8486 24.5845 46.7337 0.0000 0.0000 0.0000
# 4 0.0000 0.0000 0.0000 10.2595 0.0000 0.0000
# 5 0.0000 0.0000 0.0000 0.0000 31.7321 0.0000
# 6 0.0000 0.0000 0.0000 0.0000 0.0000 33.9173
#
#
#
# Elastic Compliance Matrix: (Units=1/GPa)
#
#
# Indices 1 2 3 4 5 6 
#
# 1 0.014740 -0.001855 -0.000869 0.000000 0.000000 0.000000
# 2 -0.001855 0.012958 -0.006584 0.000000 0.000000 0.000000
# 3 -0.000869 -0.006584 0.024970 0.000000 0.000000 0.000000
# 4 0.000000 0.000000 0.000000 0.097470 0.000000 0.000000
# 5 0.000000 0.000000 0.000000 0.000000 0.031514 0.000000
# 6 0.000000 0.000000 0.000000 0.000000 0.000000 0.029484
#
#
# Mechanical properties :
#
#
# Convention : Reuss Voigt Hill
#
# Bulk Modulus (GPa) = 29.36735 32.76437 31.06586
# Shear Modulus (GPa) = 20.73808 26.16017 23.44913
#
# Velocity S-wave (km/s) = 3.03436 3.40803 3.22661
# Velocity P-wave (km/s) = 5.03141 5.48024 5.26062
#
# Compressibility (1/GPa) = 0.03405143
#
# Stress axis : x y z
#
# Youngs Moduli (GPa) = 67.84335 77.17409 40.04764
#
# Poissons Ratio (x) = 0.14317 0.03479
# Poissons Ratio (y) = 0.12586 0.26369
# Poissons Ratio (z) = 0.05894 0.50814
#
# Static dielectric constant tensor:
#      x y z
#    x 1.936130 0.000000 0.000000 
#    y 0.000000 1.883020 0.000000 
#    z 0.000000 0.000000 1.796090 
# 
# From -- ./inp_files/2518.got.cif
#   From: 2010.05.17/outbox.cif.g08.bks.cpg/sg32_2_cif.got.tgz:2518.got - 2010.06.03 17:12:27.
