data_PCOD9343679
_publ_section_title
;
Structure prediction by ZEFSAII (Michael W. Deem and Ramdas Pophale) SiO2 
 PCOD9343679
Probable space group: P B A 2
;
_chemical_formula_sum "Si O2"
_cell_formula_units_Z 22
_cell_length_a 8.950651
_cell_length_b 11.826090
_cell_length_c 8.250590
_cell_angle_alpha 90.000000
_cell_angle_beta 90.000000
_cell_angle_gamma 90.000000
_cell_volume 873.334888
_symmetry_space_group_name_H-M "P B A 2"
_symmetry_group_IT_number 32
_symmetry_cell_setting 'orthorhombic'
loop_
_space_group_symop_operation_xyz
x,y,z
-x,-y,z
1/2-x,1/2+y,z
1/2+x,1/2-y,z
loop_
_atom_site_type_symbol
_atom_site_label
_atom_site_fract_x
_atom_site_fract_y
_atom_site_fract_z
Si Si1 0.395889 0.300359 0.494770
Si Si2 0.109322 0.104807 0.731202
Si Si3 0.159257 0.466062 0.520745
Si Si4 0.500000 0.500000 0.254735
Si Si5 0.962558 0.647323 0.234477
Si Si6 0.730854 0.346229 0.073140
O O1 0.498100 0.306410 0.650977
O O2 0.233420 0.342222 0.550033
O O3 0.445828 0.401032 0.373177
O O4 0.435100 0.194109 0.385022
O O5 0.222688 0.054565 0.595456
O O6 0.195222 0.154057 0.883448
O O7 0.000000 0.000000 0.778057
O O8 0.000000 0.500000 0.595163
O O9 0.128617 0.451543 0.326645
O O10 0.629680 0.447087 0.145591
O O11 0.092129 0.636663 0.100559
O O12 0.838675 0.735120 0.164115
#
# Coordination Sequence:
#
# PCOD9343679 Si02
#       6
#     4   4   4   2   4   4
#     4  10  20  41  67  96 132 183 230 284 352 433
#     4  10  22  45  70  99 140 188 232 287 371 431
#     4  11  22  41  71 103 131 187 244 289 344 448
#     4  10  18  36  70  92 130 184 232 272 356 422
#     4  11  24  42  69 105 137 182 243 301 354 423
#     4  11  23  44  67 105 144 186 235 311 364 415
#
# _framework density 25.190791000000001
#
# number of rings (size 3 to 8) (size 9 to 14) (size 15 to 20)
#    0.000    1.455    5.455    1.091    2.545    0.000 
#    9.818    2.727    0.000    0.000    0.000    0.000 
#    0.000    0.000    0.000    0.000    0.000    0.000 
#
# Total GULP energy -122877.481719 kJ/mol
# GULP energy per Si atom -5585.340078 kJ/mol
# Density = 2.513346 g / cm^3
# Si number density = 25.190791 Si / 1000 Ang^3
#
#
#
# Elastic Constant Matrix: (Units=GPa)
#
#
# Indices 1 2 3 4 5 6 
#
# 1 168.5470 20.0723 53.8511 0.0000 0.0000 0.0000
# 2 20.0723 74.7314 28.2705 0.0000 0.0000 0.0000
# 3 53.8511 28.2705 134.9058 0.0000 0.0000 0.0000
# 4 0.0000 0.0000 0.0000 24.7018 0.0000 0.0000
# 5 0.0000 0.0000 0.0000 0.0000 52.1108 0.0000
# 6 0.0000 0.0000 0.0000 0.0000 0.0000 42.1257
#
#
#
# Elastic Compliance Matrix: (Units=1/GPa)
#
#
# Indices 1 2 3 4 5 6 
#
# 1 0.006853 -0.000875 -0.002552 0.000000 0.000000 0.000000
# 2 -0.000875 0.014645 -0.002720 0.000000 0.000000 0.000000
# 3 -0.002552 -0.002720 0.009001 0.000000 0.000000 0.000000
# 4 0.000000 0.000000 0.000000 0.040483 0.000000 0.000000
# 5 0.000000 0.000000 0.000000 0.000000 0.019190 0.000000
# 6 0.000000 0.000000 0.000000 0.000000 0.000000 0.023738
#
#
# Mechanical properties :
#
#
# Convention : Reuss Voigt Hill
#
# Bulk Modulus (GPa) = 54.92892 64.73024 59.82958
# Shear Modulus (GPa) = 37.80080 42.18702 39.99391
#
# Velocity S-wave (km/s) = 3.87793 4.09675 3.98884
# Velocity P-wave (km/s) = 6.47330 6.93755 6.70944
#
# Compressibility (1/GPa) = 0.01820535
#
# Stress axis : x y z
#
# Youngs Moduli (GPa) = 145.92872 68.28204 111.09621
#
# Poissons Ratio (x) = 0.05976 0.28352
# Poissons Ratio (y) = 0.12771 0.30214
# Poissons Ratio (z) = 0.37241 0.18570
#
# Static dielectric constant tensor:
#      x y z
#    x 2.110750 0.000000 0.000000 
#    y 0.000000 2.146610 0.000000 
#    z 0.000000 0.000000 1.938920 
# 
# From -- ./inp_files/2318.got.cif
#   From: 2010.05.17/outbox.cif.g08.bks.cpg/sg32_2_cif.got.tgz:2318.got - 2010.06.03 17:12:27.
