data_PCOD9343791
_publ_section_title
;
Structure prediction by ZEFSAII (Michael W. Deem and Ramdas Pophale) SiO2 
 PCOD9343791
Probable space group: P B A 2
;
_chemical_formula_sum "Si O2"
_cell_formula_units_Z 32
_cell_length_a 8.648875
_cell_length_b 17.445159
_cell_length_c 10.715693
_cell_angle_alpha 90.000000
_cell_angle_beta 90.000000
_cell_angle_gamma 90.000000
_cell_volume 1616.794471
_symmetry_space_group_name_H-M "P B A 2"
_symmetry_group_IT_number 32
_symmetry_cell_setting 'orthorhombic'
loop_
_space_group_symop_operation_xyz
x,y,z
-x,-y,z
1/2-x,1/2+y,z
1/2+x,1/2-y,z
loop_
_atom_site_type_symbol
_atom_site_label
_atom_site_fract_x
_atom_site_fract_y
_atom_site_fract_z
Si Si1 0.339261 0.681653 0.552800
Si Si2 0.419395 0.798267 0.777113
Si Si3 0.612384 0.722015 0.381307
Si Si4 0.883367 0.434003 0.655951
Si Si5 0.046832 0.188508 0.997316
Si Si6 0.729298 0.110548 0.997059
Si Si7 0.621309 0.196301 0.203291
Si Si8 0.331429 0.535231 0.884119
O O1 0.365031 0.732350 0.679333
O O2 0.493778 0.676049 0.469283
O O3 0.220431 0.731193 0.473446
O O4 0.255963 0.600665 0.574458
O O5 0.521517 0.858710 0.700299
O O6 0.495360 0.750163 0.890008
O O7 0.305234 0.852332 0.860394
O O8 0.515716 0.781058 0.295762
O O9 0.731124 0.679436 0.289873
O O10 0.793281 0.466799 0.775078
O O11 0.000000 0.500000 0.607812
O O12 0.143778 0.120826 0.933340
O O13 0.886991 0.151463 0.040436
O O14 0.134812 0.229509 0.110943
O O15 0.764251 0.021719 0.986946
O O16 0.601546 0.130428 0.100092
O O17 0.500000 0.500000 0.847663
#
# Coordination Sequence:
#
# PCOD9343791 Si02
#       8
#     4   4   4   4   4   4   4   4
#     4  11  22  40  65  91 123 168 219 272 320 386
#     4  11  21  34  62  93 125 160 213 261 330 384
#     4  10  22  38  63  89 119 167 230 271 307 365
#     4  12  23  40  60  96 139 165 208 272 333 405
#     4  10  20  34  61  90 123 161 210 260 329 380
#     4  10  20  35  58  91 129 164 198 261 334 387
#     4  10  20  38  61  88 121 161 220 271 309 376
#     4  10  22  38  58  93 136 168 199 250 340 405
#
# _framework density 19.792249000000002
#
# number of rings (size 3 to 8) (size 9 to 14) (size 15 to 20)
#    0.000    1.500    5.000    0.750    1.750    0.000 
#    0.000    0.000    5.500    1.500    0.000    0.000 
#    0.000    0.000    0.000    0.000    0.000    0.000 
#
# Total GULP energy -178261.203637 kJ/mol
# GULP energy per Si atom -5570.662614 kJ/mol
# Density = 1.974720 g / cm^3
# Si number density = 19.792249 Si / 1000 Ang^3
#
#
#
# Elastic Constant Matrix: (Units=GPa)
#
#
# Indices 1 2 3 4 5 6 
#
# 1 32.1779 -9.7758 11.9780 0.0000 0.0000 0.0000
# 2 -9.7758 52.3610 3.3573 0.0000 0.0000 0.0000
# 3 11.9780 3.3573 78.6391 0.0000 0.0000 0.0000
# 4 0.0000 0.0000 0.0000 14.2448 0.0000 0.0000
# 5 0.0000 0.0000 0.0000 0.0000 28.9141 0.0000
# 6 0.0000 0.0000 0.0000 0.0000 0.0000 27.3178
#
#
#
# Elastic Compliance Matrix: (Units=1/GPa)
#
#
# Indices 1 2 3 4 5 6 
#
# 1 0.035302 0.006955 -0.005674 0.000000 0.000000 0.000000
# 2 0.006955 0.020521 -0.001935 0.000000 0.000000 0.000000
# 3 -0.005674 -0.001935 0.013663 0.000000 0.000000 0.000000
# 4 0.000000 0.000000 0.000000 0.070201 0.000000 0.000000
# 5 0.000000 0.000000 0.000000 0.000000 0.034585 0.000000
# 6 0.000000 0.000000 0.000000 0.000000 0.000000 0.036606
#
#
# Mechanical properties :
#
#
# Convention : Reuss Voigt Hill
#
# Bulk Modulus (GPa) = 14.66772 19.36634 17.01703
# Shear Modulus (GPa) = 21.28441 24.60322 22.94382
#
# Velocity S-wave (km/s) = 3.28287 3.52955 3.40844
# Velocity P-wave (km/s) = 4.66868 5.13968 4.90983
#
# Compressibility (1/GPa) = 0.06817691
#
# Stress axis : x y z
#
# Youngs Moduli (GPa) = 28.32675 48.73115 73.18931
#
# Poissons Ratio (x) = -0.33891 0.41528
# Poissons Ratio (y) = -0.19701 0.14165
# Poissons Ratio (z) = 0.16073 0.09432
#
# Static dielectric constant tensor:
#      x y z
#    x 1.754100 0.000000 0.000000 
#    y 0.000000 1.753750 0.000000 
#    z 0.000000 0.000000 1.742350 
# 
# From -- ./inp_files/3802.got.cif
#   From: 2010.05.17/outbox.cif.g08.bks.cpg/sg32_2_cif.got.tgz:3802.got - 2010.06.03 17:12:27.
