data_PCOD9343365
_publ_section_title
;
Structure prediction by ZEFSAII (Michael W. Deem and Ramdas Pophale) SiO2 
 PCOD9343365
Probable space group: P M N 21
;
_chemical_formula_sum "Si O2"
_cell_formula_units_Z 24
_cell_length_a 8.678125
_cell_length_b 14.026407
_cell_length_c 10.342458
_cell_angle_alpha 90.000000
_cell_angle_beta 90.000000
_cell_angle_gamma 90.000000
_cell_volume 1258.914118
_symmetry_space_group_name_H-M "P M N 21"
_symmetry_group_IT_number 31
_symmetry_cell_setting 'orthorhombic'
loop_
_space_group_symop_operation_xyz
x,y,z
1/2-x,-y,1/2+z
-x,y,z
1/2+x,-y,1/2+z
loop_
_atom_site_type_symbol
_atom_site_label
_atom_site_fract_x
_atom_site_fract_y
_atom_site_fract_z
Si Si1 0.313972 0.428891 0.682240
Si Si2 0.685890 0.214285 0.758575
Si Si3 0.685777 0.920702 0.037148
Si Si4 0.184683 0.577889 0.887584
Si Si5 0.313643 0.141407 0.039568
Si Si6 0.815192 0.217553 0.306146
O O1 0.500000 0.434363 0.690756
O O2 0.267502 0.320598 0.716688
O O3 0.243334 0.502290 0.783340
O O4 0.268656 0.449298 0.533998
O O5 0.500000 0.209449 0.752154
O O6 0.751865 0.137104 0.659507
O O7 0.732732 0.190493 0.904980
O O8 0.500000 0.919661 0.040811
O O9 0.734063 0.864513 0.907605
O O10 0.735573 0.030593 0.037522
O O11 0.250855 0.681714 0.854373
O O12 0.000000 0.582853 0.884221
O O13 0.500000 0.144300 0.047184
O O14 0.245591 0.192724 0.164359
O O15 0.000000 0.221232 0.304809
#
# Coordination Sequence:
#
# PCOD9343365 Si02
#       6
#     4   4   4   4   4   4
#     4  10  23  42  63  91 121 157 201 247 299 357
#     4  10  21  40  63  86 120 159 201 247 297 355
#     4  10  21  38  60  88 122 159 203 248 297 354
#     4  11  24  42  65  91 120 157 199 246 302 361
#     4  10  22  38  59  90 123 161 204 245 294 354
#     4  11  23  40  62  90 124 159 200 249 299 355
#
# _framework density 19.064050000000002
#
# number of rings (size 3 to 8) (size 9 to 14) (size 15 to 20)
#    0.000    1.667    1.667    2.000    2.333    5.333 
#    0.000    0.000    0.000    0.000    0.000    0.000 
#    0.000    0.000    0.000    0.000    0.000    0.000 
#
# Total GULP energy -134152.592505 kJ/mol
# GULP energy per Si atom -5589.691354 kJ/mol
# Density = 1.902066 g / cm^3
# Si number density = 19.064050 Si / 1000 Ang^3
#
#
#
# Elastic Constant Matrix: (Units=GPa)
#
#
# Indices 1 2 3 4 5 6 
#
# 1 19.9580 28.5314 40.7737 0.0000 0.0000 0.0000
# 2 28.5314 95.5197 68.7590 0.0000 0.0000 0.0000
# 3 40.7737 68.7590 196.1926 0.0000 0.0000 0.0000
# 4 0.0000 0.0000 0.0000 43.2573 0.0000 0.0000
# 5 0.0000 0.0000 0.0000 0.0000 33.1714 0.0000
# 6 0.0000 0.0000 0.0000 0.0000 0.0000 29.0640
#
#
#
# Elastic Compliance Matrix: (Units=1/GPa)
#
#
# Indices 1 2 3 4 5 6 
#
# 1 0.115682 -0.023067 -0.015957 0.000000 0.000000 0.000000
# 2 -0.023067 0.018601 -0.001725 0.000000 0.000000 0.000000
# 3 -0.015957 -0.001725 0.009018 0.000000 0.000000 0.000000
# 4 0.000000 0.000000 0.000000 0.023117 0.000000 0.000000
# 5 0.000000 0.000000 0.000000 0.000000 0.030146 0.000000
# 6 0.000000 0.000000 0.000000 0.000000 0.000000 0.034407
#
#
# Mechanical properties :
#
#
# Convention : Reuss Voigt Hill
#
# Bulk Modulus (GPa) = 16.18076 65.31092 40.74584
# Shear Modulus (GPa) = 15.01183 32.67228 23.84206
#
# Velocity S-wave (km/s) = 2.80918 4.14432 3.54026
# Velocity P-wave (km/s) = 4.36211 7.56529 6.17501
#
# Compressibility (1/GPa) = 0.06180178
#
# Stress axis : x y z
#
# Youngs Moduli (GPa) = 8.64440 53.76093 110.89004
#
# Poissons Ratio (x) = 1.24010 1.76951
# Poissons Ratio (y) = 0.19940 0.19130
# Poissons Ratio (z) = 0.13794 0.09274
#
# Static dielectric constant tensor:
#      x y z
#    x 1.649130 0.000000 0.000000 
#    y 0.000000 1.633180 0.000000 
#    z 0.000000 0.000000 1.636910 
# 
# From -- ./inp_files/1691.got.cif
#   From: 2010.05.17/outbox.cif.g08.bks.cpg/sg31_1_cif.got.tgz:1691.got - 2010.06.03 17:08:30.
