data_PCOD9343970
_publ_section_title
;
Structure prediction by ZEFSAII (Michael W. Deem and Ramdas Pophale) SiO2 
 PCOD9343970
Probable space group: P B A 2
;
_chemical_formula_sum "Si O2"
_cell_formula_units_Z 30
_cell_length_a 10.174626
_cell_length_b 28.404524
_cell_length_c 4.957446
_cell_angle_alpha 90.000000
_cell_angle_beta 90.000000
_cell_angle_gamma 90.000000
_cell_volume 1432.728706
_symmetry_space_group_name_H-M "P B A 2"
_symmetry_group_IT_number 32
_symmetry_cell_setting 'orthorhombic'
loop_
_space_group_symop_operation_xyz
x,y,z
-x,-y,z
1/2-x,1/2+y,z
1/2+x,1/2-y,z
loop_
_atom_site_type_symbol
_atom_site_label
_atom_site_fract_x
_atom_site_fract_y
_atom_site_fract_z
Si Si1 0.110767 0.761518 0.806730
Si Si2 0.911463 0.908469 0.856233
Si Si3 0.734288 0.167381 0.507890
Si Si4 0.500000 0.500000 0.105240
Si Si5 0.644153 0.257317 0.155724
Si Si6 0.455366 0.164688 0.697289
Si Si7 0.924580 0.092413 0.331934
Si Si8 0.289671 0.149797 0.211203
O O1 0.139996 0.809197 0.652713
O O2 0.060963 0.719740 0.615377
O O3 0.256039 0.746686 0.902687
O O4 0.002091 0.764333 0.041020
O O5 0.789775 0.885635 0.015164
O O6 0.915063 0.964396 0.922196
O O7 0.030692 0.889341 0.040244
O O8 0.956416 0.900311 0.549354
O O9 0.680898 0.209206 0.312247
O O10 0.608364 0.154046 0.685151
O O11 0.792328 0.119357 0.393910
O O12 0.583406 0.536081 0.288103
O O13 0.694605 0.306184 0.285981
O O14 0.364326 0.136016 0.487265
O O15 0.405064 0.164140 0.002959
#
# Coordination Sequence:
#
# PCOD9343970 Si02
#       8
#     4   4   4   2   4   4   4   4
#     4  11  23  39  58  83 129 182 224 267 314 369
#     4  10  21  41  67 100 124 159 212 271 337 390
#     4  12  24  39  62  90 133 174 227 265 327 384
#     4   8  22  42  68 106 122 148 216 280 346 388
#     4  11  24  37  58  87 131 173 228 261 319 380
#     4  11  24  41  55  90 127 177 215 268 304 386
#     4  10  23  37  68 101 124 161 205 278 336 385
#     4  11  23  41  61  89 132 173 217 262 319 387
#
# _framework density 20.939064999999999
#
# number of rings (size 3 to 8) (size 9 to 14) (size 15 to 20)
#    0.800    0.533    2.667    3.600    3.733    1.067 
#    0.000    0.000    0.000    0.800    0.000    0.000 
#    0.000    0.000    0.000    0.000    0.000    0.000 
#
# Total GULP energy -167069.809954 kJ/mol
# GULP energy per Si atom -5568.993665 kJ/mol
# Density = 2.089141 g / cm^3
# Si number density = 20.939065 Si / 1000 Ang^3
#
#
#
# Elastic Constant Matrix: (Units=GPa)
#
#
# Indices 1 2 3 4 5 6 
#
# 1 74.3147 19.8961 11.8614 0.0000 0.0000 0.0000
# 2 19.8961 81.8368 8.3821 0.0000 0.0000 0.0000
# 3 11.8614 8.3821 80.8107 0.0000 0.0000 0.0000
# 4 0.0000 0.0000 0.0000 25.6126 0.0000 0.0000
# 5 0.0000 0.0000 0.0000 0.0000 30.6807 0.0000
# 6 0.0000 0.0000 0.0000 0.0000 0.0000 26.9291
#
#
#
# Elastic Compliance Matrix: (Units=1/GPa)
#
#
# Indices 1 2 3 4 5 6 
#
# 1 0.014648 -0.003377 -0.001800 0.000000 0.000000 0.000000
# 2 -0.003377 0.013129 -0.000866 0.000000 0.000000 0.000000
# 3 -0.001800 -0.000866 0.012729 0.000000 0.000000 0.000000
# 4 0.000000 0.000000 0.000000 0.039043 0.000000 0.000000
# 5 0.000000 0.000000 0.000000 0.000000 0.032594 0.000000
# 6 0.000000 0.000000 0.000000 0.000000 0.000000 0.037135
#
#
# Mechanical properties :
#
#
# Convention : Reuss Voigt Hill
#
# Bulk Modulus (GPa) = 35.18652 35.24905 35.21779
# Shear Modulus (GPa) = 29.26790 29.76599 29.51695
#
# Velocity S-wave (km/s) = 3.74273 3.77444 3.75862
# Velocity P-wave (km/s) = 5.95970 5.98881 5.97427
#
# Compressibility (1/GPa) = 0.02841997
#
# Stress axis : x y z
#
# Youngs Moduli (GPa) = 68.27061 76.16661 78.56318
#
# Poissons Ratio (x) = 0.25720 0.14139
# Poissons Ratio (y) = 0.23053 0.06805
# Poissons Ratio (z) = 0.12287 0.06597
#
# Static dielectric constant tensor:
#      x y z
#    x 1.783620 0.000000 0.000000 
#    y 0.000000 1.809520 0.000000 
#    z 0.000000 0.000000 1.827290 
# 
# From -- ./inp_files/627.got.cif
#   From: 2010.05.17/outbox.cif.g08.bks.cpg/sg32_1_cif.got.tgz:627.got - 2010.06.03 17:12:27.
