data_PCOD9343683
_publ_section_title
;
Structure prediction by ZEFSAII (Michael W. Deem and Ramdas Pophale) SiO2 
 PCOD9343683
Probable space group: P B A 2
;
_chemical_formula_sum "Si O2"
_cell_formula_units_Z 28
_cell_length_a 26.161856
_cell_length_b 8.487232
_cell_length_c 5.102211
_cell_angle_alpha 90.000000
_cell_angle_beta 90.000000
_cell_angle_gamma 90.000000
_cell_volume 1132.903816
_symmetry_space_group_name_H-M "P B A 2"
_symmetry_group_IT_number 32
_symmetry_cell_setting 'orthorhombic'
loop_
_space_group_symop_operation_xyz
x,y,z
-x,-y,z
1/2-x,1/2+y,z
1/2+x,1/2-y,z
loop_
_atom_site_type_symbol
_atom_site_label
_atom_site_fract_x
_atom_site_fract_y
_atom_site_fract_z
Si Si1 0.378277 0.457416 0.691850
Si Si2 0.335737 0.750687 0.919021
Si Si3 0.571508 0.761720 0.078163
Si Si4 0.000000 0.000000 0.088467
Si Si5 0.182257 0.730550 0.345054
Si Si6 0.937157 0.771271 0.695320
Si Si7 0.285198 0.875009 0.411509
Si Si8 0.000000 0.500000 0.798778
O O1 0.348519 0.565068 0.904056
O O2 0.336461 0.349036 0.566347
O O3 0.407740 0.594868 0.528242
O O4 0.417662 0.336216 0.813703
O O5 0.389188 0.821911 0.818149
O O6 0.294028 0.798637 0.698500
O O7 0.325906 0.805144 0.209284
O O8 0.536122 0.631308 0.229899
O O9 0.628614 0.791990 0.188884
O O10 0.540012 0.913046 0.990706
O O11 0.965599 0.880720 0.910989
O O12 0.233047 0.825462 0.261526
O O13 0.204083 0.560733 0.427265
O O14 0.975300 0.635104 0.617564
#
# Coordination Sequence:
#
# PCOD9343683 Si02
#       8
#     4   4   4   2   4   4   4   2
#     4   9  23  41  70  99 144 195 241 313 372 444
#     4  10  25  48  74 107 152 194 248 314 373 451
#     4  10  22  42  72 100 151 189 255 309 381 453
#     4   8  16  38  66 104 130 202 228 304 364 448
#     4  12  28  44  72 106 147 199 255 316 379 461
#     4   8  18  36  70  96 150 181 252 299 376 439
#     4  12  29  46  76 108 148 199 251 308 383 454
#     4  10  18  38  74 106 142 206 246 322 384 464
#
# _framework density 24.715250000000001
#
# number of rings (size 3 to 8) (size 9 to 14) (size 15 to 20)
#    0.857    1.143    0.000    1.714   10.000    0.000 
#    0.000    5.000   12.571    0.000    0.000    0.000 
#    0.000    0.000    0.000    0.000    0.000    0.000 
#
# Total GULP energy -155892.021598 kJ/mol
# GULP energy per Si atom -5567.572200 kJ/mol
# Density = 2.465900 g / cm^3
# Si number density = 24.715250 Si / 1000 Ang^3
#
#
#
# Elastic Constant Matrix: (Units=GPa)
#
#
# Indices 1 2 3 4 5 6 
#
# 1 114.0621 64.8472 2.9681 0.0000 0.0000 0.0000
# 2 64.8472 164.0698 27.2435 0.0000 0.0000 0.0000
# 3 2.9681 27.2435 47.7174 0.0000 0.0000 0.0000
# 4 0.0000 0.0000 0.0000 29.2731 0.0000 0.0000
# 5 0.0000 0.0000 0.0000 0.0000 -53.3573 0.0000
# 6 0.0000 0.0000 0.0000 0.0000 0.0000 15.1826
#
#
#
# Elastic Compliance Matrix: (Units=1/GPa)
#
#
# Indices 1 2 3 4 5 6 
#
# 1 0.011491 -0.004886 0.002075 0.000000 0.000000 0.000000
# 2 -0.004886 0.008811 -0.004727 0.000000 0.000000 0.000000
# 3 0.002075 -0.004727 0.023526 0.000000 0.000000 0.000000
# 4 0.000000 0.000000 0.000000 0.034161 0.000000 0.000000
# 5 0.000000 0.000000 0.000000 0.000000 -0.018742 0.000000
# 6 0.000000 0.000000 0.000000 0.000000 0.000000 0.065865
#
#
# Mechanical properties :
#
#
# Convention : Reuss Voigt Hill
#
# Bulk Modulus (GPa) = 34.77947 57.32967 46.05457
# Shear Modulus (GPa) = 33.38383 13.60570 23.49477
#
# Velocity S-wave (km/s) = 3.67923 2.34881 3.08655
# Velocity P-wave (km/s) = 5.67023 5.53194 5.60151
#
# Compressibility (1/GPa) = 0.02875260
#
# Stress axis : x y z
#
# Youngs Moduli (GPa) = 87.02333 113.49318 42.50572
#
# Poissons Ratio (x) = 0.55457 -0.08820
# Poissons Ratio (y) = 0.42523 0.20091
# Poissons Ratio (z) = -0.18057 0.53644
#
# Static dielectric constant tensor:
#      x y z
#    x 3.127100 0.000000 0.000000 
#    y 0.000000 1.777940 0.000000 
#    z 0.000000 0.000000 2.084280 
# 
# From -- ./inp_files/1749.got.cif
#   From: 2010.05.17/outbox.cif.g08.bks.cpg/sg32_1_cif.got.tgz:1749.got - 2010.06.03 17:12:27.
