data_PCOD9343584
_publ_section_title
;
Structure prediction by ZEFSAII (Michael W. Deem and Ramdas Pophale) SiO2 
 PCOD9343584
Probable space group: P M N 21
;
_chemical_formula_sum "Si O2"
_cell_formula_units_Z 20
_cell_length_a 18.118174
_cell_length_b 5.304486
_cell_length_c 8.285499
_cell_angle_alpha 90.000000
_cell_angle_beta 90.000000
_cell_angle_gamma 90.000000
_cell_volume 796.299426
_symmetry_space_group_name_H-M "P M N 21"
_symmetry_group_IT_number 31
_symmetry_cell_setting 'orthorhombic'
loop_
_space_group_symop_operation_xyz
x,y,z
1/2-x,-y,1/2+z
-x,y,z
1/2+x,-y,1/2+z
loop_
_atom_site_type_symbol
_atom_site_label
_atom_site_fract_x
_atom_site_fract_y
_atom_site_fract_z
Si Si1 0.876372 0.809367 0.210770
Si Si2 0.417927 0.021540 0.367014
Si Si3 0.834336 0.632349 0.652087
Si Si4 0.267950 0.718879 0.360228
Si Si5 0.415335 0.690704 0.911839
O O1 0.787126 0.809253 0.218897
O O2 0.901325 0.549050 0.294438
O O3 0.899542 0.052143 0.316589
O O4 0.911263 0.825504 0.034595
O O5 0.500000 0.909463 0.357869
O O6 0.401040 0.195827 0.212091
O O7 0.347521 0.840245 0.379345
O O8 0.780301 0.746112 0.519587
O O9 0.786376 0.567352 0.809610
O O10 0.865543 0.380142 0.566167
O O11 0.500000 0.693208 0.962480
#
# Coordination Sequence:
#
# PCOD9343584 Si02
#       5
#     4   4   4   4   4
#     4  11  27  47  78 107 151 203 258 314 392 468
#     4  12  27  46  74 112 151 198 257 328 394 465
#     4  11  27  46  75 108 149 203 262 319 392 469
#     4  11  27  47  75 106 149 202 261 318 387 467
#     4  11  25  48  75 111 152 198 252 321 394 465
#
# _framework density 25.116178999999999
#
# number of rings (size 3 to 8) (size 9 to 14) (size 15 to 20)
#    0.000    0.800    0.000    4.800   22.400    1.600 
#    0.000    0.000    0.000    0.000    0.000    0.000 
#    0.000    0.000    0.000    0.000    0.000    0.000 
#
# Total GULP energy -111981.083995 kJ/mol
# GULP energy per Si atom -5599.054200 kJ/mol
# Density = 2.505901 g / cm^3
# Si number density = 25.116179 Si / 1000 Ang^3
#
#
#
# Elastic Constant Matrix: (Units=GPa)
#
#
# Indices 1 2 3 4 5 6 
#
# 1 204.8650 23.6892 35.8501 0.0000 0.0000 0.0000
# 2 23.6892 86.1191 23.0056 0.0000 0.0000 0.0000
# 3 35.8501 23.0056 102.1072 0.0000 0.0000 0.0000
# 4 0.0000 0.0000 0.0000 46.9642 0.0000 0.0000
# 5 0.0000 0.0000 0.0000 0.0000 28.7768 0.0000
# 6 0.0000 0.0000 0.0000 0.0000 0.0000 2.8493
#
#
#
# Elastic Compliance Matrix: (Units=1/GPa)
#
#
# Indices 1 2 3 4 5 6 
#
# 1 0.005284 -0.001019 -0.001625 0.000000 0.000000 0.000000
# 2 -0.001019 0.012552 -0.002470 0.000000 0.000000 0.000000
# 3 -0.001625 -0.002470 0.010921 0.000000 0.000000 0.000000
# 4 0.000000 0.000000 0.000000 0.021293 0.000000 0.000000
# 5 0.000000 0.000000 0.000000 0.000000 0.034750 0.000000
# 6 0.000000 0.000000 0.000000 0.000000 0.000000 0.350968
#
#
# Mechanical properties :
#
#
# Convention : Reuss Voigt Hill
#
# Bulk Modulus (GPa) = 53.97585 62.02010 57.99798
# Shear Modulus (GPa) = 11.05771 36.42115 23.73943
#
# Velocity S-wave (km/s) = 2.10052 3.81216 3.07772
# Velocity P-wave (km/s) = 5.23641 6.64256 5.98096
#
# Compressibility (1/GPa) = 0.01852680
#
# Stress axis : x y z
#
# Youngs Moduli (GPa) = 189.26655 79.66816 91.56759
#
# Poissons Ratio (x) = 0.08119 0.14884
# Poissons Ratio (y) = 0.19289 0.22620
# Poissons Ratio (z) = 0.30764 0.19680
#
# Static dielectric constant tensor:
#      x y z
#    x 1.949570 0.000000 0.000000 
#    y 0.000000 2.043770 0.000000 
#    z 0.000000 0.000000 2.012690 
# 
# From -- ./inp_files/2697.got.cif
#   From: 2010.05.17/outbox.cif.g08.bks.cpg/sg31_2_cif.got.tgz:2697.got - 2010.06.03 17:08:30.
