data_PCOD9343325
_publ_section_title
;
Structure prediction by ZEFSAII (Michael W. Deem and Ramdas Pophale) SiO2 
 PCOD9343325
Probable space group: P M N 21
;
_chemical_formula_sum "Si O2"
_cell_formula_units_Z 32
_cell_length_a 14.106771
_cell_length_b 12.480103
_cell_length_c 7.140798
_cell_angle_alpha 90.000000
_cell_angle_beta 90.000000
_cell_angle_gamma 90.000000
_cell_volume 1257.165730
_symmetry_space_group_name_H-M "P M N 21"
_symmetry_group_IT_number 31
_symmetry_cell_setting 'orthorhombic'
loop_
_space_group_symop_operation_xyz
x,y,z
1/2-x,-y,1/2+z
-x,y,z
1/2+x,-y,1/2+z
loop_
_atom_site_type_symbol
_atom_site_label
_atom_site_fract_x
_atom_site_fract_y
_atom_site_fract_z
Si Si1 0.608917 0.910903 0.819360
Si Si2 0.610477 0.129031 0.923026
Si Si3 0.896717 0.627851 0.285177
Si Si4 0.757322 0.261279 0.342443
Si Si5 0.895135 0.571097 0.703370
Si Si6 0.609385 0.860486 0.269594
Si Si7 0.809403 0.356711 0.696112
Si Si8 0.111771 0.902287 0.864270
O O1 0.500000 0.900678 0.756929
O O2 0.674620 0.819605 0.732031
O O3 0.652211 0.030789 0.803477
O O4 0.612209 0.891498 0.046769
O O5 0.500000 0.098385 0.916053
O O6 0.614076 0.247904 0.845860
O O7 0.630139 0.125167 0.143953
O O8 0.897106 0.563980 0.478968
O O9 0.799048 0.602361 0.185219
O O10 0.000000 0.614180 0.193300
O O11 0.688302 0.346540 0.248765
O O12 0.827208 0.324742 0.481335
O O13 0.684872 0.180966 0.455087
O O14 0.871933 0.452572 0.775000
O O15 0.000000 0.610436 0.759721
O O16 0.500000 0.830851 0.306178
O O17 0.673382 0.755904 0.300980
O O18 0.629338 0.970765 0.380411
O O19 0.000000 0.883096 0.907742
#
# Coordination Sequence:
#
# PCOD9343325 Si02
#       8
#     4   4   4   4   4   4   4   4
#     4   8  16  30  52  83 116 148 184 228 279 338
#     4   8  14  30  54  78 108 149 188 220 265 333
#     4  10  21  37  57  82 113 150 190 233 282 343
#     4  11  21  34  59  90 115 143 195 241 297 333
#     4  11  23  42  63  81 108 154 203 240 279 344
#     4   8  16  32  54  80 112 151 190 230 280 340
#     4  11  23  37  56  87 120 146 191 244 297 332
#     4   9  16  30  54  83 110 143 190 234 274 333
#
# _framework density 25.454082
#
# number of rings (size 3 to 8) (size 9 to 14) (size 15 to 20)
#    0.000    2.500    1.250    3.000    1.750    1.500 
#    0.000    0.625    0.000    1.500    0.000    0.000 
#    0.000    0.000    0.000    0.000    0.000    0.000 
#
# Total GULP energy -178745.080018 kJ/mol
# GULP energy per Si atom -5585.783751 kJ/mol
# Density = 2.539615 g / cm^3
# Si number density = 25.454082 Si / 1000 Ang^3
#
#
#
# Elastic Constant Matrix: (Units=GPa)
#
#
# Indices 1 2 3 4 5 6 
#
# 1 102.6768 20.6722 -14.9785 0.0000 0.0000 0.0000
# 2 20.6722 126.9449 2.3983 0.0000 0.0000 0.0000
# 3 -14.9785 2.3983 56.5735 0.0000 0.0000 0.0000
# 4 0.0000 0.0000 0.0000 20.2171 0.0000 0.0000
# 5 0.0000 0.0000 0.0000 0.0000 19.8227 0.0000
# 6 0.0000 0.0000 0.0000 0.0000 0.0000 42.3358
#
#
#
# Elastic Compliance Matrix: (Units=1/GPa)
#
#
# Indices 1 2 3 4 5 6 
#
# 1 0.010512 -0.001766 0.002858 0.000000 0.000000 0.000000
# 2 -0.001766 0.008180 -0.000814 0.000000 0.000000 0.000000
# 3 0.002858 -0.000814 0.018467 0.000000 0.000000 0.000000
# 4 0.000000 0.000000 0.000000 0.049463 0.000000 0.000000
# 5 0.000000 0.000000 0.000000 0.000000 0.050447 0.000000
# 6 0.000000 0.000000 0.000000 0.000000 0.000000 0.023621
#
#
# Mechanical properties :
#
#
# Convention : Reuss Voigt Hill
#
# Bulk Modulus (GPa) = 26.51452 33.59770 30.05611
# Shear Modulus (GPa) = 28.95091 35.01534 31.98313
#
# Velocity S-wave (km/s) = 3.37616 3.71297 3.54856
# Velocity P-wave (km/s) = 5.06332 5.62223 5.35008
#
# Compressibility (1/GPa) = 0.03771518
#
# Stress axis : x y z
#
# Youngs Moduli (GPa) = 95.13185 122.24395 54.14973
#
# Poissons Ratio (x) = 0.21585 -0.15476
# Poissons Ratio (y) = 0.16798 0.04409
# Poissons Ratio (z) = -0.27188 0.09954
#
# Static dielectric constant tensor:
#      x y z
#    x 2.032740 0.000000 0.000000 
#    y 0.000000 2.049040 0.000000 
#    z 0.000000 0.000000 2.096500 
# 
# From -- ./inp_files/2606.got.cif
#   From: 2010.05.17/outbox.cif.g08.bks.cpg/sg31_2_cif.got.tgz:2606.got - 2010.06.03 17:08:30.
