data_PCOD9343876
_publ_section_title
;
Structure prediction by ZEFSAII (Michael W. Deem and Ramdas Pophale) SiO2 
 PCOD9343876
Probable space group: P B A 2
;
_chemical_formula_sum "Si O2"
_cell_formula_units_Z 32
_cell_length_a 9.428514
_cell_length_b 26.275145
_cell_length_c 5.314773
_cell_angle_alpha 90.000000
_cell_angle_beta 90.000000
_cell_angle_gamma 90.000000
_cell_volume 1316.658332
_symmetry_space_group_name_H-M "P B A 2"
_symmetry_group_IT_number 32
_symmetry_cell_setting 'orthorhombic'
loop_
_space_group_symop_operation_xyz
x,y,z
-x,-y,z
1/2-x,1/2+y,z
1/2+x,1/2-y,z
loop_
_atom_site_type_symbol
_atom_site_label
_atom_site_fract_x
_atom_site_fract_y
_atom_site_fract_z
Si Si1 0.495110 0.861591 0.118540
Si Si2 0.905038 0.860250 0.884248
Si Si3 0.692054 0.671324 0.019199
Si Si4 0.096274 0.734900 0.309309
Si Si5 0.340877 0.746631 0.664221
Si Si6 0.242505 0.096918 0.385339
Si Si7 0.667404 0.015033 0.299583
Si Si8 0.902221 0.550213 0.795950
O O1 0.559323 0.804967 0.089532
O O2 0.594543 0.884384 0.337251
O O3 0.328093 0.852598 0.155055
O O4 0.495050 0.901927 0.890208
O O5 0.879232 0.799688 0.846545
O O6 0.830165 0.886323 0.644396
O O7 0.075434 0.865243 0.898581
O O8 0.838981 0.881108 0.141830
O O9 0.757522 0.709220 0.809311
O O10 0.610967 0.707938 0.213156
O O11 0.242935 0.723128 0.445388
O O12 0.975640 0.731387 0.519092
O O13 0.249762 0.035921 0.366117
O O14 0.500000 0.000000 0.269118
O O15 0.674437 0.054275 0.529844
O O16 0.701923 0.037353 0.027167
O O17 0.000000 0.500000 0.764733
#
# Coordination Sequence:
#
# PCOD9343876 Si02
#       8
#     4   4   4   4   4   4   4   4
#     4  12  25  43  75 109 144 198 267 312 386 460
#     4  12  27  44  69 103 153 198 255 309 386 467
#     4  12  28  47  65 105 160 205 254 320 388 464
#     4  12  25  46  67 107 150 207 257 323 373 466
#     4  12  25  44  72  96 154 208 259 316 385 439
#     4  12  25  43  75 111 139 196 259 314 381 468
#     4  10  20  41  66 106 147 169 230 333 385 425
#     4  10  21  40  68 107 145 176 239 333 386 429
#
# _framework density 24.303951000000001
#
# number of rings (size 3 to 8) (size 9 to 14) (size 15 to 20)
#    0.000    0.500    6.250    3.000    3.500    1.000 
#    0.000    0.000    0.000    4.500    0.000    0.000 
#    0.000    0.000    0.000    0.000    0.000    0.000 
#
# Total GULP energy -179091.657354 kJ/mol
# GULP energy per Si atom -5596.614292 kJ/mol
# Density = 2.424863 g / cm^3
# Si number density = 24.303951 Si / 1000 Ang^3
#
#
#
# Elastic Constant Matrix: (Units=GPa)
#
#
# Indices 1 2 3 4 5 6 
#
# 1 95.5118 14.4331 40.2633 0.0000 0.0000 0.0000
# 2 14.4331 79.1898 19.3029 0.0000 0.0000 0.0000
# 3 40.2633 19.3029 149.5193 0.0000 0.0000 0.0000
# 4 0.0000 0.0000 0.0000 28.7835 0.0000 0.0000
# 5 0.0000 0.0000 0.0000 0.0000 29.1528 0.0000
# 6 0.0000 0.0000 0.0000 0.0000 0.0000 21.4810
#
#
#
# Elastic Compliance Matrix: (Units=1/GPa)
#
#
# Indices 1 2 3 4 5 6 
#
# 1 0.011968 -0.001441 -0.003037 0.000000 0.000000 0.000000
# 2 -0.001441 0.013212 -0.001318 0.000000 0.000000 0.000000
# 3 -0.003037 -0.001318 0.007676 0.000000 0.000000 0.000000
# 4 0.000000 0.000000 0.000000 0.034742 0.000000 0.000000
# 5 0.000000 0.000000 0.000000 0.000000 0.034302 0.000000
# 6 0.000000 0.000000 0.000000 0.000000 0.000000 0.046553
#
#
# Mechanical properties :
#
#
# Convention : Reuss Voigt Hill
#
# Bulk Modulus (GPa) = 47.02606 52.46881 49.74744
# Shear Modulus (GPa) = 29.91661 32.56490 31.24076
#
# Velocity S-wave (km/s) = 3.51228 3.66444 3.58916
# Velocity P-wave (km/s) = 5.98659 6.28805 6.13917
#
# Compressibility (1/GPa) = 0.02126481
#
# Stress axis : x y z
#
# Youngs Moduli (GPa) = 83.55749 75.69048 130.27716
#
# Poissons Ratio (x) = 0.10907 0.39561
# Poissons Ratio (y) = 0.12041 0.17165
# Poissons Ratio (z) = 0.25374 0.09973
#
# Static dielectric constant tensor:
#      x y z
#    x 1.970630 0.000000 0.000000 
#    y 0.000000 1.996250 0.000000 
#    z 0.000000 0.000000 1.972570 
# 
# From -- ./inp_files/639.got.cif
#   From: 2010.05.17/outbox.cif.g08.bks.cpg/sg32_1_cif.got.tgz:639.got - 2010.06.03 17:12:27.
