data_PCOD9343758
_publ_section_title
;
Structure prediction by ZEFSAII (Michael W. Deem and Ramdas Pophale) SiO2 
 PCOD9343758
Probable space group: P B A 2
;
_chemical_formula_sum "Si O2"
_cell_formula_units_Z 32
_cell_length_a 14.554449
_cell_length_b 5.281734
_cell_length_c 19.289618
_cell_angle_alpha 90.000000
_cell_angle_beta 90.000000
_cell_angle_gamma 90.000000
_cell_volume 1482.845560
_symmetry_space_group_name_H-M "P B A 2"
_symmetry_group_IT_number 32
_symmetry_cell_setting 'orthorhombic'
loop_
_space_group_symop_operation_xyz
x,y,z
-x,-y,z
1/2-x,1/2+y,z
1/2+x,1/2-y,z
loop_
_atom_site_type_symbol
_atom_site_label
_atom_site_fract_x
_atom_site_fract_y
_atom_site_fract_z
Si Si1 0.108237 0.761062 0.082060
Si Si2 0.898393 0.734983 0.022517
Si Si3 0.611109 0.027882 0.732650
Si Si4 0.891373 0.028754 0.661034
Si Si5 0.808227 0.178327 0.367655
Si Si6 0.190364 0.776967 0.521786
Si Si7 0.188537 0.378506 0.883469
Si Si8 0.061157 0.753260 0.238708
O O1 0.148996 0.492057 0.063333
O O2 0.108982 0.792054 0.164203
O O3 0.002059 0.748260 0.053323
O O4 0.146087 0.998051 0.040563
O O5 0.888600 0.667414 0.942213
O O6 0.642748 0.245556 0.678327
O O7 0.643870 0.117625 0.807579
O O8 0.500000 0.000000 0.731870
O O9 0.645255 0.746657 0.712783
O O10 0.873587 0.141129 0.585022
O O11 0.000000 0.000000 0.671079
O O12 0.727475 0.389510 0.363994
O O13 0.851238 0.203165 0.444552
O O14 0.872130 0.251588 0.303964
O O15 0.229613 0.492042 0.526411
O O16 0.239945 0.647030 0.891508
O O17 0.000000 0.500000 0.234147
O O18 0.000000 0.000000 0.248598
#
# Coordination Sequence:
#
# PCOD9343758 Si02
#       8
#     4   4   4   4   4   4   4   4
#     4  10  19  38  64  86 110 151 203 248 289 373
#     4  10  20  38  60  85 115 153 192 253 298 355
#     4  10  23  41  61  88 119 164 202 248 309 372
#     4  10  21  39  61  91 123 150 207 263 300 347
#     4  10  23  42  59  91 134 169 205 253 315 381
#     4  10  21  38  62  87 121 169 207 236 301 376
#     4  12  26  42  59  91 127 157 202 260 308 366
#     4  12  21  39  67  95 122 157 216 261 304 367
#
# _framework density 21.580128999999999
#
# number of rings (size 3 to 8) (size 9 to 14) (size 15 to 20)
#    0.000    1.500    2.500    3.000    1.750    3.500 
#    4.500    5.625    0.000    0.000    0.000    0.000 
#    0.000    0.000    0.000    0.000    0.000    0.000 
#
# Total GULP energy -178660.688563 kJ/mol
# GULP energy per Si atom -5583.146518 kJ/mol
# Density = 2.153101 g / cm^3
# Si number density = 21.580129 Si / 1000 Ang^3
#
#
#
# Elastic Constant Matrix: (Units=GPa)
#
#
# Indices 1 2 3 4 5 6 
#
# 1 32.0491 15.2772 16.3964 0.0000 0.0000 0.0000
# 2 15.2772 123.9945 20.3105 0.0000 0.0000 0.0000
# 3 16.3964 20.3105 153.7145 0.0000 0.0000 0.0000
# 4 0.0000 0.0000 0.0000 34.5011 0.0000 0.0000
# 5 0.0000 0.0000 0.0000 0.0000 47.6873 0.0000
# 6 0.0000 0.0000 0.0000 0.0000 0.0000 28.3876
#
#
#
# Elastic Compliance Matrix: (Units=1/GPa)
#
#
# Indices 1 2 3 4 5 6 
#
# 1 0.034622 -0.003742 -0.003199 0.000000 0.000000 0.000000
# 2 -0.003742 0.008648 -0.000743 0.000000 0.000000 0.000000
# 3 -0.003199 -0.000743 0.006945 0.000000 0.000000 0.000000
# 4 0.000000 0.000000 0.000000 0.028985 0.000000 0.000000
# 5 0.000000 0.000000 0.000000 0.000000 0.020970 0.000000
# 6 0.000000 0.000000 0.000000 0.000000 0.000000 0.035227
#
#
# Mechanical properties :
#
#
# Convention : Reuss Voigt Hill
#
# Bulk Modulus (GPa) = 28.69690 45.96960 37.33325
# Shear Modulus (GPa) = 30.79201 39.30014 35.04607
#
# Velocity S-wave (km/s) = 3.78149 4.27210 4.03426
# Velocity P-wave (km/s) = 5.69148 6.75888 6.24801
#
# Compressibility (1/GPa) = 0.03484697
#
# Stress axis : x y z
#
# Youngs Moduli (GPa) = 28.88314 115.63788 143.98841
#
# Poissons Ratio (x) = 0.43270 0.46057
# Poissons Ratio (y) = 0.10808 0.10706
# Poissons Ratio (z) = 0.09239 0.08598
#
# Static dielectric constant tensor:
#      x y z
#    x 1.730150 0.000000 0.000000 
#    y 0.000000 1.838280 0.000000 
#    z 0.000000 0.000000 1.810280 
# 
# From -- ./inp_files/4249.got.cif
#   From: 2010.05.17/outbox.cif.g08.bks.cpg/sg32_3_cif.got.tgz:4249.got - 2010.06.03 17:12:27.
