data_PCOD9343530
_publ_section_title
;
Structure prediction by ZEFSAII (Michael W. Deem and Ramdas Pophale) SiO2 
 PCOD9343530
Probable space group: P M N 21
;
_chemical_formula_sum "Si O2"
_cell_formula_units_Z 20
_cell_length_a 21.135556
_cell_length_b 4.996376
_cell_length_c 7.532156
_cell_angle_alpha 90.000000
_cell_angle_beta 90.000000
_cell_angle_gamma 90.000000
_cell_volume 795.404597
_symmetry_space_group_name_H-M "P M N 21"
_symmetry_group_IT_number 31
_symmetry_cell_setting 'orthorhombic'
loop_
_space_group_symop_operation_xyz
x,y,z
1/2-x,-y,1/2+z
-x,y,z
1/2+x,-y,1/2+z
loop_
_atom_site_type_symbol
_atom_site_label
_atom_site_fract_x
_atom_site_fract_y
_atom_site_fract_z
Si Si1 0.302603 0.282949 0.569900
Si Si2 0.173627 0.562595 0.456440
Si Si3 0.874718 0.200282 0.943694
Si Si4 0.429200 0.136291 0.141271
Si Si5 0.433456 0.808854 0.801334
O O1 0.234775 0.408606 0.526951
O O2 0.308692 0.257147 0.784078
O O3 0.353115 0.498875 0.490052
O O4 0.315560 0.998342 0.478845
O O5 0.134124 0.687151 0.619522
O O6 0.125528 0.357473 0.366531
O O7 0.908647 0.117259 0.761633
O O8 0.922878 0.114041 0.099473
O O9 0.500000 0.234195 0.198760
O O10 0.436245 0.051305 0.936912
O O11 0.500000 0.657880 0.819696
#
# Coordination Sequence:
#
# PCOD9343530 Si02
#       5
#     4   4   4   4   4
#     4  11  26  43  73  98 145 179 233 288 344 415
#     4  11  24  43  68 102 138 185 233 285 350 409
#     4  11  25  46  68 106 134 184 226 288 346 409
#     4  11  24  43  71 100 136 182 231 283 344 414
#     4  10  23  45  68  98 139 180 229 284 344 411
#
# _framework density 25.144438999999998
#
# number of rings (size 3 to 8) (size 9 to 14) (size 15 to 20)
#    0.000    1.200    2.000    2.400    8.400    0.000 
#    0.000    2.000    0.000    0.000    0.000    0.000 
#    0.000    0.000    0.000    0.000    0.000    0.000 
#
# Total GULP energy -111772.500937 kJ/mol
# GULP energy per Si atom -5588.625047 kJ/mol
# Density = 2.508721 g / cm^3
# Si number density = 25.144439 Si / 1000 Ang^3
#
#
#
# Elastic Constant Matrix: (Units=GPa)
#
#
# Indices 1 2 3 4 5 6 
#
# 1 111.4885 -16.6858 30.0939 0.0000 0.0000 0.0000
# 2 -16.6858 51.5638 17.2949 0.0000 0.0000 0.0000
# 3 30.0939 17.2949 129.0508 0.0000 0.0000 0.0000
# 4 0.0000 0.0000 0.0000 34.6202 0.0000 0.0000
# 5 0.0000 0.0000 0.0000 0.0000 19.8026 0.0000
# 6 0.0000 0.0000 0.0000 0.0000 0.0000 36.6016
#
#
#
# Elastic Compliance Matrix: (Units=1/GPa)
#
#
# Indices 1 2 3 4 5 6 
#
# 1 0.010443 0.004394 -0.003024 0.000000 0.000000 0.000000
# 2 0.004394 0.022155 -0.003994 0.000000 0.000000 0.000000
# 3 -0.003024 -0.003994 0.008989 0.000000 0.000000 0.000000
# 4 0.000000 0.000000 0.000000 0.028885 0.000000 0.000000
# 5 0.000000 0.000000 0.000000 0.000000 0.050498 0.000000
# 6 0.000000 0.000000 0.000000 0.000000 0.000000 0.027321
#
#
# Mechanical properties :
#
#
# Convention : Reuss Voigt Hill
#
# Bulk Modulus (GPa) = 27.51840 39.27878 33.39859
# Shear Modulus (GPa) = 30.18351 35.63156 32.90754
#
# Velocity S-wave (km/s) = 3.46844 3.76849 3.62158
# Velocity P-wave (km/s) = 5.19693 5.88137 5.54971
#
# Compressibility (1/GPa) = 0.03633933
#
# Stress axis : x y z
#
# Youngs Moduli (GPa) = 95.75395 45.13701 111.24310
#
# Poissons Ratio (x) = -0.19832 0.33642
# Poissons Ratio (y) = -0.42072 0.44427
# Poissons Ratio (z) = 0.28958 0.18026
#
# Static dielectric constant tensor:
#      x y z
#    x 2.060470 0.000000 0.000000 
#    y 0.000000 2.029360 0.000000 
#    z 0.000000 0.000000 2.007290 
# 
# From -- ./inp_files/2699.got.cif
#   From: 2010.05.17/outbox.cif.g08.bks.cpg/sg31_2_cif.got.tgz:2699.got - 2010.06.03 17:08:30.
