data_PCOD9343475
_publ_section_title
;
Structure prediction by ZEFSAII (Michael W. Deem and Ramdas Pophale) SiO2 
 PCOD9343475
Probable space group: P M N 21
;
_chemical_formula_sum "Si O2"
_cell_formula_units_Z 32
_cell_length_a 8.100264
_cell_length_b 12.251447
_cell_length_c 15.664895
_cell_angle_alpha 90.000000
_cell_angle_beta 90.000000
_cell_angle_gamma 90.000000
_cell_volume 1554.583476
_symmetry_space_group_name_H-M "P M N 21"
_symmetry_group_IT_number 31
_symmetry_cell_setting 'orthorhombic'
loop_
_space_group_symop_operation_xyz
x,y,z
1/2-x,-y,1/2+z
-x,y,z
1/2+x,-y,1/2+z
loop_
_atom_site_type_symbol
_atom_site_label
_atom_site_fract_x
_atom_site_fract_y
_atom_site_fract_z
Si Si1 0.797981 0.993854 0.786640
Si Si2 0.301474 0.981049 0.480965
Si Si3 0.196275 0.550589 0.469002
Si Si4 0.303442 0.855801 0.127309
Si Si5 0.303731 0.393675 0.613861
Si Si6 0.191817 0.244907 0.072380
Si Si7 0.187884 0.748564 0.755827
Si Si8 0.805288 0.487131 0.284816
O O1 0.743322 0.868628 0.774415
O O2 0.000000 0.994095 0.782949
O O3 0.746526 0.024646 0.882499
O O4 0.742992 0.072381 0.709099
O O5 0.500000 0.993447 0.479701
O O6 0.262356 0.866975 0.526217
O O7 0.233281 0.077517 0.540481
O O8 0.225668 0.445657 0.529066
O O9 0.285720 0.652544 0.511580
O O10 0.261099 0.534474 0.373156
O O11 0.000000 0.571565 0.466462
O O12 0.500000 0.844230 0.135934
O O13 0.228737 0.734834 0.124131
O O14 0.500000 0.412403 0.607539
O O15 0.238741 0.459125 0.697644
O O16 0.304945 0.261337 0.154038
O O17 0.000000 0.238579 0.100153
O O18 0.281005 0.642617 0.788523
O O19 0.000000 0.744028 0.787706
O O20 0.000000 0.509970 0.283417
#
# Coordination Sequence:
#
# PCOD9343475 Si02
#       8
#     4   4   4   4   4   4   4   4
#     4   9  21  40  61  89 122 158 202 249 299 359
#     4  10  22  41  63  89 122 162 204 247 299 364
#     4  11  24  42  64  92 123 160 204 254 307 364
#     4  11  23  41  63  90 124 160 201 253 302 358
#     4  11  24  43  63  88 124 165 202 248 305 368
#     4  11  22  38  63  91 122 160 204 256 309 359
#     4  11  21  38  65  90 119 160 206 254 306 361
#     4  10  24  43  62  89 126 159 201 255 307 363
#
# _framework density 20.584292000000001
#
# number of rings (size 3 to 8) (size 9 to 14) (size 15 to 20)
#    0.000    1.500    2.500    1.875    3.500    2.000 
#    0.000    1.875    0.000    0.000    0.000    0.000 
#    0.000    0.000    0.000    0.000    0.000    0.000 
#
# Total GULP energy -178759.242501 kJ/mol
# GULP energy per Si atom -5586.226328 kJ/mol
# Density = 2.053744 g / cm^3
# Si number density = 20.584292 Si / 1000 Ang^3
#
#
#
# Elastic Constant Matrix: (Units=GPa)
#
#
# Indices 1 2 3 4 5 6 
#
# 1 12.0386 -4.0277 5.5343 0.0000 0.0000 0.0000
# 2 -4.0277 75.9313 -14.0153 0.0000 0.0000 0.0000
# 3 5.5343 -14.0153 51.1210 0.0000 0.0000 0.0000
# 4 0.0000 0.0000 0.0000 44.3405 0.0000 0.0000
# 5 0.0000 0.0000 0.0000 0.0000 -42.7050 0.0000
# 6 0.0000 0.0000 0.0000 0.0000 0.0000 19.8987
#
#
#
# Elastic Compliance Matrix: (Units=1/GPa)
#
#
# Indices 1 2 3 4 5 6 
#
# 1 0.088090 0.003068 -0.008695 0.000000 0.000000 0.000000
# 2 0.003068 0.013979 0.003500 0.000000 0.000000 0.000000
# 3 -0.008695 0.003500 0.021462 0.000000 0.000000 0.000000
# 4 0.000000 0.000000 0.000000 0.022553 0.000000 0.000000
# 5 0.000000 0.000000 0.000000 0.000000 -0.023416 0.000000
# 6 0.000000 0.000000 0.000000 0.000000 0.000000 0.050254
#
#
# Mechanical properties :
#
#
# Convention : Reuss Voigt Hill
#
# Bulk Modulus (GPa) = 8.38394 12.67483 10.52939
# Shear Modulus (GPa) = 23.04839 14.41349 18.73094
#
# Velocity S-wave (km/s) = 3.34983 2.64903 3.01983
# Velocity P-wave (km/s) = 4.36391 3.94048 4.15759
#
# Compressibility (1/GPa) = 0.11927560
#
# Stress axis : x y z
#
# Youngs Moduli (GPa) = 11.35208 71.53794 46.59310
#
# Poissons Ratio (x) = -0.21945 0.40515
# Poissons Ratio (y) = -0.03482 -0.16309
# Poissons Ratio (z) = 0.09871 -0.25040
#
# Static dielectric constant tensor:
#      x y z
#    x 1.734120 0.000000 0.000000 
#    y 0.000000 1.663200 0.000000 
#    z 0.000000 0.000000 1.738840 
# 
# From -- ./inp_files/4923.got.cif
#   From: 2010.05.17/outbox.cif.g08.bks.cpg/sg31_3_cif.got.tgz:4923.got - 2010.06.03 17:08:30.
