data_PCOD9343129
_publ_section_title
;
Structure prediction by ZEFSAII (Michael W. Deem and Ramdas Pophale) SiO2 
 PCOD9343129
Probable space group: P M N 21
;
_chemical_formula_sum "Si O2"
_cell_formula_units_Z 32
_cell_length_a 8.989315
_cell_length_b 11.631769
_cell_length_c 18.000629
_cell_angle_alpha 90.000000
_cell_angle_beta 90.000000
_cell_angle_gamma 90.000000
_cell_volume 1882.175209
_symmetry_space_group_name_H-M "P M N 21"
_symmetry_group_IT_number 31
_symmetry_cell_setting 'orthorhombic'
loop_
_space_group_symop_operation_xyz
x,y,z
1/2-x,-y,1/2+z
-x,y,z
1/2+x,-y,1/2+z
loop_
_atom_site_type_symbol
_atom_site_label
_atom_site_fract_x
_atom_site_fract_y
_atom_site_fract_z
Si Si1 0.322820 0.829685 0.326870
Si Si2 0.821639 0.087028 0.988622
Si Si3 0.325699 0.321520 0.706574
Si Si4 0.322611 0.660916 0.057896
Si Si5 0.321992 0.207711 0.130306
Si Si6 0.821890 0.908799 0.786791
Si Si7 0.174640 0.454768 0.126402
Si Si8 0.178029 0.150462 0.437672
O O1 0.500000 0.812570 0.319229
O O2 0.287174 0.839197 0.414203
O O3 0.238039 0.733428 0.280587
O O4 0.285866 0.955667 0.293309
O O5 0.753655 0.144733 0.061029
O O6 0.000000 0.077990 0.993765
O O7 0.752704 0.961494 0.974615
O O8 0.500000 0.295388 0.698305
O O9 0.235889 0.278126 0.633736
O O10 0.309288 0.459854 0.697631
O O11 0.500000 0.646258 0.062379
O O12 0.241466 0.537481 0.062102
O O13 0.285801 0.738166 0.987111
O O14 0.500000 0.206258 0.121768
O O15 0.284393 0.142835 0.206985
O O16 0.262636 0.337634 0.133812
O O17 0.739217 0.845410 0.854070
O O18 0.000000 0.898787 0.798371
O O19 0.000000 0.433321 0.114372
O O20 0.000000 0.136518 0.437384
#
# Coordination Sequence:
#
# PCOD9343129 Si02
#       8
#     4   4   4   4   4   4   4   4
#     4   9  18  35  55  78 109 141 175 217 266 318
#     4  10  22  37  55  80 113 148 178 220 272 323
#     4   9  19  32  53  81 106 137 176 222 267 313
#     4   9  18  33  55  79 106 140 176 221 270 316
#     4  11  22  37  57  80 107 146 185 220 271 326
#     4   9  21  37  54  79 112 145 177 219 270 325
#     4   9  20  36  53  79 108 139 183 229 268 318
#     4  10  20  35  56  84 111 140 180 224 270 319
#
# _framework density 17.001607
#
# number of rings (size 3 to 8) (size 9 to 14) (size 15 to 20)
#    0.750    1.750    0.000    2.625    1.750    5.500 
#    0.000    1.250    0.000    3.000    0.000    0.000 
#    0.000    0.000    0.000    0.000    0.000    0.000 
#
# Total GULP energy -178271.184480 kJ/mol
# GULP energy per Si atom -5570.974515 kJ/mol
# Density = 1.696291 g / cm^3
# Si number density = 17.001607 Si / 1000 Ang^3
#
#
#
# Elastic Constant Matrix: (Units=GPa)
#
#
# Indices 1 2 3 4 5 6 
#
# 1 59.9837 41.3679 61.0613 0.0000 0.0000 0.0000
# 2 41.3679 70.1670 72.1549 0.0000 0.0000 0.0000
# 3 61.0613 72.1549 129.4403 0.0000 0.0000 0.0000
# 4 0.0000 0.0000 0.0000 -23.4086 0.0000 0.0000
# 5 0.0000 0.0000 0.0000 0.0000 29.4331 0.0000
# 6 0.0000 0.0000 0.0000 0.0000 0.0000 16.5107
#
#
#
# Elastic Compliance Matrix: (Units=1/GPa)
#
#
# Indices 1 2 3 4 5 6 
#
# 1 0.034031 -0.008330 -0.011410 0.000000 0.000000 0.000000
# 2 -0.008330 0.035434 -0.015822 0.000000 0.000000 0.000000
# 3 -0.011410 -0.015822 0.021928 0.000000 0.000000 0.000000
# 4 0.000000 0.000000 0.000000 -0.042719 0.000000 0.000000
# 5 0.000000 0.000000 0.000000 0.000000 0.033975 0.000000
# 6 0.000000 0.000000 0.000000 0.000000 0.000000 0.060567
#
#
# Mechanical properties :
#
#
# Convention : Reuss Voigt Hill
#
# Bulk Modulus (GPa) = 49.34004 67.63992 58.48998
# Shear Modulus (GPa) = 22.61450 10.17415 16.39432
#
# Velocity S-wave (km/s) = 3.65106 2.44892 3.10866
# Velocity P-wave (km/s) = 6.84525 6.91860 6.88203
#
# Compressibility (1/GPa) = 0.02026752
#
# Stress axis : x y z
#
# Youngs Moduli (GPa) = 29.38476 28.22185 45.60357
#
# Poissons Ratio (x) = 0.23509 0.52034
# Poissons Ratio (y) = 0.24478 0.72156
# Poissons Ratio (z) = 0.33528 0.44654
#
# Static dielectric constant tensor:
#      x y z
#    x 1.566230 0.000000 0.000000 
#    y 0.000000 1.561720 0.000000 
#    z 0.000000 0.000000 1.566520 
# 
# From -- ./inp_files/5926.got.cif
#   From: 2010.05.17/outbox.cif.g08.bks.cpg/sg31_3_cif.got.tgz:5926.got - 2010.06.03 17:08:30.
