data_PCOD9343703
_publ_section_title
;
Structure prediction by ZEFSAII (Michael W. Deem and Ramdas Pophale) SiO2 
 PCOD9343703
Probable space group: P B A 2
;
_chemical_formula_sum "Si O2"
_cell_formula_units_Z 20
_cell_length_a 5.300731
_cell_length_b 13.627395
_cell_length_c 10.856477
_cell_angle_alpha 90.000000
_cell_angle_beta 90.000000
_cell_angle_gamma 90.000000
_cell_volume 784.219300
_symmetry_space_group_name_H-M "P B A 2"
_symmetry_group_IT_number 32
_symmetry_cell_setting 'orthorhombic'
loop_
_space_group_symop_operation_xyz
x,y,z
-x,-y,z
1/2-x,1/2+y,z
1/2+x,1/2-y,z
loop_
_atom_site_type_symbol
_atom_site_label
_atom_site_fract_x
_atom_site_fract_y
_atom_site_fract_z
Si Si1 0.447810 0.884183 0.429850
Si Si2 0.364273 0.863422 0.152599
Si Si3 0.553068 0.383573 0.535671
Si Si4 0.751986 0.932492 0.793459
Si Si5 0.640359 0.358401 0.051767
O O1 0.320720 0.867818 0.297554
O O2 0.736263 0.846011 0.439210
O O3 0.236045 0.847439 0.526700
O O4 0.500000 0.000000 0.448593
O O5 0.394451 0.751429 0.104488
O O6 0.640140 0.907669 0.131384
O O7 0.134744 0.903569 0.072024
O O8 0.500000 0.500000 0.515426
O O9 0.694431 0.375886 0.666395
O O10 0.500000 0.000000 0.788090
O O11 0.759663 0.863119 0.912603
O O12 0.000000 0.000000 0.806434
#
# Coordination Sequence:
#
# PCOD9343703 Si02
#       5
#     4   4   4   4   4
#     4  10  19  33  57  86 114 147 188 234 288 349
#     4  10  21  38  58  79 117 161 196 238 290 343
#     4   9  18  33  54  85 117 143 181 237 296 346
#     4  11  21  36  60  88 118 151 193 243 294 350
#     4  10  22  38  57  80 116 160 198 238 289 342
#
# _framework density 25.503072
#
# number of rings (size 3 to 8) (size 9 to 14) (size 15 to 20)
#    0.000    2.000    0.000    5.400    0.000    2.400 
#    0.000    0.000    0.000   28.800    0.000    0.000 
#    0.000    0.000    0.000    0.000    0.000    0.000 
#
# Total GULP energy -111696.629752 kJ/mol
# GULP energy per Si atom -5584.831488 kJ/mol
# Density = 2.544503 g / cm^3
# Si number density = 25.503072 Si / 1000 Ang^3
#
#
#
# Elastic Constant Matrix: (Units=GPa)
#
#
# Indices 1 2 3 4 5 6 
#
# 1 196.7825 8.2952 61.3298 0.0000 0.0000 0.0000
# 2 8.2952 88.3562 -12.0985 0.0000 0.0000 0.0000
# 3 61.3298 -12.0985 111.6054 0.0000 0.0000 0.0000
# 4 0.0000 0.0000 0.0000 41.7245 0.0000 0.0000
# 5 0.0000 0.0000 0.0000 0.0000 43.2649 0.0000
# 6 0.0000 0.0000 0.0000 0.0000 0.0000 -8.1384
#
#
#
# Elastic Compliance Matrix: (Units=1/GPa)
#
#
# Indices 1 2 3 4 5 6 
#
# 1 0.006230 -0.001070 -0.003539 0.000000 0.000000 0.000000
# 2 -0.001070 0.011672 0.001853 0.000000 0.000000 0.000000
# 3 -0.003539 0.001853 0.011106 0.000000 0.000000 0.000000
# 4 0.000000 0.000000 0.000000 0.023967 0.000000 0.000000
# 5 0.000000 0.000000 0.000000 0.000000 0.023113 0.000000
# 6 0.000000 0.000000 0.000000 0.000000 0.000000 -0.122875
#
#
# Mechanical properties :
#
#
# Convention : Reuss Voigt Hill
#
# Bulk Modulus (GPa) = 42.56036 56.86633 49.71335
# Shear Modulus (GPa) = -149.50912 37.98472 -55.76220
#
# Velocity S-wave (km/s) = -7.66494 3.86348 -4.68106
# Velocity P-wave (km/s) = 7.84923 6.49987 3.11144
#
# Compressibility (1/GPa) = 0.02349604
#
# Stress axis : x y z
#
# Youngs Moduli (GPa) = 160.51495 85.67529 90.04126
#
# Poissons Ratio (x) = 0.09163 0.31870
# Poissons Ratio (y) = 0.17168 -0.16685
# Poissons Ratio (z) = 0.56813 -0.15876
#
# Static dielectric constant tensor:
#      x y z
#    x 2.084710 0.000000 0.000000 
#    y 0.000000 1.782850 0.000000 
#    z 0.000000 0.000000 2.035690 
# 
# From -- ./inp_files/3499.got.cif
#   From: 2010.05.17/outbox.cif.g08.bks.cpg/sg32_2_cif.got.tgz:3499.got - 2010.06.03 17:12:27.
