data_PCOD9343438
_publ_section_title
;
Structure prediction by ZEFSAII (Michael W. Deem and Ramdas Pophale) SiO2 
 PCOD9343438
Probable space group: P M N 21
;
_chemical_formula_sum "Si O2"
_cell_formula_units_Z 32
_cell_length_a 8.693216
_cell_length_b 21.617801
_cell_length_c 9.420331
_cell_angle_alpha 90.000000
_cell_angle_beta 90.000000
_cell_angle_gamma 90.000000
_cell_volume 1770.345976
_symmetry_space_group_name_H-M "P M N 21"
_symmetry_group_IT_number 31
_symmetry_cell_setting 'orthorhombic'
loop_
_space_group_symop_operation_xyz
x,y,z
1/2-x,-y,1/2+z
-x,y,z
1/2+x,-y,1/2+z
loop_
_atom_site_type_symbol
_atom_site_label
_atom_site_fract_x
_atom_site_fract_y
_atom_site_fract_z
Si Si1 0.186346 0.444594 0.100590
Si Si2 0.186905 0.176210 0.093985
Si Si3 0.684463 0.939376 0.086192
Si Si4 0.322208 0.689302 0.580689
Si Si5 0.314210 0.560031 0.930792
Si Si6 0.182091 0.825988 0.911295
Si Si7 0.814166 0.055810 0.915282
Si Si8 0.677967 0.696044 0.925882
O O1 0.243899 0.377856 0.041584
O O2 0.230293 0.448114 0.266110
O O3 0.000000 0.443494 0.094319
O O4 0.248168 0.503784 0.019580
O O5 0.243932 0.243743 0.040477
O O6 0.248237 0.165967 0.253087
O O7 0.000000 0.179132 0.102027
O O8 0.229849 0.119772 0.992609
O O9 0.500000 0.937678 0.081373
O O10 0.732614 0.944314 0.250678
O O11 0.748918 0.877713 0.013650
O O12 0.743867 0.998312 0.999097
O O13 0.500000 0.689052 0.532731
O O14 0.322580 0.690497 0.753421
O O15 0.500000 0.559744 0.937355
O O16 0.265500 0.629153 0.978735
O O17 0.227256 0.756957 0.961557
O O18 0.000000 0.832482 0.903240
O O19 0.000000 0.051020 0.920942
O O20 0.500000 0.705062 0.968861
#
# Coordination Sequence:
#
# PCOD9343438 Si02
#       8
#     4   4   4   4   4   4   4   4
#     4   9  17  30  48  71 101 134 171 214 256 300
#     4   9  17  34  58  79 103 135 170 209 254 301
#     4  11  23  38  55  76 106 140 171 207 252 301
#     4   7  12  26  49  72  94 128 169 205 245 296
#     4   9  18  32  50  73 101 134 173 214 255 305
#     4  11  21  33  53  81 107 131 167 211 255 306
#     4  10  22  38  57  81 104 133 175 214 248 294
#     4   8  15  31  52  71  96 133 174 212 253 301
#
# _framework density 18.075564
#
# number of rings (size 3 to 8) (size 9 to 14) (size 15 to 20)
#    0.000    2.750    0.000    4.500    0.000    4.500 
#    0.000    6.250    0.000    3.000    0.000    0.000 
#    0.000    0.000    0.000    0.000    0.000    0.000 
#
# Total GULP energy -178341.458759 kJ/mol
# GULP energy per Si atom -5573.170586 kJ/mol
# Density = 1.803442 g / cm^3
# Si number density = 18.075564 Si / 1000 Ang^3
#
#
#
# Elastic Constant Matrix: (Units=GPa)
#
#
# Indices 1 2 3 4 5 6 
#
# 1 22.6546 42.1960 28.8262 0.0000 0.0000 0.0000
# 2 42.1960 212.1139 91.6191 0.0000 0.0000 0.0000
# 3 28.8262 91.6191 87.4152 0.0000 0.0000 0.0000
# 4 0.0000 0.0000 0.0000 33.7994 0.0000 0.0000
# 5 0.0000 0.0000 0.0000 0.0000 22.0646 0.0000
# 6 0.0000 0.0000 0.0000 0.0000 0.0000 28.1637
#
#
#
# Elastic Compliance Matrix: (Units=1/GPa)
#
#
# Indices 1 2 3 4 5 6 
#
# 1 0.083950 -0.008666 -0.018601 0.000000 0.000000 0.000000
# 2 -0.008666 0.009509 -0.007108 0.000000 0.000000 0.000000
# 3 -0.018601 -0.007108 0.025024 0.000000 0.000000 0.000000
# 4 0.000000 0.000000 0.000000 0.029586 0.000000 0.000000
# 5 0.000000 0.000000 0.000000 0.000000 0.045321 0.000000
# 6 0.000000 0.000000 0.000000 0.000000 0.000000 0.035507
#
#
# Mechanical properties :
#
#
# Convention : Reuss Voigt Hill
#
# Bulk Modulus (GPa) = 20.10768 71.94068 46.02418
# Shear Modulus (GPa) = 15.91222 27.44171 21.67697
#
# Velocity S-wave (km/s) = 2.97023 3.90059 3.46676
# Velocity P-wave (km/s) = 4.78659 7.75710 6.44531
#
# Compressibility (1/GPa) = 0.04973225
#
# Stress axis : x y z
#
# Youngs Moduli (GPa) = 11.91187 105.16724 39.96227
#
# Poissons Ratio (x) = 0.91137 0.74333
# Poissons Ratio (y) = 0.10323 0.28406
# Poissons Ratio (z) = 0.22157 0.74756
#
# Static dielectric constant tensor:
#      x y z
#    x 1.604140 0.000000 0.000000 
#    y 0.000000 1.649610 0.000000 
#    z 0.000000 0.000000 1.595280 
# 
# From -- ./inp_files/1858.got.cif
#   From: 2010.05.17/outbox.cif.g08.bks.cpg/sg31_1_cif.got.tgz:1858.got - 2010.06.03 17:08:30.
