data_PCOD9343467
_publ_section_title
;
Structure prediction by ZEFSAII (Michael W. Deem and Ramdas Pophale) SiO2 
 PCOD9343467
Probable space group: P M N 21
;
_chemical_formula_sum "Si O2"
_cell_formula_units_Z 20
_cell_length_a 22.985435
_cell_length_b 5.081446
_cell_length_c 8.154545
_cell_angle_alpha 90.000000
_cell_angle_beta 90.000000
_cell_angle_gamma 90.000000
_cell_volume 952.444713
_symmetry_space_group_name_H-M "P M N 21"
_symmetry_group_IT_number 31
_symmetry_cell_setting 'orthorhombic'
loop_
_space_group_symop_operation_xyz
x,y,z
1/2-x,-y,1/2+z
-x,y,z
1/2+x,-y,1/2+z
loop_
_atom_site_type_symbol
_atom_site_label
_atom_site_fract_x
_atom_site_fract_y
_atom_site_fract_z
Si Si1 0.335439 0.252567 0.370030
Si Si2 0.669918 0.492815 0.701295
Si Si3 0.566176 0.236340 0.112012
Si Si4 0.933470 0.258695 0.390682
Si Si5 0.766956 0.260845 0.909537
O O1 0.352153 0.292052 0.560989
O O2 0.387873 0.180285 0.253361
O O3 0.310948 0.537907 0.318095
O O4 0.285002 0.034446 0.371227
O O5 0.616814 0.664129 0.765280
O O6 0.703657 0.343948 0.847182
O O7 0.716626 0.666389 0.596670
O O8 0.500000 0.200506 0.171582
O O9 0.571419 0.528415 0.037964
O O10 0.574926 0.030095 0.964674
O O11 0.000000 0.280079 0.326710
#
# Coordination Sequence:
#
# PCOD9343467 Si02
#       5
#     4   4   4   4   4
#     4  10  24  39  61  90 122 165 206 259 312 374
#     4  10  26  39  64  90 131 163 211 261 317 380
#     4  10  22  40  64  90 120 164 210 259 314 376
#     4  10  23  41  65  91 121 165 209 259 316 375
#     4  10  25  39  58  95 120 171 200 260 317 373
#
# _framework density 20.998591000000001
#
# number of rings (size 3 to 8) (size 9 to 14) (size 15 to 20)
#    1.200    0.800    0.000    1.200   11.200    0.800 
#    0.000    1.000    0.000    0.000    0.000    0.000 
#    0.000    0.000    0.000    0.000    0.000    0.000 
#
# Total GULP energy -111568.868574 kJ/mol
# GULP energy per Si atom -5578.443429 kJ/mol
# Density = 2.095080 g / cm^3
# Si number density = 20.998591 Si / 1000 Ang^3
#
#
#
# Elastic Constant Matrix: (Units=GPa)
#
#
# Indices 1 2 3 4 5 6 
#
# 1 71.6677 -18.8605 50.8283 0.0000 0.0000 0.0000
# 2 -18.8605 52.0551 -6.6046 0.0000 0.0000 0.0000
# 3 50.8283 -6.6046 64.6502 0.0000 0.0000 0.0000
# 4 0.0000 0.0000 0.0000 20.1765 0.0000 0.0000
# 5 0.0000 0.0000 0.0000 0.0000 28.2180 0.0000
# 6 0.0000 0.0000 0.0000 0.0000 0.0000 24.5943
#
#
#
# Elastic Compliance Matrix: (Units=1/GPa)
#
#
# Indices 1 2 3 4 5 6 
#
# 1 0.035625 0.009477 -0.027040 0.000000 0.000000 0.000000
# 2 0.009477 0.021984 -0.005205 0.000000 0.000000 0.000000
# 3 -0.027040 -0.005205 0.036195 0.000000 0.000000 0.000000
# 4 0.000000 0.000000 0.000000 0.049563 0.000000 0.000000
# 5 0.000000 0.000000 0.000000 0.000000 0.035438 0.000000
# 6 0.000000 0.000000 0.000000 0.000000 0.000000 0.040660
#
#
# Mechanical properties :
#
#
# Convention : Reuss Voigt Hill
#
# Bulk Modulus (GPa) = 20.71808 26.56660 23.64234
# Shear Modulus (GPa) = 17.78786 25.46506 21.62646
#
# Velocity S-wave (km/s) = 2.91365 3.48617 3.21269
# Velocity P-wave (km/s) = 4.60510 5.37434 5.00453
#
# Compressibility (1/GPa) = 0.04826702
#
# Stress axis : x y z
#
# Youngs Moduli (GPa) = 28.07032 45.48841 27.62786
#
# Poissons Ratio (x) = -0.43108 0.74707
# Poissons Ratio (y) = -0.26601 0.14380
# Poissons Ratio (z) = 0.75903 0.23676
#
# Static dielectric constant tensor:
#      x y z
#    x 1.747550 0.000000 0.000000 
#    y 0.000000 1.744050 0.000000 
#    z 0.000000 0.000000 1.764260 
# 
# From -- ./inp_files/3016.got.cif
#   From: 2010.05.17/outbox.cif.g08.bks.cpg/sg31_2_cif.got.tgz:3016.got - 2010.06.03 17:08:30.
