data_PCOD9343574
_publ_section_title
;
Structure prediction by ZEFSAII (Michael W. Deem and Ramdas Pophale) SiO2 
 PCOD9343574
Probable space group: P M N 21
;
_chemical_formula_sum "Si O2"
_cell_formula_units_Z 20
_cell_length_a 22.909910
_cell_length_b 5.880511
_cell_length_c 6.801117
_cell_angle_alpha 90.000000
_cell_angle_beta 90.000000
_cell_angle_gamma 90.000000
_cell_volume 916.259933
_symmetry_space_group_name_H-M "P M N 21"
_symmetry_group_IT_number 31
_symmetry_cell_setting 'orthorhombic'
loop_
_space_group_symop_operation_xyz
x,y,z
1/2-x,-y,1/2+z
-x,y,z
1/2+x,-y,1/2+z
loop_
_atom_site_type_symbol
_atom_site_label
_atom_site_fract_x
_atom_site_fract_y
_atom_site_fract_z
Si Si1 0.500000 0.950866 0.905300
Si Si2 0.608953 0.977451 0.617300
Si Si3 0.383383 0.638621 0.274483
Si Si4 0.188637 0.636302 0.064401
Si Si5 0.191968 0.282252 0.394933
Si Si6 0.500000 0.449083 0.126149
O O1 0.555824 0.954789 0.764148
O O2 0.500000 0.196117 0.023654
O O3 0.500000 0.699212 0.010182
O O4 0.627981 0.231515 0.579943
O O5 0.597518 0.846824 0.414011
O O6 0.666242 0.883456 0.730853
O O7 0.328338 0.536403 0.391229
O O8 0.439064 0.475558 0.242936
O O9 0.356719 0.703369 0.063995
O O10 0.198709 0.516512 0.273184
O O11 0.245607 0.770896 0.991182
#
# Coordination Sequence:
#
# PCOD9343574 Si02
#       6
#     2   4   4   4   4   2
#     4  12  27  51  76 107 148 192 248 308 371 442
#     4  11  27  43  73 103 142 188 246 307 368 442
#     4  11  25  46  71 104 139 191 246 297 372 434
#     4  11  25  42  69 102 146 192 240 308 362 450
#     4  11  23  44  65 104 145 187 244 300 373 436
#     4  12  27  49  80 105 148 196 244 308 369 442
#
# _framework density 21.827867999999999
#
# number of rings (size 3 to 8) (size 9 to 14) (size 15 to 20)
#    0.000    0.800    4.000    1.800    8.400    2.400 
#    0.000    0.000    0.000    0.000    0.000    0.000 
#    0.000    0.000    0.000    0.000    0.000    0.000 
#
# Total GULP energy -111502.191899 kJ/mol
# GULP energy per Si atom -5575.109595 kJ/mol
# Density = 2.177819 g / cm^3
# Si number density = 21.827868 Si / 1000 Ang^3
#
#
#
# Elastic Constant Matrix: (Units=GPa)
#
#
# Indices 1 2 3 4 5 6 
#
# 1 116.6735 16.4858 37.7286 0.0000 0.0000 0.0000
# 2 16.4858 65.2999 35.5565 0.0000 0.0000 0.0000
# 3 37.7286 35.5565 120.6925 0.0000 0.0000 0.0000
# 4 0.0000 0.0000 0.0000 28.7303 0.0000 0.0000
# 5 0.0000 0.0000 0.0000 0.0000 40.8102 0.0000
# 6 0.0000 0.0000 0.0000 0.0000 0.0000 30.3435
#
#
#
# Elastic Compliance Matrix: (Units=1/GPa)
#
#
# Indices 1 2 3 4 5 6 
#
# 1 0.009583 -0.000939 -0.002719 0.000000 0.000000 0.000000
# 2 -0.000939 0.018332 -0.005107 0.000000 0.000000 0.000000
# 3 -0.002719 -0.005107 0.010640 0.000000 0.000000 0.000000
# 4 0.000000 0.000000 0.000000 0.034806 0.000000 0.000000
# 5 0.000000 0.000000 0.000000 0.000000 0.024504 0.000000
# 6 0.000000 0.000000 0.000000 0.000000 0.000000 0.032956
#
#
# Mechanical properties :
#
#
# Convention : Reuss Voigt Hill
#
# Bulk Modulus (GPa) = 47.56285 53.57865 50.57075
# Shear Modulus (GPa) = 32.18349 34.16980 33.17664
#
# Velocity S-wave (km/s) = 3.84399 3.96083 3.90285
# Velocity P-wave (km/s) = 6.44507 6.74662 6.59757
#
# Compressibility (1/GPa) = 0.02102481
#
# Stress axis : x y z
#
# Youngs Moduli (GPa) = 104.35340 54.54980 93.98420
#
# Poissons Ratio (x) = 0.05121 0.25555
# Poissons Ratio (y) = 0.09796 0.47999
# Poissons Ratio (z) = 0.28374 0.27860
#
# Static dielectric constant tensor:
#      x y z
#    x 1.769310 0.000000 0.000000 
#    y 0.000000 1.882200 0.000000 
#    z 0.000000 0.000000 1.791530 
# 
# From -- ./inp_files/1206.got.cif
#   From: 2010.05.17/outbox.cif.g08.bks.cpg/sg31_1_cif.got.tgz:1206.got - 2010.06.03 17:08:30.
