data_PCOD9343675
_publ_section_title
;
Structure prediction by ZEFSAII (Michael W. Deem and Ramdas Pophale) SiO2 
 PCOD9343675
Probable space group: P B A 2
;
_chemical_formula_sum "Si O2"
_cell_formula_units_Z 28
_cell_length_a 13.551394
_cell_length_b 16.220764
_cell_length_c 6.115281
_cell_angle_alpha 90.000000
_cell_angle_beta 90.000000
_cell_angle_gamma 90.000000
_cell_volume 1344.224157
_symmetry_space_group_name_H-M "P B A 2"
_symmetry_group_IT_number 32
_symmetry_cell_setting 'orthorhombic'
loop_
_space_group_symop_operation_xyz
x,y,z
-x,-y,z
1/2-x,1/2+y,z
1/2+x,1/2-y,z
loop_
_atom_site_type_symbol
_atom_site_label
_atom_site_fract_x
_atom_site_fract_y
_atom_site_fract_z
Si Si1 0.988977 0.647826 0.820810
Si Si2 0.500000 0.000000 0.545689
Si Si3 0.160238 0.032146 0.057326
Si Si4 0.864482 0.404170 0.205962
Si Si5 0.396546 0.390390 0.732462
Si Si6 0.037871 0.198231 0.054423
Si Si7 0.900887 0.248796 0.445738
Si Si8 0.500000 0.500000 0.418920
O O1 0.946957 0.568440 0.697252
O O2 0.049791 0.698059 0.638633
O O3 0.062594 0.613631 0.005320
O O4 0.924698 0.717296 0.942928
O O5 0.577598 0.954488 0.390800
O O6 0.271635 0.044705 0.126885
O O7 0.114306 0.123736 0.029851
O O8 0.093513 0.998766 0.258314
O O9 0.150506 0.969905 0.851403
O O10 0.837724 0.314075 0.305857
O O11 0.345139 0.327594 0.562000
O O12 0.486696 0.424678 0.584638
O O13 0.442086 0.335630 0.924608
O O14 0.991548 0.219095 0.290481
#
# Coordination Sequence:
#
# PCOD9343675 Si02
#       8
#     4   2   4   4   4   4   4   2
#     4   9  20  38  69  81 115 172 215 269 322 380
#     4  10  20  44  66  88 118 176 224 278 326 372
#     4  12  22  36  64 101 134 169 212 275 324 393
#     4  10  23  40  68  89 131 172 224 277 323 385
#     4  11  19  35  63  90 132 173 205 253 329 395
#     4  10  18  36  62  92 125 168 206 260 329 392
#     4   9  19  38  63  84 122 174 210 256 325 386
#     4  12  20  36  62  96 134 170 198 256 332 388
#
# _framework density 20.829858999999999
#
# number of rings (size 3 to 8) (size 9 to 14) (size 15 to 20)
#    0.000    1.714    4.286    0.429    0.000    2.286 
#    0.000    0.000   75.429    0.000    0.000    0.000 
#    0.000    0.000    0.000    0.000    0.000    0.000 
#
# Total GULP energy -155961.582153 kJ/mol
# GULP energy per Si atom -5570.056505 kJ/mol
# Density = 2.078245 g / cm^3
# Si number density = 20.829859 Si / 1000 Ang^3
#
#
#
# Elastic Constant Matrix: (Units=GPa)
#
#
# Indices 1 2 3 4 5 6 
#
# 1 29.0139 30.1196 18.6271 0.0000 0.0000 0.0000
# 2 30.1196 146.1043 75.1496 0.0000 0.0000 0.0000
# 3 18.6271 75.1496 122.3508 0.0000 0.0000 0.0000
# 4 0.0000 0.0000 0.0000 48.2628 0.0000 0.0000
# 5 0.0000 0.0000 0.0000 0.0000 18.8104 0.0000
# 6 0.0000 0.0000 0.0000 0.0000 0.0000 16.9809
#
#
#
# Elastic Compliance Matrix: (Units=1/GPa)
#
#
# Indices 1 2 3 4 5 6 
#
# 1 0.044077 -0.008237 -0.001651 0.000000 0.000000 0.000000
# 2 -0.008237 0.011545 -0.005837 0.000000 0.000000 0.000000
# 3 -0.001651 -0.005837 0.012010 0.000000 0.000000 0.000000
# 4 0.000000 0.000000 0.000000 0.020720 0.000000 0.000000
# 5 0.000000 0.000000 0.000000 0.000000 0.053162 0.000000
# 6 0.000000 0.000000 0.000000 0.000000 0.000000 0.058890
#
#
# Mechanical properties :
#
#
# Convention : Reuss Voigt Hill
#
# Bulk Modulus (GPa) = 27.63851 60.58460 44.11156
# Shear Modulus (GPa) = 20.49898 28.38234 24.44066
#
# Velocity S-wave (km/s) = 3.14046 3.69532 3.42913
# Velocity P-wave (km/s) = 5.14272 6.88155 6.07467
#
# Compressibility (1/GPa) = 0.03618140
#
# Stress axis : x y z
#
# Youngs Moduli (GPa) = 22.68733 86.61888 83.26629
#
# Poissons Ratio (x) = 0.71352 0.13747
# Poissons Ratio (y) = 0.18689 0.48602
# Poissons Ratio (z) = 0.03746 0.50559
#
# Static dielectric constant tensor:
#      x y z
#    x 1.691500 0.000000 0.000000 
#    y 0.000000 1.856960 0.000000 
#    z 0.000000 0.000000 1.760660 
# 
# From -- ./inp_files/1268.got.cif
#   From: 2010.05.17/outbox.cif.g08.bks.cpg/sg32_1_cif.got.tgz:1268.got - 2010.06.03 17:12:27.
