data_PCOD9343957
_publ_section_title
;
Structure prediction by ZEFSAII (Michael W. Deem and Ramdas Pophale) SiO2 
 PCOD9343957
Probable space group: P B A 2
;
_chemical_formula_sum "Si O2"
_cell_formula_units_Z 30
_cell_length_a 10.782577
_cell_length_b 9.210565
_cell_length_c 14.730926
_cell_angle_alpha 90.000000
_cell_angle_beta 90.000000
_cell_angle_gamma 90.000000
_cell_volume 1462.981680
_symmetry_space_group_name_H-M "P B A 2"
_symmetry_group_IT_number 32
_symmetry_cell_setting 'orthorhombic'
loop_
_space_group_symop_operation_xyz
x,y,z
-x,-y,z
1/2-x,1/2+y,z
1/2+x,1/2-y,z
loop_
_atom_site_type_symbol
_atom_site_label
_atom_site_fract_x
_atom_site_fract_y
_atom_site_fract_z
Si Si1 0.357256 0.948106 0.641670
Si Si2 0.641014 0.514345 0.088758
Si Si3 0.794910 0.206948 0.347118
Si Si4 0.500000 0.500000 0.407952
Si Si5 0.749992 0.258865 0.968362
Si Si6 0.806148 0.829192 0.528696
Si Si7 0.143170 0.501645 0.238206
Si Si8 0.854919 0.508279 0.845501
O O1 0.348703 0.785676 0.603686
O O2 0.305358 0.962703 0.744193
O O3 0.500000 0.000000 0.637838
O O4 0.274921 0.047683 0.576187
O O5 0.500000 0.500000 0.123322
O O6 0.753107 0.518287 0.160881
O O7 0.670268 0.371029 0.028525
O O8 0.656878 0.663006 0.030397
O O9 0.774764 0.251349 0.451034
O O10 0.829202 0.347012 0.288567
O O11 0.672044 0.128841 0.308441
O O12 0.904790 0.090221 0.346880
O O13 0.579757 0.396370 0.473059
O O14 0.811164 0.360325 0.892235
O O15 0.673920 0.137449 0.914820
O O16 0.000000 0.500000 0.207099
O O17 0.000000 0.500000 0.834038
#
# Coordination Sequence:
#
# PCOD9343957 Si02
#       8
#     4   4   4   2   4   4   4   4
#     4  11  24  40  64  97 134 171 221 273 326 389
#     4  11  25  43  69  99 132 170 216 273 329 400
#     4  12  25  45  69  93 134 175 226 273 336 394
#     4  12  24  42  70  94 126 186 224 276 328 402
#     4  10  22  42  67  95 130 169 218 260 330 393
#     4  12  23  43  65  95 131 177 222 273 330 389
#     4  12  28  45  68 100 133 173 223 279 336 401
#     4  10  21  40  66  93 130 171 212 267 321 387
#
# _framework density 20.506067999999999
#
# number of rings (size 3 to 8) (size 9 to 14) (size 15 to 20)
#    0.000    0.800    2.667    4.000    0.933    6.400 
#    0.000    0.000    2.933    0.000    0.000    0.000 
#    0.000    0.000    0.000    0.000    0.000    0.000 
#
# Total GULP energy -167739.732767 kJ/mol
# GULP energy per Si atom -5591.324426 kJ/mol
# Density = 2.045940 g / cm^3
# Si number density = 20.506068 Si / 1000 Ang^3
#
#
#
# Elastic Constant Matrix: (Units=GPa)
#
#
# Indices 1 2 3 4 5 6 
#
# 1 95.0898 21.0317 22.1561 0.0000 0.0000 0.0000
# 2 21.0317 111.6362 26.5295 0.0000 0.0000 0.0000
# 3 22.1561 26.5295 89.3103 0.0000 0.0000 0.0000
# 4 0.0000 0.0000 0.0000 26.7523 0.0000 0.0000
# 5 0.0000 0.0000 0.0000 0.0000 31.0853 0.0000
# 6 0.0000 0.0000 0.0000 0.0000 0.0000 27.4051
#
#
#
# Elastic Compliance Matrix: (Units=1/GPa)
#
#
# Indices 1 2 3 4 5 6 
#
# 1 0.011418 -0.001590 -0.002360 0.000000 0.000000 0.000000
# 2 -0.001590 0.009860 -0.002534 0.000000 0.000000 0.000000
# 3 -0.002360 -0.002534 0.012535 0.000000 0.000000 0.000000
# 4 0.000000 0.000000 0.000000 0.037380 0.000000 0.000000
# 5 0.000000 0.000000 0.000000 0.000000 0.032170 0.000000
# 6 0.000000 0.000000 0.000000 0.000000 0.000000 0.036490
#
#
# Mechanical properties :
#
#
# Convention : Reuss Voigt Hill
#
# Bulk Modulus (GPa) = 47.97681 48.38567 48.18124
# Shear Modulus (GPa) = 31.29516 32.13645 31.71581
#
# Velocity S-wave (km/s) = 3.91082 3.96304 3.93702
# Velocity P-wave (km/s) = 6.62117 6.67742 6.64936
#
# Compressibility (1/GPa) = 0.02084340
#
# Stress axis : x y z
#
# Youngs Moduli (GPa) = 87.58076 101.42497 79.77508
#
# Poissons Ratio (x) = 0.16129 0.18829
# Poissons Ratio (y) = 0.13927 0.20217
# Poissons Ratio (z) = 0.20671 0.25704
#
# Static dielectric constant tensor:
#      x y z
#    x 1.719400 0.000000 0.000000 
#    y 0.000000 1.888620 0.000000 
#    z 0.000000 0.000000 1.743090 
# 
# From -- ./inp_files/4165.got.cif
#   From: 2010.05.17/outbox.cif.g08.bks.cpg/sg32_3_cif.got.tgz:4165.got - 2010.06.03 17:12:27.
