data_PCOD9343818
_publ_section_title
;
Structure prediction by ZEFSAII (Michael W. Deem and Ramdas Pophale) SiO2 
 PCOD9343818
Probable space group: P B A 2
;
_chemical_formula_sum "Si O2"
_cell_formula_units_Z 28
_cell_length_a 8.280730
_cell_length_b 16.233662
_cell_length_c 8.543788
_cell_angle_alpha 90.000000
_cell_angle_beta 90.000000
_cell_angle_gamma 90.000000
_cell_volume 1148.512132
_symmetry_space_group_name_H-M "P B A 2"
_symmetry_group_IT_number 32
_symmetry_cell_setting 'orthorhombic'
loop_
_space_group_symop_operation_xyz
x,y,z
-x,-y,z
1/2-x,1/2+y,z
1/2+x,1/2-y,z
loop_
_atom_site_type_symbol
_atom_site_label
_atom_site_fract_x
_atom_site_fract_y
_atom_site_fract_z
Si Si1 0.649180 0.336980 0.614100
Si Si2 0.079827 0.366430 0.940608
Si Si3 0.000000 0.000000 0.650656
Si Si4 0.536121 0.153555 0.615594
Si Si5 0.749386 0.551183 0.391862
Si Si6 0.500000 0.000000 0.191941
Si Si7 0.710148 0.777751 0.073512
Si Si8 0.503444 0.336099 0.264183
O O1 0.560015 0.410226 0.714242
O O2 0.599049 0.244678 0.663308
O O3 0.575827 0.337213 0.437927
O O4 0.842490 0.346557 0.604044
O O5 0.067515 0.431403 0.078682
O O6 0.906166 0.322200 0.953248
O O7 0.214592 0.301431 0.989805
O O8 0.092489 0.400355 0.765794
O O9 0.849675 0.019471 0.538083
O O10 0.628768 0.120532 0.461625
O O11 0.852872 0.481233 0.307982
O O12 0.622395 0.589416 0.270535
O O13 0.602319 0.744557 0.219066
O O14 0.853729 0.833954 0.138790
#
# Coordination Sequence:
#
# PCOD9343818 Si02
#       8
#     4   4   2   4   4   2   4   4
#     4  11  23  39  71 102 141 177 233 283 349 403
#     4  11  26  44  70  98 143 183 227 280 353 419
#     4  10  24  42  66 110 138 168 222 306 348 392
#     4  12  25  45  70 104 143 188 231 278 345 432
#     4  11  24  42  68 101 136 178 232 287 344 405
#     4  12  26  44  68 104 132 186 228 292 354 394
#     4  10  21  41  67  97 136 179 236 277 336 416
#     4  10  20  36  65 102 128 173 230 292 321 392
#
# _framework density 24.379369000000001
#
# number of rings (size 3 to 8) (size 9 to 14) (size 15 to 20)
#    0.000    1.143    1.429    5.143    8.000    1.714 
#    0.000    0.000    3.143    0.857    0.000    0.000 
#    0.000    0.000    0.000    0.000    0.000    0.000 
#
# Total GULP energy -156500.265405 kJ/mol
# GULP energy per Si atom -5589.295193 kJ/mol
# Density = 2.432388 g / cm^3
# Si number density = 24.379369 Si / 1000 Ang^3
#
#
#
# Elastic Constant Matrix: (Units=GPa)
#
#
# Indices 1 2 3 4 5 6 
#
# 1 119.8737 18.5922 31.3609 0.0000 0.0000 0.0000
# 2 18.5922 68.1872 5.6656 0.0000 0.0000 0.0000
# 3 31.3609 5.6656 67.9331 0.0000 0.0000 0.0000
# 4 0.0000 0.0000 0.0000 47.7494 0.0000 0.0000
# 5 0.0000 0.0000 0.0000 0.0000 21.9756 0.0000
# 6 0.0000 0.0000 0.0000 0.0000 0.0000 41.5521
#
#
#
# Elastic Compliance Matrix: (Units=1/GPa)
#
#
# Indices 1 2 3 4 5 6 
#
# 1 0.009840 -0.002322 -0.004349 0.000000 0.000000 0.000000
# 2 -0.002322 0.015316 -0.000206 0.000000 0.000000 0.000000
# 3 -0.004349 -0.000206 0.016745 0.000000 0.000000 0.000000
# 4 0.000000 0.000000 0.000000 0.020943 0.000000 0.000000
# 5 0.000000 0.000000 0.000000 0.000000 0.045505 0.000000
# 6 0.000000 0.000000 0.000000 0.000000 0.000000 0.024066
#
#
# Mechanical properties :
#
#
# Convention : Reuss Voigt Hill
#
# Bulk Modulus (GPa) = 35.52588 40.80348 38.16468
# Shear Modulus (GPa) = 32.14407 35.61377 33.87892
#
# Velocity S-wave (km/s) = 3.63505 3.82621 3.73185
# Velocity P-wave (km/s) = 5.67643 6.02437 5.85299
#
# Compressibility (1/GPa) = 0.02814849
#
# Stress axis : x y z
#
# Youngs Moduli (GPa) = 101.62654 65.29282 59.71870
#
# Poissons Ratio (x) = 0.15159 0.25971
# Poissons Ratio (y) = 0.23594 0.01227
# Poissons Ratio (z) = 0.44197 0.01342
#
# Static dielectric constant tensor:
#      x y z
#    x 1.919670 0.000000 0.000000 
#    y 0.000000 2.030280 0.000000 
#    z 0.000000 0.000000 1.946470 
# 
# From -- ./inp_files/2483.got.cif
#   From: 2010.05.17/outbox.cif.g08.bks.cpg/sg32_2_cif.got.tgz:2483.got - 2010.06.03 17:12:27.
