data_PCOD9343606
_publ_section_title
;
Structure prediction by ZEFSAII (Michael W. Deem and Ramdas Pophale) SiO2 
 PCOD9343606
Probable space group: P M N 21
;
_chemical_formula_sum "Si O2"
_cell_formula_units_Z 32
_cell_length_a 9.000000
_cell_length_b 15.000000
_cell_length_c 12.000000
_cell_angle_alpha 90.000000
_cell_angle_beta 90.000000
_cell_angle_gamma 90.000000
_cell_volume 1620.000000
_symmetry_space_group_name_H-M "P M N 21"
_symmetry_group_IT_number 31
_symmetry_cell_setting 'orthorhombic'
loop_
_space_group_symop_operation_xyz
x,y,z
1/2-x,-y,1/2+z
-x,y,z
1/2+x,-y,1/2+z
loop_
_atom_site_type_symbol
_atom_site_label
_atom_site_fract_x
_atom_site_fract_y
_atom_site_fract_z
Si Si1 0.828368 0.948732 0.925930
Si Si2 0.321766 0.676843 0.813481
Si Si3 0.321491 0.230798 0.523061
Si Si4 0.172239 0.842600 0.697001
Si Si5 0.321535 0.328676 0.945157
Si Si6 0.676409 0.372589 0.698164
Si Si7 0.324072 0.862745 0.476937
Si Si8 0.177489 0.548544 0.654272
O O1 0.827648 0.903276 0.805838
O O2 0.000000 0.962048 0.961615
O O3 0.766473 0.870863 0.006429
O O4 0.765863 0.047994 0.916907
O O5 0.500000 0.680736 0.810074
O O6 0.244409 0.749332 0.732548
O O7 0.261304 0.584576 0.764277
O O8 0.260079 0.706270 0.933458
O O9 0.500000 0.231117 0.497514
O O10 0.300473 0.276095 0.642109
O O11 0.277783 0.882469 0.603870
O O12 0.000000 0.830787 0.660868
O O13 0.500000 0.321980 0.947260
O O14 0.279337 0.370353 0.826878
O O15 0.254666 0.230094 0.950855
O O16 0.277262 0.390559 0.048888
O O17 0.500000 0.392540 0.688860
O O18 0.770123 0.447876 0.636378
O O19 0.500000 0.850694 0.461493
O O20 0.000000 0.554793 0.668073
#
# Coordination Sequence:
#
# PCOD9343606 Si02
#       8
#     4   4   4   4   4   4   4   4
#     4   8  18  35  56  83 117 158 199 239 293 355
#     4  11  21  35  59  87 114 146 196 252 293 347
#     4   9  19  39  62  85 121 162 197 240 300 358
#     4  10  19  36  57  80 114 155 197 245 302 356
#     4  10  23  42  61  86 123 162 198 245 303 363
#     4  10  23  41  62  89 120 159 205 247 295 358
#     4  11  21  35  59  90 120 155 201 252 298 353
#     4  11  23  39  60  86 119 157 195 242 306 362
#
# _framework density 19.753086
#
# number of rings (size 3 to 8) (size 9 to 14) (size 15 to 20)
#    0.000    2.000    1.250    3.000    1.750    2.500 
#    0.000    7.500    0.000    0.000    0.000    0.000 
#    0.000    0.000    0.000    0.000    0.000    0.000 
#
# Total GULP energy -178415.495878 kJ/mol
# GULP energy per Si atom -5575.484246 kJ/mol
# Density = 1.970813 g / cm^3
# Si number density = 19.753086 Si / 1000 Ang^3
#
#
#
# Elastic Constant Matrix: (Units=GPa)
#
#
# Indices 1 2 3 4 5 6 
#
# 1 27.2219 19.1749 7.6941 0.0000 0.0000 0.0000
# 2 19.1749 122.2406 31.7868 0.0000 0.0000 0.0000
# 3 7.6941 31.7868 56.2386 0.0000 0.0000 0.0000
# 4 0.0000 0.0000 0.0000 14.0200 0.0000 0.0000
# 5 0.0000 0.0000 0.0000 0.0000 19.4344 0.0000
# 6 0.0000 0.0000 0.0000 0.0000 0.0000 18.0000
#
#
#
# Elastic Compliance Matrix: (Units=1/GPa)
#
#
# Indices 1 2 3 4 5 6 
#
# 1 0.041561 -0.005909 -0.002346 0.000000 0.000000 0.000000
# 2 -0.005909 0.010430 -0.005087 0.000000 0.000000 0.000000
# 3 -0.002346 -0.005087 0.020978 0.000000 0.000000 0.000000
# 4 0.000000 0.000000 0.000000 0.071327 0.000000 0.000000
# 5 0.000000 0.000000 0.000000 0.000000 0.051455 0.000000
# 6 0.000000 0.000000 0.000000 0.000000 0.000000 0.055555
#
#
# Mechanical properties :
#
#
# Convention : Reuss Voigt Hill
#
# Bulk Modulus (GPa) = 21.60565 35.89030 28.74797
# Shear Modulus (GPa) = 17.04053 20.09391 18.56722
#
# Velocity S-wave (km/s) = 2.94032 3.19290 3.06921
# Velocity P-wave (km/s) = 4.74225 5.63930 5.21012
#
# Compressibility (1/GPa) = 0.04628419
#
# Stress axis : x y z
#
# Youngs Moduli (GPa) = 24.06124 95.87463 47.67009
#
# Poissons Ratio (x) = 0.56655 0.11183
# Poissons Ratio (y) = 0.14218 0.24249
# Poissons Ratio (z) = 0.05645 0.48770
#
# Static dielectric constant tensor:
#      x y z
#    x 1.660920 0.000000 0.000000 
#    y 0.000000 1.750600 0.000000 
#    z 0.000000 0.000000 1.726430 
# 
# From -- ./inp_files/3603.got.cif
#   From: 2010.05.17/outbox.ucp.g08.bks.cvg/sg31_2_cif.got.tgz:3603.got - 2010.06.11 10:34:26.
