data_PCOD9343641
_publ_section_title
;
Structure prediction by ZEFSAII (Michael W. Deem and Ramdas Pophale) SiO2 
 PCOD9343641
Probable space group: P B A 2
;
_chemical_formula_sum "Si O2"
_cell_formula_units_Z 24
_cell_length_a 16.729034
_cell_length_b 9.123253
_cell_length_c 7.688180
_cell_angle_alpha 90.000000
_cell_angle_beta 90.000000
_cell_angle_gamma 90.000000
_cell_volume 1173.394708
_symmetry_space_group_name_H-M "P B A 2"
_symmetry_group_IT_number 32
_symmetry_cell_setting 'orthorhombic'
loop_
_space_group_symop_operation_xyz
x,y,z
-x,-y,z
1/2-x,1/2+y,z
1/2+x,1/2-y,z
loop_
_atom_site_type_symbol
_atom_site_label
_atom_site_fract_x
_atom_site_fract_y
_atom_site_fract_z
Si Si1 0.500000 0.500000 0.032511
Si Si2 0.360657 0.602986 0.768916
Si Si3 0.939643 0.671269 0.586483
Si Si4 0.500000 0.000000 0.918289
Si Si5 0.789115 0.207245 0.791273
Si Si6 0.895982 0.267370 0.121584
Si Si7 0.120929 0.622869 0.484740
O O1 0.541748 0.632068 0.136858
O O2 0.429394 0.564246 0.908557
O O3 0.405960 0.666236 0.600518
O O4 0.300362 0.735198 0.813490
O O5 0.306303 0.460356 0.739656
O O6 0.881528 0.553633 0.496457
O O7 0.027107 0.665381 0.503393
O O8 0.955127 0.608417 0.782790
O O9 0.556704 0.904956 0.040272
O O10 0.832122 0.306574 0.644874
O O11 0.832682 0.225785 0.974791
O O12 0.854472 0.313220 0.300161
#
# Coordination Sequence:
#
# PCOD9343641 Si02
#       7
#     2   4   4   2   4   4   4
#     4  10  22  40  62 100 122 174 230 258 322 388
#     4  11  22  40  68  88 125 171 212 270 325 388
#     4  10  18  37  61  91 119 162 212 245 314 380
#     4  10  16  34  64  84 120 158 200 256 300 374
#     4  11  23  39  60  87 122 162 205 261 327 377
#     4  11  21  38  62  91 128 162 208 260 315 381
#     4  10  21  38  61  93 124 162 204 254 316 381
#
# _framework density 20.453476999999999
#
# number of rings (size 3 to 8) (size 9 to 14) (size 15 to 20)
#    0.000    1.667    5.000    3.000    0.000    1.333 
#    0.000    8.333    0.000    0.000    0.000    0.000 
#    0.000    0.000    0.000    0.000    0.000    0.000 
#
# Total GULP energy -133928.500338 kJ/mol
# GULP energy per Si atom -5580.354181 kJ/mol
# Density = 2.040692 g / cm^3
# Si number density = 20.453477 Si / 1000 Ang^3
#
#
#
# Elastic Constant Matrix: (Units=GPa)
#
#
# Indices 1 2 3 4 5 6 
#
# 1 62.3639 19.5379 3.7607 0.0000 0.0000 0.0000
# 2 19.5379 75.9077 15.3951 0.0000 0.0000 0.0000
# 3 3.7607 15.3951 90.5930 0.0000 0.0000 0.0000
# 4 0.0000 0.0000 0.0000 42.3775 0.0000 0.0000
# 5 0.0000 0.0000 0.0000 0.0000 -10.2597 0.0000
# 6 0.0000 0.0000 0.0000 0.0000 0.0000 37.4883
#
#
#
# Elastic Compliance Matrix: (Units=1/GPa)
#
#
# Indices 1 2 3 4 5 6 
#
# 1 0.017441 -0.004497 0.000040 0.000000 0.000000 0.000000
# 2 -0.004497 0.014804 -0.002329 0.000000 0.000000 0.000000
# 3 0.000040 -0.002329 0.011432 0.000000 0.000000 0.000000
# 4 0.000000 0.000000 0.000000 0.023597 0.000000 0.000000
# 5 0.000000 0.000000 0.000000 0.000000 -0.097469 0.000000
# 6 0.000000 0.000000 0.000000 0.000000 0.000000 0.026675
#
#
# Mechanical properties :
#
#
# Convention : Reuss Voigt Hill
#
# Bulk Modulus (GPa) = 33.21662 34.02801 33.62231
# Shear Modulus (GPa) = 248.88882 26.59928 137.74405
#
# Velocity S-wave (km/s) = 11.04307 3.61013 8.21531
# Velocity P-wave (km/s) = 13.37440 5.83526 10.31806
#
# Compressibility (1/GPa) = 0.03010541
#
# Stress axis : x y z
#
# Youngs Moduli (GPa) = 57.33455 67.54997 87.46998
#
# Poissons Ratio (x) = 0.30380 -0.00352
# Poissons Ratio (y) = 0.25786 0.20372
# Poissons Ratio (z) = -0.00231 0.15733
#
# Static dielectric constant tensor:
#      x y z
#    x 1.776520 0.000000 0.000000 
#    y 0.000000 1.780180 0.000000 
#    z 0.000000 0.000000 1.711360 
# 
# From -- ./inp_files/3188.got.cif
#   From: 2010.05.17/outbox.cif.g08.bks.cpg/sg32_2_cif.got.tgz:3188.got - 2010.06.03 17:12:27.
