data_PCOD9343671
_publ_section_title
;
Structure prediction by ZEFSAII (Michael W. Deem and Ramdas Pophale) SiO2 
 PCOD9343671
Probable space group: P B A 2
;
_chemical_formula_sum "Si O2"
_cell_formula_units_Z 22
_cell_length_a 9.145308
_cell_length_b 13.052508
_cell_length_c 8.923881
_cell_angle_alpha 90.000000
_cell_angle_beta 90.000000
_cell_angle_gamma 90.000000
_cell_volume 1065.236588
_symmetry_space_group_name_H-M "P B A 2"
_symmetry_group_IT_number 32
_symmetry_cell_setting 'orthorhombic'
loop_
_space_group_symop_operation_xyz
x,y,z
-x,-y,z
1/2-x,1/2+y,z
1/2+x,1/2-y,z
loop_
_atom_site_type_symbol
_atom_site_label
_atom_site_fract_x
_atom_site_fract_y
_atom_site_fract_z
Si Si1 0.633083 0.107876 0.779650
Si Si2 0.417392 0.662387 0.484115
Si Si3 0.025129 0.354718 0.300178
Si Si4 0.352580 0.243887 0.690491
Si Si5 0.795888 0.499953 0.463369
Si Si6 0.500000 0.000000 0.034836
O O1 0.475262 0.164701 0.751686
O O2 0.758124 0.192044 0.808992
O O3 0.670129 0.045159 0.627644
O O4 0.625705 0.032151 0.919589
O O5 0.452678 0.737495 0.344646
O O6 0.554689 0.675773 0.592048
O O7 0.278930 0.702565 0.584765
O O8 0.360081 0.551250 0.445342
O O9 0.176586 0.409901 0.344890
O O10 0.911859 0.410550 0.414651
O O11 0.978134 0.400700 0.140825
#
# Coordination Sequence:
#
# PCOD9343671 Si02
#       6
#     4   4   4   4   4   2
#     4  11  21  40  60  95 118 171 207 268 325 379
#     4  11  18  35  59  97 114 155 210 272 312 365
#     4  10  20  37  56  92 119 175 196 251 324 388
#     4  10  20  33  62  91 121 148 222 275 310 361
#     4  10  18  35  65  82 123 155 213 261 312 377
#     4  10  22  38  60  82 130 180 204 242 328 406
#
# _framework density 20.65269
#
# number of rings (size 3 to 8) (size 9 to 14) (size 15 to 20)
#    0.000    1.818    5.455    3.273    0.000    0.727 
#    6.545    0.000    0.000    0.000   28.364    0.000 
#    0.000    0.000    0.000    0.000    0.000    0.000 
#
# Total GULP energy -122475.205656 kJ/mol
# GULP energy per Si atom -5567.054803 kJ/mol
# Density = 2.060568 g / cm^3
# Si number density = 20.652690 Si / 1000 Ang^3
#
#
#
# Elastic Constant Matrix: (Units=GPa)
#
#
# Indices 1 2 3 4 5 6 
#
# 1 118.4362 42.9896 23.0655 0.0000 0.0000 0.0000
# 2 42.9896 76.2984 38.1117 0.0000 0.0000 0.0000
# 3 23.0655 38.1117 100.6143 0.0000 0.0000 0.0000
# 4 0.0000 0.0000 0.0000 35.2368 0.0000 0.0000
# 5 0.0000 0.0000 0.0000 0.0000 6.5159 0.0000
# 6 0.0000 0.0000 0.0000 0.0000 0.0000 58.7817
#
#
#
# Elastic Compliance Matrix: (Units=1/GPa)
#
#
# Indices 1 2 3 4 5 6 
#
# 1 0.010618 -0.005879 -0.000207 0.000000 0.000000 0.000000
# 2 -0.005879 0.019420 -0.006008 0.000000 0.000000 0.000000
# 3 -0.000207 -0.006008 0.012262 0.000000 0.000000 0.000000
# 4 0.000000 0.000000 0.000000 0.028379 0.000000 0.000000
# 5 0.000000 0.000000 0.000000 0.000000 0.153471 0.000000
# 6 0.000000 0.000000 0.000000 0.000000 0.000000 0.017012
#
#
# Mechanical properties :
#
#
# Convention : Reuss Voigt Hill
#
# Bulk Modulus (GPa) = 55.21484 55.96473 55.58979
# Shear Modulus (GPa) = 18.42376 32.85235 25.63805
#
# Velocity S-wave (km/s) = 2.99000 3.99269 3.52716
# Velocity P-wave (km/s) = 6.22199 6.95790 6.60021
#
# Compressibility (1/GPa) = 0.01811107
#
# Stress axis : x y z
#
# Youngs Moduli (GPa) = 94.18303 51.49297 81.55021
#
# Poissons Ratio (x) = 0.30272 0.01690
# Poissons Ratio (y) = 0.55369 0.48999
# Poissons Ratio (z) = 0.01951 0.30939
#
# Static dielectric constant tensor:
#      x y z
#    x 1.829950 0.000000 0.000000 
#    y 0.000000 1.897100 0.000000 
#    z 0.000000 0.000000 1.760290 
# 
# From -- ./inp_files/2313.got.cif
#   From: 2010.05.17/outbox.cif.g08.bks.cpg/sg32_2_cif.got.tgz:2313.got - 2010.06.03 17:12:27.
