data_PCOD9343922
_publ_section_title
;
Structure prediction by ZEFSAII (Michael W. Deem and Ramdas Pophale) SiO2 
 PCOD9343922
Probable space group: P B A 2
;
_chemical_formula_sum "Si O2"
_cell_formula_units_Z 32
_cell_length_a 8.262882
_cell_length_b 29.970170
_cell_length_c 5.228713
_cell_angle_alpha 90.000000
_cell_angle_beta 90.000000
_cell_angle_gamma 90.000000
_cell_volume 1294.838373
_symmetry_space_group_name_H-M "P B A 2"
_symmetry_group_IT_number 32
_symmetry_cell_setting 'orthorhombic'
loop_
_space_group_symop_operation_xyz
x,y,z
-x,-y,z
1/2-x,1/2+y,z
1/2+x,1/2-y,z
loop_
_atom_site_type_symbol
_atom_site_label
_atom_site_fract_x
_atom_site_fract_y
_atom_site_fract_z
Si Si1 0.081853 0.357399 0.970900
Si Si2 0.891551 0.873922 0.015404
Si Si3 0.096134 0.561241 0.010514
Si Si4 0.128291 0.847236 0.669130
Si Si5 0.586345 0.289227 0.385478
Si Si6 0.043061 0.692640 0.461113
Si Si7 0.742187 0.977617 0.510677
Si Si8 0.416969 0.431635 0.395910
O O1 0.268123 0.343340 0.923391
O O2 0.007936 0.330982 0.725998
O O3 0.067141 0.411356 0.958804
O O4 0.003720 0.341061 0.233422
O O5 0.720767 0.897123 0.007104
O O6 0.903891 0.826516 0.159626
O O7 0.012398 0.911294 0.132624
O O8 0.946890 0.863205 0.732674
O O9 0.124077 0.540520 0.288516
O O10 0.155571 0.528564 0.784408
O O11 0.183058 0.889587 0.507838
O O12 0.082430 0.802872 0.526534
O O13 0.768248 0.295288 0.491596
O O14 0.555676 0.236516 0.369194
O O15 0.911979 0.949596 0.518212
O O16 0.800436 0.026194 0.419878
#
# Coordination Sequence:
#
# PCOD9343922 Si02
#       8
#     4   4   4   4   4   4   4   4
#     4  12  28  45  70  99 140 187 227 278 346 413
#     4  10  21  40  69  93 135 178 225 277 345 401
#     4  11  21  42  65  97 130 184 222 281 336 409
#     4  11  24  43  70  96 142 180 232 278 353 408
#     4  11  26  45  70 104 134 179 227 285 341 409
#     4  12  28  47  72 102 139 177 231 284 338 411
#     4  10  21  37  68  98 132 169 234 280 339 392
#     4   9  21  36  63 103 128 173 224 292 329 404
#
# _framework density 24.713509999999999
#
# number of rings (size 3 to 8) (size 9 to 14) (size 15 to 20)
#    0.000    1.250    2.500    2.250   10.500    1.000 
#    0.000    0.625    0.000    0.000    0.000    0.000 
#    0.000    0.000    0.000    0.000    0.000    0.000 
#
# Total GULP energy -178454.750439 kJ/mol
# GULP energy per Si atom -5576.710951 kJ/mol
# Density = 2.465726 g / cm^3
# Si number density = 24.713510 Si / 1000 Ang^3
#
#
#
# Elastic Constant Matrix: (Units=GPa)
#
#
# Indices 1 2 3 4 5 6 
#
# 1 88.8338 27.7164 5.3945 0.0000 0.0000 0.0000
# 2 27.7164 109.3252 16.3432 0.0000 0.0000 0.0000
# 3 5.3945 16.3432 70.5438 0.0000 0.0000 0.0000
# 4 0.0000 0.0000 0.0000 -8.8560 0.0000 0.0000
# 5 0.0000 0.0000 0.0000 0.0000 18.4622 0.0000
# 6 0.0000 0.0000 0.0000 0.0000 0.0000 42.2844
#
#
#
# Elastic Compliance Matrix: (Units=1/GPa)
#
#
# Indices 1 2 3 4 5 6 
#
# 1 0.012227 -0.003066 -0.000225 0.000000 0.000000 0.000000
# 2 -0.003066 0.010244 -0.002139 0.000000 0.000000 0.000000
# 3 -0.000225 -0.002139 0.014688 0.000000 0.000000 0.000000
# 4 0.000000 0.000000 0.000000 -0.112918 0.000000 0.000000
# 5 0.000000 0.000000 0.000000 0.000000 0.054165 0.000000
# 6 0.000000 0.000000 0.000000 0.000000 0.000000 0.023649
#
#
# Mechanical properties :
#
#
# Convention : Reuss Voigt Hill
#
# Bulk Modulus (GPa) = 38.02257 40.84568 39.43412
# Shear Modulus (GPa) = 230.60242 24.99471 127.79857
#
# Velocity S-wave (km/s) = 9.67020 3.18367 7.19891
# Velocity P-wave (km/s) = 11.83649 5.48433 9.22443
#
# Compressibility (1/GPa) = 0.02630017
#
# Stress axis : x y z
#
# Youngs Moduli (GPa) = 81.78408 97.61681 68.08154
#
# Poissons Ratio (x) = 0.29932 0.01529
# Poissons Ratio (y) = 0.25078 0.14561
# Poissons Ratio (z) = 0.01837 0.20879
#
# Static dielectric constant tensor:
#      x y z
#    x 2.093130 0.000000 0.000000 
#    y 0.000000 2.116660 0.000000 
#    z 0.000000 0.000000 1.951000 
# 
# From -- ./inp_files/638.got.cif
#   From: 2010.05.17/outbox.cif.g08.bks.cpg/sg32_1_cif.got.tgz:638.got - 2010.06.03 17:12:27.
