data_PCOD9343111
_publ_section_title
;
Structure prediction by ZEFSAII (Michael W. Deem and Ramdas Pophale) SiO2 
 PCOD9343111
Probable space group: P M N 21
;
_chemical_formula_sum "Si O2"
_cell_formula_units_Z 32
_cell_length_a 23.017608
_cell_length_b 8.882802
_cell_length_c 8.040171
_cell_angle_alpha 90.000000
_cell_angle_beta 90.000000
_cell_angle_gamma 90.000000
_cell_volume 1643.900232
_symmetry_space_group_name_H-M "P M N 21"
_symmetry_group_IT_number 31
_symmetry_cell_setting 'orthorhombic'
loop_
_space_group_symop_operation_xyz
x,y,z
1/2-x,-y,1/2+z
-x,y,z
1/2+x,-y,1/2+z
loop_
_atom_site_type_symbol
_atom_site_label
_atom_site_fract_x
_atom_site_fract_y
_atom_site_fract_z
Si Si1 0.647665 0.729851 0.115210
Si Si2 0.069439 0.536511 0.216382
Si Si3 0.319197 0.022014 0.289557
Si Si4 0.251500 0.172852 0.005817
Si Si5 0.261490 0.532390 0.313334
Si Si6 0.431109 0.449268 0.101136
Si Si7 0.338662 0.704548 0.739271
Si Si8 0.865928 0.685211 0.912917
O O1 0.702314 0.627454 0.175885
O O2 0.593349 0.618042 0.128973
O O3 0.644821 0.877881 0.227766
O O4 0.656213 0.772264 0.923098
O O5 0.082937 0.586485 0.407197
O O6 0.100918 0.374634 0.193609
O O7 0.000000 0.527673 0.199417
O O8 0.097445 0.639945 0.074443
O O9 0.299988 0.120547 0.131966
O O10 0.347852 0.140768 0.413033
O O11 0.260865 0.950195 0.366246
O O12 0.189864 0.188451 0.103209
O O13 0.263113 0.336627 0.931079
O O14 0.208763 0.430040 0.254484
O O15 0.308976 0.422125 0.398005
O O16 0.500000 0.443605 0.119458
O O17 0.401596 0.348976 0.243477
#
# Coordination Sequence:
#
# PCOD9343111 Si02
#       8
#     4   4   4   4   4   4   4   4
#     4   9  21  36  55  88 121 154 204 242 311 387
#     4  10  22  38  63  93 115 154 212 268 311 353
#     4  11  24  37  53  89 130 169 199 240 327 389
#     4  11  22  37  54  84 128 161 200 244 306 393
#     4  10  20  34  59  88 117 157 207 250 309 361
#     4   9  20  41  66  89 116 158 216 270 309 359
#     4  11  19  35  61  87 118 159 201 259 302 362
#     4  11  21  38  61  90 124 162 209 261 311 370
#
# _framework density 19.465902
#
# number of rings (size 3 to 8) (size 9 to 14) (size 15 to 20)
#    0.000    1.750    2.500    1.875    3.500    1.000 
#    2.250    1.250    0.000    1.500    0.000    0.000 
#    0.000    0.000    0.000    0.000    0.000    0.000 
#
# Total GULP energy -178686.971014 kJ/mol
# GULP energy per Si atom -5583.967844 kJ/mol
# Density = 1.942160 g / cm^3
# Si number density = 19.465902 Si / 1000 Ang^3
#
#
#
# Elastic Constant Matrix: (Units=GPa)
#
#
# Indices 1 2 3 4 5 6 
#
# 1 79.4248 32.1057 21.8698 0.0000 0.0000 0.0000
# 2 32.1057 88.0496 36.8536 0.0000 0.0000 0.0000
# 3 21.8698 36.8536 65.8890 0.0000 0.0000 0.0000
# 4 0.0000 0.0000 0.0000 25.8600 0.0000 0.0000
# 5 0.0000 0.0000 0.0000 0.0000 29.7901 0.0000
# 6 0.0000 0.0000 0.0000 0.0000 0.0000 16.0100
#
#
#
# Elastic Compliance Matrix: (Units=1/GPa)
#
#
# Indices 1 2 3 4 5 6 
#
# 1 0.015081 -0.004444 -0.002520 0.000000 0.000000 0.000000
# 2 -0.004444 0.016139 -0.007552 0.000000 0.000000 0.000000
# 3 -0.002520 -0.007552 0.020237 0.000000 0.000000 0.000000
# 4 0.000000 0.000000 0.000000 0.038670 0.000000 0.000000
# 5 0.000000 0.000000 0.000000 0.000000 0.033568 0.000000
# 6 0.000000 0.000000 0.000000 0.000000 0.000000 0.062461
#
#
# Mechanical properties :
#
#
# Convention : Reuss Voigt Hill
#
# Bulk Modulus (GPa) = 44.59258 46.11349 45.35303
# Shear Modulus (GPa) = 22.45555 23.83431 23.14493
#
# Velocity S-wave (km/s) = 3.40013 3.50296 3.45193
# Velocity P-wave (km/s) = 6.19454 6.33259 6.26395
#
# Compressibility (1/GPa) = 0.02242526
#
# Stress axis : x y z
#
# Youngs Moduli (GPa) = 66.30920 61.96351 49.41386
#
# Poissons Ratio (x) = 0.27538 0.12451
# Poissons Ratio (y) = 0.29470 0.37315
# Poissons Ratio (z) = 0.16709 0.46792
#
# Static dielectric constant tensor:
#      x y z
#    x 1.663060 0.000000 0.000000 
#    y 0.000000 1.664850 0.000000 
#    z 0.000000 0.000000 1.757020 
# 
# From -- ./inp_files/3098.got.cif
#   From: 2010.05.17/outbox.cif.g08.bks.cpg/sg31_2_cif.got.tgz:3098.got - 2010.06.03 17:08:30.
