data_PCOD9343648
_publ_section_title
;
Structure prediction by ZEFSAII (Michael W. Deem and Ramdas Pophale) SiO2 
 PCOD9343648
Probable space group: P B A 2
;
_chemical_formula_sum "Si O2"
_cell_formula_units_Z 26
_cell_length_a 12.281975
_cell_length_b 15.589003
_cell_length_c 6.275933
_cell_angle_alpha 90.000000
_cell_angle_beta 90.000000
_cell_angle_gamma 90.000000
_cell_volume 1201.613636
_symmetry_space_group_name_H-M "P B A 2"
_symmetry_group_IT_number 32
_symmetry_cell_setting 'orthorhombic'
loop_
_space_group_symop_operation_xyz
x,y,z
-x,-y,z
1/2-x,1/2+y,z
1/2+x,1/2-y,z
loop_
_atom_site_type_symbol
_atom_site_label
_atom_site_fract_x
_atom_site_fract_y
_atom_site_fract_z
Si Si1 0.230606 0.819943 0.053620
Si Si2 0.970795 0.121044 0.274745
Si Si3 0.324197 0.139984 0.281928
Si Si4 0.794401 0.768683 0.665999
Si Si5 0.440901 0.813227 0.314103
Si Si6 0.658038 0.422790 0.970115
Si Si7 0.000000 0.000000 0.657272
O O1 0.144238 0.884756 0.155412
O O2 0.199027 0.730000 0.164094
O O3 0.352606 0.839530 0.135747
O O4 0.222234 0.797945 0.803986
O O5 0.009023 0.219449 0.269845
O O6 0.975882 0.081496 0.507930
O O7 0.065684 0.075867 0.146774
O O8 0.265723 0.163559 0.507364
O O9 0.452437 0.127095 0.321011
O O10 0.267983 0.074496 0.113496
O O11 0.845816 0.830999 0.844458
O O12 0.874453 0.708129 0.529968
O O13 0.610382 0.485953 0.792113
#
# Coordination Sequence:
#
# PCOD9343648 Si02
#       7
#     4   4   4   4   4   4   2
#     4   9  20  32  55  82 120 151 184 244 308 354
#     4  11  21  37  52  87 122 151 206 248 294 367
#     4   9  19  31  51  82 119 145 190 242 288 361
#     4  10  17  31  52  83 113 155 186 237 316 361
#     4  10  18  34  55  83 123 148 188 247 308 355
#     4  11  20  35  53  82 115 157 200 240 295 355
#     4  12  24  36  60  78 122 172 200 250 296 362
#
# _framework density 21.63757
#
# number of rings (size 3 to 8) (size 9 to 14) (size 15 to 20)
#    0.000    1.846    6.154    0.462    2.154    2.462 
#    0.000    0.000    0.000    0.000    0.000   16.154 
#    0.000    0.000    0.000    0.000    0.000    0.000 
#
# Total GULP energy -144747.036547 kJ/mol
# GULP energy per Si atom -5567.193713 kJ/mol
# Density = 2.158832 g / cm^3
# Si number density = 21.637570 Si / 1000 Ang^3
#
#
#
# Elastic Constant Matrix: (Units=GPa)
#
#
# Indices 1 2 3 4 5 6 
#
# 1 108.1338 12.8497 38.4749 0.0000 0.0000 0.0000
# 2 12.8497 30.6646 10.7499 0.0000 0.0000 0.0000
# 3 38.4749 10.7499 108.4148 0.0000 0.0000 0.0000
# 4 0.0000 0.0000 0.0000 10.5620 0.0000 0.0000
# 5 0.0000 0.0000 0.0000 0.0000 8.7950 0.0000
# 6 0.0000 0.0000 0.0000 0.0000 0.0000 20.7530
#
#
#
# Elastic Compliance Matrix: (Units=1/GPa)
#
#
# Indices 1 2 3 4 5 6 
#
# 1 0.010903 -0.003328 -0.003539 0.000000 0.000000 0.000000
# 2 -0.003328 0.034801 -0.002270 0.000000 0.000000 0.000000
# 3 -0.003539 -0.002270 0.010705 0.000000 0.000000 0.000000
# 4 0.000000 0.000000 0.000000 0.094679 0.000000 0.000000
# 5 0.000000 0.000000 0.000000 0.000000 0.113701 0.000000
# 6 0.000000 0.000000 0.000000 0.000000 0.000000 0.048186
#
#
# Mechanical properties :
#
#
# Convention : Reuss Voigt Hill
#
# Bulk Modulus (GPa) = 26.22267 41.26248 33.74257
# Shear Modulus (GPa) = 14.53659 20.36459 17.45059
#
# Velocity S-wave (km/s) = 2.59476 3.07117 2.84297
# Velocity P-wave (km/s) = 4.59591 5.62915 5.13857
#
# Compressibility (1/GPa) = 0.03813495
#
# Stress axis : x y z
#
# Youngs Moduli (GPa) = 91.72187 28.73476 93.41530
#
# Poissons Ratio (x) = 0.09563 0.33061
# Poissons Ratio (y) = 0.30524 0.21202
# Poissons Ratio (z) = 0.32462 0.06522
#
# Static dielectric constant tensor:
#      x y z
#    x 1.852890 0.000000 0.000000 
#    y 0.000000 1.880410 0.000000 
#    z 0.000000 0.000000 1.867680 
# 
# From -- ./inp_files/937.got.cif
#   From: 2010.05.17/outbox.cif.g08.bks.cpg/sg32_1_cif.got.tgz:937.got - 2010.06.03 17:12:27.
