data_PCOD9343379
_publ_section_title
;
Structure prediction by ZEFSAII (Michael W. Deem and Ramdas Pophale) SiO2 
 PCOD9343379
Probable space group: P M N 21
;
_chemical_formula_sum "Si O2"
_cell_formula_units_Z 28
_cell_length_a 10.964079
_cell_length_b 5.129199
_cell_length_c 20.773847
_cell_angle_alpha 90.000000
_cell_angle_beta 90.000000
_cell_angle_gamma 90.000000
_cell_volume 1168.257651
_symmetry_space_group_name_H-M "P M N 21"
_symmetry_group_IT_number 31
_symmetry_cell_setting 'orthorhombic'
loop_
_space_group_symop_operation_xyz
x,y,z
1/2-x,-y,1/2+z
-x,y,z
1/2+x,-y,1/2+z
loop_
_atom_site_type_symbol
_atom_site_label
_atom_site_fract_x
_atom_site_fract_y
_atom_site_fract_z
Si Si1 0.708525 0.503068 0.676610
Si Si2 0.500000 0.261358 0.830313
Si Si3 0.138808 0.545297 0.939430
Si Si4 0.862834 0.155686 0.749299
Si Si5 0.248542 0.038047 0.879627
Si Si6 0.131714 0.840861 0.067380
Si Si7 0.137043 0.873940 0.609472
Si Si8 0.000000 0.223129 0.241839
O O1 0.771054 0.393367 0.740009
O O2 0.634070 0.291396 0.637210
O O3 0.617677 0.727531 0.697832
O O4 0.817976 0.587744 0.629378
O O5 0.380325 0.171490 0.869863
O O6 0.500000 0.553195 0.799058
O O7 0.500000 0.061804 0.770482
O O8 0.171734 0.252675 0.919545
O O9 0.000000 0.603258 0.916373
O O10 0.234594 0.755491 0.911350
O O11 0.138845 0.610924 0.015018
O O12 0.811801 0.000263 0.809329
O O13 0.863357 0.013131 0.680062
O O14 0.000000 0.242446 0.762612
O O15 0.255007 0.009828 0.066159
O O16 0.000000 0.976401 0.057184
O O17 0.000000 0.885089 0.583379
#
# Coordination Sequence:
#
# PCOD9343379 Si02
#       8
#     4   2   4   4   4   4   4   2
#     4  11  22  37  66 100 134 179 215 284 345 414
#     4  12  26  46  66 104 146 178 226 283 338 438
#     4  11  26  47  71  99 132 178 238 291 334 404
#     4  10  21  38  63  96 132 170 217 272 342 409
#     4  12  25  46  69 100 137 182 226 284 345 405
#     4  10  24  44  66  96 131 176 235 287 343 403
#     4  10  23  41  65  99 136 176 222 282 346 419
#     4  12  24  40  70 108 144 178 226 277 356 424
#
# _framework density 23.967316
#
# number of rings (size 3 to 8) (size 9 to 14) (size 15 to 20)
#    0.000    1.143    2.143    3.429    7.000    0.571 
#    2.571    0.000    0.000    0.000    0.000    0.000 
#    0.000    0.000    0.000    0.000    0.000    0.000 
#
# Total GULP energy -156595.328191 kJ/mol
# GULP energy per Si atom -5592.690293 kJ/mol
# Density = 2.391277 g / cm^3
# Si number density = 23.967316 Si / 1000 Ang^3
#
#
#
# Elastic Constant Matrix: (Units=GPa)
#
#
# Indices 1 2 3 4 5 6 
#
# 1 161.9657 2.0211 21.8767 0.0000 0.0000 0.0000
# 2 2.0211 66.2040 4.4462 0.0000 0.0000 0.0000
# 3 21.8767 4.4462 42.8930 0.0000 0.0000 0.0000
# 4 0.0000 0.0000 0.0000 29.1560 0.0000 0.0000
# 5 0.0000 0.0000 0.0000 0.0000 25.3396 0.0000
# 6 0.0000 0.0000 0.0000 0.0000 0.0000 31.3746
#
#
#
# Elastic Compliance Matrix: (Units=1/GPa)
#
#
# Indices 1 2 3 4 5 6 
#
# 1 0.006631 0.000025 -0.003385 0.000000 0.000000 0.000000
# 2 0.000025 0.015211 -0.001589 0.000000 0.000000 0.000000
# 3 -0.003385 -0.001589 0.025205 0.000000 0.000000 0.000000
# 4 0.000000 0.000000 0.000000 0.034298 0.000000 0.000000
# 5 0.000000 0.000000 0.000000 0.000000 0.039464 0.000000
# 6 0.000000 0.000000 0.000000 0.000000 0.000000 0.031873
#
#
# Mechanical properties :
#
#
# Convention : Reuss Voigt Hill
#
# Bulk Modulus (GPa) = 26.91907 36.41676 31.66791
# Shear Modulus (GPa) = 28.57751 33.35528 30.96639
#
# Velocity S-wave (km/s) = 3.45679 3.73459 3.59838
# Velocity P-wave (km/s) = 5.21426 5.81581 5.52323
#
# Compressibility (1/GPa) = 0.03714839
#
# Stress axis : x y z
#
# Youngs Moduli (GPa) = 150.80704 65.74268 39.67497
#
# Poissons Ratio (x) = -0.00163 0.13428
# Poissons Ratio (y) = -0.00375 0.06306
# Poissons Ratio (z) = 0.51042 0.10449
#
# Static dielectric constant tensor:
#      x y z
#    x 1.922340 0.000000 0.000000 
#    y 0.000000 1.924370 0.000000 
#    z 0.000000 0.000000 1.899600 
# 
# From -- ./inp_files/6318.got.cif
#   From: 2010.05.17/outbox.cif.g08.bks.cpg/sg31_4_cif.got.tgz:6318.got - 2010.06.03 17:08:30.
