data_PCOD9343525
_publ_section_title
;
Structure prediction by ZEFSAII (Michael W. Deem and Ramdas Pophale) SiO2 
 PCOD9343525
Probable space group: P M N 21
;
_chemical_formula_sum "Si O2"
_cell_formula_units_Z 32
_cell_length_a 8.116773
_cell_length_b 15.550216
_cell_length_c 12.259966
_cell_angle_alpha 90.000000
_cell_angle_beta 90.000000
_cell_angle_gamma 90.000000
_cell_volume 1547.423158
_symmetry_space_group_name_H-M "P M N 21"
_symmetry_group_IT_number 31
_symmetry_cell_setting 'orthorhombic'
loop_
_space_group_symop_operation_xyz
x,y,z
1/2-x,-y,1/2+z
-x,y,z
1/2+x,-y,1/2+z
loop_
_atom_site_type_symbol
_atom_site_label
_atom_site_fract_x
_atom_site_fract_y
_atom_site_fract_z
Si Si1 0.300012 0.248746 0.712020
Si Si2 0.194434 0.390672 0.299627
Si Si3 0.799286 0.340282 0.061694
Si Si4 0.692182 0.851907 0.542236
Si Si5 0.692368 0.113261 0.281701
Si Si6 0.197062 0.419754 0.842208
Si Si7 0.809428 0.927036 0.333096
Si Si8 0.804062 0.751594 0.961788
O O1 0.500000 0.251078 0.713848
O O2 0.240232 0.334812 0.772948
O O3 0.250059 0.160495 0.773520
O O4 0.241266 0.247377 0.585971
O O5 0.261260 0.357270 0.183385
O O6 0.224197 0.492226 0.301782
O O7 0.272181 0.337975 0.399346
O O8 0.000000 0.373098 0.303886
O O9 0.751224 0.245617 0.023464
O O10 0.000000 0.341891 0.065950
O O11 0.747725 0.405101 0.967430
O O12 0.500000 0.860081 0.513122
O O13 0.714226 0.868374 0.669661
O O14 0.793497 0.912012 0.462312
O O15 0.500000 0.134804 0.265458
O O16 0.757216 0.172500 0.381201
O O17 0.711370 0.012684 0.305303
O O18 0.000000 0.429736 0.840816
O O19 0.000000 0.940221 0.301913
O O20 0.000000 0.764293 0.970935
#
# Coordination Sequence:
#
# PCOD9343525 Si02
#       8
#     4   4   4   4   4   4   4   4
#     4  10  23  43  63  87 124 166 205 254 311 366
#     4  11  23  41  63  92 123 161 206 253 309 370
#     4   9  20  39  63  86 119 160 201 251 310 364
#     4  11  21  41  67  90 123 164 207 261 316 370
#     4  11  24  41  64  95 126 164 211 259 313 375
#     4  11  23  41  63  92 123 161 206 253 309 370
#     4  11  24  41  64  95 126 164 211 259 313 375
#     4  10  23  43  63  87 124 166 205 254 311 366
#
# _framework density 20.679541
#
# number of rings (size 3 to 8) (size 9 to 14) (size 15 to 20)
#    0.000    1.500    2.500    1.875    3.500    1.500 
#    0.000    1.875    0.000    0.000    0.000    0.000 
#    0.000    0.000    0.000    0.000    0.000    0.000 
#
# Total GULP energy -178774.028685 kJ/mol
# GULP energy per Si atom -5586.688396 kJ/mol
# Density = 2.063247 g / cm^3
# Si number density = 20.679541 Si / 1000 Ang^3
#
#
#
# Elastic Constant Matrix: (Units=GPa)
#
#
# Indices 1 2 3 4 5 6 
#
# 1 19.8523 -10.4429 -2.8786 0.0000 0.0000 0.0000
# 2 -10.4429 82.3622 16.7808 0.0000 0.0000 0.0000
# 3 -2.8786 16.7808 107.8861 0.0000 0.0000 0.0000
# 4 0.0000 0.0000 0.0000 26.8670 0.0000 0.0000
# 5 0.0000 0.0000 0.0000 0.0000 3.4892 0.0000
# 6 0.0000 0.0000 0.0000 0.0000 0.0000 30.0588
#
#
#
# Elastic Compliance Matrix: (Units=1/GPa)
#
#
# Indices 1 2 3 4 5 6 
#
# 1 0.053988 0.006766 0.000388 0.000000 0.000000 0.000000
# 2 0.006766 0.013387 -0.001902 0.000000 0.000000 0.000000
# 3 0.000388 -0.001902 0.009575 0.000000 0.000000 0.000000
# 4 0.000000 0.000000 0.000000 0.037220 0.000000 0.000000
# 5 0.000000 0.000000 0.000000 0.000000 0.286598 0.000000
# 6 0.000000 0.000000 0.000000 0.000000 0.000000 0.033268
#
#
# Mechanical properties :
#
#
# Convention : Reuss Voigt Hill
#
# Bulk Modulus (GPa) = 11.43450 24.11323 17.77386
# Shear Modulus (GPa) = 11.04527 25.85908 18.45218
#
# Velocity S-wave (km/s) = 2.31360 3.54003 2.99037
# Velocity P-wave (km/s) = 3.56067 5.32868 4.53173
#
# Compressibility (1/GPa) = 0.08745463
#
# Stress axis : x y z
#
# Youngs Moduli (GPa) = 18.52280 74.70019 104.43670
#
# Poissons Ratio (x) = -0.50543 -0.04053
# Poissons Ratio (y) = -0.12533 0.19860
# Poissons Ratio (z) = -0.00719 0.14206
#
# Static dielectric constant tensor:
#      x y z
#    x 1.726470 0.000000 0.000000 
#    y 0.000000 1.718920 0.000000 
#    z 0.000000 0.000000 1.731080 
# 
# From -- ./inp_files/3635.got.cif
#   From: 2010.05.17/outbox.cif.g08.bks.cpg/sg31_2_cif.got.tgz:3635.got - 2010.06.03 17:08:30.
