data_PCOD9343937
_publ_section_title
;
Structure prediction by ZEFSAII (Michael W. Deem and Ramdas Pophale) SiO2 
 PCOD9343937
Probable space group: P B A 2
;
_chemical_formula_sum "Si O2"
_cell_formula_units_Z 24
_cell_length_a 8.088236
_cell_length_b 14.844182
_cell_length_c 8.591463
_cell_angle_alpha 90.000000
_cell_angle_beta 90.000000
_cell_angle_gamma 90.000000
_cell_volume 1031.518946
_symmetry_space_group_name_H-M "P B A 2"
_symmetry_group_IT_number 32
_symmetry_cell_setting 'orthorhombic'
loop_
_space_group_symop_operation_xyz
x,y,z
-x,-y,z
1/2-x,1/2+y,z
1/2+x,1/2-y,z
loop_
_atom_site_type_symbol
_atom_site_label
_atom_site_fract_x
_atom_site_fract_y
_atom_site_fract_z
Si Si1 0.981711 0.284782 0.108960
Si Si2 0.694852 0.631059 0.250804
Si Si3 0.626031 0.790366 0.751547
Si Si4 0.312173 0.534987 0.781917
Si Si5 0.316394 0.039919 0.133226
Si Si6 0.807272 0.630845 0.602897
O O1 0.959590 0.188900 0.191858
O O2 0.843722 0.355610 0.172299
O O3 0.159066 0.327727 0.143070
O O4 0.949986 0.284430 0.924540
O O5 0.692469 0.523922 0.225904
O O6 0.749513 0.644816 0.427217
O O7 0.780049 0.860189 0.745238
O O8 0.687490 0.692725 0.705831
O O9 0.489701 0.832149 0.636787
O O10 0.500000 0.500000 0.783124
O O11 0.214147 0.470977 0.662250
O O12 0.233353 0.526484 0.953551
O O13 0.500000 0.000000 0.158577
#
# Coordination Sequence:
#
# PCOD9343937 Si02
#       6
#     4   4   4   4   4   4
#     4  10  21  39  61  86 117 160 207 246 295 362
#     4  11  23  38  61  90 123 156 197 252 310 363
#     4  11  23  41  65  89 123 166 208 253 300 366
#     4  11  23  40  63  91 120 160 211 256 301 364
#     4   9  20  40  62  85 116 161 205 246 300 363
#     4  12  24  40  62  93 127 161 200 255 316 364
#
# _framework density 23.266660000000002
#
# number of rings (size 3 to 8) (size 9 to 14) (size 15 to 20)
#    0.000    1.333    0.000    7.500    0.000    9.333 
#    0.000    0.833    0.000    0.000    0.000    0.000 
#    0.000    0.000    0.000    0.000    0.000    0.000 
#
# Total GULP energy -134281.970201 kJ/mol
# GULP energy per Si atom -5595.082092 kJ/mol
# Density = 2.321370 g / cm^3
# Si number density = 23.266660 Si / 1000 Ang^3
#
#
#
# Elastic Constant Matrix: (Units=GPa)
#
#
# Indices 1 2 3 4 5 6 
#
# 1 54.2841 -3.3310 -10.0813 0.0000 0.0000 0.0000
# 2 -3.3310 71.5203 -0.8503 0.0000 0.0000 0.0000
# 3 -10.0813 -0.8503 54.7509 0.0000 0.0000 0.0000
# 4 0.0000 0.0000 0.0000 -36.3914 0.0000 0.0000
# 5 0.0000 0.0000 0.0000 0.0000 20.0004 0.0000
# 6 0.0000 0.0000 0.0000 0.0000 0.0000 34.3378
#
#
#
# Elastic Compliance Matrix: (Units=1/GPa)
#
#
# Indices 1 2 3 4 5 6 
#
# 1 0.019136 0.000933 0.003538 0.000000 0.000000 0.000000
# 2 0.000933 0.014030 0.000390 0.000000 0.000000 0.000000
# 3 0.003538 0.000390 0.018922 0.000000 0.000000 0.000000
# 4 0.000000 0.000000 0.000000 -0.027479 0.000000 0.000000
# 5 0.000000 0.000000 0.000000 0.000000 0.049999 0.000000
# 6 0.000000 0.000000 0.000000 0.000000 0.000000 0.029122
#
#
# Mechanical properties :
#
#
# Convention : Reuss Voigt Hill
#
# Bulk Modulus (GPa) = 16.17856 16.89224 16.53540
# Shear Modulus (GPa) = 43.62552 16.57721 30.10137
#
# Velocity S-wave (km/s) = 4.33485 2.67214 3.60078
# Velocity P-wave (km/s) = 5.65891 4.09835 4.94063
#
# Compressibility (1/GPa) = 0.06181020
#
# Stress axis : x y z
#
# Youngs Moduli (GPa) = 52.25769 71.27511 52.84844
#
# Poissons Ratio (x) = -0.06652 -0.18698
# Poissons Ratio (y) = -0.04877 -0.02060
# Poissons Ratio (z) = -0.18489 -0.02778
#
# Static dielectric constant tensor:
#      x y z
#    x 1.915090 0.000000 0.000000 
#    y 0.000000 1.893910 0.000000 
#    z 0.000000 0.000000 1.812820 
# 
# From -- ./inp_files/2308.got.cif
#   From: 2010.05.17/outbox.cif.g08.bks.cpg/sg32_2_cif.got.tgz:2308.got - 2010.06.03 17:12:27.
