data_PCOD9343240
_publ_section_title
;
Structure prediction by ZEFSAII (Michael W. Deem and Ramdas Pophale) SiO2 
 PCOD9343240
Probable space group: P M N 21
;
_chemical_formula_sum "Si O2"
_cell_formula_units_Z 24
_cell_length_a 11.170123
_cell_length_b 10.731868
_cell_length_c 9.254268
_cell_angle_alpha 90.000000
_cell_angle_beta 90.000000
_cell_angle_gamma 90.000000
_cell_volume 1109.367274
_symmetry_space_group_name_H-M "P M N 21"
_symmetry_group_IT_number 31
_symmetry_cell_setting 'orthorhombic'
loop_
_space_group_symop_operation_xyz
x,y,z
1/2-x,-y,1/2+z
-x,y,z
1/2+x,-y,1/2+z
loop_
_atom_site_type_symbol
_atom_site_label
_atom_site_fract_x
_atom_site_fract_y
_atom_site_fract_z
Si Si1 0.232862 0.140458 0.811870
Si Si2 0.864990 0.991899 0.073699
Si Si3 0.628352 0.303863 0.007044
Si Si4 0.365312 0.598542 0.242510
Si Si5 0.633920 0.733538 0.693171
Si Si6 0.786004 0.439714 0.435566
O O1 0.150075 0.263264 0.806232
O O2 0.270635 0.095472 0.654283
O O3 0.173760 0.036571 0.914185
O O4 0.349650 0.191063 0.896588
O O5 0.866701 0.117844 0.171782
O O6 0.000000 0.941041 0.069847
O O7 0.500000 0.289575 0.081401
O O8 0.747585 0.306535 0.104859
O O9 0.632755 0.435690 0.925171
O O10 0.500000 0.582221 0.190019
O O11 0.332447 0.491235 0.356685
O O12 0.278237 0.589205 0.104595
O O13 0.500000 0.691556 0.643973
O O14 0.657319 0.675546 0.850200
#
# Coordination Sequence:
#
# PCOD9343240 Si02
#       6
#     4   4   4   4   4   4
#     4  10  23  41  67  94 129 172 223 268 335 391
#     4  10  22  43  65  92 130 169 220 278 328 390
#     4  10  20  38  61  89 128 166 210 270 325 387
#     4  11  24  44  67  97 135 172 221 276 332 403
#     4  10  21  37  62  90 124 170 214 264 325 388
#     4  11  22  39  64  96 126 169 214 266 331 397
#
# _framework density 21.633953999999999
#
# number of rings (size 3 to 8) (size 9 to 14) (size 15 to 20)
#    0.000    1.667    1.667    2.500    2.333    4.000 
#    0.000    9.167    0.000    0.000    0.000    0.000 
#    0.000    0.000    0.000    0.000    0.000    0.000 
#
# Total GULP energy -133812.622139 kJ/mol
# GULP energy per Si atom -5575.525922 kJ/mol
# Density = 2.158471 g / cm^3
# Si number density = 21.633954 Si / 1000 Ang^3
#
#
#
# Elastic Constant Matrix: (Units=GPa)
#
#
# Indices 1 2 3 4 5 6 
#
# 1 91.7268 10.2009 18.8461 0.0000 0.0000 0.0000
# 2 10.2009 19.5174 0.4658 0.0000 0.0000 0.0000
# 3 18.8461 0.4658 85.8455 0.0000 0.0000 0.0000
# 4 0.0000 0.0000 0.0000 45.8948 0.0000 0.0000
# 5 0.0000 0.0000 0.0000 0.0000 18.4960 0.0000
# 6 0.0000 0.0000 0.0000 0.0000 0.0000 6.9528
#
#
#
# Elastic Compliance Matrix: (Units=1/GPa)
#
#
# Indices 1 2 3 4 5 6 
#
# 1 0.012141 -0.006283 -0.002631 0.000000 0.000000 0.000000
# 2 -0.006283 0.054494 0.001084 0.000000 0.000000 0.000000
# 3 -0.002631 0.001084 0.012221 0.000000 0.000000 0.000000
# 4 0.000000 0.000000 0.000000 0.021789 0.000000 0.000000
# 5 0.000000 0.000000 0.000000 0.000000 0.054066 0.000000
# 6 0.000000 0.000000 0.000000 0.000000 0.000000 0.143826
#
#
# Mechanical properties :
#
#
# Convention : Reuss Voigt Hill
#
# Bulk Modulus (GPa) = 15.82404 28.45725 22.14065
# Shear Modulus (GPa) = 14.91365 25.44052 20.17708
#
# Velocity S-wave (km/s) = 2.62842 3.43294 3.05726
# Velocity P-wave (km/s) = 4.06716 5.37549 4.76643
#
# Compressibility (1/GPa) = 0.06319497
#
# Stress axis : x y z
#
# Youngs Moduli (GPa) = 82.36355 18.35054 81.82880
#
# Poissons Ratio (x) = 0.11530 0.21532
# Poissons Ratio (y) = 0.51749 -0.08868
# Poissons Ratio (z) = 0.21673 -0.01989
#
# Static dielectric constant tensor:
#      x y z
#    x 1.823510 0.000000 0.000000 
#    y 0.000000 1.814410 0.000000 
#    z 0.000000 0.000000 1.824030 
# 
# From -- ./inp_files/2090.got.cif
#   From: 2010.05.17/outbox.cif.g08.bks.cpg/sg31_2_cif.got.tgz:2090.got - 2010.06.03 17:08:30.
