data_PCOD9343113
_publ_section_title
;
Structure prediction by ZEFSAII (Michael W. Deem and Ramdas Pophale) SiO2 
 PCOD9343113
Probable space group: P M N 21
;
_chemical_formula_sum "Si O2"
_cell_formula_units_Z 24
_cell_length_a 7.634112
_cell_length_b 14.620085
_cell_length_c 8.130236
_cell_angle_alpha 90.000000
_cell_angle_beta 90.000000
_cell_angle_gamma 90.000000
_cell_volume 907.426749
_symmetry_space_group_name_H-M "P M N 21"
_symmetry_group_IT_number 31
_symmetry_cell_setting 'orthorhombic'
loop_
_space_group_symop_operation_xyz
x,y,z
1/2-x,-y,1/2+z
-x,y,z
1/2+x,-y,1/2+z
loop_
_atom_site_type_symbol
_atom_site_label
_atom_site_fract_x
_atom_site_fract_y
_atom_site_fract_z
Si Si1 0.797040 0.859089 0.487880
Si Si2 0.698184 0.810158 0.940847
Si Si3 0.212398 0.700441 0.265462
Si Si4 0.215462 0.030889 0.659450
Si Si5 0.697482 0.360112 0.246775
Si Si6 0.212063 0.523761 0.447110
O O1 0.726478 0.762835 0.421021
O O2 0.784511 0.922566 0.324103
O O3 0.000000 0.844767 0.528269
O O4 0.725081 0.927044 0.626994
O O5 0.500000 0.832833 0.906856
O O6 0.710324 0.745346 0.103191
O O7 0.781609 0.903606 0.009570
O O8 0.755561 0.742694 0.795746
O O9 0.255358 0.595776 0.301362
O O10 0.000000 0.708491 0.255593
O O11 0.000000 0.033105 0.663898
O O12 0.500000 0.353590 0.188479
O O13 0.709560 0.425530 0.406024
O O14 0.784353 0.422106 0.105981
O O15 0.000000 0.511883 0.454315
#
# Coordination Sequence:
#
# PCOD9343113 Si02
#       6
#     4   4   4   4   4   4
#     4   9  18  33  53  77 105 139 177 214 256 307
#     4  10  20  35  54  77 107 140 174 214 259 306
#     4   9  18  35  57  78 104 138 174 214 259 307
#     4   9  19  34  52  77 108 140 174 214 259 305
#     4  11  23  37  55  79 104 134 173 213 257 310
#     4  10  22  38  55  78 106 135 170 213 260 309
#
# _framework density 26.448418
#
# number of rings (size 3 to 8) (size 9 to 14) (size 15 to 20)
#    0.000    2.333    0.000    2.000    0.000    7.333 
#    0.000    1.667    0.000    0.000    0.000    0.000 
#    0.000    0.000    0.000    0.000    0.000    0.000 
#
# Total GULP energy -134176.108062 kJ/mol
# GULP energy per Si atom -5590.671169 kJ/mol
# Density = 2.638822 g / cm^3
# Si number density = 26.448418 Si / 1000 Ang^3
#
#
#
# Elastic Constant Matrix: (Units=GPa)
#
#
# Indices 1 2 3 4 5 6 
#
# 1 69.1328 9.4356 0.7204 0.0000 0.0000 0.0000
# 2 9.4356 178.9508 7.3316 0.0000 0.0000 0.0000
# 3 0.7204 7.3316 80.1971 0.0000 0.0000 0.0000
# 4 0.0000 0.0000 0.0000 60.3270 0.0000 0.0000
# 5 0.0000 0.0000 0.0000 0.0000 24.1501 0.0000
# 6 0.0000 0.0000 0.0000 0.0000 0.0000 21.1898
#
#
#
# Elastic Compliance Matrix: (Units=1/GPa)
#
#
# Indices 1 2 3 4 5 6 
#
# 1 0.014570 -0.000766 -0.000061 0.000000 0.000000 0.000000
# 2 -0.000766 0.005649 -0.000510 0.000000 0.000000 0.000000
# 3 -0.000061 -0.000510 0.012516 0.000000 0.000000 0.000000
# 4 0.000000 0.000000 0.000000 0.016576 0.000000 0.000000
# 5 0.000000 0.000000 0.000000 0.000000 0.041408 0.000000
# 6 0.000000 0.000000 0.000000 0.000000 0.000000 0.047192
#
#
# Mechanical properties :
#
#
# Convention : Reuss Voigt Hill
#
# Bulk Modulus (GPa) = 33.26300 40.36176 36.81238
# Shear Modulus (GPa) = 33.19923 41.85293 37.52608
#
# Velocity S-wave (km/s) = 3.54679 3.98230 3.77084
# Velocity P-wave (km/s) = 5.42004 6.03644 5.73652
#
# Compressibility (1/GPa) = 0.03006344
#
# Stress axis : x y z
#
# Youngs Moduli (GPa) = 68.63386 177.01052 79.89509
#
# Poissons Ratio (x) = 0.13555 0.00486
# Poissons Ratio (y) = 0.05256 0.04071
# Poissons Ratio (z) = 0.00418 0.09020
#
# Static dielectric constant tensor:
#      x y z
#    x 1.967720 0.000000 0.000000 
#    y 0.000000 2.051460 0.000000 
#    z 0.000000 0.000000 2.233270 
# 
# From -- ./inp_files/1662.got.cif
#   From: 2010.05.17/outbox.cif.g08.bks.cpg/sg31_1_cif.got.tgz:1662.got - 2010.06.03 17:08:30.
