data_PCOD9343337
_publ_section_title
;
Structure prediction by ZEFSAII (Michael W. Deem and Ramdas Pophale) SiO2 
 PCOD9343337
Probable space group: P M N 21
;
_chemical_formula_sum "Si O2"
_cell_formula_units_Z 32
_cell_length_a 8.975176
_cell_length_b 5.384552
_cell_length_c 29.005829
_cell_angle_alpha 90.000000
_cell_angle_beta 90.000000
_cell_angle_gamma 90.000000
_cell_volume 1401.773454
_symmetry_space_group_name_H-M "P M N 21"
_symmetry_group_IT_number 31
_symmetry_cell_setting 'orthorhombic'
loop_
_space_group_symop_operation_xyz
x,y,z
1/2-x,-y,1/2+z
-x,y,z
1/2+x,-y,1/2+z
loop_
_atom_site_type_symbol
_atom_site_label
_atom_site_fract_x
_atom_site_fract_y
_atom_site_fract_z
Si Si1 0.667483 0.518203 0.962210
Si Si2 0.677976 0.286412 0.195168
Si Si3 0.322956 0.211341 0.736859
Si Si4 0.819232 0.778288 0.040568
Si Si5 0.320323 0.275721 0.085281
Si Si6 0.658853 0.761829 0.866109
Si Si7 0.160920 0.146364 0.916482
Si Si8 0.840077 0.408584 0.818916
O O1 0.500000 0.469278 0.979749
O O2 0.649257 0.562581 0.907592
O O3 0.788362 0.298352 0.961086
O O4 0.745054 0.739499 0.990060
O O5 0.500000 0.287090 0.203519
O O6 0.751783 0.542875 0.212955
O O7 0.701736 0.268684 0.140283
O O8 0.750771 0.042980 0.218431
O O9 0.500000 0.207094 0.730365
O O10 0.279499 0.255369 0.790310
O O11 0.755408 0.529333 0.066170
O O12 0.000000 0.779514 0.039886
O O13 0.754214 0.028812 0.063448
O O14 0.500000 0.275929 0.077249
O O15 0.500000 0.787650 0.843103
O O16 0.780428 0.684755 0.828790
O O17 0.703934 0.985590 0.898261
O O18 0.138823 0.305213 0.869936
O O19 0.000000 0.018438 0.924315
O O20 0.000000 0.402401 0.795117
#
# Coordination Sequence:
#
# PCOD9343337 Si02
#       8
#     4   4   4   4   4   4   4   4
#     4  10  22  40  60  87 124 169 217 266 324 390
#     4  11  25  47  73 100 134 177 222 272 336 407
#     4  12  26  43  69 103 138 176 222 279 334 396
#     4  12  26  43  69 103 138 176 222 279 334 396
#     4  11  25  47  73 100 134 177 222 272 336 407
#     4  10  21  37  60  87 122 166 213 267 325 385
#     4  10  21  37  60  87 122 166 213 267 325 385
#     4  10  22  40  60  87 124 169 217 266 324 390
#
# _framework density 22.828223999999999
#
# number of rings (size 3 to 8) (size 9 to 14) (size 15 to 20)
#    0.000    1.250    0.000    5.250    3.500    8.000 
#    0.000    0.000    0.000    0.000    0.000    0.000 
#    0.000    0.000    0.000    0.000    0.000    0.000 
#
# Total GULP energy -178560.567791 kJ/mol
# GULP energy per Si atom -5580.017743 kJ/mol
# Density = 2.277627 g / cm^3
# Si number density = 22.828224 Si / 1000 Ang^3
#
#
#
# Elastic Constant Matrix: (Units=GPa)
#
#
# Indices 1 2 3 4 5 6 
#
# 1 157.2057 41.6669 46.4250 0.0000 0.0000 0.0000
# 2 41.6669 121.2736 37.1280 0.0000 0.0000 0.0000
# 3 46.4250 37.1280 71.3189 0.0000 0.0000 0.0000
# 4 0.0000 0.0000 0.0000 33.9912 0.0000 0.0000
# 5 0.0000 0.0000 0.0000 0.0000 27.4095 0.0000
# 6 0.0000 0.0000 0.0000 0.0000 0.0000 31.1629
#
#
#
# Elastic Compliance Matrix: (Units=1/GPa)
#
#
# Indices 1 2 3 4 5 6 
#
# 1 0.008066 -0.001384 -0.004530 0.000000 0.000000 0.000000
# 2 -0.001384 0.010047 -0.004329 0.000000 0.000000 0.000000
# 3 -0.004530 -0.004329 0.019224 0.000000 0.000000 0.000000
# 4 0.000000 0.000000 0.000000 0.029419 0.000000 0.000000
# 5 0.000000 0.000000 0.000000 0.000000 0.036484 0.000000
# 6 0.000000 0.000000 0.000000 0.000000 0.000000 0.032089
#
#
# Mechanical properties :
#
#
# Convention : Reuss Voigt Hill
#
# Bulk Modulus (GPa) = 59.34726 66.69310 63.02018
# Shear Modulus (GPa) = 30.97283 33.48461 32.22872
#
# Velocity S-wave (km/s) = 3.68744 3.83405 3.76146
# Velocity P-wave (km/s) = 6.64706 6.99132 6.82136
#
# Compressibility (1/GPa) = 0.01684998
#
# Stress axis : x y z
#
# Youngs Moduli (GPa) = 123.98194 99.53388 52.01896
#
# Poissons Ratio (x) = 0.13780 0.23563
# Poissons Ratio (y) = 0.17165 0.22519
# Poissons Ratio (z) = 0.56159 0.43089
#
# Static dielectric constant tensor:
#      x y z
#    x 1.903780 0.000000 0.000000 
#    y 0.000000 1.928690 0.000000 
#    z 0.000000 0.000000 1.889010 
# 
# From -- ./inp_files/6628.got.cif
#   From: 2010.05.17/outbox.cif.g08.bks.cpg/sg31_4_cif.got.tgz:6628.got - 2010.06.03 17:08:30.
