data_PCOD9343898
_publ_section_title
;
Structure prediction by ZEFSAII (Michael W. Deem and Ramdas Pophale) SiO2 
 PCOD9343898
Probable space group: P B A 2
;
_chemical_formula_sum "Si O2"
_cell_formula_units_Z 26
_cell_length_a 12.172812
_cell_length_b 17.408969
_cell_length_c 4.988526
_cell_angle_alpha 90.000000
_cell_angle_beta 90.000000
_cell_angle_gamma 90.000000
_cell_volume 1057.149008
_symmetry_space_group_name_H-M "P B A 2"
_symmetry_group_IT_number 32
_symmetry_cell_setting 'orthorhombic'
loop_
_space_group_symop_operation_xyz
x,y,z
-x,-y,z
1/2-x,1/2+y,z
1/2+x,1/2-y,z
loop_
_atom_site_type_symbol
_atom_site_label
_atom_site_fract_x
_atom_site_fract_y
_atom_site_fract_z
Si Si1 0.000000 0.500000 0.713181
Si Si2 0.288605 0.652094 0.785512
Si Si3 0.964075 0.343615 0.667991
Si Si4 0.727993 0.007159 0.985712
Si Si5 0.493328 0.677682 0.421224
Si Si6 0.623602 0.218556 0.095252
Si Si7 0.767003 0.109800 0.473266
O O1 0.990638 0.577502 0.544141
O O2 0.103995 0.510884 0.902581
O O3 0.166538 0.648778 0.662519
O O4 0.292275 0.572960 0.954603
O O5 0.388869 0.645861 0.578874
O O6 0.286352 0.738868 0.910654
O O7 0.987003 0.264025 0.526548
O O8 0.036737 0.335820 0.942259
O O9 0.756848 0.077189 0.776930
O O10 0.742007 0.037888 0.282457
O O11 0.447062 0.701971 0.134039
O O12 0.606220 0.633487 0.433376
O O13 0.689481 0.177378 0.340183
#
# Coordination Sequence:
#
# PCOD9343898 Si02
#       7
#     2   4   4   4   4   4   4
#     4  10  20  46  72 104 146 182 240 310 370 428
#     4  10  25  45  70 102 145 190 248 296 371 450
#     4  10  21  42  68 104 139 182 243 303 371 431
#     4  11  27  48  71 111 146 195 242 310 376 442
#     4  11  25  42  70 102 139 199 239 300 361 450
#     4  11  23  42  73 102 139 193 245 307 363 444
#     4  12  27  47  75 107 151 188 248 307 376 441
#
# _framework density 24.594450999999999
#
# number of rings (size 3 to 8) (size 9 to 14) (size 15 to 20)
#    0.000    1.231    1.538    2.769   10.769    1.231 
#    8.308    0.000    0.000    0.000    0.000    0.000 
#    0.000    0.000    0.000    0.000    0.000    0.000 
#
# Total GULP energy -145078.197983 kJ/mol
# GULP energy per Si atom -5579.930692 kJ/mol
# Density = 2.453847 g / cm^3
# Si number density = 24.594451 Si / 1000 Ang^3
#
#
#
# Elastic Constant Matrix: (Units=GPa)
#
#
# Indices 1 2 3 4 5 6 
#
# 1 142.7120 48.1962 0.1957 0.0000 0.0000 0.0000
# 2 48.1962 89.0565 2.0035 0.0000 0.0000 0.0000
# 3 0.1957 2.0035 39.4441 0.0000 0.0000 0.0000
# 4 0.0000 0.0000 0.0000 40.5137 0.0000 0.0000
# 5 0.0000 0.0000 0.0000 0.0000 16.7737 0.0000
# 6 0.0000 0.0000 0.0000 0.0000 0.0000 39.1606
#
#
#
# Elastic Compliance Matrix: (Units=1/GPa)
#
#
# Indices 1 2 3 4 5 6 
#
# 1 0.008576 -0.004645 0.000193 0.000000 0.000000 0.000000
# 2 -0.004645 0.013758 -0.000676 0.000000 0.000000 0.000000
# 3 0.000193 -0.000676 0.025386 0.000000 0.000000 0.000000
# 4 0.000000 0.000000 0.000000 0.024683 0.000000 0.000000
# 5 0.000000 0.000000 0.000000 0.000000 0.059617 0.000000
# 6 0.000000 0.000000 0.000000 0.000000 0.000000 0.025536
#
#
# Mechanical properties :
#
#
# Convention : Reuss Voigt Hill
#
# Bulk Modulus (GPa) = 26.69238 41.33373 34.01306
# Shear Modulus (GPa) = 27.73174 34.01075 30.87125
#
# Velocity S-wave (km/s) = 3.36156 3.72272 3.54674
# Velocity P-wave (km/s) = 5.09346 5.94313 5.53463
#
# Compressibility (1/GPa) = 0.03746387
#
# Stress axis : x y z
#
# Youngs Moduli (GPa) = 116.60879 72.68469 39.39229
#
# Poissons Ratio (x) = 0.33765 -0.00762
# Poissons Ratio (y) = 0.54169 0.02662
# Poissons Ratio (z) = -0.02255 0.04912
#
# Static dielectric constant tensor:
#      x y z
#    x 1.999940 0.000000 0.000000 
#    y 0.000000 2.031610 0.000000 
#    z 0.000000 0.000000 2.263830 
# 
# From -- ./inp_files/935.got.cif
#   From: 2010.05.17/outbox.cif.g08.bks.cpg/sg32_1_cif.got.tgz:935.got - 2010.06.03 17:12:27.
