data_PCOD9343527
_publ_section_title
;
Structure prediction by ZEFSAII (Michael W. Deem and Ramdas Pophale) SiO2 
 PCOD9343527
Probable space group: P M N 21
;
_chemical_formula_sum "Si O2"
_cell_formula_units_Z 20
_cell_length_a 10.301223
_cell_length_b 11.875845
_cell_length_c 7.448848
_cell_angle_alpha 90.000000
_cell_angle_beta 90.000000
_cell_angle_gamma 90.000000
_cell_volume 911.260240
_symmetry_space_group_name_H-M "P M N 21"
_symmetry_group_IT_number 31
_symmetry_cell_setting 'orthorhombic'
loop_
_space_group_symop_operation_xyz
x,y,z
1/2-x,-y,1/2+z
-x,y,z
1/2+x,-y,1/2+z
loop_
_atom_site_type_symbol
_atom_site_label
_atom_site_fract_x
_atom_site_fract_y
_atom_site_fract_z
Si Si1 0.216247 0.872591 0.752770
Si Si2 0.143575 0.111214 0.615804
Si Si3 0.157818 0.778076 0.379892
Si Si4 0.862435 0.628776 0.850990
Si Si5 0.357544 0.464328 0.754095
O O1 0.235764 0.829257 0.548914
O O2 0.145364 0.762823 0.832235
O O3 0.144806 0.989792 0.713455
O O4 0.326240 0.898078 0.902039
O O5 0.263569 0.175968 0.708331
O O6 0.000000 0.162622 0.639899
O O7 0.168660 0.643035 0.380256
O O8 0.000000 0.804128 0.382257
O O9 0.744666 0.562888 0.764703
O O10 0.000000 0.591379 0.771437
O O11 0.859599 0.590876 0.057377
O O12 0.500000 0.510129 0.795088
#
# Coordination Sequence:
#
# PCOD9343527 Si02
#       5
#     4   4   4   4   4
#     4  12  25  46  71 102 141 185 237 289 356 422
#     4  12  27  45  71 105 140 185 239 297 352 418
#     4  11  24  46  74 102 140 189 233 287 358 424
#     4  11  23  42  71 100 137 186 231 286 350 414
#     4  10  23  43  69 103 140 181 232 285 346 418
#
# _framework density 21.947628999999999
#
# number of rings (size 3 to 8) (size 9 to 14) (size 15 to 20)
#    0.000    0.800    4.000    3.000    0.000    6.400 
#    0.000    0.000    0.000    0.000    0.000    0.000 
#    0.000    0.000    0.000    0.000    0.000    0.000 
#
# Total GULP energy -111529.732344 kJ/mol
# GULP energy per Si atom -5576.486617 kJ/mol
# Density = 2.189768 g / cm^3
# Si number density = 21.947629 Si / 1000 Ang^3
#
#
#
# Elastic Constant Matrix: (Units=GPa)
#
#
# Indices 1 2 3 4 5 6 
#
# 1 129.9254 80.4003 45.8462 0.0000 0.0000 0.0000
# 2 80.4003 98.2773 14.8775 0.0000 0.0000 0.0000
# 3 45.8462 14.8775 112.4550 0.0000 0.0000 0.0000
# 4 0.0000 0.0000 0.0000 45.5308 0.0000 0.0000
# 5 0.0000 0.0000 0.0000 0.0000 -992.0878 0.0000
# 6 0.0000 0.0000 0.0000 0.0000 0.0000 7.9753
#
#
#
# Elastic Compliance Matrix: (Units=1/GPa)
#
#
# Indices 1 2 3 4 5 6 
#
# 1 0.018567 -0.014330 -0.005673 0.000000 0.000000 0.000000
# 2 -0.014330 0.021444 0.003005 0.000000 0.000000 0.000000
# 3 -0.005673 0.003005 0.010808 0.000000 0.000000 0.000000
# 4 0.000000 0.000000 0.000000 0.021963 0.000000 0.000000
# 5 0.000000 0.000000 0.000000 0.000000 -0.001008 0.000000
# 6 0.000000 0.000000 0.000000 0.000000 0.000000 0.125387
#
#
# Mechanical properties :
#
#
# Convention : Reuss Voigt Hill
#
# Bulk Modulus (GPa) = 59.44836 69.21174 64.33005
# Shear Modulus (GPa) = 21.11800 -174.41408 -76.64804
#
# Velocity S-wave (km/s) = 3.10530 -8.92417 -5.91599
# Velocity P-wave (km/s) = 6.32475 8.63622 4.15824
#
# Compressibility (1/GPa) = 0.01682132
#
# Stress axis : x y z
#
# Youngs Moduli (GPa) = 53.86009 46.63308 92.52556
#
# Poissons Ratio (x) = 0.66827 0.52494
# Poissons Ratio (y) = 0.77184 -0.27807
# Poissons Ratio (z) = 0.30557 -0.14015
#
# Static dielectric constant tensor:
#      x y z
#    x 9.957210 0.000000 0.000000 
#    y 0.000000 1.787560 0.000000 
#    z 0.000000 0.000000 1.885980 
# 
# From -- ./inp_files/1593.got.cif
#   From: 2010.05.17/outbox.cif.g08.bks.cpg/sg31_1_cif.got.tgz:1593.got - 2010.06.03 17:08:30.
