data_PCOD9343904
_publ_section_title
;
Structure prediction by ZEFSAII (Michael W. Deem and Ramdas Pophale) SiO2 
 PCOD9343904
Probable space group: P B A 2
;
_chemical_formula_sum "Si O2"
_cell_formula_units_Z 24
_cell_length_a 18.885233
_cell_length_b 9.308002
_cell_length_c 7.187883
_cell_angle_alpha 90.000000
_cell_angle_beta 90.000000
_cell_angle_gamma 90.000000
_cell_volume 1263.513291
_symmetry_space_group_name_H-M "P B A 2"
_symmetry_group_IT_number 32
_symmetry_cell_setting 'orthorhombic'
loop_
_space_group_symop_operation_xyz
x,y,z
-x,-y,z
1/2-x,1/2+y,z
1/2+x,1/2-y,z
loop_
_atom_site_type_symbol
_atom_site_label
_atom_site_fract_x
_atom_site_fract_y
_atom_site_fract_z
Si Si1 0.449865 0.880760 0.016360
Si Si2 0.327627 0.071219 0.170020
Si Si3 0.570111 0.563992 0.473665
Si Si4 0.923736 0.932685 0.869115
Si Si5 0.819167 0.092646 0.146065
Si Si6 0.459826 0.132065 0.406282
O O1 0.493660 0.843839 0.212166
O O2 0.500000 0.000000 0.924087
O O3 0.377645 0.968555 0.047769
O O4 0.431320 0.734588 0.914634
O O5 0.313949 0.235937 0.104935
O O6 0.379954 0.089737 0.347765
O O7 0.254663 0.985984 0.187291
O O8 0.500000 0.500000 0.379276
O O9 0.587552 0.469972 0.652634
O O10 0.632719 0.576078 0.329018
O O11 0.546502 0.725268 0.525875
O O12 0.000000 0.000000 0.918232
O O13 0.861950 0.009574 0.985395
O O14 0.500000 0.000000 0.496628
#
# Coordination Sequence:
#
# PCOD9343904 Si02
#       6
#     4   4   4   4   4   4
#     4   9  17  34  60  86 109 146 191 231 279 333
#     4   9  19  33  58  84 107 149 189 221 284 334
#     4  10  21  35  54  83 109 142 188 225 277 334
#     4  11  21  35  57  82 111 147 185 228 280 330
#     4  11  20  37  57  79 115 148 182 234 277 331
#     4   8  16  34  58  82 109 144 187 233 277 332
#
# _framework density 18.994657
#
# number of rings (size 3 to 8) (size 9 to 14) (size 15 to 20)
#    0.000    2.667    0.000    5.500    0.000    1.333 
#    0.000   13.333    0.000    1.000    0.000    0.000 
#    0.000    0.000    0.000    0.000    0.000    0.000 
#
# Total GULP energy -133668.826325 kJ/mol
# GULP energy per Si atom -5569.534430 kJ/mol
# Density = 1.895142 g / cm^3
# Si number density = 18.994657 Si / 1000 Ang^3
#
#
#
# Elastic Constant Matrix: (Units=GPa)
#
#
# Indices 1 2 3 4 5 6 
#
# 1 148.7716 66.7483 24.7613 0.0000 0.0000 0.0000
# 2 66.7483 179.1128 40.7241 0.0000 0.0000 0.0000
# 3 24.7613 40.7241 71.3131 0.0000 0.0000 0.0000
# 4 0.0000 0.0000 0.0000 -9.8225 0.0000 0.0000
# 5 0.0000 0.0000 0.0000 0.0000 -5.2295 0.0000
# 6 0.0000 0.0000 0.0000 0.0000 0.0000 34.0040
#
#
#
# Elastic Compliance Matrix: (Units=1/GPa)
#
#
# Indices 1 2 3 4 5 6 
#
# 1 0.008169 -0.002757 -0.001262 0.000000 0.000000 0.000000
# 2 -0.002757 0.007347 -0.003238 0.000000 0.000000 0.000000
# 3 -0.001262 -0.003238 0.016310 0.000000 0.000000 0.000000
# 4 0.000000 0.000000 0.000000 -0.101807 0.000000 0.000000
# 5 0.000000 0.000000 0.000000 0.000000 -0.191224 0.000000
# 6 0.000000 0.000000 0.000000 0.000000 0.000000 0.029408
#
#
# Mechanical properties :
#
#
# Convention : Reuss Voigt Hill
#
# Bulk Modulus (GPa) = 57.76603 73.74055 65.75329
# Shear Modulus (GPa) = -23.63931 21.58799 -1.02566
#
# Velocity S-wave (km/s) = -3.53161 3.37490 -0.73563
# Velocity P-wave (km/s) = 3.72130 7.35477 5.82841
#
# Compressibility (1/GPa) = 0.01731121
#
# Stress axis : x y z
#
# Youngs Moduli (GPa) = 122.41665 136.11273 61.31230
#
# Poissons Ratio (x) = 0.37531 0.07736
# Poissons Ratio (y) = 0.33754 0.19854
# Poissons Ratio (z) = 0.15446 0.44075
#
# Static dielectric constant tensor:
#      x y z
#    x 1.648310 0.000000 0.000000 
#    y 0.000000 1.701410 0.000000 
#    z 0.000000 0.000000 1.693830 
# 
# From -- ./inp_files/3183.got.cif
#   From: 2010.05.17/outbox.cif.g08.bks.cpg/sg32_2_cif.got.tgz:3183.got - 2010.06.03 17:12:27.
