data_PCOD9343321
_publ_section_title
;
Structure prediction by ZEFSAII (Michael W. Deem and Ramdas Pophale) SiO2 
 PCOD9343321
Probable space group: P M N 21
;
_chemical_formula_sum "Si O2"
_cell_formula_units_Z 24
_cell_length_a 9.791957
_cell_length_b 20.345346
_cell_length_c 5.185995
_cell_angle_alpha 90.000000
_cell_angle_beta 90.000000
_cell_angle_gamma 90.000000
_cell_volume 1033.157830
_symmetry_space_group_name_H-M "P M N 21"
_symmetry_group_IT_number 31
_symmetry_cell_setting 'orthorhombic'
loop_
_space_group_symop_operation_xyz
x,y,z
1/2-x,-y,1/2+z
-x,y,z
1/2+x,-y,1/2+z
loop_
_atom_site_type_symbol
_atom_site_label
_atom_site_fract_x
_atom_site_fract_y
_atom_site_fract_z
Si Si1 0.142898 0.160694 0.404800
Si Si2 0.837846 0.521234 0.169414
Si Si3 0.852551 0.896801 0.220736
Si Si4 0.162373 0.280559 0.065851
Si Si5 0.661993 0.322875 0.568571
Si Si6 0.138941 0.044692 0.073692
O O1 0.275736 0.160717 0.575111
O O2 0.158124 0.203603 0.148433
O O3 0.129842 0.083195 0.342059
O O4 0.000000 0.184038 0.525999
O O5 0.752320 0.508844 0.433670
O O6 0.842989 0.598993 0.116707
O O7 0.000000 0.498804 0.181288
O O8 0.770562 0.923474 0.459559
O O9 0.000000 0.874123 0.297246
O O10 0.861993 0.966725 0.070656
O O11 0.250336 0.310292 0.306334
O O12 0.000000 0.301340 0.053958
O O13 0.247192 0.294745 0.806949
O O14 0.500000 0.301175 0.555215
O O15 0.000000 0.065370 0.929704
#
# Coordination Sequence:
#
# PCOD9343321 Si02
#       6
#     4   4   4   4   4   4
#     4  10  23  42  60  81 115 156 201 256 317 380
#     4  11  24  42  69 105 142 181 222 270 328 385
#     4  11  22  35  57  85 110 145 193 248 316 386
#     4  11  25  44  69  97 129 180 234 274 324 396
#     4  11  25  46  69  99 142 181 218 275 336 379
#     4  10  21  37  56  79 112 149 188 247 317 382
#
# _framework density 23.229752000000001
#
# number of rings (size 3 to 8) (size 9 to 14) (size 15 to 20)
#    0.000    1.333    1.667    3.000    2.333    9.333 
#    0.000    0.000    0.000    0.000    0.000    0.000 
#    0.000    0.000    0.000    0.000    0.000    0.000 
#
# Total GULP energy -133715.658843 kJ/mol
# GULP energy per Si atom -5571.485785 kJ/mol
# Density = 2.317688 g / cm^3
# Si number density = 23.229752 Si / 1000 Ang^3
#
#
#
# Elastic Constant Matrix: (Units=GPa)
#
#
# Indices 1 2 3 4 5 6 
#
# 1 246.3766 23.6257 72.2105 0.0000 0.0000 0.0000
# 2 23.6257 60.5968 -1.0303 0.0000 0.0000 0.0000
# 3 72.2105 -1.0303 90.9795 0.0000 0.0000 0.0000
# 4 0.0000 0.0000 0.0000 43.7752 0.0000 0.0000
# 5 0.0000 0.0000 0.0000 0.0000 40.2732 0.0000
# 6 0.0000 0.0000 0.0000 0.0000 0.0000 31.0904
#
#
#
# Elastic Compliance Matrix: (Units=1/GPa)
#
#
# Indices 1 2 3 4 5 6 
#
# 1 0.005580 -0.002251 -0.004455 0.000000 0.000000 0.000000
# 2 -0.002251 0.017414 0.001984 0.000000 0.000000 0.000000
# 3 -0.004455 0.001984 0.014550 0.000000 0.000000 0.000000
# 4 0.000000 0.000000 0.000000 0.022844 0.000000 0.000000
# 5 0.000000 0.000000 0.000000 0.000000 0.024830 0.000000
# 6 0.000000 0.000000 0.000000 0.000000 0.000000 0.032164
#
#
# Mechanical properties :
#
#
# Convention : Reuss Voigt Hill
#
# Bulk Modulus (GPa) = 35.58688 65.28496 50.43592
# Shear Modulus (GPa) = 36.71257 43.23755 39.97506
#
# Velocity S-wave (km/s) = 3.97975 4.31896 4.15282
# Velocity P-wave (km/s) = 6.03910 7.28260 6.68980
#
# Compressibility (1/GPa) = 0.02810025
#
# Stress axis : x y z
#
# Youngs Moduli (GPa) = 179.20124 57.42487 68.73051
#
# Poissons Ratio (x) = 0.12929 0.30617
# Poissons Ratio (y) = 0.40346 -0.13637
# Poissons Ratio (z) = 0.79827 -0.11394
#
# Static dielectric constant tensor:
#      x y z
#    x 1.980150 0.000000 0.000000 
#    y 0.000000 1.914560 0.000000 
#    z 0.000000 0.000000 1.922770 
# 
# From -- ./inp_files/145.got.cif
#   From: 2010.05.17/outbox.cif.g08.bks.cpg/sg31_1_cif.got.tgz:145.got - 2010.06.03 17:08:30.
