data_PCOD9343361
_publ_section_title
;
Structure prediction by ZEFSAII (Michael W. Deem and Ramdas Pophale) SiO2 
 PCOD9343361
Probable space group: P M N 21
;
_chemical_formula_sum "Si O2"
_cell_formula_units_Z 24
_cell_length_a 18.358964
_cell_length_b 5.027359
_cell_length_c 11.207080
_cell_angle_alpha 90.000000
_cell_angle_beta 90.000000
_cell_angle_gamma 90.000000
_cell_volume 1034.381016
_symmetry_space_group_name_H-M "P M N 21"
_symmetry_group_IT_number 31
_symmetry_cell_setting 'orthorhombic'
loop_
_space_group_symop_operation_xyz
x,y,z
1/2-x,-y,1/2+z
-x,y,z
1/2+x,-y,1/2+z
loop_
_atom_site_type_symbol
_atom_site_label
_atom_site_fract_x
_atom_site_fract_y
_atom_site_fract_z
Si Si1 0.617582 0.104003 0.172950
Si Si2 0.233759 0.335810 0.169646
Si Si3 0.419888 0.620768 0.758495
Si Si4 0.882418 0.895997 0.405564
Si Si5 0.919888 0.379233 0.820019
Si Si6 0.733759 0.664190 0.408868
O O1 0.706223 0.102224 0.174718
O O2 0.592867 0.325686 0.268027
O O3 0.586045 0.822088 0.209035
O O4 0.595514 0.179995 0.039257
O O5 0.147767 0.285494 0.177662
O O6 0.250000 0.500000 0.289257
O O7 0.247612 0.466488 0.039257
O O8 0.500000 0.638681 0.704067
O O9 0.407133 0.325686 0.810488
O O10 0.413956 0.822088 0.869479
O O11 0.793777 0.897776 0.403796
O O12 0.852233 0.285494 0.900852
O O13 0.000000 0.361320 0.874447
#
# Coordination Sequence:
#
# PCOD9343361 Si02
#       6
#     4   4   4   4   4   4
#     4  10  21  38  60  85 118 161 205 248 295 355
#     4   9  20  40  64  90 121 160 206 250 298 358
#     4  11  22  36  57  88 122 156 197 248 305 360
#     4  10  21  38  60  85 118 161 205 248 295 355
#     4  11  22  36  57  88 122 156 197 248 305 360
#     4   9  20  40  64  90 121 160 206 250 298 358
#
# _framework density 23.202283000000001
#
# number of rings (size 3 to 8) (size 9 to 14) (size 15 to 20)
#    0.000    2.000    0.000    3.000    0.000    6.000 
#    0.000   13.333    0.000    8.000    0.000    0.000 
#    0.000    0.000    0.000    0.000    0.000    0.000 
#
# Total GULP energy -133900.565099 kJ/mol
# GULP energy per Si atom -5579.190212 kJ/mol
# Density = 2.314947 g / cm^3
# Si number density = 23.202283 Si / 1000 Ang^3
#
#
#
# Elastic Constant Matrix: (Units=GPa)
#
#
# Indices 1 2 3 4 5 6 
#
# 1 183.2984 9.7014 24.7608 0.0000 0.0000 0.0000
# 2 9.7014 60.6469 2.2580 0.0000 0.0000 0.0000
# 3 24.7608 2.2580 101.8115 0.0000 0.0000 0.0000
# 4 0.0000 0.0000 0.0000 19.1654 0.0000 0.0000
# 5 0.0000 0.0000 0.0000 0.0000 -19.7182 0.0000
# 6 0.0000 0.0000 0.0000 0.0000 0.0000 18.4536
#
#
#
# Elastic Compliance Matrix: (Units=1/GPa)
#
#
# Indices 1 2 3 4 5 6 
#
# 1 0.005685 -0.000859 -0.001364 0.000000 0.000000 0.000000
# 2 -0.000859 0.016632 -0.000160 0.000000 0.000000 0.000000
# 3 -0.001364 -0.000160 0.010157 0.000000 0.000000 0.000000
# 4 0.000000 0.000000 0.000000 0.052177 0.000000 0.000000
# 5 0.000000 0.000000 0.000000 0.000000 -0.050715 0.000000
# 6 0.000000 0.000000 0.000000 0.000000 0.000000 0.054190
#
#
# Mechanical properties :
#
#
# Convention : Reuss Voigt Hill
#
# Bulk Modulus (GPa) = 36.08801 46.57746 41.33273
# Shear Modulus (GPa) = 48.95786 24.18262 36.57024
#
# Velocity S-wave (km/s) = 4.59851 3.23189 3.97438
# Velocity P-wave (km/s) = 6.61683 5.83481 6.23808
#
# Compressibility (1/GPa) = 0.02771004
#
# Stress axis : x y z
#
# Youngs Moduli (GPa) = 175.89420 60.12437 98.45178
#
# Poissons Ratio (x) = 0.05163 0.13425
# Poissons Ratio (y) = 0.15103 0.01576
# Poissons Ratio (z) = 0.23985 0.00962
#
# Static dielectric constant tensor:
#      x y z
#    x 1.970410 0.000000 0.000000 
#    y 0.000000 1.815610 0.000000 
#    z 0.000000 0.000000 1.883280 
# 
# From -- ./inp_files/4342.got.cif
#   From: 2010.05.17/outbox.cif.g08.bks.cpg/sg31_3_cif.got.tgz:4342.got - 2010.06.03 17:08:30.
