data_PCOD9343087
_publ_section_title
;
Structure prediction by ZEFSAII (Michael W. Deem and Ramdas Pophale) SiO2 
 PCOD9343087
Probable space group: P M N 21
;
_chemical_formula_sum "Si O2"
_cell_formula_units_Z 32
_cell_length_a 8.953868
_cell_length_b 9.334307
_cell_length_c 21.546808
_cell_angle_alpha 90.000000
_cell_angle_beta 90.000000
_cell_angle_gamma 90.000000
_cell_volume 1800.842410
_symmetry_space_group_name_H-M "P M N 21"
_symmetry_group_IT_number 31
_symmetry_cell_setting 'orthorhombic'
loop_
_space_group_symop_operation_xyz
x,y,z
1/2-x,-y,1/2+z
-x,y,z
1/2+x,-y,1/2+z
loop_
_atom_site_type_symbol
_atom_site_label
_atom_site_fract_x
_atom_site_fract_y
_atom_site_fract_z
Si Si1 0.821313 0.654390 0.736420
Si Si2 0.179158 0.661186 0.237087
Si Si3 0.177084 0.667655 0.008939
Si Si4 0.822563 0.325658 0.002078
Si Si5 0.319954 0.162233 0.117486
Si Si6 0.822695 0.666059 0.374923
Si Si7 0.322115 0.354589 0.373058
Si Si8 0.821524 0.170835 0.623150
O O1 0.742809 0.500206 0.731340
O O2 0.774051 0.757913 0.680948
O O3 0.794518 0.715336 0.806027
O O4 0.000000 0.631673 0.731091
O O5 0.218797 0.719920 0.306028
O O6 0.246497 0.755389 0.182446
O O7 0.000000 0.655712 0.232865
O O8 0.208546 0.496532 0.009355
O O9 0.268511 0.747553 0.061447
O O10 0.000000 0.685815 0.020778
O O11 0.209662 0.720820 0.938569
O O12 0.750170 0.241727 0.058816
O O13 0.000000 0.308533 0.002345
O O14 0.758373 0.274694 0.935768
O O15 0.500000 0.170841 0.113088
O O16 0.278242 0.995728 0.119127
O O17 0.773407 0.499610 0.372856
O O18 0.000000 0.678326 0.382670
O O19 0.500000 0.392459 0.375625
O O20 0.000000 0.180578 0.628997
#
# Coordination Sequence:
#
# PCOD9343087 Si02
#       8
#     4   4   4   4   4   4   4   4
#     4   9  17  33  57  79 100 130 167 209 257 304
#     4  10  20  34  54  80 106 132 166 209 255 304
#     4   9  18  33  53  78 105 130 164 211 257 305
#     4  10  20  34  55  80 103 131 169 212 256 304
#     4  10  22  37  51  72 104 139 175 214 254 299
#     4   9  17  30  51  78 106 132 161 204 255 304
#     4   8  15  29  51  78 103 126 161 210 257 302
#     4  11  23  36  50  71 103 142 179 213 251 300
#
# _framework density 17.769459999999999
#
# number of rings (size 3 to 8) (size 9 to 14) (size 15 to 20)
#    0.000    2.500    0.000    3.000    0.000    7.500 
#    0.000    1.250    0.000    1.500    0.000    0.000 
#    0.000    0.000    0.000    0.000    0.000    0.000 
#
# Total GULP energy -178379.187949 kJ/mol
# GULP energy per Si atom -5574.349623 kJ/mol
# Density = 1.772902 g / cm^3
# Si number density = 17.769460 Si / 1000 Ang^3
#
#
#
# Elastic Constant Matrix: (Units=GPa)
#
#
# Indices 1 2 3 4 5 6 
#
# 1 34.3527 35.3717 58.4987 0.0000 0.0000 0.0000
# 2 35.3717 65.8553 76.0875 0.0000 0.0000 0.0000
# 3 58.4987 76.0875 198.8403 0.0000 0.0000 0.0000
# 4 0.0000 0.0000 0.0000 -7.0468 0.0000 0.0000
# 5 0.0000 0.0000 0.0000 0.0000 21.5536 0.0000
# 6 0.0000 0.0000 0.0000 0.0000 0.0000 17.4161
#
#
#
# Elastic Compliance Matrix: (Units=1/GPa)
#
#
# Indices 1 2 3 4 5 6 
#
# 1 0.079670 -0.028162 -0.012663 0.000000 0.000000 0.000000
# 2 -0.028162 0.037173 -0.005939 0.000000 0.000000 0.000000
# 3 -0.012663 -0.005939 0.011027 0.000000 0.000000 0.000000
# 4 0.000000 0.000000 0.000000 -0.141908 0.000000 0.000000
# 5 0.000000 0.000000 0.000000 0.000000 0.046396 0.000000
# 6 0.000000 0.000000 0.000000 0.000000 0.000000 0.057418
#
#
# Mechanical properties :
#
#
# Convention : Reuss Voigt Hill
#
# Bulk Modulus (GPa) = 29.11819 70.99601 50.05710
# Shear Modulus (GPa) = 25.67398 14.99062 20.33230
#
# Velocity S-wave (km/s) = 3.80523 2.90766 3.38631
# Velocity P-wave (km/s) = 5.97734 7.16333 6.59704
#
# Compressibility (1/GPa) = 0.03434280
#
# Stress axis : x y z
#
# Youngs Moduli (GPa) = 12.55183 26.90135 90.68490
#
# Poissons Ratio (x) = 0.75758 1.14830
# Poissons Ratio (y) = 0.35348 0.53860
# Poissons Ratio (z) = 0.15894 0.15977
#
# Static dielectric constant tensor:
#      x y z
#    x 1.590330 0.000000 0.000000 
#    y 0.000000 1.566500 0.000000 
#    z 0.000000 0.000000 1.640140 
# 
# From -- ./inp_files/6235.got.cif
#   From: 2010.05.17/outbox.cif.g08.bks.cpg/sg31_4_cif.got.tgz:6235.got - 2010.06.03 17:08:30.
