data_PCOD9343077
_publ_section_title
;
Structure prediction by ZEFSAII (Michael W. Deem and Ramdas Pophale) SiO2 
 PCOD9343077
Probable space group: P M N 21
;
_chemical_formula_sum "Si O2"
_cell_formula_units_Z 32
_cell_length_a 13.601975
_cell_length_b 11.854970
_cell_length_c 11.991619
_cell_angle_alpha 90.000000
_cell_angle_beta 90.000000
_cell_angle_gamma 90.000000
_cell_volume 1933.660622
_symmetry_space_group_name_H-M "P M N 21"
_symmetry_group_IT_number 31
_symmetry_cell_setting 'orthorhombic'
loop_
_space_group_symop_operation_xyz
x,y,z
1/2-x,-y,1/2+z
-x,y,z
1/2+x,-y,1/2+z
loop_
_atom_site_type_symbol
_atom_site_label
_atom_site_fract_x
_atom_site_fract_y
_atom_site_fract_z
Si Si1 0.615746 0.916701 0.589010
Si Si2 0.694918 0.123960 0.722918
Si Si3 0.613068 0.221432 0.280336
Si Si4 0.246023 0.307883 0.090723
Si Si5 0.388321 0.960723 0.331363
Si Si6 0.615381 0.317507 0.875853
Si Si7 0.611742 0.488199 0.671753
Si Si8 0.385816 0.266989 0.529760
O O1 0.500000 0.899821 0.607066
O O2 0.672692 0.798692 0.582622
O O3 0.628105 0.969444 0.464729
O O4 0.655606 0.001078 0.684802
O O5 0.803590 0.111693 0.773343
O O6 0.632666 0.197882 0.811762
O O7 0.684035 0.195636 0.609880
O O8 0.500000 0.255225 0.267603
O O9 0.676143 0.273909 0.184107
O O10 0.645666 0.260071 0.402746
O O11 0.617537 0.085884 0.280887
O O12 0.186040 0.415298 0.135111
O O13 0.307234 0.326047 0.976619
O O14 0.500000 0.917624 0.315447
O O15 0.500000 0.323395 0.909639
O O16 0.633091 0.417309 0.785063
O O17 0.500000 0.532719 0.681629
O O18 0.612499 0.392905 0.576130
O O19 0.500000 0.222948 0.538465
#
# Coordination Sequence:
#
# PCOD9343077 Si02
#       8
#     4   4   4   4   4   4   4   4
#     4  11  21  34  54  83 114 146 185 227 274 333
#     4  11  18  35  60  83 106 149 189 223 276 331
#     4  10  20  34  53  81 112 145 182 222 269 330
#     4  12  22  34  58  83 114 148 179 231 290 335
#     4  10  20  34  52  81 120 147 175 226 279 332
#     4  10  22  39  58  84 114 147 190 237 278 334
#     4   9  21  39  57  78 105 143 190 235 276 323
#     4   9  18  35  60  79 101 141 192 231 258 322
#
# _framework density 16.548922999999998
#
# number of rings (size 3 to 8) (size 9 to 14) (size 15 to 20)
#    0.000    1.750    3.750    2.625    1.750    0.000 
#    0.000    0.000    0.000    7.500    0.000    0.000 
#    0.000    0.000    0.000    0.000    0.000    0.000 
#
# Total GULP energy -178383.810746 kJ/mol
# GULP energy per Si atom -5574.494086 kJ/mol
# Density = 1.651126 g / cm^3
# Si number density = 16.548923 Si / 1000 Ang^3
#
#
#
# Elastic Constant Matrix: (Units=GPa)
#
#
# Indices 1 2 3 4 5 6 
#
# 1 99.1734 47.3746 59.9353 0.0000 0.0000 0.0000
# 2 47.3746 76.6103 32.9648 0.0000 0.0000 0.0000
# 3 59.9353 32.9648 90.6226 0.0000 0.0000 0.0000
# 4 0.0000 0.0000 0.0000 18.9619 0.0000 0.0000
# 5 0.0000 0.0000 0.0000 0.0000 29.7198 0.0000
# 6 0.0000 0.0000 0.0000 0.0000 0.0000 33.5387
#
#
#
# Elastic Compliance Matrix: (Units=1/GPa)
#
#
# Indices 1 2 3 4 5 6 
#
# 1 0.020237 -0.008009 -0.010471 0.000000 0.000000 0.000000
# 2 -0.008009 0.018645 -0.001485 0.000000 0.000000 0.000000
# 3 -0.010471 -0.001485 0.018500 0.000000 0.000000 0.000000
# 4 0.000000 0.000000 0.000000 0.052737 0.000000 0.000000
# 5 0.000000 0.000000 0.000000 0.000000 0.033648 0.000000
# 6 0.000000 0.000000 0.000000 0.000000 0.000000 0.029816
#
#
# Mechanical properties :
#
#
# Convention : Reuss Voigt Hill
#
# Bulk Modulus (GPa) = 57.30058 60.77284 59.03671
# Shear Modulus (GPa) = 22.79653 24.85286 23.82470
#
# Velocity S-wave (km/s) = 3.71553 3.87949 3.79839
# Velocity P-wave (km/s) = 7.28745 7.54123 7.41543
#
# Compressibility (1/GPa) = 0.01745183
#
# Stress axis : x y z
#
# Youngs Moduli (GPa) = 49.41367 53.63446 54.05289
#
# Poissons Ratio (x) = 0.42955 0.56599
# Poissons Ratio (y) = 0.39574 0.08029
# Poissons Ratio (z) = 0.51742 0.07967
#
# Static dielectric constant tensor:
#      x y z
#    x 1.559340 0.000000 0.000000 
#    y 0.000000 1.564260 0.000000 
#    z 0.000000 0.000000 1.546870 
# 
# From -- ./inp_files/4061.got.cif
#   From: 2010.05.17/outbox.cif.g08.bks.cpg/sg31_3_cif.got.tgz:4061.got - 2010.06.03 17:08:30.
