data_PCOD9343460
_publ_section_title
;
Structure prediction by ZEFSAII (Michael W. Deem and Ramdas Pophale) SiO2 
 PCOD9343460
Probable space group: P M N 21
;
_chemical_formula_sum "Si O2"
_cell_formula_units_Z 24
_cell_length_a 20.009081
_cell_length_b 7.233692
_cell_length_c 8.124118
_cell_angle_alpha 90.000000
_cell_angle_beta 90.000000
_cell_angle_gamma 90.000000
_cell_volume 1175.881014
_symmetry_space_group_name_H-M "P M N 21"
_symmetry_group_IT_number 31
_symmetry_cell_setting 'orthorhombic'
loop_
_space_group_symop_operation_xyz
x,y,z
1/2-x,-y,1/2+z
-x,y,z
1/2+x,-y,1/2+z
loop_
_atom_site_type_symbol
_atom_site_label
_atom_site_fract_x
_atom_site_fract_y
_atom_site_fract_z
Si Si1 0.732673 0.604405 0.873550
Si Si2 0.424045 0.185859 0.751378
Si Si3 0.144567 0.484540 0.053736
Si Si4 0.076043 0.110479 0.981974
Si Si5 0.786382 0.973751 0.826220
Si Si6 0.689409 0.233179 0.985568
O O1 0.693478 0.589058 0.700474
O O2 0.742539 0.817742 0.924181
O O3 0.809110 0.535335 0.898309
O O4 0.693536 0.455854 0.986316
O O5 0.500000 0.239441 0.780060
O O6 0.390631 0.336147 0.629720
O O7 0.421679 0.990909 0.658403
O O8 0.382473 0.179888 0.917621
O O9 0.093270 0.324958 0.005979
O O10 0.000000 0.083105 0.917271
O O11 0.138944 0.020775 0.886017
O O12 0.792689 0.871852 0.651859
O O13 0.742341 0.157895 0.848495
#
# Coordination Sequence:
#
# PCOD9343460 Si02
#       6
#     4   4   4   4   4   4
#     4  11  21  35  59  89 117 153 194 248 303 346
#     4  10  22  40  61  86 122 164 200 240 298 364
#     4  11  21  38  59  90 120 153 199 249 298 357
#     4  11  23  40  61  87 123 165 201 243 304 366
#     4  12  22  38  60  92 120 157 202 256 300 356
#     4  11  24  37  62  90 123 156 200 256 304 349
#
# _framework density 20.410226999999999
#
# number of rings (size 3 to 8) (size 9 to 14) (size 15 to 20)
#    0.000    1.000    5.000    2.500    2.333    0.667 
#    0.000    0.000    0.000    0.000    0.000    0.000 
#    0.000    0.000    0.000    0.000    0.000    0.000 
#
# Total GULP energy -133781.490837 kJ/mol
# GULP energy per Si atom -5574.228785 kJ/mol
# Density = 2.036377 g / cm^3
# Si number density = 20.410227 Si / 1000 Ang^3
#
#
#
# Elastic Constant Matrix: (Units=GPa)
#
#
# Indices 1 2 3 4 5 6 
#
# 1 113.7166 2.9550 15.3160 0.0000 0.0000 0.0000
# 2 2.9550 83.8571 0.4600 0.0000 0.0000 0.0000
# 3 15.3160 0.4600 54.6957 0.0000 0.0000 0.0000
# 4 0.0000 0.0000 0.0000 13.2960 0.0000 0.0000
# 5 0.0000 0.0000 0.0000 0.0000 33.8702 0.0000
# 6 0.0000 0.0000 0.0000 0.0000 0.0000 30.5989
#
#
#
# Elastic Compliance Matrix: (Units=1/GPa)
#
#
# Indices 1 2 3 4 5 6 
#
# 1 0.009146 -0.000308 -0.002559 0.000000 0.000000 0.000000
# 2 -0.000308 0.011936 -0.000014 0.000000 0.000000 0.000000
# 3 -0.002559 -0.000014 0.019000 0.000000 0.000000 0.000000
# 4 0.000000 0.000000 0.000000 0.075211 0.000000 0.000000
# 5 0.000000 0.000000 0.000000 0.000000 0.029525 0.000000
# 6 0.000000 0.000000 0.000000 0.000000 0.000000 0.032681
#
#
# Mechanical properties :
#
#
# Convention : Reuss Voigt Hill
#
# Bulk Modulus (GPa) = 29.13745 32.19238 30.66491
# Shear Modulus (GPa) = 25.68052 31.12223 28.40137
#
# Velocity S-wave (km/s) = 3.55099 3.90915 3.73436
# Velocity P-wave (km/s) = 5.57849 6.01516 5.80094
#
# Compressibility (1/GPa) = 0.03432009
#
# Stress axis : x y z
#
# Youngs Moduli (GPa) = 109.33249 83.78025 52.63277
#
# Poissons Ratio (x) = 0.02583 0.13467
# Poissons Ratio (y) = 0.03370 0.00074
# Poissons Ratio (z) = 0.27974 0.00118
#
# Static dielectric constant tensor:
#      x y z
#    x 1.713310 0.000000 0.000000 
#    y 0.000000 1.770420 0.000000 
#    z 0.000000 0.000000 1.776080 
# 
# From -- ./inp_files/3047.got.cif
#   From: 2010.05.17/outbox.cif.g08.bks.cpg/sg31_2_cif.got.tgz:3047.got - 2010.06.03 17:08:30.
