data_PCOD9343830
_publ_section_title
;
Structure prediction by ZEFSAII (Michael W. Deem and Ramdas Pophale) SiO2 
 PCOD9343830
Probable space group: P B A 2
;
_chemical_formula_sum "Si O2"
_cell_formula_units_Z 32
_cell_length_a 15.963960
_cell_length_b 14.777980
_cell_length_c 5.180306
_cell_angle_alpha 90.000000
_cell_angle_beta 90.000000
_cell_angle_gamma 90.000000
_cell_volume 1222.112313
_symmetry_space_group_name_H-M "P B A 2"
_symmetry_group_IT_number 32
_symmetry_cell_setting 'orthorhombic'
loop_
_space_group_symop_operation_xyz
x,y,z
-x,-y,z
1/2-x,1/2+y,z
1/2+x,1/2-y,z
loop_
_atom_site_type_symbol
_atom_site_label
_atom_site_fract_x
_atom_site_fract_y
_atom_site_fract_z
Si Si1 0.958773 0.089248 0.384620
Si Si2 0.600976 0.216979 0.927407
Si Si3 0.701243 0.502125 0.595895
Si Si4 0.808692 0.402643 0.939683
Si Si5 0.874457 0.825547 0.441403
Si Si6 0.459412 0.069370 0.561427
Si Si7 0.075014 0.724895 0.133166
Si Si8 0.352852 0.940968 0.288028
O O1 0.927225 0.169517 0.202296
O O2 0.037227 0.132496 0.533302
O O3 0.884633 0.055851 0.567645
O O4 0.000000 0.000000 0.253343
O O5 0.614690 0.290852 0.152277
O O6 0.499628 0.203172 0.923847
O O7 0.643229 0.130967 0.061075
O O8 0.638935 0.247528 0.654373
O O9 0.724569 0.457000 0.868800
O O10 0.690126 0.407384 0.440477
O O11 0.773594 0.564790 0.476229
O O12 0.867513 0.415479 0.691851
O O13 0.832309 0.302123 0.032224
O O14 0.847694 0.461966 0.161887
O O15 0.454188 0.163641 0.377853
O O16 0.500000 0.000000 0.798518
O O17 0.440698 0.953317 0.438516
#
# Coordination Sequence:
#
# PCOD9343830 Si02
#       8
#     4   4   4   4   4   4   4   4
#     4   9  21  47  72  98 133 192 243 306 357 431
#     4  11  24  42  70 104 139 178 242 299 360 432
#     4  10  23  48  65  94 146 183 247 294 365 440
#     4  10  24  37  64  99 137 184 230 295 370 430
#     4  10  25  45  71 100 137 187 240 303 359 422
#     4  10  20  37  64  93 139 180 230 299 358 438
#     4  10  22  39  67 103 136 179 247 295 364 430
#     4  10  23  40  62 100 134 188 229 294 371 428
#
# _framework density 26.184172
#
# number of rings (size 3 to 8) (size 9 to 14) (size 15 to 20)
#    0.000    2.000    1.250    0.000   10.500    1.000 
#    9.000    5.000    0.000    0.000    0.000    0.000 
#    0.000    0.000    0.000    0.000    0.000    0.000 
#
# Total GULP energy -178205.896727 kJ/mol
# GULP energy per Si atom -5568.934273 kJ/mol
# Density = 2.612458 g / cm^3
# Si number density = 26.184172 Si / 1000 Ang^3
#
#
#
# Elastic Constant Matrix: (Units=GPa)
#
#
# Indices 1 2 3 4 5 6 
#
# 1 107.7567 47.6583 24.4169 0.0000 0.0000 0.0000
# 2 47.6583 136.7212 12.8844 0.0000 0.0000 0.0000
# 3 24.4169 12.8844 79.2020 0.0000 0.0000 0.0000
# 4 0.0000 0.0000 0.0000 -128.1048 0.0000 0.0000
# 5 0.0000 0.0000 0.0000 0.0000 911.0039 0.0000
# 6 0.0000 0.0000 0.0000 0.0000 0.0000 39.6860
#
#
#
# Elastic Compliance Matrix: (Units=1/GPa)
#
#
# Indices 1 2 3 4 5 6 
#
# 1 0.011621 -0.003771 -0.002969 0.000000 0.000000 0.000000
# 2 -0.003771 0.008652 -0.000245 0.000000 0.000000 0.000000
# 3 -0.002969 -0.000245 0.013581 0.000000 0.000000 0.000000
# 4 0.000000 0.000000 0.000000 -0.007806 0.000000 0.000000
# 5 0.000000 0.000000 0.000000 0.000000 0.001098 0.000000
# 6 0.000000 0.000000 0.000000 0.000000 0.000000 0.025198
#
#
# Mechanical properties :
#
#
# Convention : Reuss Voigt Hill
#
# Bulk Modulus (GPa) = 50.29244 54.84433 52.56839
# Shear Modulus (GPa) = 68.54879 180.43170 124.49025
#
# Velocity S-wave (km/s) = 5.12214 8.31013 6.90270
# Velocity P-wave (km/s) = 7.36415 10.63338 9.14602
#
# Compressibility (1/GPa) = 0.01988371
#
# Stress axis : x y z
#
# Youngs Moduli (GPa) = 86.05301 115.58400 73.63167
#
# Poissons Ratio (x) = 0.43586 0.21862
# Poissons Ratio (y) = 0.32450 0.01803
# Poissons Ratio (z) = 0.25550 0.02831
#
# Static dielectric constant tensor:
#      x y z
#    x -2.499570 0.000000 0.000000 
#    y 0.000000 2.454790 0.000000 
#    z 0.000000 0.000000 2.148660 
# 
# From -- ./inp_files/1485.got.cif
#   From: 2010.05.17/outbox.cif.g08.bks.cpg/sg32_1_cif.got.tgz:1485.got - 2010.06.03 17:12:27.
