data_PCOD9343028
_publ_section_title
;
Structure prediction by ZEFSAII (Michael W. Deem and Ramdas Pophale) SiO2 
 PCOD9343028
Probable space group: P M N 21
;
_chemical_formula_sum "Si O2"
_cell_formula_units_Z 24
_cell_length_a 8.675624
_cell_length_b 7.718703
_cell_length_c 19.289619
_cell_angle_alpha 90.000000
_cell_angle_beta 90.000000
_cell_angle_gamma 90.000000
_cell_volume 1291.720945
_symmetry_space_group_name_H-M "P M N 21"
_symmetry_group_IT_number 31
_symmetry_cell_setting 'orthorhombic'
loop_
_space_group_symop_operation_xyz
x,y,z
1/2-x,-y,1/2+z
-x,y,z
1/2+x,-y,1/2+z
loop_
_atom_site_type_symbol
_atom_site_label
_atom_site_fract_x
_atom_site_fract_y
_atom_site_fract_z
Si Si1 0.186333 0.511293 0.695550
Si Si2 0.186374 0.216280 0.807113
Si Si3 0.812612 0.904011 0.712755
Si Si4 0.186104 0.023503 0.559042
Si Si5 0.683230 0.399672 0.546431
Si Si6 0.684456 0.292854 0.958268
O O1 0.226836 0.367359 0.752378
O O2 0.254946 0.463976 0.621051
O O3 0.000000 0.510707 0.688272
O O4 0.235468 0.704276 0.717914
O O5 0.237149 0.033994 0.773220
O O6 0.258629 0.252900 0.881283
O O7 0.000000 0.214717 0.813491
O O8 0.765642 0.978993 0.637801
O O9 0.000000 0.905262 0.713195
O O10 0.256276 0.205133 0.536049
O O11 0.000000 0.038171 0.558851
O O12 0.229910 0.865234 0.509163
O O13 0.500000 0.401345 0.546455
O O14 0.745405 0.531318 0.488757
O O15 0.500000 0.305919 0.959983
#
# Coordination Sequence:
#
# PCOD9343028 Si02
#       6
#     4   4   4   4   4   4
#     4  10  19  37  63  89 119 161 204 240 292 366
#     4  10  21  37  59  89 125 157 194 247 305 361
#     4   9  17  34  62  88 112 151 202 244 287 354
#     4  10  20  39  65  88 114 159 207 246 296 360
#     4  12  24  37  60  93 125 157 200 256 304 353
#     4  11  24  42  63  87 123 163 203 249 302 366
#
# _framework density 18.579864000000001
#
# number of rings (size 3 to 8) (size 9 to 14) (size 15 to 20)
#    0.000    1.667    3.333    2.000    0.000    3.333 
#    0.000    2.500    0.000    0.000    0.000    0.000 
#    0.000    0.000    0.000    0.000    0.000    0.000 
#
# Total GULP energy -134089.593760 kJ/mol
# GULP energy per Si atom -5587.066407 kJ/mol
# Density = 1.853758 g / cm^3
# Si number density = 18.579864 Si / 1000 Ang^3
#
#
#
# Elastic Constant Matrix: (Units=GPa)
#
#
# Indices 1 2 3 4 5 6 
#
# 1 21.3229 17.3673 10.2195 0.0000 0.0000 0.0000
# 2 17.3673 82.4193 -23.5636 0.0000 0.0000 0.0000
# 3 10.2195 -23.5636 37.7230 0.0000 0.0000 0.0000
# 4 0.0000 0.0000 0.0000 30.2706 0.0000 0.0000
# 5 0.0000 0.0000 0.0000 0.0000 30.6837 0.0000
# 6 0.0000 0.0000 0.0000 0.0000 0.0000 -1.0836
#
#
#
# Elastic Compliance Matrix: (Units=1/GPa)
#
#
# Indices 1 2 3 4 5 6 
#
# 1 0.097829 -0.034321 -0.047941 0.000000 0.000000 0.000000
# 2 -0.034321 0.026811 0.026045 0.000000 0.000000 0.000000
# 3 -0.047941 0.026045 0.055766 0.000000 0.000000 0.000000
# 4 0.000000 0.000000 0.000000 0.033035 0.000000 0.000000
# 5 0.000000 0.000000 0.000000 0.000000 0.032591 0.000000
# 6 0.000000 0.000000 0.000000 0.000000 0.000000 -0.922888
#
#
# Mechanical properties :
#
#
# Convention : Reuss Voigt Hill
#
# Bulk Modulus (GPa) = 14.71153 16.61239 15.66196
# Shear Modulus (GPa) = -9.22908 21.13696 5.95394
#
# Velocity S-wave (km/s) = -2.23115 3.37653 1.79206
# Velocity P-wave (km/s) = 1.13921 4.91546 3.56788
#
# Compressibility (1/GPa) = 0.06797388
#
# Stress axis : x y z
#
# Youngs Moduli (GPa) = 10.22196 37.29753 17.93208
#
# Poissons Ratio (x) = 1.28007 0.85968
# Poissons Ratio (y) = 0.35082 -0.46705
# Poissons Ratio (z) = 0.49005 -0.97143
#
# Static dielectric constant tensor:
#      x y z
#    x 1.630050 0.000000 0.000000 
#    y 0.000000 1.637350 0.000000 
#    z 0.000000 0.000000 1.604420 
# 
# From -- ./inp_files/5705.got.cif
#   From: 2010.05.17/outbox.cif.g08.bks.cpg/sg31_3_cif.got.tgz:5705.got - 2010.06.03 17:08:30.
