data_PCOD9343120
_publ_section_title
;
Structure prediction by ZEFSAII (Michael W. Deem and Ramdas Pophale) SiO2 
 PCOD9343120
Probable space group: P M N 21
;
_chemical_formula_sum "Si O2"
_cell_formula_units_Z 32
_cell_length_a 15.196549
_cell_length_b 11.967560
_cell_length_c 9.259751
_cell_angle_alpha 90.000000
_cell_angle_beta 90.000000
_cell_angle_gamma 90.000000
_cell_volume 1684.030282
_symmetry_space_group_name_H-M "P M N 21"
_symmetry_group_IT_number 31
_symmetry_cell_setting 'orthorhombic'
loop_
_space_group_symop_operation_xyz
x,y,z
1/2-x,-y,1/2+z
-x,y,z
1/2+x,-y,1/2+z
loop_
_atom_site_type_symbol
_atom_site_label
_atom_site_fract_x
_atom_site_fract_y
_atom_site_fract_z
Si Si1 0.221403 0.131485 0.033160
Si Si2 0.596736 0.721269 0.718740
Si Si3 0.343705 0.102741 0.462653
Si Si4 0.279935 0.690556 0.293555
Si Si5 0.098774 0.957795 0.638728
Si Si6 0.347196 0.801644 0.017909
Si Si7 0.399034 0.537345 0.491824
Si Si8 0.099175 0.688703 0.141331
O O1 0.175855 0.210740 0.148318
O O2 0.323740 0.108043 0.058230
O O3 0.210001 0.193811 0.881610
O O4 0.171219 0.014449 0.041975
O O5 0.500000 0.762136 0.668199
O O6 0.605767 0.598540 0.648737
O O7 0.601729 0.742331 0.888445
O O8 0.384356 0.070478 0.307830
O O9 0.245678 0.154809 0.452372
O O10 0.394152 0.192155 0.560659
O O11 0.326479 0.711900 0.141256
O O12 0.328733 0.595555 0.386520
O O13 0.176831 0.675669 0.257967
O O14 0.000000 0.923398 0.600600
O O15 0.110032 0.088140 0.591801
O O16 0.500000 0.554696 0.439332
O O17 0.384876 0.407168 0.520972
O O18 0.000000 0.673055 0.197717
#
# Coordination Sequence:
#
# PCOD9343120 Si02
#       8
#     4   4   4   4   4   4   4   4
#     4  10  21  39  55  86 120 150 196 239 292 366
#     4  10  20  36  60  84 114 153 193 251 303 345
#     4  10  20  36  57  79 121 157 189 239 300 357
#     4  10  21  39  64  85 116 158 195 248 304 353
#     4  11  21  33  55  84 120 156 190 241 298 359
#     4  10  20  35  55  89 115 149 198 249 293 360
#     4   9  21  41  62  87 119 156 202 252 303 362
#     4  10  22  39  62  90 121 159 205 247 303 372
#
# _framework density 19.002033000000001
#
# number of rings (size 3 to 8) (size 9 to 14) (size 15 to 20)
#    0.000    2.000    2.500    0.750    0.000    4.500 
#    0.000    0.000    0.000    0.750    0.000    0.000 
#    0.000    0.000    0.000    0.000    0.000    0.000 
#
# Total GULP energy -178335.530907 kJ/mol
# GULP energy per Si atom -5572.985341 kJ/mol
# Density = 1.895878 g / cm^3
# Si number density = 19.002033 Si / 1000 Ang^3
#
#
#
# Elastic Constant Matrix: (Units=GPa)
#
#
# Indices 1 2 3 4 5 6 
#
# 1 103.5827 45.5246 37.3348 0.0000 0.0000 0.0000
# 2 45.5246 76.9799 19.0780 0.0000 0.0000 0.0000
# 3 37.3348 19.0780 74.5492 0.0000 0.0000 0.0000
# 4 0.0000 0.0000 0.0000 12.4929 0.0000 0.0000
# 5 0.0000 0.0000 0.0000 0.0000 20.7309 0.0000
# 6 0.0000 0.0000 0.0000 0.0000 0.0000 22.0273
#
#
#
# Elastic Compliance Matrix: (Units=1/GPa)
#
#
# Indices 1 2 3 4 5 6 
#
# 1 0.014939 -0.007453 -0.005574 0.000000 0.000000 0.000000
# 2 -0.007453 0.017589 -0.000769 0.000000 0.000000 0.000000
# 3 -0.005574 -0.000769 0.016402 0.000000 0.000000 0.000000
# 4 0.000000 0.000000 0.000000 0.080045 0.000000 0.000000
# 5 0.000000 0.000000 0.000000 0.000000 0.048237 0.000000
# 6 0.000000 0.000000 0.000000 0.000000 0.000000 0.045398
#
#
# Mechanical properties :
#
#
# Convention : Reuss Voigt Hill
#
# Bulk Modulus (GPa) = 46.86478 50.99850 48.93164
# Shear Modulus (GPa) = 19.43147 21.26187 20.34667
#
# Velocity S-wave (km/s) = 3.20128 3.34866 3.27580
# Velocity P-wave (km/s) = 6.19523 6.46901 6.33360
#
# Compressibility (1/GPa) = 0.02133799
#
# Stress axis : x y z
#
# Youngs Moduli (GPa) = 66.93933 56.85526 60.96737
#
# Poissons Ratio (x) = 0.42375 0.33984
# Poissons Ratio (y) = 0.49891 0.04685
# Poissons Ratio (z) = 0.37313 0.04369
#
# Static dielectric constant tensor:
#      x y z
#    x 1.673710 0.000000 0.000000 
#    y 0.000000 1.648990 0.000000 
#    z 0.000000 0.000000 1.668620 
# 
# From -- ./inp_files/2564.got.cif
#   From: 2010.05.17/outbox.cif.g08.bks.cpg/sg31_2_cif.got.tgz:2564.got - 2010.06.03 17:08:30.
