data_PCOD9343385
_publ_section_title
;
Structure prediction by ZEFSAII (Michael W. Deem and Ramdas Pophale) SiO2 
 PCOD9343385
Probable space group: P M N 21
;
_chemical_formula_sum "Si O2"
_cell_formula_units_Z 32
_cell_length_a 14.778359
_cell_length_b 8.676458
_cell_length_c 11.017070
_cell_angle_alpha 90.000000
_cell_angle_beta 90.000000
_cell_angle_gamma 90.000000
_cell_volume 1412.650703
_symmetry_space_group_name_H-M "P M N 21"
_symmetry_group_IT_number 31
_symmetry_cell_setting 'orthorhombic'
loop_
_space_group_symop_operation_xyz
x,y,z
1/2-x,-y,1/2+z
-x,y,z
1/2+x,-y,1/2+z
loop_
_atom_site_type_symbol
_atom_site_label
_atom_site_fract_x
_atom_site_fract_y
_atom_site_fract_z
Si Si1 0.105620 0.119642 0.575800
Si Si2 0.103169 0.580629 0.965437
Si Si3 0.895769 0.914288 0.959419
Si Si4 0.103853 0.392568 0.731043
Si Si5 0.603059 0.097988 0.747765
Si Si6 0.603289 0.738109 0.820703
Si Si7 0.231636 0.864521 0.460369
Si Si8 0.267289 0.580147 0.636281
O O1 0.126951 0.217855 0.695019
O O2 0.116142 0.240859 0.464338
O O3 0.169136 0.977856 0.542913
O O4 0.000000 0.071385 0.577327
O O5 0.119686 0.745722 0.901562
O O6 0.172565 0.548565 0.071001
O O7 0.000000 0.588159 0.011314
O O8 0.108449 0.440136 0.871167
O O9 0.885343 0.883083 0.104203
O O10 0.820317 0.036956 0.926641
O O11 0.000000 0.963485 0.937194
O O12 0.171581 0.508393 0.667080
O O13 0.000000 0.415288 0.691737
O O14 0.500000 0.143647 0.779497
O O15 0.610399 0.913604 0.771218
O O16 0.674021 0.174030 0.839678
O O17 0.500000 0.685180 0.796383
O O18 0.677647 0.637004 0.754054
O O19 0.256626 0.720749 0.543105
#
# Coordination Sequence:
#
# PCOD9343385 Si02
#       8
#     4   4   4   4   4   4   4   4
#     4   9  20  42  67  86 118 165 206 254 309 370
#     4  10  24  44  62  87 124 166 208 256 309 369
#     4  10  21  39  62  86 122 171 212 256 313 370
#     4  10  24  44  62  87 128 168 206 252 312 373
#     4   9  19  38  61  88 123 159 203 260 310 364
#     4   9  18  36  62  90 118 153 203 256 304 357
#     4  11  22  34  62  97 124 156 208 262 314 371
#     4  12  24  35  62  93 125 158 204 258 309 368
#
# _framework density 22.652450000000002
#
# number of rings (size 3 to 8) (size 9 to 14) (size 15 to 20)
#    0.000    2.000    1.250    2.250    5.250    3.500 
#    0.000    0.000    0.000    6.000    0.000    0.000 
#    0.000    0.000    0.000    0.000    0.000    0.000 
#
# Total GULP energy -179023.330546 kJ/mol
# GULP energy per Si atom -5594.479080 kJ/mol
# Density = 2.260089 g / cm^3
# Si number density = 22.652450 Si / 1000 Ang^3
#
#
#
# Elastic Constant Matrix: (Units=GPa)
#
#
# Indices 1 2 3 4 5 6 
#
# 1 119.8597 51.8087 39.1606 0.0000 0.0000 0.0000
# 2 51.8087 46.8602 20.2601 0.0000 0.0000 0.0000
# 3 39.1606 20.2601 48.3826 0.0000 0.0000 0.0000
# 4 0.0000 0.0000 0.0000 25.2561 0.0000 0.0000
# 5 0.0000 0.0000 0.0000 0.0000 34.1968 0.0000
# 6 0.0000 0.0000 0.0000 0.0000 0.0000 13.9061
#
#
#
# Elastic Compliance Matrix: (Units=1/GPa)
#
#
# Indices 1 2 3 4 5 6 
#
# 1 0.018021 -0.016628 -0.007623 0.000000 0.000000 0.000000
# 2 -0.016628 0.041401 -0.003878 0.000000 0.000000 0.000000
# 3 -0.007623 -0.003878 0.028462 0.000000 0.000000 0.000000
# 4 0.000000 0.000000 0.000000 0.039594 0.000000 0.000000
# 5 0.000000 0.000000 0.000000 0.000000 0.029243 0.000000
# 6 0.000000 0.000000 0.000000 0.000000 0.000000 0.071911
#
#
# Mechanical properties :
#
#
# Convention : Reuss Voigt Hill
#
# Bulk Modulus (GPa) = 31.61929 48.61794 40.11861
# Shear Modulus (GPa) = 16.92429 21.59666 19.26047
#
# Velocity S-wave (km/s) = 2.73633 3.09105 2.91909
# Velocity P-wave (km/s) = 4.89613 5.85223 5.39540
#
# Compressibility (1/GPa) = 0.03162626
#
# Stress axis : x y z
#
# Youngs Moduli (GPa) = 55.48988 24.15400 35.13395
#
# Poissons Ratio (x) = 0.40164 0.26783
# Poissons Ratio (y) = 0.92271 0.13624
# Poissons Ratio (z) = 0.42301 0.09366
#
# Static dielectric constant tensor:
#      x y z
#    x 1.827160 0.000000 0.000000 
#    y 0.000000 1.810230 0.000000 
#    z 0.000000 0.000000 1.870660 
# 
# From -- ./inp_files/4282.got.cif
#   From: 2010.05.17/outbox.cif.g08.bks.cpg/sg31_3_cif.got.tgz:4282.got - 2010.06.03 17:08:30.
