data_PCOD9343968
_publ_section_title
;
Structure prediction by ZEFSAII (Michael W. Deem and Ramdas Pophale) SiO2 
 PCOD9343968
Probable space group: P B A 2
;
_chemical_formula_sum "Si O2"
_cell_formula_units_Z 30
_cell_length_a 20.328301
_cell_length_b 8.629411
_cell_length_c 8.030066
_cell_angle_alpha 90.000000
_cell_angle_beta 90.000000
_cell_angle_gamma 90.000000
_cell_volume 1408.644330
_symmetry_space_group_name_H-M "P B A 2"
_symmetry_group_IT_number 32
_symmetry_cell_setting 'orthorhombic'
loop_
_space_group_symop_operation_xyz
x,y,z
-x,-y,z
1/2-x,1/2+y,z
1/2+x,1/2-y,z
loop_
_atom_site_type_symbol
_atom_site_label
_atom_site_fract_x
_atom_site_fract_y
_atom_site_fract_z
Si Si1 0.686592 0.634435 0.741700
Si Si2 0.000000 0.500000 0.625991
Si Si3 0.034762 0.841447 0.673955
Si Si4 0.310915 0.502906 0.104481
Si Si5 0.892721 0.435275 0.351491
Si Si6 0.248832 0.628728 0.530353
Si Si7 0.809057 0.681372 0.238895
Si Si8 0.557126 0.617154 0.275677
O O1 0.609197 0.667404 0.735479
O O2 0.710937 0.519944 0.593768
O O3 0.727898 0.786487 0.700330
O O4 0.696550 0.565715 0.922678
O O5 0.000471 0.673464 0.708245
O O6 0.062860 0.511658 0.505084
O O7 0.044141 0.868651 0.474605
O O8 0.000000 0.000000 0.737406
O O9 0.250735 0.434441 0.208903
O O10 0.307917 0.687086 0.101434
O O11 0.376463 0.457359 0.204493
O O12 0.821558 0.385815 0.431611
O O13 0.875337 0.584087 0.242267
O O14 0.928967 0.301219 0.245918
O O15 0.296165 0.730850 0.413329
O O16 0.500000 0.500000 0.213197
#
# Coordination Sequence:
#
# PCOD9343968 Si02
#       8
#     4   2   4   4   4   4   4   4
#     4  12  25  40  62 100 138 175 219 279 356 410
#     4  10  22  38  64 104 122 164 228 300 324 384
#     4  10  22  40  67  95 130 177 235 286 331 403
#     4  12  24  40  62  96 138 178 208 281 351 414
#     4  11  22  38  68 100 124 163 231 293 322 388
#     4  12  21  41  66  97 129 174 226 280 330 405
#     4  12  22  40  67  96 129 174 228 269 337 403
#     4  10  21  41  65  95 124 174 230 277 332 397
#
# _framework density 21.297072
#
# number of rings (size 3 to 8) (size 9 to 14) (size 15 to 20)
#    0.000    0.800    6.667    1.600    7.467    0.533 
#    0.000    0.000    0.000    0.800    0.000    0.000 
#    0.000    0.000    0.000    0.000    0.000    0.000 
#
# Total GULP energy -167226.891126 kJ/mol
# GULP energy per Si atom -5574.229704 kJ/mol
# Density = 2.124860 g / cm^3
# Si number density = 21.297072 Si / 1000 Ang^3
#
#
#
# Elastic Constant Matrix: (Units=GPa)
#
#
# Indices 1 2 3 4 5 6 
#
# 1 60.1772 39.0888 8.4280 0.0000 0.0000 0.0000
# 2 39.0888 134.8999 21.6218 0.0000 0.0000 0.0000
# 3 8.4280 21.6218 39.1426 0.0000 0.0000 0.0000
# 4 0.0000 0.0000 0.0000 23.4751 0.0000 0.0000
# 5 0.0000 0.0000 0.0000 0.0000 6.8262 0.0000
# 6 0.0000 0.0000 0.0000 0.0000 0.0000 42.4883
#
#
#
# Elastic Compliance Matrix: (Units=1/GPa)
#
#
# Indices 1 2 3 4 5 6 
#
# 1 0.020526 -0.005748 -0.001244 0.000000 0.000000 0.000000
# 2 -0.005748 0.009743 -0.004144 0.000000 0.000000 0.000000
# 3 -0.001244 -0.004144 0.028105 0.000000 0.000000 0.000000
# 4 0.000000 0.000000 0.000000 0.042598 0.000000 0.000000
# 5 0.000000 0.000000 0.000000 0.000000 0.146495 0.000000
# 6 0.000000 0.000000 0.000000 0.000000 0.000000 0.023536
#
#
# Mechanical properties :
#
#
# Convention : Reuss Voigt Hill
#
# Bulk Modulus (GPa) = 27.70083 41.38854 34.54469
# Shear Modulus (GPa) = 16.37686 25.56331 20.97009
#
# Velocity S-wave (km/s) = 2.77604 3.46832 3.14131
# Velocity P-wave (km/s) = 4.82808 5.95946 5.42335
#
# Compressibility (1/GPa) = 0.03610000
#
# Stress axis : x y z
#
# Youngs Moduli (GPa) = 48.71969 102.64105 35.58128
#
# Poissons Ratio (x) = 0.58999 0.04427
# Poissons Ratio (y) = 0.28004 0.14745
# Poissons Ratio (z) = 0.06062 0.42535
#
# Static dielectric constant tensor:
#      x y z
#    x 1.752570 0.000000 0.000000 
#    y 0.000000 1.905980 0.000000 
#    z 0.000000 0.000000 1.798620 
# 
# From -- ./inp_files/2563.got.cif
#   From: 2010.05.17/outbox.cif.g08.bks.cpg/sg32_2_cif.got.tgz:2563.got - 2010.06.03 17:12:27.
