data_PCOD9343678
_publ_section_title
;
Structure prediction by ZEFSAII (Michael W. Deem and Ramdas Pophale) SiO2 
 PCOD9343678
Probable space group: P B A 2
;
_chemical_formula_sum "Si O2"
_cell_formula_units_Z 32
_cell_length_a 14.355842
_cell_length_b 12.819654
_cell_length_c 8.208361
_cell_angle_alpha 90.000000
_cell_angle_beta 90.000000
_cell_angle_gamma 90.000000
_cell_volume 1510.641537
_symmetry_space_group_name_H-M "P B A 2"
_symmetry_group_IT_number 32
_symmetry_cell_setting 'orthorhombic'
loop_
_space_group_symop_operation_xyz
x,y,z
-x,-y,z
1/2-x,1/2+y,z
1/2+x,1/2-y,z
loop_
_atom_site_type_symbol
_atom_site_label
_atom_site_fract_x
_atom_site_fract_y
_atom_site_fract_z
Si Si1 0.622331 0.396087 0.763690
Si Si2 0.688811 0.206210 0.573039
Si Si3 0.395137 0.534004 0.387222
Si Si4 0.557676 0.245810 0.297045
Si Si5 0.868545 0.189309 0.436390
Si Si6 0.241481 0.916617 0.847492
Si Si7 0.449447 0.889403 0.977336
Si Si8 0.438227 0.295098 0.810900
O O1 0.666482 0.283918 0.721540
O O2 0.608975 0.440088 0.580175
O O3 0.689890 0.472710 0.859130
O O4 0.522369 0.376080 0.844537
O O5 0.600721 0.192275 0.458527
O O6 0.773308 0.250766 0.464383
O O7 0.731175 0.104886 0.658087
O O8 0.500000 0.500000 0.352027
O O9 0.387641 0.642902 0.291905
O O10 0.341304 0.425498 0.366812
O O11 0.448413 0.266210 0.323072
O O12 0.564610 0.175963 0.140836
O O13 0.917388 0.191877 0.616720
O O14 0.159855 0.831954 0.889610
O O15 0.342738 0.910942 0.925236
O O16 0.500000 0.000000 0.997973
O O17 0.516529 0.815793 0.862300
#
# Coordination Sequence:
#
# PCOD9343678 Si02
#       8
#     4   4   4   4   4   4   4   4
#     4  11  17  36  66 105 130 159 212 298 346 396
#     4  10  20  36  66 103 125 164 226 290 341 402
#     4   9  14  32  67  93 119 143 201 280 339 375
#     4  10  22  42  60  86 135 177 216 268 329 412
#     4  10  18  36  69 100 122 159 218 294 347 385
#     4  11  23  40  70 100 131 172 233 288 353 400
#     4  12  29  47  59  90 147 198 226 265 341 431
#     4  11  21  41  72 101 129 166 231 296 342 408
#
# _framework density 21.183055
#
# number of rings (size 3 to 8) (size 9 to 14) (size 15 to 20)
#    0.000    1.500    7.500    0.375    3.500    1.000 
#    2.250    6.875    0.000    0.000    0.000    0.000 
#    0.000    0.000    0.000    0.000    0.000    0.000 
#
# Total GULP energy -178169.618050 kJ/mol
# GULP energy per Si atom -5567.800564 kJ/mol
# Density = 2.113484 g / cm^3
# Si number density = 21.183055 Si / 1000 Ang^3
#
#
#
# Elastic Constant Matrix: (Units=GPa)
#
#
# Indices 1 2 3 4 5 6 
#
# 1 155.9694 54.7878 36.2887 0.0000 0.0000 0.0000
# 2 54.7878 100.0587 48.5482 0.0000 0.0000 0.0000
# 3 36.2887 48.5482 41.2339 0.0000 0.0000 0.0000
# 4 0.0000 0.0000 0.0000 25.9554 0.0000 0.0000
# 5 0.0000 0.0000 0.0000 0.0000 14.8860 0.0000
# 6 0.0000 0.0000 0.0000 0.0000 0.0000 32.8693
#
#
#
# Elastic Compliance Matrix: (Units=1/GPa)
#
#
# Indices 1 2 3 4 5 6 
#
# 1 0.008289 -0.002331 -0.004551 0.000000 0.000000 0.000000
# 2 -0.002331 0.023966 -0.026166 0.000000 0.000000 0.000000
# 3 -0.004551 -0.026166 0.059064 0.000000 0.000000 0.000000
# 4 0.000000 0.000000 0.000000 0.038528 0.000000 0.000000
# 5 0.000000 0.000000 0.000000 0.000000 0.067177 0.000000
# 6 0.000000 0.000000 0.000000 0.000000 0.000000 0.030423
#
#
# Mechanical properties :
#
#
# Convention : Reuss Voigt Hill
#
# Bulk Modulus (GPa) = 39.64421 64.05681 51.85051
# Shear Modulus (GPa) = 16.55897 25.25130 20.90514
#
# Velocity S-wave (km/s) = 2.79894 3.45636 3.14487
# Velocity P-wave (km/s) = 5.40380 6.79955 6.14145
#
# Compressibility (1/GPa) = 0.02522437
#
# Stress axis : x y z
#
# Youngs Moduli (GPa) = 120.64132 41.72580 16.93065
#
# Poissons Ratio (x) = 0.09725 0.07705
# Poissons Ratio (y) = 0.28117 0.44301
# Poissons Ratio (z) = 0.54902 1.09180
#
# Static dielectric constant tensor:
#      x y z
#    x 1.789240 0.000000 0.000000 
#    y 0.000000 1.862480 0.000000 
#    z 0.000000 0.000000 1.790320 
# 
# From -- ./inp_files/3095.got.cif
#   From: 2010.05.17/outbox.cif.g08.bks.cpg/sg32_2_cif.got.tgz:3095.got - 2010.06.03 17:12:27.
