data_PCOD9343621
_publ_section_title
;
Structure prediction by ZEFSAII (Michael W. Deem and Ramdas Pophale) SiO2 
 PCOD9343621
Probable space group: P M N 21
;
_chemical_formula_sum "Si O2"
_cell_formula_units_Z 24
_cell_length_a 9.000000
_cell_length_b 9.000000
_cell_length_c 15.000000
_cell_angle_alpha 90.000000
_cell_angle_beta 90.000000
_cell_angle_gamma 90.000000
_cell_volume 1215.000000
_symmetry_space_group_name_H-M "P M N 21"
_symmetry_group_IT_number 31
_symmetry_cell_setting 'orthorhombic'
loop_
_space_group_symop_operation_xyz
x,y,z
1/2-x,-y,1/2+z
-x,y,z
1/2+x,-y,1/2+z
loop_
_atom_site_type_symbol
_atom_site_label
_atom_site_fract_x
_atom_site_fract_y
_atom_site_fract_z
Si Si1 0.331278 0.389782 0.108990
Si Si2 0.678228 0.469756 0.902294
Si Si3 0.680507 0.910389 0.083831
Si Si4 0.175320 0.146515 0.205895
Si Si5 0.169355 0.323510 0.732740
Si Si6 0.180298 0.798504 0.895965
O O1 0.500000 0.323678 0.116885
O O2 0.207136 0.310941 0.169165
O O3 0.340839 0.546091 0.159641
O O4 0.297666 0.406903 0.003333
O O5 0.500000 0.493421 0.893794
O O6 0.737013 0.368086 0.820347
O O7 0.764304 0.626908 0.895509
O O8 0.500000 0.906456 0.075248
O O9 0.725533 0.806580 0.168238
O O10 0.743772 0.061880 0.124040
O O11 0.752908 0.867626 0.988241
O O12 0.253310 0.131640 0.303565
O O13 0.000000 0.113615 0.212670
O O14 0.000000 0.289486 0.762732
O O15 0.000000 0.807125 0.895300
#
# Coordination Sequence:
#
# PCOD9343621 Si02
#       6
#     4   4   4   4   4   4
#     4  10  21  40  63  92 127 166 210 261 317 373
#     4  11  22  38  64  96 129 166 213 265 319 376
#     4  11  24  45  68  93 130 171 212 267 325 381
#     4  12  26  43  65  96 131 171 216 261 318 385
#     4  10  21  39  64  93 126 163 209 260 316 376
#     4  12  24  41  66  94 127 169 214 262 321 385
#
# _framework density 19.753086
#
# number of rings (size 3 to 8) (size 9 to 14) (size 15 to 20)
#    0.000    1.000    3.333    4.000    0.000    4.000 
#    0.000    3.333    0.000    0.000    0.000    0.000 
#    0.000    0.000    0.000    0.000    0.000    0.000 
#
# Total GULP energy -133850.772146 kJ/mol
# GULP energy per Si atom -5577.115506 kJ/mol
# Density = 1.970813 g / cm^3
# Si number density = 19.753086 Si / 1000 Ang^3
#
#
#
# Elastic Constant Matrix: (Units=GPa)
#
#
# Indices 1 2 3 4 5 6 
#
# 1 112.7016 -10.6655 43.2084 0.0000 0.0000 0.0000
# 2 -10.6655 0.9735 -26.8264 0.0000 0.0000 0.0000
# 3 43.2084 -26.8264 133.2839 0.0000 0.0000 0.0000
# 4 0.0000 0.0000 0.0000 37.1160 0.0000 0.0000
# 5 0.0000 0.0000 0.0000 0.0000 39.6528 0.0000
# 6 0.0000 0.0000 0.0000 0.0000 0.0000 21.3136
#
#
#
# Elastic Compliance Matrix: (Units=1/GPa)
#
#
# Indices 1 2 3 4 5 6 
#
# 1 0.010043 -0.004467 -0.004155 0.000000 0.000000 0.000000
# 2 -0.004467 -0.223953 -0.043627 0.000000 0.000000 0.000000
# 3 -0.004155 -0.043627 0.000069 0.000000 0.000000 0.000000
# 4 0.000000 0.000000 0.000000 0.026943 0.000000 0.000000
# 5 0.000000 0.000000 0.000000 0.000000 0.025219 0.000000
# 6 0.000000 0.000000 0.000000 0.000000 0.000000 0.046918
#
#
# Mechanical properties :
#
#
# Convention : Reuss Voigt Hill
#
# Bulk Modulus (GPa) = -3.14129 28.71023 12.78447
# Shear Modulus (GPa) = -42.96472 35.69930 -3.63271
#
# Velocity S-wave (km/s) = -4.66884 4.25582 -1.35759
# Velocity P-wave (km/s) = 5.53696 6.22217 2.00718
#
# Compressibility (1/GPa) = -0.31834011
#
# Stress axis : x y z
#
# Youngs Moduli (GPa) = 99.56989 -4.46523 14537.93170
#
# Poissons Ratio (x) = -0.01995 60.40539
# Poissons Ratio (y) = 0.44483 634.25033
# Poissons Ratio (z) = 0.41371 -0.19481
#
# Static dielectric constant tensor:
#      x y z
#    x 1.692750 0.000000 0.000000 
#    y 0.000000 1.813640 0.000000 
#    z 0.000000 0.000000 1.647250 
# 
# From -- ./inp_files/4744.got.cif
#   From: 2010.05.17/outbox.ucp.g08.bks.cvg/sg31_3_cif.got.tgz:4744.got - 2010.06.11 10:34:26.
