data_PCOD9343125
_publ_section_title
;
Structure prediction by ZEFSAII (Michael W. Deem and Ramdas Pophale) SiO2 
 PCOD9343125
Probable space group: P M N 21
;
_chemical_formula_sum "Si O2"
_cell_formula_units_Z 32
_cell_length_a 9.259342
_cell_length_b 19.060836
_cell_length_c 7.891410
_cell_angle_alpha 90.000000
_cell_angle_beta 90.000000
_cell_angle_gamma 90.000000
_cell_volume 1392.761259
_symmetry_space_group_name_H-M "P M N 21"
_symmetry_group_IT_number 31
_symmetry_cell_setting 'orthorhombic'
loop_
_space_group_symop_operation_xyz
x,y,z
1/2-x,-y,1/2+z
-x,y,z
1/2+x,-y,1/2+z
loop_
_atom_site_type_symbol
_atom_site_label
_atom_site_fract_x
_atom_site_fract_y
_atom_site_fract_z
Si Si1 0.335238 0.479374 0.181040
Si Si2 0.162870 0.843971 0.361773
Si Si3 0.665581 0.645376 0.851905
Si Si4 0.329225 0.893920 0.847643
Si Si5 0.164728 0.600830 0.321207
Si Si6 0.170579 0.974020 0.142380
Si Si7 0.334316 0.233135 0.495953
Si Si8 0.163745 0.275768 0.990589
O O1 0.251637 0.423754 0.298462
O O2 0.254634 0.553448 0.191946
O O3 0.000000 0.512004 0.738867
O O4 0.336214 0.445509 0.994611
O O5 0.189322 0.923927 0.307262
O O6 0.274297 0.802426 0.477587
O O7 0.000000 0.837436 0.429940
O O8 0.168354 0.803043 0.180237
O O9 0.500000 0.629294 0.898349
O O10 0.745667 0.695082 0.985041
O O11 0.664116 0.691967 0.678648
O O12 0.500000 0.878260 0.856402
O O13 0.237721 0.823716 0.870848
O O14 0.302609 0.945485 0.689944
O O15 0.277352 0.941753 0.005535
O O16 0.238376 0.672710 0.378202
O O17 0.000000 0.612143 0.265860
O O18 0.000000 0.966001 0.092337
O O19 0.500000 0.246336 0.448146
O O20 0.000000 0.276746 0.927295
#
# Coordination Sequence:
#
# PCOD9343125 Si02
#       8
#     4   4   4   4   4   4   4   4
#     4  10  21  37  57  81 108 140 178 218 263 314
#     4   9  19  36  55  76 105 140 177 217 262 315
#     4  10  21  37  56  80 109 140 177 220 265 315
#     4  10  20  35  56  81 108 140 179 222 267 316
#     4  10  21  37  57  80 107 141 178 217 263 315
#     4   9  20  37  54  77 109 141 177 220 265 317
#     4  10  21  37  56  79 108 142 179 220 267 317
#     4  10  21  36  55  80 108 138 175 220 266 313
#
# _framework density 22.975940999999999
#
# number of rings (size 3 to 8) (size 9 to 14) (size 15 to 20)
#    0.000    2.250    0.000    3.000    0.000    8.500 
#    0.000    2.500    0.000    0.000    0.000    0.000 
#    0.000    0.000    0.000    0.000    0.000    0.000 
#
# Total GULP energy -179049.449976 kJ/mol
# GULP energy per Si atom -5595.295312 kJ/mol
# Density = 2.292365 g / cm^3
# Si number density = 22.975941 Si / 1000 Ang^3
#
#
#
# Elastic Constant Matrix: (Units=GPa)
#
#
# Indices 1 2 3 4 5 6 
#
# 1 125.3637 39.7787 18.2507 0.0000 0.0000 0.0000
# 2 39.7787 116.0809 4.7855 0.0000 0.0000 0.0000
# 3 18.2507 4.7855 42.0989 0.0000 0.0000 0.0000
# 4 0.0000 0.0000 0.0000 41.0228 0.0000 0.0000
# 5 0.0000 0.0000 0.0000 0.0000 19.8185 0.0000
# 6 0.0000 0.0000 0.0000 0.0000 0.0000 28.2627
#
#
#
# Elastic Compliance Matrix: (Units=1/GPa)
#
#
# Indices 1 2 3 4 5 6 
#
# 1 0.009510 -0.003104 -0.003770 0.000000 0.000000 0.000000
# 2 -0.003104 0.009668 0.000246 0.000000 0.000000 0.000000
# 3 -0.003770 0.000246 0.025360 0.000000 0.000000 0.000000
# 4 0.000000 0.000000 0.000000 0.024377 0.000000 0.000000
# 5 0.000000 0.000000 0.000000 0.000000 0.050458 0.000000
# 6 0.000000 0.000000 0.000000 0.000000 0.000000 0.035382
#
#
# Mechanical properties :
#
#
# Convention : Reuss Voigt Hill
#
# Bulk Modulus (GPa) = 31.96528 45.46371 38.71449
# Shear Modulus (GPa) = 28.02094 32.53604 30.27849
#
# Velocity S-wave (km/s) = 3.49603 3.76718 3.63414
# Velocity P-wave (km/s) = 5.49900 6.22517 5.87332
#
# Compressibility (1/GPa) = 0.03128394
#
# Stress axis : x y z
#
# Youngs Moduli (GPa) = 105.14738 103.43322 39.43212
#
# Poissons Ratio (x) = 0.32102 0.14867
# Poissons Ratio (y) = 0.32634 -0.00972
# Poissons Ratio (z) = 0.39642 -0.02550
#
# Static dielectric constant tensor:
#      x y z
#    x 1.797290 0.000000 0.000000 
#    y 0.000000 1.830400 0.000000 
#    z 0.000000 0.000000 1.911310 
# 
# From -- ./inp_files/1874.got.cif
#   From: 2010.05.17/outbox.cif.g08.bks.cpg/sg31_1_cif.got.tgz:1874.got - 2010.06.03 17:08:30.
