data_PCOD9343271
_publ_section_title
;
Structure prediction by ZEFSAII (Michael W. Deem and Ramdas Pophale) SiO2 
 PCOD9343271
Probable space group: P M N 21
;
_chemical_formula_sum "Si O2"
_cell_formula_units_Z 32
_cell_length_a 32.839958
_cell_length_b 7.702291
_cell_length_c 5.106629
_cell_angle_alpha 90.000000
_cell_angle_beta 90.000000
_cell_angle_gamma 90.000000
_cell_volume 1291.685615
_symmetry_space_group_name_H-M "P M N 21"
_symmetry_group_IT_number 31
_symmetry_cell_setting 'orthorhombic'
loop_
_space_group_symop_operation_xyz
x,y,z
1/2-x,-y,1/2+z
-x,y,z
1/2+x,-y,1/2+z
loop_
_atom_site_type_symbol
_atom_site_label
_atom_site_fract_x
_atom_site_fract_y
_atom_site_fract_z
Si Si1 0.162397 0.838605 0.458540
Si Si2 0.624252 0.306593 0.472945
Si Si3 0.872498 0.183659 0.251942
Si Si4 0.044545 0.252118 0.994142
Si Si5 0.545357 0.348425 0.712253
Si Si6 0.785726 0.316804 0.099162
Si Si7 0.765311 0.723103 0.114898
Si Si8 0.587077 0.553580 0.113061
O O1 0.141364 0.701018 0.263668
O O2 0.205053 0.845570 0.294902
O O3 0.137416 0.014250 0.420845
O O4 0.154673 0.783631 0.761794
O O5 0.577500 0.247216 0.531111
O O6 0.615548 0.493517 0.351404
O O7 0.914255 0.158566 0.088050
O O8 0.829344 0.229466 0.126694
O O9 0.883263 0.348293 0.423872
O O10 0.043263 0.448970 0.115527
O O11 0.000000 0.172805 0.034479
O O12 0.053335 0.304820 0.694073
O O13 0.500000 0.277943 0.716278
O O14 0.564577 0.384906 0.997197
O O15 0.783931 0.527123 0.124857
O O16 0.773527 0.280886 0.801669
O O17 0.752474 0.249990 0.319804
#
# Coordination Sequence:
#
# PCOD9343271 Si02
#       8
#     4   4   4   4   4   4   4   4
#     4  12  26  43  66  97 143 181 222 272 353 397
#     4  11  23  42  64  95 130 177 223 277 331 407
#     4  11  26  40  68 100 138 183 229 279 333 420
#     4   9  20  38  64  99 136 177 228 286 339 397
#     4   9  18  37  65  99 126 166 229 292 341 390
#     4  10  23  42  68 100 130 173 230 269 341 396
#     4  10  23  43  67  98 135 174 217 286 331 410
#     4  10  20  39  70  98 124 177 226 289 331 405
#
# _framework density 24.773827000000001
#
# number of rings (size 3 to 8) (size 9 to 14) (size 15 to 20)
#    0.000    1.750    1.250    1.875    7.000    3.000 
#    0.000    1.250    0.000    0.000    0.000    0.000 
#    0.000    0.000    0.000    0.000    0.000    0.000 
#
# Total GULP energy -178215.347517 kJ/mol
# GULP energy per Si atom -5569.229610 kJ/mol
# Density = 2.471744 g / cm^3
# Si number density = 24.773827 Si / 1000 Ang^3
#
#
#
# Elastic Constant Matrix: (Units=GPa)
#
#
# Indices 1 2 3 4 5 6 
#
# 1 90.0287 16.0765 -25.0041 0.0000 0.0000 0.0000
# 2 16.0765 52.1625 3.4480 0.0000 0.0000 0.0000
# 3 -25.0041 3.4480 67.8378 0.0000 0.0000 0.0000
# 4 0.0000 0.0000 0.0000 8.3278 0.0000 0.0000
# 5 0.0000 0.0000 0.0000 0.0000 19.3912 0.0000
# 6 0.0000 0.0000 0.0000 0.0000 0.0000 6.6447
#
#
#
# Elastic Compliance Matrix: (Units=1/GPa)
#
#
# Indices 1 2 3 4 5 6 
#
# 1 0.013329 -0.004448 0.005139 0.000000 0.000000 0.000000
# 2 -0.004448 0.020720 -0.002692 0.000000 0.000000 0.000000
# 3 0.005139 -0.002692 0.016772 0.000000 0.000000 0.000000
# 4 0.000000 0.000000 0.000000 0.120079 0.000000 0.000000
# 5 0.000000 0.000000 0.000000 0.000000 0.051570 0.000000
# 6 0.000000 0.000000 0.000000 0.000000 0.000000 0.150495
#
#
# Mechanical properties :
#
#
# Convention : Reuss Voigt Hill
#
# Bulk Modulus (GPa) = 21.35920 22.11890 21.73905
# Shear Modulus (GPa) = 12.73646 21.23999 16.98823
#
# Velocity S-wave (km/s) = 2.26986 2.93124 2.62149
# Velocity P-wave (km/s) = 3.93828 4.51707 4.23757
#
# Compressibility (1/GPa) = 0.04681823
#
# Stress axis : x y z
#
# Youngs Moduli (GPa) = 75.02399 48.26345 59.62305
#
# Poissons Ratio (x) = 0.21466 -0.30640
# Poissons Ratio (y) = 0.33369 0.16053
# Poissons Ratio (z) = -0.38555 0.12995
#
# Static dielectric constant tensor:
#      x y z
#    x 2.070110 0.000000 0.000000 
#    y 0.000000 2.014480 0.000000 
#    z 0.000000 0.000000 2.119270 
# 
# From -- ./inp_files/1376.got.cif
#   From: 2010.05.17/outbox.cif.g08.bks.cpg/sg31_1_cif.got.tgz:1376.got - 2010.06.03 17:08:30.
