data_PCOD9343862
_publ_section_title
;
Structure prediction by ZEFSAII (Michael W. Deem and Ramdas Pophale) SiO2 
 PCOD9343862
Probable space group: P B A 2
;
_chemical_formula_sum "Si O2"
_cell_formula_units_Z 24
_cell_length_a 5.877764
_cell_length_b 17.377602
_cell_length_c 9.126821
_cell_angle_alpha 90.000000
_cell_angle_beta 90.000000
_cell_angle_gamma 90.000000
_cell_volume 932.226671
_symmetry_space_group_name_H-M "P B A 2"
_symmetry_group_IT_number 32
_symmetry_cell_setting 'orthorhombic'
loop_
_space_group_symop_operation_xyz
x,y,z
-x,-y,z
1/2-x,1/2+y,z
1/2+x,1/2-y,z
loop_
_atom_site_type_symbol
_atom_site_label
_atom_site_fract_x
_atom_site_fract_y
_atom_site_fract_z
Si Si1 0.594055 0.283643 0.570680
Si Si2 0.127338 0.303446 0.996292
Si Si3 0.517125 0.362651 0.836511
Si Si4 0.250620 0.576418 0.089336
Si Si5 0.905198 0.179727 0.273235
Si Si6 0.755866 0.528226 0.360658
O O1 0.349972 0.243691 0.609579
O O2 0.570769 0.360989 0.666255
O O3 0.570159 0.284464 0.395335
O O4 0.275070 0.279241 0.139991
O O5 0.955254 0.364793 0.066566
O O6 0.255676 0.358465 0.879870
O O7 0.085567 0.223590 0.905691
O O8 0.647584 0.427501 0.926532
O O9 0.436190 0.622497 0.182232
O O10 0.226813 0.502154 0.191044
O O11 0.743921 0.120762 0.362985
O O12 0.500000 0.500000 0.411366
O O13 0.000000 0.500000 0.426727
#
# Coordination Sequence:
#
# PCOD9343862 Si02
#       6
#     4   4   4   4   4   4
#     4  12  27  42  61  95 139 176 209 260 333 405
#     4  11  19  35  60  90 125 165 208 264 321 387
#     4  11  22  37  59  93 134 171 206 263 328 399
#     4  10  21  37  65  91 122 167 219 267 322 375
#     4  10  25  36  62  94 127 165 219 267 323 378
#     4  10  20  40  61  93 121 161 211 275 315 366
#
# _framework density 25.744813000000001
#
# number of rings (size 3 to 8) (size 9 to 14) (size 15 to 20)
#    0.000    1.333    5.000    0.000    7.000    0.000 
#    0.000    0.000    0.000   15.000    0.000    0.000 
#    0.000    0.000    0.000    0.000    0.000    0.000 
#
# Total GULP energy -133603.916785 kJ/mol
# GULP energy per Si atom -5566.829866 kJ/mol
# Density = 2.568622 g / cm^3
# Si number density = 25.744813 Si / 1000 Ang^3
#
#
#
# Elastic Constant Matrix: (Units=GPa)
#
#
# Indices 1 2 3 4 5 6 
#
# 1 106.4588 12.4612 5.3313 0.0000 0.0000 0.0000
# 2 12.4612 74.3740 -5.8439 0.0000 0.0000 0.0000
# 3 5.3313 -5.8439 97.8447 0.0000 0.0000 0.0000
# 4 0.0000 0.0000 0.0000 24.9827 0.0000 0.0000
# 5 0.0000 0.0000 0.0000 0.0000 19.3611 0.0000
# 6 0.0000 0.0000 0.0000 0.0000 0.0000 33.1359
#
#
#
# Elastic Compliance Matrix: (Units=1/GPa)
#
#
# Indices 1 2 3 4 5 6 
#
# 1 0.009619 -0.001661 -0.000623 0.000000 0.000000 0.000000
# 2 -0.001661 0.013796 0.000914 0.000000 0.000000 0.000000
# 3 -0.000623 0.000914 0.010309 0.000000 0.000000 0.000000
# 4 0.000000 0.000000 0.000000 0.040028 0.000000 0.000000
# 5 0.000000 0.000000 0.000000 0.000000 0.051650 0.000000
# 6 0.000000 0.000000 0.000000 0.000000 0.000000 0.030179
#
#
# Mechanical properties :
#
#
# Convention : Reuss Voigt Hill
#
# Bulk Modulus (GPa) = 32.27420 33.61940 32.94680
# Shear Modulus (GPa) = 29.64776 33.27787 31.46281
#
# Velocity S-wave (km/s) = 3.39721 3.59918 3.49965
# Velocity P-wave (km/s) = 5.28691 5.50992 5.39957
#
# Compressibility (1/GPa) = 0.03098451
#
# Stress axis : x y z
#
# Youngs Moduli (GPa) = 103.96204 72.48669 97.00395
#
# Poissons Ratio (x) = 0.12037 0.06046
# Poissons Ratio (y) = 0.17264 -0.08870
# Poissons Ratio (z) = 0.06480 -0.06628
#
# Static dielectric constant tensor:
#      x y z
#    x 2.374390 0.000000 0.000000 
#    y 0.000000 2.071110 0.000000 
#    z 0.000000 0.000000 2.034580 
# 
# From -- ./inp_files/1972.got.cif
#   From: 2010.05.17/outbox.cif.g08.bks.cpg/sg32_1_cif.got.tgz:1972.got - 2010.06.03 17:12:27.
