data_PCOD9343391
_publ_section_title
;
Structure prediction by ZEFSAII (Michael W. Deem and Ramdas Pophale) SiO2 
 PCOD9343391
Probable space group: P M N 21
;
_chemical_formula_sum "Si O2"
_cell_formula_units_Z 24
_cell_length_a 11.502470
_cell_length_b 11.181003
_cell_length_c 8.706005
_cell_angle_alpha 90.000000
_cell_angle_beta 90.000000
_cell_angle_gamma 90.000000
_cell_volume 1119.671917
_symmetry_space_group_name_H-M "P M N 21"
_symmetry_group_IT_number 31
_symmetry_cell_setting 'orthorhombic'
loop_
_space_group_symop_operation_xyz
x,y,z
1/2-x,-y,1/2+z
-x,y,z
1/2+x,-y,1/2+z
loop_
_atom_site_type_symbol
_atom_site_label
_atom_site_fract_x
_atom_site_fract_y
_atom_site_fract_z
Si Si1 0.632485 0.328032 0.178200
Si Si2 0.294874 0.118381 0.971330
Si Si3 0.366779 0.712865 0.266685
Si Si4 0.677899 0.285307 0.529003
Si Si5 0.623322 0.031179 0.669536
Si Si6 0.629311 0.555202 0.555030
O O1 0.500000 0.381751 0.176758
O O2 0.658991 0.277543 0.347694
O O3 0.750728 0.400601 0.133806
O O4 0.632592 0.219856 0.056485
O O5 0.200492 0.187467 0.865846
O O6 0.364526 0.037783 0.852228
O O7 0.228219 0.040003 0.095406
O O8 0.500000 0.743894 0.249965
O O9 0.306555 0.703974 0.101378
O O10 0.358229 0.595041 0.375830
O O11 0.626965 0.167343 0.607802
O O12 0.624627 0.413148 0.573488
O O13 0.500000 0.975924 0.624509
O O14 0.500000 0.603342 0.603810
#
# Coordination Sequence:
#
# PCOD9343391 Si02
#       6
#     4   4   4   4   4   4
#     4  11  23  41  64  90 123 160 201 250 303 359
#     4  10  22  40  61  89 116 153 202 248 302 358
#     4   9  20  39  60  84 119 160 204 254 302 353
#     4  11  22  36  59  90 122 161 202 244 299 358
#     4  11  22  39  62  86 119 157 198 248 299 356
#     4  10  21  39  62  89 123 161 203 250 299 354
#
# _framework density 21.434851999999999
#
# number of rings (size 3 to 8) (size 9 to 14) (size 15 to 20)
#    0.000    1.667    0.000    4.500    0.000    3.333 
#    0.000   17.500    0.000    0.000    0.000    0.000 
#    0.000    0.000    0.000    0.000    0.000    0.000 
#
# Total GULP energy -133856.732350 kJ/mol
# GULP energy per Si atom -5577.363848 kJ/mol
# Density = 2.138607 g / cm^3
# Si number density = 21.434852 Si / 1000 Ang^3
#
#
#
# Elastic Constant Matrix: (Units=GPa)
#
#
# Indices 1 2 3 4 5 6 
#
# 1 172.5155 17.6601 51.4711 0.0000 0.0000 0.0000
# 2 17.6601 44.8303 -7.7503 0.0000 0.0000 0.0000
# 3 51.4711 -7.7503 81.8635 0.0000 0.0000 0.0000
# 4 0.0000 0.0000 0.0000 28.1978 0.0000 0.0000
# 5 0.0000 0.0000 0.0000 0.0000 13.8856 0.0000
# 6 0.0000 0.0000 0.0000 0.0000 0.0000 -4.4570
#
#
#
# Elastic Compliance Matrix: (Units=1/GPa)
#
#
# Indices 1 2 3 4 5 6 
#
# 1 0.007774 -0.003972 -0.005264 0.000000 0.000000 0.000000
# 2 -0.003972 0.024707 0.004837 0.000000 0.000000 0.000000
# 3 -0.005264 0.004837 0.015983 0.000000 0.000000 0.000000
# 4 0.000000 0.000000 0.000000 0.035464 0.000000 0.000000
# 5 0.000000 0.000000 0.000000 0.000000 0.072017 0.000000
# 6 0.000000 0.000000 0.000000 0.000000 0.000000 -0.224367
#
#
# Mechanical properties :
#
#
# Convention : Reuss Voigt Hill
#
# Bulk Modulus (GPa) = 25.21100 46.88568 36.04834
# Shear Modulus (GPa) = -107.75411 23.38051 -42.18680
#
# Velocity S-wave (km/s) = -7.09786 3.30627 -4.44119
# Velocity P-wave (km/s) = 7.44215 6.04121 3.07322
#
# Compressibility (1/GPa) = 0.03966522
#
# Stress axis : x y z
#
# Youngs Moduli (GPa) = 128.63928 40.47379 62.56698
#
# Poissons Ratio (x) = 0.16077 0.32933
# Poissons Ratio (y) = 0.51099 -0.30262
# Poissons Ratio (z) = 0.67712 -0.19576
#
# Static dielectric constant tensor:
#      x y z
#    x 1.806770 0.000000 0.000000 
#    y 0.000000 1.800140 0.000000 
#    z 0.000000 0.000000 1.760580 
# 
# From -- ./inp_files/2082.got.cif
#   From: 2010.05.17/outbox.cif.g08.bks.cpg/sg31_2_cif.got.tgz:2082.got - 2010.06.03 17:08:30.
