data_PCOD9343018
_publ_section_title
;
Structure prediction by ZEFSAII (Michael W. Deem and Ramdas Pophale) SiO2 
 PCOD9343018
Probable space group: P M N 21
;
_chemical_formula_sum "Si O2"
_cell_formula_units_Z 26
_cell_length_a 7.335427
_cell_length_b 17.226521
_cell_length_c 8.131140
_cell_angle_alpha 90.000000
_cell_angle_beta 90.000000
_cell_angle_gamma 90.000000
_cell_volume 1027.482458
_symmetry_space_group_name_H-M "P M N 21"
_symmetry_group_IT_number 31
_symmetry_cell_setting 'orthorhombic'
loop_
_space_group_symop_operation_xyz
x,y,z
1/2-x,-y,1/2+z
-x,y,z
1/2+x,-y,1/2+z
loop_
_atom_site_type_symbol
_atom_site_label
_atom_site_fract_x
_atom_site_fract_y
_atom_site_fract_z
Si Si1 0.202233 0.474981 0.326820
Si Si2 0.286478 0.095839 0.709838
Si Si3 0.780067 0.925958 0.573721
Si Si4 0.780506 0.740902 0.067433
Si Si5 0.277918 0.237514 0.197833
Si Si6 0.290080 0.380794 0.007521
Si Si7 0.000000 0.379667 0.605097
O O1 0.295662 0.423995 0.187247
O O2 0.295148 0.555446 0.383558
O O3 0.156792 0.429427 0.495874
O O4 0.000000 0.491479 0.256081
O O5 0.500000 0.110530 0.732037
O O6 0.208725 0.089241 0.891438
O O7 0.224856 0.171112 0.612282
O O8 0.269517 0.012234 0.626983
O O9 0.720419 0.851779 0.679580
O O10 0.000000 0.924865 0.575987
O O11 0.725296 0.731187 0.876151
O O12 0.661386 0.680524 0.167070
O O13 0.000000 0.731506 0.082803
O O14 0.500000 0.238327 0.192156
O O15 0.214370 0.296431 0.055814
O O16 0.500000 0.370491 0.954367
#
# Coordination Sequence:
#
# PCOD9343018 Si02
#       7
#     4   4   4   4   4   4   2
#     4   9  20  36  55  84 117 149 202 245 298 362
#     4  10  22  39  58  87 119 153 197 239 302 362
#     4  10  21  38  59  84 118 155 197 246 292 359
#     4  10  20  37  63  87 118 161 199 249 305 360
#     4   9  17  34  58  81 110 156 200 237 299 356
#     4  10  19  37  58  80 115 158 195 249 308 357
#     4  10  20  38  60  92 120 152 206 256 292 376
#
# _framework density 25.304568
#
# number of rings (size 3 to 8) (size 9 to 14) (size 15 to 20)
#    0.462    1.846    1.538    0.923    1.077    2.462 
#    4.154    0.000    0.000    0.000    0.000    0.000 
#    0.000    0.000    0.000    0.000    0.000    0.000 
#
# Total GULP energy -144754.184372 kJ/mol
# GULP energy per Si atom -5567.468630 kJ/mol
# Density = 2.524697 g / cm^3
# Si number density = 25.304568 Si / 1000 Ang^3
#
#
#
# Elastic Constant Matrix: (Units=GPa)
#
#
# Indices 1 2 3 4 5 6 
#
# 1 106.6981 -6.1300 -18.8401 0.0000 0.0000 0.0000
# 2 -6.1300 148.8826 16.2468 0.0000 0.0000 0.0000
# 3 -18.8401 16.2468 49.7106 0.0000 0.0000 0.0000
# 4 0.0000 0.0000 0.0000 56.4218 0.0000 0.0000
# 5 0.0000 0.0000 0.0000 0.0000 -5.2098 0.0000
# 6 0.0000 0.0000 0.0000 0.0000 0.0000 -11.1617
#
#
#
# Elastic Compliance Matrix: (Units=1/GPa)
#
#
# Indices 1 2 3 4 5 6 
#
# 1 0.010044 -0.000002 0.003807 0.000000 0.000000 0.000000
# 2 -0.000002 0.006965 -0.002277 0.000000 0.000000 0.000000
# 3 0.003807 -0.002277 0.022304 0.000000 0.000000 0.000000
# 4 0.000000 0.000000 0.000000 0.017724 0.000000 0.000000
# 5 0.000000 0.000000 0.000000 0.000000 -0.191947 0.000000
# 6 0.000000 0.000000 0.000000 0.000000 0.000000 -0.089592
#
#
# Mechanical properties :
#
#
# Convention : Reuss Voigt Hill
#
# Bulk Modulus (GPa) = 23.60166 31.98276 27.79221
# Shear Modulus (GPa) = -23.42626 28.94438 2.75906
#
# Velocity S-wave (km/s) = -3.04595 3.38574 1.04533
# Velocity P-wave (km/s) = 1.73872 5.28686 3.53042
#
# Compressibility (1/GPa) = 0.04236990
#
# Stress axis : x y z
#
# Youngs Moduli (GPa) = 99.55783 143.57267 44.83574
#
# Poissons Ratio (x) = 0.00028 -0.17071
# Poissons Ratio (y) = 0.00019 0.10210
# Poissons Ratio (z) = -0.37906 0.32693
#
# Static dielectric constant tensor:
#      x y z
#    x 1.979400 0.000000 0.000000 
#    y 0.000000 2.046100 0.000000 
#    z 0.000000 0.000000 2.096000 
# 
# From -- ./inp_files/1805.got.cif
#   From: 2010.05.17/outbox.cif.g08.bks.cpg/sg31_1_cif.got.tgz:1805.got - 2010.06.03 17:08:30.
