data_PCOD9343457
_publ_section_title
;
Structure prediction by ZEFSAII (Michael W. Deem and Ramdas Pophale) SiO2 
 PCOD9343457
Probable space group: P M N 21
;
_chemical_formula_sum "Si O2"
_cell_formula_units_Z 32
_cell_length_a 11.040048
_cell_length_b 11.266923
_cell_length_c 13.156500
_cell_angle_alpha 90.000000
_cell_angle_beta 90.000000
_cell_angle_gamma 90.000000
_cell_volume 1636.502443
_symmetry_space_group_name_H-M "P M N 21"
_symmetry_group_IT_number 31
_symmetry_cell_setting 'orthorhombic'
loop_
_space_group_symop_operation_xyz
x,y,z
1/2-x,-y,1/2+z
-x,y,z
1/2+x,-y,1/2+z
loop_
_atom_site_type_symbol
_atom_site_label
_atom_site_fract_x
_atom_site_fract_y
_atom_site_fract_z
Si Si1 0.640161 0.423372 0.510960
Si Si2 0.280413 0.677010 0.204848
Si Si3 0.643735 0.218521 0.893687
Si Si4 0.638974 0.913004 0.115606
Si Si5 0.780413 0.322989 0.082527
Si Si6 0.859839 0.576629 0.776415
Si Si7 0.856130 0.052132 0.393687
Si Si8 0.861026 0.086996 0.171769
O O1 0.500000 0.386089 0.516398
O O2 0.715863 0.358834 0.599106
O O3 0.649684 0.562828 0.539968
O O4 0.681821 0.406963 0.393687
O O5 0.187500 0.715058 0.292848
O O6 0.356853 0.794438 0.181504
O O7 0.350317 0.562828 0.247407
O O8 0.500000 0.214132 0.893687
O O9 0.693563 0.082724 0.893687
O O10 0.687499 0.284941 0.994527
O O11 0.500000 0.963032 0.120552
O O12 0.750000 0.000000 0.143688
O O13 0.669705 0.883054 0.998307
O O14 0.715863 0.358833 0.188269
O O15 0.856853 0.205562 0.105871
O O16 0.000000 0.613911 0.770977
O O17 0.830296 0.116947 0.289068
O O18 0.000000 0.037761 0.393688
O O19 0.000000 0.036968 0.166823
#
# Coordination Sequence:
#
# PCOD9343457 Si02
#       8
#     4   4   4   4   4   4   4   4
#     4  10  22  40  60  85 120 157 201 261 313 353
#     4  11  22  38  62  88 119 159 209 247 305 365
#     4  11  20  36  61  88 121 165 204 245 299 374
#     4  11  23  40  64  92 125 160 205 252 308 368
#     4  11  22  38  62  88 119 159 209 247 305 365
#     4  10  22  40  60  85 120 157 201 261 313 353
#     4   9  20  38  57  84 123 163 194 243 305 366
#     4  11  23  40  64  92 125 160 205 252 308 368
#
# _framework density 19.553899000000001
#
# number of rings (size 3 to 8) (size 9 to 14) (size 15 to 20)
#    0.000    1.500    3.750    1.500    1.750    1.000 
#    0.000    1.875    0.000    0.000    0.000    0.000 
#    0.000    0.000    0.000    0.000    0.000    0.000 
#
# Total GULP energy -178344.420772 kJ/mol
# GULP energy per Si atom -5573.263149 kJ/mol
# Density = 1.950939 g / cm^3
# Si number density = 19.553899 Si / 1000 Ang^3
#
#
#
# Elastic Constant Matrix: (Units=GPa)
#
#
# Indices 1 2 3 4 5 6 
#
# 1 79.9007 16.9762 38.2576 0.0000 0.0000 0.0000
# 2 16.9762 58.2072 15.4759 0.0000 0.0000 0.0000
# 3 38.2576 15.4759 149.2861 0.0000 0.0000 0.0000
# 4 0.0000 0.0000 0.0000 34.5401 0.0000 0.0000
# 5 0.0000 0.0000 0.0000 0.0000 17.8750 0.0000
# 6 0.0000 0.0000 0.0000 0.0000 0.0000 15.9242
#
#
#
# Elastic Compliance Matrix: (Units=1/GPa)
#
#
# Indices 1 2 3 4 5 6 
#
# 1 0.014902 -0.003425 -0.003464 0.000000 0.000000 0.000000
# 2 -0.003425 0.018454 -0.001035 0.000000 0.000000 0.000000
# 3 -0.003464 -0.001035 0.007694 0.000000 0.000000 0.000000
# 4 0.000000 0.000000 0.000000 0.028952 0.000000 0.000000
# 5 0.000000 0.000000 0.000000 0.000000 0.055944 0.000000
# 6 0.000000 0.000000 0.000000 0.000000 0.000000 0.062797
#
#
# Mechanical properties :
#
#
# Convention : Reuss Voigt Hill
#
# Bulk Modulus (GPa) = 39.68101 47.64593 43.66347
# Shear Modulus (GPa) = 23.47507 28.11347 25.79427
#
# Velocity S-wave (km/s) = 3.46863 3.79587 3.63593
# Velocity P-wave (km/s) = 6.03150 6.60537 6.32495
#
# Compressibility (1/GPa) = 0.02520097
#
# Stress axis : x y z
#
# Youngs Moduli (GPa) = 67.10602 54.18816 129.97908
#
# Poissons Ratio (x) = 0.18560 0.45022
# Poissons Ratio (y) = 0.22985 0.13457
# Poissons Ratio (z) = 0.23244 0.05610
#
# Static dielectric constant tensor:
#      x y z
#    x 1.676240 0.000000 0.000000 
#    y 0.000000 1.706010 0.000000 
#    z 0.000000 0.000000 1.709970 
# 
# From -- ./inp_files/4080.got.cif
#   From: 2010.05.17/outbox.cif.g08.bks.cpg/sg31_3_cif.got.tgz:4080.got - 2010.06.03 17:08:30.
