data_PCOD9343837
_publ_section_title
;
Structure prediction by ZEFSAII (Michael W. Deem and Ramdas Pophale) SiO2 
 PCOD9343837
Probable space group: P B A 2
;
_chemical_formula_sum "Si O2"
_cell_formula_units_Z 30
_cell_length_a 17.151351
_cell_length_b 7.905987
_cell_length_c 10.067382
_cell_angle_alpha 90.000000
_cell_angle_beta 90.000000
_cell_angle_gamma 90.000000
_cell_volume 1365.120469
_symmetry_space_group_name_H-M "P B A 2"
_symmetry_group_IT_number 32
_symmetry_cell_setting 'orthorhombic'
loop_
_space_group_symop_operation_xyz
x,y,z
-x,-y,z
1/2-x,1/2+y,z
1/2+x,1/2-y,z
loop_
_atom_site_type_symbol
_atom_site_label
_atom_site_fract_x
_atom_site_fract_y
_atom_site_fract_z
Si Si1 0.366012 0.990657 0.000000
Si Si2 0.663200 0.406885 0.786206
Si Si3 0.086051 0.432357 0.706789
Si Si4 0.787952 0.199733 0.946072
Si Si5 0.442247 0.855862 0.240301
Si Si6 0.847811 0.028676 0.503661
Si Si7 0.000000 0.000000 0.349553
Si Si8 0.318107 0.863821 0.451141
O O1 0.429655 0.895953 0.085905
O O2 0.390366 0.016549 0.846399
O O3 0.289074 0.876781 0.011124
O O4 0.337248 0.176600 0.038440
O O5 0.598339 0.265827 0.750809
O O6 0.743169 0.303185 0.823942
O O7 0.658930 0.540851 0.904949
O O8 0.663049 0.532905 0.661226
O O9 0.143873 0.457321 0.580553
O O10 0.000000 0.500000 0.671979
O O11 0.468513 0.663560 0.269047
O O12 0.362390 0.901698 0.315935
O O13 0.500000 0.000000 0.293372
O O14 0.931056 0.072945 0.443355
O O15 0.837380 0.830610 0.476377
O O16 0.773857 0.118794 0.441247
#
# Coordination Sequence:
#
# PCOD9343837 Si02
#       8
#     4   4   4   4   4   4   2   4
#     4  10  21  39  66  90 134 169 223 271 343 414
#     4   9  17  34  60  94 137 167 219 281 350 403
#     4  10  20  38  61  94 135 175 223 282 337 409
#     4   9  18  37  61  98 128 168 220 295 332 404
#     4  11  25  47  65  94 134 180 220 280 345 403
#     4  10  20  39  63  98 130 175 223 280 345 414
#     4  10  26  46  64  96 146 172 232 288 342 418
#     4  10  22  38  67  96 126 173 231 275 338 411
#
# _framework density 21.976082000000002
#
# number of rings (size 3 to 8) (size 9 to 14) (size 15 to 20)
#    0.000    2.133    0.000    4.000    1.867    2.133 
#   14.400    0.000    0.000    0.000    0.000    0.000 
#    0.000    0.000    0.000    0.000    0.000    0.000 
#
# Total GULP energy -167057.770836 kJ/mol
# GULP energy per Si atom -5568.592361 kJ/mol
# Density = 2.192606 g / cm^3
# Si number density = 21.976082 Si / 1000 Ang^3
#
#
#
# Elastic Constant Matrix: (Units=GPa)
#
#
# Indices 1 2 3 4 5 6 
#
# 1 98.4844 30.5328 21.7850 0.0000 0.0000 0.0000
# 2 30.5328 73.4187 18.5294 0.0000 0.0000 0.0000
# 3 21.7850 18.5294 49.7834 0.0000 0.0000 0.0000
# 4 0.0000 0.0000 0.0000 9.5954 0.0000 0.0000
# 5 0.0000 0.0000 0.0000 0.0000 5.6183 0.0000
# 6 0.0000 0.0000 0.0000 0.0000 0.0000 25.7995
#
#
#
# Elastic Compliance Matrix: (Units=1/GPa)
#
#
# Indices 1 2 3 4 5 6 
#
# 1 0.012286 -0.004142 -0.003835 0.000000 0.000000 0.000000
# 2 -0.004142 0.016429 -0.004302 0.000000 0.000000 0.000000
# 3 -0.003835 -0.004302 0.023366 0.000000 0.000000 0.000000
# 4 0.000000 0.000000 0.000000 0.104217 0.000000 0.000000
# 5 0.000000 0.000000 0.000000 0.000000 0.177989 0.000000
# 6 0.000000 0.000000 0.000000 0.000000 0.000000 0.038760
#
#
# Mechanical properties :
#
#
# Convention : Reuss Voigt Hill
#
# Bulk Modulus (GPa) = 36.33249 40.37567 38.35408
# Shear Modulus (GPa) = 12.29166 18.25860 15.27513
#
# Velocity S-wave (km/s) = 2.36756 2.88556 2.63930
# Velocity P-wave (km/s) = 4.90331 5.43271 5.17478
#
# Compressibility (1/GPa) = 0.02752358
#
# Stress axis : x y z
#
# Youngs Moduli (GPa) = 81.39211 60.86895 42.79636
#
# Poissons Ratio (x) = 0.25210 0.16412
# Poissons Ratio (y) = 0.33710 0.18413
# Poissons Ratio (z) = 0.31213 0.26188
#
# Static dielectric constant tensor:
#      x y z
#    x 1.987510 0.000000 0.000000 
#    y 0.000000 1.824720 0.000000 
#    z 0.000000 0.000000 1.892330 
# 
# From -- ./inp_files/3927.got.cif
#   From: 2010.05.17/outbox.cif.g08.bks.cpg/sg32_2_cif.got.tgz:3927.got - 2010.06.03 17:12:27.
