data_PCOD9343110
_publ_section_title
;
Structure prediction by ZEFSAII (Michael W. Deem and Ramdas Pophale) SiO2 
 PCOD9343110
Probable space group: P M N 21
;
_chemical_formula_sum "Si O2"
_cell_formula_units_Z 32
_cell_length_a 7.864737
_cell_length_b 11.141395
_cell_length_c 14.380847
_cell_angle_alpha 90.000000
_cell_angle_beta 90.000000
_cell_angle_gamma 90.000000
_cell_volume 1260.109372
_symmetry_space_group_name_H-M "P M N 21"
_symmetry_group_IT_number 31
_symmetry_cell_setting 'orthorhombic'
loop_
_space_group_symop_operation_xyz
x,y,z
1/2-x,-y,1/2+z
-x,y,z
1/2+x,-y,1/2+z
loop_
_atom_site_type_symbol
_atom_site_label
_atom_site_fract_x
_atom_site_fract_y
_atom_site_fract_z
Si Si1 0.200347 0.071367 0.136710
Si Si2 0.297271 0.841765 0.254952
Si Si3 0.194904 0.939422 0.965453
Si Si4 0.303504 0.693735 0.423009
Si Si5 0.799480 0.556917 0.600588
Si Si6 0.802225 0.462168 0.312814
Si Si7 0.700933 0.791870 0.801079
Si Si8 0.201159 0.293758 0.571619
O O1 0.214818 0.953348 0.201868
O O2 0.000000 0.095375 0.122808
O O3 0.277083 0.175146 0.200784
O O4 0.273260 0.035535 0.036731
O O5 0.500000 0.866208 0.260989
O O6 0.232483 0.798801 0.355583
O O7 0.278886 0.732120 0.181712
O O8 0.277529 0.904003 0.869057
O O9 0.000000 0.971266 0.947300
O O10 0.202786 0.813505 0.021339
O O11 0.500000 0.722693 0.437993
O O12 0.231986 0.659802 0.524150
O O13 0.289943 0.574244 0.358861
O O14 0.709638 0.553605 0.700818
O O15 0.748913 0.429968 0.552793
O O16 0.000000 0.549912 0.620086
O O17 0.733115 0.331688 0.343946
O O18 0.000000 0.477001 0.340129
O O19 0.500000 0.772913 0.789222
O O20 0.000000 0.278776 0.548242
#
# Coordination Sequence:
#
# PCOD9343110 Si02
#       8
#     4   4   4   4   4   4   4   4
#     4   9  20  39  60  83 113 147 190 241 289 340
#     4   9  18  35  57  80 108 143 184 233 287 338
#     4  10  20  34  58  90 113 143 194 246 287 335
#     4  11  22  38  58  86 121 156 193 239 293 353
#     4  11  22  37  56  84 120 157 195 238 290 352
#     4  11  23  39  60  86 118 161 200 239 294 352
#     4  10  22  41  60  81 117 158 192 235 293 350
#     4   9  17  33  55  78 110 149 186 229 283 338
#
# _framework density 25.394618999999999
#
# number of rings (size 3 to 8) (size 9 to 14) (size 15 to 20)
#    0.000    2.000    1.250    2.250    0.000    7.000 
#    2.250    0.000    0.000    0.000    0.000    0.000 
#    0.000    0.000    0.000    0.000    0.000    0.000 
#
# Total GULP energy -178896.049125 kJ/mol
# GULP energy per Si atom -5590.501535 kJ/mol
# Density = 2.533682 g / cm^3
# Si number density = 25.394619 Si / 1000 Ang^3
#
#
#
# Elastic Constant Matrix: (Units=GPa)
#
#
# Indices 1 2 3 4 5 6 
#
# 1 37.9290 1.4479 1.2246 0.0000 0.0000 0.0000
# 2 1.4479 68.7908 33.4264 0.0000 0.0000 0.0000
# 3 1.2246 33.4264 143.0282 0.0000 0.0000 0.0000
# 4 0.0000 0.0000 0.0000 59.9080 0.0000 0.0000
# 5 0.0000 0.0000 0.0000 0.0000 35.2316 0.0000
# 6 0.0000 0.0000 0.0000 0.0000 0.0000 17.1662
#
#
#
# Elastic Compliance Matrix: (Units=1/GPa)
#
#
# Indices 1 2 3 4 5 6 
#
# 1 0.026388 -0.000503 -0.000108 0.000000 0.000000 0.000000
# 2 -0.000503 0.016409 -0.003830 0.000000 0.000000 0.000000
# 3 -0.000108 -0.003830 0.007888 0.000000 0.000000 0.000000
# 4 0.000000 0.000000 0.000000 0.016692 0.000000 0.000000
# 5 0.000000 0.000000 0.000000 0.000000 0.028384 0.000000
# 6 0.000000 0.000000 0.000000 0.000000 0.000000 0.058254
#
#
# Mechanical properties :
#
#
# Convention : Reuss Voigt Hill
#
# Bulk Modulus (GPa) = 23.92293 35.77177 29.84735
# Shear Modulus (GPa) = 28.27558 36.70443 32.49000
#
# Velocity S-wave (km/s) = 3.34046 3.80592 3.58076
# Velocity P-wave (km/s) = 4.93144 5.78189 5.37352
#
# Compressibility (1/GPa) = 0.04180090
#
# Stress axis : x y z
#
# Youngs Moduli (GPa) = 37.89634 60.94329 126.77866
#
# Poissons Ratio (x) = 0.03064 0.01375
# Poissons Ratio (y) = 0.01905 0.48562
# Poissons Ratio (z) = 0.00411 0.23344
#
# Static dielectric constant tensor:
#      x y z
#    x 1.895150 0.000000 0.000000 
#    y 0.000000 2.056560 0.000000 
#    z 0.000000 0.000000 2.062330 
# 
# From -- ./inp_files/4915.got.cif
#   From: 2010.05.17/outbox.cif.g08.bks.cpg/sg31_3_cif.got.tgz:4915.got - 2010.06.03 17:08:30.
