data_PCOD9343432
_publ_section_title
;
Structure prediction by ZEFSAII (Michael W. Deem and Ramdas Pophale) SiO2 
 PCOD9343432
Probable space group: P M N 21
;
_chemical_formula_sum "Si O2"
_cell_formula_units_Z 32
_cell_length_a 21.956487
_cell_length_b 5.160234
_cell_length_c 12.056865
_cell_angle_alpha 90.000000
_cell_angle_beta 90.000000
_cell_angle_gamma 90.000000
_cell_volume 1366.050168
_symmetry_space_group_name_H-M "P M N 21"
_symmetry_group_IT_number 31
_symmetry_cell_setting 'orthorhombic'
loop_
_space_group_symop_operation_xyz
x,y,z
1/2-x,-y,1/2+z
-x,y,z
1/2+x,-y,1/2+z
loop_
_atom_site_type_symbol
_atom_site_label
_atom_site_fract_x
_atom_site_fract_y
_atom_site_fract_z
Si Si1 0.860287 0.408297 0.275390
Si Si2 0.928430 0.783396 0.838432
Si Si3 0.632043 0.360000 0.113686
Si Si4 0.732430 0.216094 0.870134
Si Si5 0.345377 0.897869 0.473169
Si Si6 0.070065 0.487887 0.073842
Si Si7 0.239605 0.064524 0.151432
Si Si8 0.869865 0.117034 0.472760
O O1 0.897349 0.575511 0.186418
O O2 0.809985 0.254892 0.205606
O O3 0.898430 0.221433 0.357182
O O4 0.821017 0.581734 0.357997
O O5 0.904578 0.636584 0.729746
O O6 0.000000 0.857943 0.825857
O O7 0.877869 0.001858 0.862809
O O8 0.923387 0.637834 0.957490
O O9 0.700187 0.237394 0.129357
O O10 0.632743 0.645030 0.059491
O O11 0.603001 0.136210 0.033555
O O12 0.753431 0.140192 0.747178
O O13 0.697168 0.975935 0.928662
O O14 0.792503 0.302969 0.935315
O O15 0.399940 0.787349 0.545296
O O16 0.301235 0.065439 0.553100
O O17 0.000000 0.463819 0.097407
#
# Coordination Sequence:
#
# PCOD9343432 Si02
#       8
#     4   4   4   4   4   4   4   4
#     4  10  22  41  68 101 144 176 239 301 361 431
#     4  11  26  44  66  99 140 194 245 290 354 434
#     4  12  25  43  69 100 146 189 237 289 355 439
#     4  11  21  38  65 104 140 179 227 296 370 424
#     4  11  21  39  65  98 137 180 230 296 352 430
#     4  10  24  45  69  99 138 189 242 296 352 425
#     4  10  22  34  61 101 134 179 226 287 365 416
#     4  11  24  44  68 102 141 182 228 293 361 429
#
# _framework density 23.4252
#
# number of rings (size 3 to 8) (size 9 to 14) (size 15 to 20)
#    0.000    1.250    3.750    1.125    5.250    2.000 
#    0.000    1.250    0.000    0.750    0.000    0.000 
#    0.000    0.000    0.000    0.000    0.000    0.000 
#
# Total GULP energy -178257.547593 kJ/mol
# GULP energy per Si atom -5570.548362 kJ/mol
# Density = 2.337188 g / cm^3
# Si number density = 23.425200 Si / 1000 Ang^3
#
#
#
# Elastic Constant Matrix: (Units=GPa)
#
#
# Indices 1 2 3 4 5 6 
#
# 1 87.8368 3.4768 44.8616 0.0000 0.0000 0.0000
# 2 3.4768 61.6221 25.7416 0.0000 0.0000 0.0000
# 3 44.8616 25.7416 99.2770 0.0000 0.0000 0.0000
# 4 0.0000 0.0000 0.0000 39.7830 0.0000 0.0000
# 5 0.0000 0.0000 0.0000 0.0000 32.0361 0.0000
# 6 0.0000 0.0000 0.0000 0.0000 0.0000 14.2048
#
#
#
# Elastic Compliance Matrix: (Units=1/GPa)
#
#
# Indices 1 2 3 4 5 6 
#
# 1 0.015071 0.002237 -0.007390 0.000000 0.000000 0.000000
# 2 0.002237 0.018531 -0.005816 0.000000 0.000000 0.000000
# 3 -0.007390 -0.005816 0.014920 0.000000 0.000000 0.000000
# 4 0.000000 0.000000 0.000000 0.025136 0.000000 0.000000
# 5 0.000000 0.000000 0.000000 0.000000 0.031215 0.000000
# 6 0.000000 0.000000 0.000000 0.000000 0.000000 0.070399
#
#
# Mechanical properties :
#
#
# Convention : Reuss Voigt Hill
#
# Bulk Modulus (GPa) = 37.61671 44.09956 40.85814
# Shear Modulus (GPa) = 24.26340 28.84850 26.55595
#
# Velocity S-wave (km/s) = 3.22185 3.51310 3.37062
# Velocity P-wave (km/s) = 5.47115 5.94327 5.71209
#
# Compressibility (1/GPa) = 0.02658393
#
# Stress axis : x y z
#
# Youngs Moduli (GPa) = 66.35419 53.96308 67.02289
#
# Poissons Ratio (x) = -0.12071 0.49531
# Poissons Ratio (y) = -0.14842 0.38979
# Poissons Ratio (z) = 0.49037 0.31384
#
# Static dielectric constant tensor:
#      x y z
#    x 1.833130 0.000000 0.000000 
#    y 0.000000 2.008340 0.000000 
#    z 0.000000 0.000000 2.057650 
# 
# From -- ./inp_files/4562.got.cif
#   From: 2010.05.17/outbox.cif.g08.bks.cpg/sg31_3_cif.got.tgz:4562.got - 2010.06.03 17:08:30.
