data_PCOD9343561
_publ_section_title
;
Structure prediction by ZEFSAII (Michael W. Deem and Ramdas Pophale) SiO2 
 PCOD9343561
Probable space group: P M N 21
;
_chemical_formula_sum "Si O2"
_cell_formula_units_Z 24
_cell_length_a 7.636263
_cell_length_b 25.643082
_cell_length_c 4.932891
_cell_angle_alpha 90.000000
_cell_angle_beta 90.000000
_cell_angle_gamma 90.000000
_cell_volume 965.945487
_symmetry_space_group_name_H-M "P M N 21"
_symmetry_group_IT_number 31
_symmetry_cell_setting 'orthorhombic'
loop_
_space_group_symop_operation_xyz
x,y,z
1/2-x,-y,1/2+z
-x,y,z
1/2+x,-y,1/2+z
loop_
_atom_site_type_symbol
_atom_site_label
_atom_site_fract_x
_atom_site_fract_y
_atom_site_fract_z
Si Si1 0.701250 0.302765 0.577850
Si Si2 0.701378 0.633156 0.577537
Si Si3 0.298348 0.532001 0.275488
Si Si4 0.700949 0.032060 0.075434
Si Si5 0.713475 0.198610 0.289856
Si Si6 0.786552 0.863501 0.289903
O O1 0.500000 0.291750 0.653654
O O2 0.708611 0.347884 0.350882
O O3 0.775166 0.252059 0.424870
O O4 0.791731 0.321731 0.850664
O O5 0.500000 0.621553 0.648195
O O6 0.777953 0.582531 0.427012
O O7 0.289868 0.486502 0.500103
O O8 0.500000 0.543616 0.207981
O O9 0.500000 0.043046 0.154024
O O10 0.774836 0.082958 0.924100
O O11 0.793113 0.012649 0.346218
O O12 0.500000 0.201553 0.286153
O O13 0.766058 0.183875 0.987684
O O14 0.765832 0.151199 0.487603
O O15 0.000000 0.866370 0.286592
#
# Coordination Sequence:
#
# PCOD9343561 Si02
#       6
#     4   4   4   4   4   4
#     4  11  22  37  62  91 114 145 194 245 282 323
#     4  11  24  41  59  84 122 159 186 224 289 355
#     4  11  24  41  62  87 116 153 194 237 284 335
#     4  11  22  37  59  85 114 151 192 235 287 343
#     4   9  17  31  53  82 110 137 184 242 279 317
#     4   9  17  31  53  79 108 145 186 229 281 337
#
# _framework density 24.846122000000001
#
# number of rings (size 3 to 8) (size 9 to 14) (size 15 to 20)
#    0.000    1.667    0.000    5.000    0.000   12.000 
#    0.000    0.000    0.000   20.000    0.000    0.000 
#    0.000    0.000    0.000    0.000    0.000    0.000 
#
# Total GULP energy -134351.704180 kJ/mol
# GULP energy per Si atom -5597.987674 kJ/mol
# Density = 2.478957 g / cm^3
# Si number density = 24.846122 Si / 1000 Ang^3
#
#
#
# Elastic Constant Matrix: (Units=GPa)
#
#
# Indices 1 2 3 4 5 6 
#
# 1 56.0139 -7.0493 -4.6619 0.0000 0.0000 0.0000
# 2 -7.0493 64.7084 -3.0810 0.0000 0.0000 0.0000
# 3 -4.6619 -3.0810 115.1046 0.0000 0.0000 0.0000
# 4 0.0000 0.0000 0.0000 41.9659 0.0000 0.0000
# 5 0.0000 0.0000 0.0000 0.0000 51.7160 0.0000
# 6 0.0000 0.0000 0.0000 0.0000 0.0000 84.7684
#
#
#
# Elastic Compliance Matrix: (Units=1/GPa)
#
#
# Indices 1 2 3 4 5 6 
#
# 1 0.018172 0.002017 0.000790 0.000000 0.000000 0.000000
# 2 0.002017 0.015698 0.000502 0.000000 0.000000 0.000000
# 3 0.000790 0.000502 0.008733 0.000000 0.000000 0.000000
# 4 0.000000 0.000000 0.000000 0.023829 0.000000 0.000000
# 5 0.000000 0.000000 0.000000 0.000000 0.019336 0.000000
# 6 0.000000 0.000000 0.000000 0.000000 0.000000 0.011797
#
#
# Mechanical properties :
#
#
# Convention : Reuss Voigt Hill
#
# Bulk Modulus (GPa) = 20.31635 22.91586 21.61610
# Shear Modulus (GPa) = 46.57489 52.39802 49.48645
#
# Velocity S-wave (km/s) = 4.33429 4.59726 4.46771
# Velocity P-wave (km/s) = 5.76564 6.11742 5.94414
#
# Compressibility (1/GPa) = 0.04922145
#
# Stress axis : x y z
#
# Youngs Moduli (GPa) = 55.02874 63.70396 114.50588
#
# Poissons Ratio (x) = -0.12851 -0.09046
# Poissons Ratio (y) = -0.11101 -0.05747
# Poissons Ratio (z) = -0.04347 -0.03197
#
# Static dielectric constant tensor:
#      x y z
#    x 1.902560 0.000000 0.000000 
#    y 0.000000 2.027650 0.000000 
#    z 0.000000 0.000000 1.864320 
# 
# From -- ./inp_files/153.got.cif
#   From: 2010.05.17/outbox.cif.g08.bks.cpg/sg31_1_cif.got.tgz:153.got - 2010.06.03 17:08:30.
