data_PCOD9343747
_publ_section_title
;
Structure prediction by ZEFSAII (Michael W. Deem and Ramdas Pophale) SiO2 
 PCOD9343747
Probable space group: P B A 2
;
_chemical_formula_sum "Si O2"
_cell_formula_units_Z 28
_cell_length_a 10.970825
_cell_length_b 19.317809
_cell_length_c 5.333668
_cell_angle_alpha 90.000000
_cell_angle_beta 90.000000
_cell_angle_gamma 90.000000
_cell_volume 1130.376537
_symmetry_space_group_name_H-M "P B A 2"
_symmetry_group_IT_number 32
_symmetry_cell_setting 'orthorhombic'
loop_
_space_group_symop_operation_xyz
x,y,z
-x,-y,z
1/2-x,1/2+y,z
1/2+x,1/2-y,z
loop_
_atom_site_type_symbol
_atom_site_label
_atom_site_fract_x
_atom_site_fract_y
_atom_site_fract_z
Si Si1 0.170080 0.698207 0.154210
Si Si2 0.591145 0.074721 0.744351
Si Si3 0.440778 0.575947 0.546188
Si Si4 0.809245 0.577489 0.245661
Si Si5 0.404450 0.791052 0.061957
Si Si6 0.036347 0.918518 0.046020
Si Si7 0.328822 0.110379 0.659190
O O1 0.290389 0.741136 0.087207
O O2 0.169736 0.668174 0.436606
O O3 0.040750 0.736869 0.102125
O O4 0.167960 0.638656 0.943143
O O5 0.684363 0.052784 0.528414
O O6 0.454297 0.068068 0.642171
O O7 0.622765 0.040146 0.014195
O O8 0.603739 0.157093 0.821555
O O9 0.500000 0.500000 0.514356
O O10 0.512382 0.612861 0.772926
O O11 0.301278 0.574864 0.623386
O O12 0.453894 0.609253 0.272562
O O13 0.880202 0.650053 0.269728
O O14 0.673439 0.586676 0.143500
O O15 0.000000 0.000000 0.011901
#
# Coordination Sequence:
#
# PCOD9343747 Si02
#       7
#     4   4   4   4   4   4   4
#     4  11  23  37  60  89 130 160 211 255 306 376
#     4   9  19  37  58  83 114 166 201 241 296 379
#     4  10  22  39  62  88 122 152 199 263 314 371
#     4  10  19  37  61  83 118 167 196 247 311 364
#     4   9  23  37  57  89 127 164 207 251 304 373
#     4  10  21  38  61  90 122 152 201 264 312 368
#     4  11  21  39  61  87 119 165 200 255 312 365
#
# _framework density 24.770506000000001
#
# number of rings (size 3 to 8) (size 9 to 14) (size 15 to 20)
#    0.857    1.143    1.429    1.714    2.000    2.286 
#    0.000    0.000    0.000   20.571    0.000    0.000 
#    0.000    0.000    0.000    0.000    0.000    0.000 
#
# Total GULP energy -156273.861602 kJ/mol
# GULP energy per Si atom -5581.209343 kJ/mol
# Density = 2.471413 g / cm^3
# Si number density = 24.770506 Si / 1000 Ang^3
#
#
#
# Elastic Constant Matrix: (Units=GPa)
#
#
# Indices 1 2 3 4 5 6 
#
# 1 153.8189 30.1735 -3.7981 0.0000 0.0000 0.0000
# 2 30.1735 40.3602 7.9154 0.0000 0.0000 0.0000
# 3 -3.7981 7.9154 143.5080 0.0000 0.0000 0.0000
# 4 0.0000 0.0000 0.0000 7.0183 0.0000 0.0000
# 5 0.0000 0.0000 0.0000 0.0000 25.9343 0.0000
# 6 0.0000 0.0000 0.0000 0.0000 0.0000 49.7646
#
#
#
# Elastic Compliance Matrix: (Units=1/GPa)
#
#
# Indices 1 2 3 4 5 6 
#
# 1 0.007657 -0.005827 0.000524 0.000000 0.000000 0.000000
# 2 -0.005827 0.029483 -0.001780 0.000000 0.000000 0.000000
# 3 0.000524 -0.001780 0.007080 0.000000 0.000000 0.000000
# 4 0.000000 0.000000 0.000000 0.142485 0.000000 0.000000
# 5 0.000000 0.000000 0.000000 0.000000 0.038559 0.000000
# 6 0.000000 0.000000 0.000000 0.000000 0.000000 0.020095
#
#
# Mechanical properties :
#
#
# Convention : Reuss Voigt Hill
#
# Bulk Modulus (GPa) = 33.27474 45.14097 39.20786
# Shear Modulus (GPa) = 18.54987 36.76986 27.65987
#
# Velocity S-wave (km/s) = 2.73952 3.85700 3.34525
# Velocity P-wave (km/s) = 4.84448 6.17240 5.54831
#
# Compressibility (1/GPa) = 0.03005283
#
# Stress axis : x y z
#
# Youngs Moduli (GPa) = 130.59612 33.91827 141.23650
#
# Poissons Ratio (x) = 0.19765 -0.07402
# Poissons Ratio (y) = 0.76103 0.25146
# Poissons Ratio (z) = -0.06844 0.06039
#
# Static dielectric constant tensor:
#      x y z
#    x 1.982270 0.000000 0.000000 
#    y 0.000000 2.147130 0.000000 
#    z 0.000000 0.000000 2.041710 
# 
# From -- ./inp_files/575.got.cif
#   From: 2010.05.17/outbox.cif.g08.bks.cpg/sg32_1_cif.got.tgz:575.got - 2010.06.03 17:12:27.
