data_PCOD9343228
_publ_section_title
;
Structure prediction by ZEFSAII (Michael W. Deem and Ramdas Pophale) SiO2 
 PCOD9343228
Probable space group: P M N 21
;
_chemical_formula_sum "Si O2"
_cell_formula_units_Z 32
_cell_length_a 13.649710
_cell_length_b 11.403017
_cell_length_c 9.610811
_cell_angle_alpha 90.000000
_cell_angle_beta 90.000000
_cell_angle_gamma 90.000000
_cell_volume 1495.902311
_symmetry_space_group_name_H-M "P M N 21"
_symmetry_group_IT_number 31
_symmetry_cell_setting 'orthorhombic'
loop_
_space_group_symop_operation_xyz
x,y,z
1/2-x,-y,1/2+z
-x,y,z
1/2+x,-y,1/2+z
loop_
_atom_site_type_symbol
_atom_site_label
_atom_site_fract_x
_atom_site_fract_y
_atom_site_fract_z
Si Si1 0.113054 0.190749 0.260930
Si Si2 0.616956 0.324808 0.116953
Si Si3 0.185490 0.817039 0.877001
Si Si4 0.760635 0.755274 0.350098
Si Si5 0.384267 0.309745 0.631310
Si Si6 0.383568 0.564551 0.619182
Si Si7 0.109943 0.063143 0.973847
Si Si8 0.383303 0.562631 0.289501
O O1 0.198602 0.159409 0.367120
O O2 0.148200 0.315993 0.193595
O O3 0.000000 0.201382 0.310602
O O4 0.113993 0.097044 0.136133
O O5 0.500000 0.322790 0.085788
O O6 0.642833 0.223295 0.228385
O O7 0.638437 0.449235 0.194394
O O8 0.682586 0.304622 0.980127
O O9 0.129191 0.929252 0.936365
O O10 0.165185 0.712962 0.984332
O O11 0.845300 0.784270 0.240611
O O12 0.694759 0.860544 0.403912
O O13 0.684710 0.674199 0.262388
O O14 0.500000 0.303734 0.611789
O O15 0.360297 0.440278 0.688347
O O16 0.500000 0.577066 0.624434
O O17 0.362754 0.549259 0.455407
O O18 0.000000 0.098655 0.927426
O O19 0.500000 0.585026 0.275261
#
# Coordination Sequence:
#
# PCOD9343228 Si02
#       8
#     4   4   4   4   4   4   4   4
#     4  10  22  44  71  98 131 169 220 276 329 395
#     4  11  23  41  64  96 132 167 220 280 329 390
#     4  12  24  43  70  96 126 178 224 262 332 393
#     4  12  25  39  66  94 132 177 220 270 335 390
#     4  11  25  41  63  98 137 171 215 271 330 397
#     4   9  17  36  64  94 127 165 207 259 328 392
#     4  11  24  43  67  95 130 173 222 271 324 392
#     4  10  20  37  62  91 123 164 215 265 320 391
#
# _framework density 21.391770000000001
#
# number of rings (size 3 to 8) (size 9 to 14) (size 15 to 20)
#    0.000    1.250    3.750    1.875    5.250    0.000 
#    0.000    1.875    0.000    0.000    0.000    0.000 
#    0.000    0.000    0.000    0.000    0.000    0.000 
#
# Total GULP energy -178620.260124 kJ/mol
# GULP energy per Si atom -5581.883129 kJ/mol
# Density = 2.134308 g / cm^3
# Si number density = 21.391770 Si / 1000 Ang^3
#
#
#
# Elastic Constant Matrix: (Units=GPa)
#
#
# Indices 1 2 3 4 5 6 
#
# 1 98.5103 29.4177 31.0414 0.0000 0.0000 0.0000
# 2 29.4177 65.8216 5.8909 0.0000 0.0000 0.0000
# 3 31.0414 5.8909 53.8632 0.0000 0.0000 0.0000
# 4 0.0000 0.0000 0.0000 11.3980 0.0000 0.0000
# 5 0.0000 0.0000 0.0000 0.0000 37.2980 0.0000
# 6 0.0000 0.0000 0.0000 0.0000 0.0000 27.0519
#
#
#
# Elastic Compliance Matrix: (Units=1/GPa)
#
#
# Indices 1 2 3 4 5 6 
#
# 1 0.014239 -0.005685 -0.007584 0.000000 0.000000 0.000000
# 2 -0.005685 0.017613 0.001350 0.000000 0.000000 0.000000
# 3 -0.007584 0.001350 0.022789 0.000000 0.000000 0.000000
# 4 0.000000 0.000000 0.000000 0.087734 0.000000 0.000000
# 5 0.000000 0.000000 0.000000 0.000000 0.026811 0.000000
# 6 0.000000 0.000000 0.000000 0.000000 0.000000 0.036966
#
#
# Mechanical properties :
#
#
# Convention : Reuss Voigt Hill
#
# Bulk Modulus (GPa) = 32.46557 38.98835 35.72696
# Shear Modulus (GPa) = 20.81110 25.27260 23.04185
#
# Velocity S-wave (km/s) = 3.12245 3.44090 3.28554
# Velocity P-wave (km/s) = 5.31123 5.83540 5.57947
#
# Compressibility (1/GPa) = 0.03080186
#
# Stress axis : x y z
#
# Youngs Moduli (GPa) = 70.23125 56.77775 43.88161
#
# Poissons Ratio (x) = 0.32278 0.33280
# Poissons Ratio (y) = 0.39926 -0.05924
# Poissons Ratio (z) = 0.53264 -0.07665
#
# Static dielectric constant tensor:
#      x y z
#    x 1.805450 0.000000 0.000000 
#    y 0.000000 1.811400 0.000000 
#    z 0.000000 0.000000 1.774840 
# 
# From -- ./inp_files/2575.got.cif
#   From: 2010.05.17/outbox.cif.g08.bks.cpg/sg31_2_cif.got.tgz:2575.got - 2010.06.03 17:08:30.
