data_PCOD9343282
_publ_section_title
;
Structure prediction by ZEFSAII (Michael W. Deem and Ramdas Pophale) SiO2 
 PCOD9343282
Probable space group: P M N 21
;
_chemical_formula_sum "Si O2"
_cell_formula_units_Z 24
_cell_length_a 24.136456
_cell_length_b 4.959855
_cell_length_c 10.576822
_cell_angle_alpha 90.000000
_cell_angle_beta 90.000000
_cell_angle_gamma 90.000000
_cell_volume 1266.186498
_symmetry_space_group_name_H-M "P M N 21"
_symmetry_group_IT_number 31
_symmetry_cell_setting 'orthorhombic'
loop_
_space_group_symop_operation_xyz
x,y,z
1/2-x,-y,1/2+z
-x,y,z
1/2+x,-y,1/2+z
loop_
_atom_site_type_symbol
_atom_site_label
_atom_site_fract_x
_atom_site_fract_y
_atom_site_fract_z
Si Si1 0.563494 0.203676 0.666850
Si Si2 0.822052 0.795808 0.718904
Si Si3 0.335651 0.039992 0.507323
Si Si4 0.935871 0.305505 0.339873
Si Si5 0.767929 0.471417 0.077519
Si Si6 0.653373 0.666758 0.059207
O O1 0.500000 0.226798 0.623025
O O2 0.603125 0.085184 0.560057
O O3 0.580808 0.488342 0.727803
O O4 0.565440 0.991725 0.781720
O O5 0.831441 0.871678 0.862405
O O6 0.760281 0.672852 0.698236
O O7 0.860169 0.551240 0.668492
O O8 0.832200 0.050698 0.626770
O O9 0.298902 0.246837 0.591341
O O10 0.309778 0.743334 0.518699
O O11 0.894182 0.320107 0.456248
O O12 0.000000 0.370708 0.373551
O O13 0.711053 0.545648 0.002518
#
# Coordination Sequence:
#
# PCOD9343282 Si02
#       6
#     4   4   4   4   4   4
#     4  10  23  40  59  90 118 151 204 247 287 348
#     4  10  22  39  55  85 125 143 197 238 283 355
#     4  12  22  39  61  84 117 162 187 242 304 342
#     4  10  21  40  65  88 118 153 199 248 289 350
#     4  10  22  37  54  90 114 153 193 234 288 357
#     4  10  20  41  55  87 121 150 186 251 285 338
#
# _framework density 18.954554000000002
#
# number of rings (size 3 to 8) (size 9 to 14) (size 15 to 20)
#    1.000    0.667    1.667    3.000    0.000    4.000 
#    0.000    1.667    0.000    0.000    0.000    0.000 
#    0.000    0.000    0.000    0.000    0.000    0.000 
#
# Total GULP energy -133718.464057 kJ/mol
# GULP energy per Si atom -5571.602669 kJ/mol
# Density = 1.891141 g / cm^3
# Si number density = 18.954554 Si / 1000 Ang^3
#
#
#
# Elastic Constant Matrix: (Units=GPa)
#
#
# Indices 1 2 3 4 5 6 
#
# 1 67.1512 0.2706 28.5365 0.0000 0.0000 0.0000
# 2 0.2706 90.4904 -4.7170 0.0000 0.0000 0.0000
# 3 28.5365 -4.7170 50.3672 0.0000 0.0000 0.0000
# 4 0.0000 0.0000 0.0000 10.0323 0.0000 0.0000
# 5 0.0000 0.0000 0.0000 0.0000 29.7889 0.0000
# 6 0.0000 0.0000 0.0000 0.0000 0.0000 9.3031
#
#
#
# Elastic Compliance Matrix: (Units=1/GPa)
#
#
# Indices 1 2 3 4 5 6 
#
# 1 0.019651 -0.000642 -0.011194 0.000000 0.000000 0.000000
# 2 -0.000642 0.011126 0.001406 0.000000 0.000000 0.000000
# 3 -0.011194 0.001406 0.026328 0.000000 0.000000 0.000000
# 4 0.000000 0.000000 0.000000 0.099678 0.000000 0.000000
# 5 0.000000 0.000000 0.000000 0.000000 0.033570 0.000000
# 6 0.000000 0.000000 0.000000 0.000000 0.000000 0.107491
#
#
# Mechanical properties :
#
#
# Convention : Reuss Voigt Hill
#
# Bulk Modulus (GPa) = 27.59027 28.46547 28.02787
# Shear Modulus (GPa) = 15.11548 22.08610 18.60079
#
# Velocity S-wave (km/s) = 2.82700 3.41723 3.13603
# Velocity P-wave (km/s) = 5.02429 5.53356 5.28506
#
# Compressibility (1/GPa) = 0.03624466
#
# Stress axis : x y z
#
# Youngs Moduli (GPa) = 50.88713 89.87880 37.98234
#
# Poissons Ratio (x) = 0.05773 0.42517
# Poissons Ratio (y) = 0.03268 -0.05340
# Poissons Ratio (z) = 0.56963 -0.12636
#
# Static dielectric constant tensor:
#      x y z
#    x 1.685920 0.000000 0.000000 
#    y 0.000000 1.675590 0.000000 
#    z 0.000000 0.000000 1.644790 
# 
# From -- ./inp_files/3112.got.cif
#   From: 2010.05.17/outbox.cif.g08.bks.cpg/sg31_2_cif.got.tgz:3112.got - 2010.06.03 17:08:30.
