data_PCOD9343686
_publ_section_title
;
Structure prediction by ZEFSAII (Michael W. Deem and Ramdas Pophale) SiO2 
 PCOD9343686
Probable space group: P B A 2
;
_chemical_formula_sum "Si O2"
_cell_formula_units_Z 28
_cell_length_a 19.211055
_cell_length_b 9.956572
_cell_length_c 7.082592
_cell_angle_alpha 90.000000
_cell_angle_beta 90.000000
_cell_angle_gamma 90.000000
_cell_volume 1354.731654
_symmetry_space_group_name_H-M "P B A 2"
_symmetry_group_IT_number 32
_symmetry_cell_setting 'orthorhombic'
loop_
_space_group_symop_operation_xyz
x,y,z
-x,-y,z
1/2-x,1/2+y,z
1/2+x,1/2-y,z
loop_
_atom_site_type_symbol
_atom_site_label
_atom_site_fract_x
_atom_site_fract_y
_atom_site_fract_z
Si Si1 0.660559 0.673434 0.935600
Si Si2 0.315791 0.865663 0.880885
Si Si3 0.424727 0.258318 0.307832
Si Si4 0.398646 0.609663 0.820787
Si Si5 0.500000 0.000000 0.759483
Si Si6 0.452385 0.814280 0.073039
Si Si7 0.141412 0.593883 0.628996
Si Si8 0.500000 0.500000 0.517779
O O1 0.742561 0.661038 0.978090
O O2 0.636219 0.531728 0.854031
O O3 0.649299 0.786849 0.779149
O O4 0.614677 0.707443 0.115888
O O5 0.343748 0.728847 0.784552
O O6 0.308197 0.979676 0.719321
O O7 0.377834 0.890716 0.038197
O O8 0.497289 0.181218 0.251990
O O9 0.370439 0.170855 0.431890
O O10 0.450518 0.396642 0.405347
O O11 0.453314 0.593265 0.653894
O O12 0.435420 0.661235 0.014540
O O13 0.430916 0.013212 0.643633
O O14 0.504305 0.126457 0.898090
#
# Coordination Sequence:
#
# PCOD9343686 Si02
#       8
#     4   4   4   4   2   4   4   2
#     4  12  22  46  70  96 137 186 228 282 340 416
#     4   9  24  44  71  93 137 190 223 271 355 414
#     4  12  24  38  73 104 136 173 236 293 341 400
#     4  10  21  41  71  91 138 185 220 281 342 415
#     4  10  18  42  64  92 136 172 220 276 344 398
#     4   9  20  40  64  98 124 176 223 276 333 400
#     4  11  23  42  68 100 134 175 227 284 346 400
#     4  12  22  40  62 112 132 170 234 290 342 400
#
# _framework density 20.668299999999999
#
# number of rings (size 3 to 8) (size 9 to 14) (size 15 to 20)
#    0.857    0.571    2.857    3.429    0.000    0.571 
#    0.000    5.714    0.000    0.000    0.000    0.000 
#    0.000    0.000    0.000    0.000    0.000    0.000 
#
# Total GULP energy -155885.888723 kJ/mol
# GULP energy per Si atom -5567.353169 kJ/mol
# Density = 2.062126 g / cm^3
# Si number density = 20.668300 Si / 1000 Ang^3
#
#
#
# Elastic Constant Matrix: (Units=GPa)
#
#
# Indices 1 2 3 4 5 6 
#
# 1 94.3819 6.9812 25.8552 0.0000 0.0000 0.0000
# 2 6.9812 115.1126 34.3065 0.0000 0.0000 0.0000
# 3 25.8552 34.3065 66.1044 0.0000 0.0000 0.0000
# 4 0.0000 0.0000 0.0000 21.5414 0.0000 0.0000
# 5 0.0000 0.0000 0.0000 0.0000 10.0176 0.0000
# 6 0.0000 0.0000 0.0000 0.0000 0.0000 0.5432
#
#
#
# Elastic Compliance Matrix: (Units=1/GPa)
#
#
# Indices 1 2 3 4 5 6 
#
# 1 0.011927 0.000789 -0.005074 0.000000 0.000000 0.000000
# 2 0.000789 0.010329 -0.005669 0.000000 0.000000 0.000000
# 3 -0.005074 -0.005669 0.020054 0.000000 0.000000 0.000000
# 4 0.000000 0.000000 0.000000 0.046422 0.000000 0.000000
# 5 0.000000 0.000000 0.000000 0.000000 0.099824 0.000000
# 6 0.000000 0.000000 0.000000 0.000000 0.000000 1.841063
#
#
# Mechanical properties :
#
#
# Convention : Reuss Voigt Hill
#
# Bulk Modulus (GPa) = 44.64020 45.54274 45.09147
# Shear Modulus (GPa) = 2.43073 20.31751 11.37412
#
# Velocity S-wave (km/s) = 1.08564 3.13873 2.34843
# Velocity P-wave (km/s) = 4.81838 5.93451 5.40533
#
# Compressibility (1/GPa) = 0.02240133
#
# Stress axis : x y z
#
# Youngs Moduli (GPa) = 83.84345 96.81671 49.86438
#
# Poissons Ratio (x) = -0.07639 0.25303
# Poissons Ratio (y) = -0.06615 0.28268
# Poissons Ratio (z) = 0.42546 0.54885
#
# Static dielectric constant tensor:
#      x y z
#    x 1.794620 0.000000 0.000000 
#    y 0.000000 1.800070 0.000000 
#    z 0.000000 0.000000 1.739530 
# 
# From -- ./inp_files/1584.got.cif
#   From: 2010.05.17/outbox.cif.g08.bks.cpg/sg32_1_cif.got.tgz:1584.got - 2010.06.03 17:12:27.
