data_PCOD9343141
_publ_section_title
;
Structure prediction by ZEFSAII (Michael W. Deem and Ramdas Pophale) SiO2 
 PCOD9343141
Probable space group: P M N 21
;
_chemical_formula_sum "Si O2"
_cell_formula_units_Z 32
_cell_length_a 7.903411
_cell_length_b 12.864342
_cell_length_c 15.041243
_cell_angle_alpha 90.000000
_cell_angle_beta 90.000000
_cell_angle_gamma 90.000000
_cell_volume 1529.275997
_symmetry_space_group_name_H-M "P M N 21"
_symmetry_group_IT_number 31
_symmetry_cell_setting 'orthorhombic'
loop_
_space_group_symop_operation_xyz
x,y,z
1/2-x,-y,1/2+z
-x,y,z
1/2+x,-y,1/2+z
loop_
_atom_site_type_symbol
_atom_site_label
_atom_site_fract_x
_atom_site_fract_y
_atom_site_fract_z
Si Si1 0.298486 0.774660 0.413910
Si Si2 0.800922 0.769011 0.700885
Si Si3 0.194479 0.002137 0.424326
Si Si4 0.696224 0.612587 0.556064
Si Si5 0.200953 0.376334 0.560496
Si Si6 0.293584 0.771762 0.906809
Si Si7 0.793549 0.223022 0.710422
Si Si8 0.794594 0.995178 0.718956
O O1 0.500000 0.760880 0.409277
O O2 0.228190 0.686279 0.478800
O O3 0.233597 0.766982 0.312499
O O4 0.270951 0.891445 0.450126
O O5 0.711615 0.679701 0.645571
O O6 0.771149 0.760095 0.806470
O O7 0.744670 0.886357 0.674948
O O8 0.000000 0.760184 0.682602
O O9 0.263135 0.116566 0.447272
O O10 0.212779 0.003516 0.316812
O O11 0.000000 0.999119 0.452907
O O12 0.500000 0.595975 0.535679
O O13 0.772187 0.498683 0.564142
O O14 0.263348 0.321197 0.470499
O O15 0.268969 0.312773 0.645351
O O16 0.000000 0.358264 0.560597
O O17 0.500000 0.775151 0.902137
O O18 0.000000 0.227326 0.713411
O O19 0.751956 0.106294 0.676939
O O20 0.000000 0.991895 0.730611
#
# Coordination Sequence:
#
# PCOD9343141 Si02
#       8
#     4   4   4   4   4   4   4   4
#     4   9  19  36  55  75 105 144 179 215 265 321
#     4  10  20  35  58  83 107 140 180 221 267 325
#     4   9  16  28  51  82 112 138 169 213 264 317
#     4  11  24  39  53  74 107 144 185 233 276 313
#     4  10  21  37  56  78 105 141 185 225 262 315
#     4   9  19  35  55  82 115 144 171 215 272 321
#     4   8  15  32  57  80 103 134 173 216 262 315
#     4   8  15  30  53  80 108 137 172 212 260 323
#
# _framework density 20.924932999999999
#
# number of rings (size 3 to 8) (size 9 to 14) (size 15 to 20)
#    0.000    2.750    0.000    1.875    0.000    4.500 
#    0.000    6.250    0.000    0.000    0.000    0.000 
#    0.000    0.000    0.000    0.000    0.000    0.000 
#
# Total GULP energy -178436.959469 kJ/mol
# GULP energy per Si atom -5576.154983 kJ/mol
# Density = 2.087731 g / cm^3
# Si number density = 20.924933 Si / 1000 Ang^3
#
#
#
# Elastic Constant Matrix: (Units=GPa)
#
#
# Indices 1 2 3 4 5 6 
#
# 1 17.3783 -2.0681 -3.0680 0.0000 0.0000 0.0000
# 2 -2.0681 172.4710 65.7323 0.0000 0.0000 0.0000
# 3 -3.0680 65.7323 87.4822 0.0000 0.0000 0.0000
# 4 0.0000 0.0000 0.0000 34.7455 0.0000 0.0000
# 5 0.0000 0.0000 0.0000 0.0000 72.2732 0.0000
# 6 0.0000 0.0000 0.0000 0.0000 0.0000 22.1682
#
#
#
# Elastic Compliance Matrix: (Units=1/GPa)
#
#
# Indices 1 2 3 4 5 6 
#
# 1 0.057903 -0.000112 0.002114 0.000000 0.000000 0.000000
# 2 -0.000112 0.008125 -0.006109 0.000000 0.000000 0.000000
# 3 0.002114 -0.006109 0.016095 0.000000 0.000000 0.000000
# 4 0.000000 0.000000 0.000000 0.028781 0.000000 0.000000
# 5 0.000000 0.000000 0.000000 0.000000 0.013836 0.000000
# 6 0.000000 0.000000 0.000000 0.000000 0.000000 0.045110
#
#
# Mechanical properties :
#
#
# Convention : Reuss Voigt Hill
#
# Bulk Modulus (GPa) = 13.52975 44.28045 28.90510
# Shear Modulus (GPa) = 24.66714 40.28638 32.47676
#
# Velocity S-wave (km/s) = 3.43715 4.39256 3.94389
# Velocity P-wave (km/s) = 4.71507 6.85081 5.88071
#
# Compressibility (1/GPa) = 0.07391119
#
# Stress axis : x y z
#
# Youngs Moduli (GPa) = 17.27026 123.07779 62.13076
#
# Poissons Ratio (x) = 0.01373 -0.13137
# Poissons Ratio (y) = 0.00193 0.37955
# Poissons Ratio (z) = -0.03652 0.75186
#
# Static dielectric constant tensor:
#      x y z
#    x 1.686170 0.000000 0.000000 
#    y 0.000000 1.754270 0.000000 
#    z 0.000000 0.000000 1.767450 
# 
# From -- ./inp_files/5033.got.cif
#   From: 2010.05.17/outbox.cif.g08.bks.cpg/sg31_3_cif.got.tgz:5033.got - 2010.06.03 17:08:30.
