data_PCOD9343716
_publ_section_title
;
Structure prediction by ZEFSAII (Michael W. Deem and Ramdas Pophale) SiO2 
 PCOD9343716
Probable space group: P B A 2
;
_chemical_formula_sum "Si O2"
_cell_formula_units_Z 30
_cell_length_a 9.113956
_cell_length_b 15.248598
_cell_length_c 10.629442
_cell_angle_alpha 90.000000
_cell_angle_beta 90.000000
_cell_angle_gamma 90.000000
_cell_volume 1477.227247
_symmetry_space_group_name_H-M "P B A 2"
_symmetry_group_IT_number 32
_symmetry_cell_setting 'orthorhombic'
loop_
_space_group_symop_operation_xyz
x,y,z
-x,-y,z
1/2-x,1/2+y,z
1/2+x,1/2-y,z
loop_
_atom_site_type_symbol
_atom_site_label
_atom_site_fract_x
_atom_site_fract_y
_atom_site_fract_z
Si Si1 0.853681 0.709220 0.779620
Si Si2 0.345871 0.873143 0.050422
Si Si3 0.703614 0.297228 0.207070
Si Si4 0.049725 0.765085 0.379154
Si Si5 0.500000 0.000000 0.555173
Si Si6 0.187306 0.353706 0.514585
Si Si7 0.161223 0.629369 0.750064
Si Si8 0.184533 0.567026 0.021715
O O1 0.798166 0.648307 0.665352
O O2 0.799889 0.806077 0.740526
O O3 0.029029 0.697329 0.779831
O O4 0.807362 0.673369 0.916723
O O5 0.308453 0.802732 0.156762
O O6 0.518649 0.899211 0.050573
O O7 0.276840 0.969197 0.064852
O O8 0.845142 0.299779 0.298394
O O9 0.556854 0.315124 0.284256
O O10 0.716584 0.361392 0.089737
O O11 0.161845 0.826272 0.452812
O O12 0.938584 0.715083 0.472050
O O13 0.617984 0.054054 0.476511
O O14 0.404014 0.068136 0.640004
O O15 0.189353 0.569208 0.870976
#
# Coordination Sequence:
#
# PCOD9343716 Si02
#       8
#     4   4   4   4   2   4   4   4
#     4  10  19  34  65  91 119 156 197 250 322 369
#     4  10  20  36  63  98 117 159 205 252 318 381
#     4  11  20  40  61  87 123 165 206 258 304 366
#     4  10  23  39  61  84 118 167 219 245 301 365
#     4  10  20  36  64  94 122 156 212 258 314 378
#     4  10  20  40  62  87 121 159 210 260 303 369
#     4  10  19  34  61  96 123 152 198 249 312 388
#     4  10  19  35  62  91 127 156 200 250 310 374
#
# _framework density 20.308318
#
# number of rings (size 3 to 8) (size 9 to 14) (size 15 to 20)
#    0.000    1.867    2.667    4.000    0.000    0.000 
#    4.800    0.667    5.867   17.600    0.000    0.000 
#    0.000    0.000    0.000    0.000    0.000    0.000 
#
# Total GULP energy -167267.447548 kJ/mol
# GULP energy per Si atom -5575.581585 kJ/mol
# Density = 2.026210 g / cm^3
# Si number density = 20.308318 Si / 1000 Ang^3
#
#
#
# Elastic Constant Matrix: (Units=GPa)
#
#
# Indices 1 2 3 4 5 6 
#
# 1 80.4581 29.7930 21.2530 0.0000 0.0000 0.0000
# 2 29.7930 101.1953 1.2157 0.0000 0.0000 0.0000
# 3 21.2530 1.2157 42.0657 0.0000 0.0000 0.0000
# 4 0.0000 0.0000 0.0000 6.4397 0.0000 0.0000
# 5 0.0000 0.0000 0.0000 0.0000 28.3017 0.0000
# 6 0.0000 0.0000 0.0000 0.0000 0.0000 21.6491
#
#
#
# Elastic Compliance Matrix: (Units=1/GPa)
#
#
# Indices 1 2 3 4 5 6 
#
# 1 0.016312 -0.004705 -0.008105 0.000000 0.000000 0.000000
# 2 -0.004705 0.011242 0.002052 0.000000 0.000000 0.000000
# 3 -0.008105 0.002052 0.027808 0.000000 0.000000 0.000000
# 4 0.000000 0.000000 0.000000 0.155287 0.000000 0.000000
# 5 0.000000 0.000000 0.000000 0.000000 0.035334 0.000000
# 6 0.000000 0.000000 0.000000 0.000000 0.000000 0.046191
#
#
# Mechanical properties :
#
#
# Convention : Reuss Voigt Hill
#
# Bulk Modulus (GPa) = 29.54544 36.47140 33.00842
# Shear Modulus (GPa) = 15.38590 22.70860 19.04725
#
# Velocity S-wave (km/s) = 2.75547 3.34757 3.06584
# Velocity P-wave (km/s) = 4.97026 5.73929 5.36856
#
# Compressibility (1/GPa) = 0.03384617
#
# Stress axis : x y z
#
# Youngs Moduli (GPa) = 61.30398 88.94852 35.96066
#
# Poissons Ratio (x) = 0.41851 0.29148
# Poissons Ratio (y) = 0.28844 -0.07380
# Poissons Ratio (z) = 0.49690 -0.18255
#
# Static dielectric constant tensor:
#      x y z
#    x 1.721430 0.000000 0.000000 
#    y 0.000000 1.747160 0.000000 
#    z 0.000000 0.000000 1.751070 
# 
# From -- ./inp_files/3750.got.cif
#   From: 2010.05.17/outbox.cif.g08.bks.cpg/sg32_2_cif.got.tgz:3750.got - 2010.06.03 17:12:27.
