data_PCOD9343567
_publ_section_title
;
Structure prediction by ZEFSAII (Michael W. Deem and Ramdas Pophale) SiO2 
 PCOD9343567
Probable space group: P M N 21
;
_chemical_formula_sum "Si O2"
_cell_formula_units_Z 24
_cell_length_a 8.308640
_cell_length_b 12.327092
_cell_length_c 12.328269
_cell_angle_alpha 90.000000
_cell_angle_beta 90.000000
_cell_angle_gamma 90.000000
_cell_volume 1262.678197
_symmetry_space_group_name_H-M "P M N 21"
_symmetry_group_IT_number 31
_symmetry_cell_setting 'orthorhombic'
loop_
_space_group_symop_operation_xyz
x,y,z
1/2-x,-y,1/2+z
-x,y,z
1/2+x,-y,1/2+z
loop_
_atom_site_type_symbol
_atom_site_label
_atom_site_fract_x
_atom_site_fract_y
_atom_site_fract_z
Si Si1 0.192168 0.336900 0.706790
Si Si2 0.692163 0.162555 0.532305
Si Si3 0.696330 0.217759 0.291333
Si Si4 0.803661 0.577934 0.651756
Si Si5 0.805689 0.717367 0.447181
Si Si6 0.805664 0.922226 0.586941
O O1 0.249776 0.248085 0.621118
O O2 0.254123 0.457061 0.675754
O O3 0.243397 0.305646 0.827944
O O4 0.000000 0.340517 0.702998
O O5 0.500000 0.166768 0.528763
O O6 0.754138 0.193472 0.412128
O O7 0.742987 0.041292 0.563460
O O8 0.500000 0.217632 0.292609
O O9 0.745922 0.334213 0.242604
O O10 0.745275 0.127021 0.203295
O O11 0.754347 0.626797 0.535322
O O12 0.000000 0.576821 0.652034
O O13 0.755141 0.833714 0.496617
O O14 0.000000 0.716982 0.444675
O O15 0.000000 0.925169 0.586775
#
# Coordination Sequence:
#
# PCOD9343567 Si02
#       6
#     4   4   4   4   4   4
#     4  11  23  36  56  85 116 149 186 228 276 332
#     4  11  23  36  56  85 115 146 186 231 276 330
#     4   8  17  36  59  80 106 146 185 225 279 334
#     4   8  17  36  59  81 109 147 186 226 280 334
#     4   9  19  38  61  83 111 147 186 231 283 332
#     4   9  19  38  61  82 109 145 185 231 284 334
#
# _framework density 19.007218999999999
#
# number of rings (size 3 to 8) (size 9 to 14) (size 15 to 20)
#    0.000    2.667    0.000    3.000    4.667    0.667 
#    0.000    1.667    0.000    4.000    0.000    0.000 
#    0.000    0.000    0.000    0.000    0.000    0.000 
#
# Total GULP energy -133931.796634 kJ/mol
# GULP energy per Si atom -5580.491526 kJ/mol
# Density = 1.896396 g / cm^3
# Si number density = 19.007219 Si / 1000 Ang^3
#
#
#
# Elastic Constant Matrix: (Units=GPa)
#
#
# Indices 1 2 3 4 5 6 
#
# 1 16.7822 26.2301 26.4509 0.0000 0.0000 0.0000
# 2 26.2301 205.1328 144.0938 0.0000 0.0000 0.0000
# 3 26.4509 144.0938 206.0096 0.0000 0.0000 0.0000
# 4 0.0000 0.0000 0.0000 16.0178 0.0000 0.0000
# 5 0.0000 0.0000 0.0000 0.0000 19.8863 0.0000
# 6 0.0000 0.0000 0.0000 0.0000 0.0000 17.8941
#
#
#
# Elastic Compliance Matrix: (Units=1/GPa)
#
#
# Indices 1 2 3 4 5 6 
#
# 1 0.078043 -0.005781 -0.005977 0.000000 0.000000 0.000000
# 2 -0.005781 0.010012 -0.006260 0.000000 0.000000 0.000000
# 3 -0.005977 -0.006260 0.010000 0.000000 0.000000 0.000000
# 4 0.000000 0.000000 0.000000 0.062430 0.000000 0.000000
# 5 0.000000 0.000000 0.000000 0.000000 0.050286 0.000000
# 6 0.000000 0.000000 0.000000 0.000000 0.000000 0.055884
#
#
# Mechanical properties :
#
#
# Convention : Reuss Voigt Hill
#
# Bulk Modulus (GPa) = 16.12425 91.27494 53.69960
# Shear Modulus (GPa) = 15.46240 26.16962 20.81601
#
# Velocity S-wave (km/s) = 2.85529 3.71459 3.31292
# Velocity P-wave (km/s) = 4.40135 8.15616 6.55343
#
# Compressibility (1/GPa) = 0.06201837
#
# Stress axis : x y z
#
# Youngs Moduli (GPa) = 12.81349 99.88347 99.99530
#
# Poissons Ratio (x) = 0.57740 0.59768
# Poissons Ratio (y) = 0.07407 0.62602
# Poissons Ratio (z) = 0.07659 0.62532
#
# Static dielectric constant tensor:
#      x y z
#    x 1.667010 0.000000 0.000000 
#    y 0.000000 1.646900 0.000000 
#    z 0.000000 0.000000 1.646440 
# 
# From -- ./inp_files/3438.got.cif
#   From: 2010.05.17/outbox.cif.g08.bks.cpg/sg31_2_cif.got.tgz:3438.got - 2010.06.03 17:08:30.
