data_PCOD9343658
_publ_section_title
;
Structure prediction by ZEFSAII (Michael W. Deem and Ramdas Pophale) SiO2 
 PCOD9343658
Probable space group: P B A 2
;
_chemical_formula_sum "Si O2"
_cell_formula_units_Z 26
_cell_length_a 12.678938
_cell_length_b 9.511185
_cell_length_c 7.710505
_cell_angle_alpha 90.000000
_cell_angle_beta 90.000000
_cell_angle_gamma 90.000000
_cell_volume 929.823098
_symmetry_space_group_name_H-M "P B A 2"
_symmetry_group_IT_number 32
_symmetry_cell_setting 'orthorhombic'
loop_
_space_group_symop_operation_xyz
x,y,z
-x,-y,z
1/2-x,1/2+y,z
1/2+x,1/2-y,z
loop_
_atom_site_type_symbol
_atom_site_label
_atom_site_fract_x
_atom_site_fract_y
_atom_site_fract_z
Si Si1 0.388102 0.902459 0.871280
Si Si2 0.243078 0.980162 0.308387
Si Si3 0.645635 0.495005 0.634372
Si Si4 0.000000 0.000000 0.241475
Si Si5 0.016959 0.746912 0.575013
Si Si6 0.756763 0.865513 0.946739
Si Si7 0.055636 0.306932 0.224408
O O1 0.453156 0.847974 0.708684
O O2 0.343573 0.059242 0.857455
O O3 0.288324 0.795983 0.912854
O O4 0.456260 0.879897 0.042495
O O5 0.246008 0.028770 0.508980
O O6 0.329392 0.858071 0.289739
O O7 0.259450 0.086004 0.146384
O O8 0.118508 0.939310 0.297852
O O9 0.562339 0.383325 0.549574
O O10 0.616375 0.660649 0.635099
O O11 0.653576 0.445317 0.832505
O O12 0.043730 0.145402 0.168300
O O13 0.020677 0.671040 0.388566
#
# Coordination Sequence:
#
# PCOD9343658 Si02
#       7
#     4   4   4   2   4   4   4
#     4  10  21  34  54  86 115 155 202 252 308 366
#     4  11  21  35  59  90 122 157 202 255 311 363
#     4  10  18  31  55  85 115 155 202 249 302 361
#     4  12  20  40  62  92 120 158 212 252 304 378
#     4  10  18  31  55  85 115 155 202 249 302 361
#     4  10  21  34  54  86 115 155 202 252 308 366
#     4  11  21  35  59  90 122 157 202 255 311 363
#
# _framework density 27.962306999999999
#
# number of rings (size 3 to 8) (size 9 to 14) (size 15 to 20)
#    0.000    1.538    4.615    0.923    2.154    0.000 
#    0.000    0.000    0.000    1.846    0.000    0.000 
#    0.000    0.000    0.000    0.000    0.000    0.000 
#
# Total GULP energy -144911.808208 kJ/mol
# GULP energy per Si atom -5573.531085 kJ/mol
# Density = 2.789866 g / cm^3
# Si number density = 27.962307 Si / 1000 Ang^3
#
#
#
# Elastic Constant Matrix: (Units=GPa)
#
#
# Indices 1 2 3 4 5 6 
#
# 1 74.2270 45.7630 21.4690 0.0000 0.0000 0.0000
# 2 45.7630 143.5192 10.8000 0.0000 0.0000 0.0000
# 3 21.4690 10.8000 171.6795 0.0000 0.0000 0.0000
# 4 0.0000 0.0000 0.0000 1000.6353 0.0000 0.0000
# 5 0.0000 0.0000 0.0000 0.0000 -11.0064 0.0000
# 6 0.0000 0.0000 0.0000 0.0000 0.0000 69.7471
#
#
#
# Elastic Compliance Matrix: (Units=1/GPa)
#
#
# Indices 1 2 3 4 5 6 
#
# 1 0.017321 -0.005386 -0.001827 0.000000 0.000000 0.000000
# 2 -0.005386 0.008675 0.000128 0.000000 0.000000 0.000000
# 3 -0.001827 0.000128 0.006045 0.000000 0.000000 0.000000
# 4 0.000000 0.000000 0.000000 0.000999 0.000000 0.000000
# 5 0.000000 0.000000 0.000000 0.000000 -0.090856 0.000000
# 6 0.000000 0.000000 0.000000 0.000000 0.000000 0.014338
#
#
# Mechanical properties :
#
#
# Convention : Reuss Voigt Hill
#
# Bulk Modulus (GPa) = 55.95493 60.60997 58.28245
# Shear Modulus (GPa) = -214.12951 232.63477 9.25263
#
# Velocity S-wave (km/s) = -8.76037 9.13107 1.82103
# Velocity P-wave (km/s) = 9.07035 11.52785 5.03090
#
# Compressibility (1/GPa) = 0.01787153
#
# Stress axis : x y z
#
# Youngs Moduli (GPa) = 57.73334 115.26912 165.41852
#
# Poissons Ratio (x) = 0.62079 0.30226
# Poissons Ratio (y) = 0.31093 -0.02113
# Poissons Ratio (z) = 0.10549 -0.01472
#
# Static dielectric constant tensor:
#      x y z
#    x 2.297660 0.000000 0.000000 
#    y 0.000000 1.589410 0.000000 
#    z 0.000000 0.000000 2.309950 
# 
# From -- ./inp_files/3045.got.cif
#   From: 2010.05.17/outbox.cif.g08.bks.cpg/sg32_2_cif.got.tgz:3045.got - 2010.06.03 17:12:27.
