data_PCOD9343218
_publ_section_title
;
Structure prediction by ZEFSAII (Michael W. Deem and Ramdas Pophale) SiO2 
 PCOD9343218
Probable space group: P M N 21
;
_chemical_formula_sum "Si O2"
_cell_formula_units_Z 20
_cell_length_a 10.132378
_cell_length_b 8.533107
_cell_length_c 9.885887
_cell_angle_alpha 90.000000
_cell_angle_beta 90.000000
_cell_angle_gamma 90.000000
_cell_volume 854.740370
_symmetry_space_group_name_H-M "P M N 21"
_symmetry_group_IT_number 31
_symmetry_cell_setting 'orthorhombic'
loop_
_space_group_symop_operation_xyz
x,y,z
1/2-x,-y,1/2+z
-x,y,z
1/2+x,-y,1/2+z
loop_
_atom_site_type_symbol
_atom_site_label
_atom_site_fract_x
_atom_site_fract_y
_atom_site_fract_z
Si Si1 0.500000 0.643724 0.101231
Si Si2 0.789617 0.668476 0.052273
Si Si3 0.000000 0.994538 0.694349
Si Si4 0.000000 0.538511 0.264362
Si Si5 0.500000 0.496622 0.393888
Si Si6 0.708588 0.012584 0.710409
Si Si7 0.500000 0.159096 0.912276
Si Si8 0.500000 0.760198 0.630646
O O1 0.640796 0.612296 0.035011
O O2 0.500000 0.557276 0.244190
O O3 0.500000 0.828571 0.136868
O O4 0.870629 0.587747 0.175976
O O5 0.789189 0.849884 0.096786
O O6 0.874804 0.612460 0.925980
O O7 0.000000 0.879829 0.567438
O O8 0.856522 0.976150 0.760523
O O9 0.000000 0.655815 0.388218
O O10 0.000000 0.352967 0.261580
O O11 0.500000 0.647171 0.498146
O O12 0.623715 0.081086 0.834665
O O13 0.628707 0.868773 0.645034
#
# Coordination Sequence:
#
# PCOD9343218 Si02
#       8
#     2   4   2   2   2   4   2   2
#     4  10  20  37  62  91 121 157 209 255 301 376
#     4   8  17  36  58  87 120 159 204 244 298 370
#     4  10  21  36  62  98 120 151 214 258 301 373
#     4   8  16  33  57  80 116 160 199 236 298 369
#     4  10  20  37  60  86 123 165 196 250 316 354
#     4   9  18  35  60  90 123 158 207 253 297 368
#     4   9  18  37  61  84 124 167 192 250 315 351
#     4   9  17  32  56  87 120 162 206 245 297 371
#
# _framework density 23.398918999999999
#
# number of rings (size 3 to 8) (size 9 to 14) (size 15 to 20)
#    0.000    3.200    0.000    1.800    0.000    4.800 
#    0.000   23.000    0.000   14.400    0.000    0.000 
#    0.000    0.000    0.000    0.000    0.000    0.000 
#
# Total GULP energy -111751.268591 kJ/mol
# GULP energy per Si atom -5587.563430 kJ/mol
# Density = 2.334566 g / cm^3
# Si number density = 23.398919 Si / 1000 Ang^3
#
#
#
# Elastic Constant Matrix: (Units=GPa)
#
#
# Indices 1 2 3 4 5 6 
#
# 1 240.7290 57.6718 30.2233 0.0000 0.0000 0.0000
# 2 57.6718 118.3902 22.8610 0.0000 0.0000 0.0000
# 3 30.2233 22.8610 63.0929 0.0000 0.0000 0.0000
# 4 0.0000 0.0000 0.0000 35.8329 0.0000 0.0000
# 5 0.0000 0.0000 0.0000 0.0000 -9.2420 0.0000
# 6 0.0000 0.0000 0.0000 0.0000 0.0000 -23.0096
#
#
#
# Elastic Compliance Matrix: (Units=1/GPa)
#
#
# Indices 1 2 3 4 5 6 
#
# 1 0.004844 -0.002056 -0.001576 0.000000 0.000000 0.000000
# 2 -0.002056 0.009954 -0.002622 0.000000 0.000000 0.000000
# 3 -0.001576 -0.002622 0.017555 0.000000 0.000000 0.000000
# 4 0.000000 0.000000 0.000000 0.027907 0.000000 0.000000
# 5 0.000000 0.000000 0.000000 0.000000 -0.108202 0.000000
# 6 0.000000 0.000000 0.000000 0.000000 0.000000 -0.043460
#
#
# Mechanical properties :
#
#
# Convention : Reuss Voigt Hill
#
# Bulk Modulus (GPa) = 50.38731 71.52492 60.95611
# Shear Modulus (GPa) = -69.17608 21.48001 -23.84804
#
# Velocity S-wave (km/s) = -5.44316 3.03312 -3.19595
# Velocity P-wave (km/s) = 4.23358 6.54984 3.53392
#
# Compressibility (1/GPa) = 0.01984627
#
# Stress axis : x y z
#
# Youngs Moduli (GPa) = 206.42655 100.45895 56.96519
#
# Poissons Ratio (x) = 0.20650 0.08976
# Poissons Ratio (y) = 0.42432 0.14937
# Poissons Ratio (z) = 0.32528 0.26342
#
# Static dielectric constant tensor:
#      x y z
#    x 2.025610 0.000000 0.000000 
#    y 0.000000 1.891160 0.000000 
#    z 0.000000 0.000000 1.893380 
# 
# From -- ./inp_files/3905.got.cif
#   From: 2010.05.17/outbox.cif.g08.bks.cpg/sg31_2_cif.got.tgz:3905.got - 2010.06.03 17:08:30.
