data_PCOD9343909
_publ_section_title
;
Structure prediction by ZEFSAII (Michael W. Deem and Ramdas Pophale) SiO2 
 PCOD9343909
Probable space group: P B A 2
;
_chemical_formula_sum "Si O2"
_cell_formula_units_Z 30
_cell_length_a 20.371897
_cell_length_b 12.188137
_cell_length_c 5.331955
_cell_angle_alpha 90.000000
_cell_angle_beta 90.000000
_cell_angle_gamma 90.000000
_cell_volume 1323.900281
_symmetry_space_group_name_H-M "P B A 2"
_symmetry_group_IT_number 32
_symmetry_cell_setting 'orthorhombic'
loop_
_space_group_symop_operation_xyz
x,y,z
-x,-y,z
1/2-x,1/2+y,z
1/2+x,1/2-y,z
loop_
_atom_site_type_symbol
_atom_site_label
_atom_site_fract_x
_atom_site_fract_y
_atom_site_fract_z
Si Si1 0.555608 0.805202 0.832220
Si Si2 0.500000 0.000000 0.175106
Si Si3 0.700177 0.594663 0.292239
Si Si4 0.042868 0.111577 0.703029
Si Si5 0.117218 0.529794 0.475715
Si Si6 0.424743 0.539925 0.202892
Si Si7 0.311810 0.181692 0.100384
Si Si8 0.736531 0.997356 0.791593
O O1 0.506186 0.707970 0.777333
O O2 0.578278 0.864841 0.579605
O O3 0.523952 0.900003 0.003491
O O4 0.623397 0.770327 0.964925
O O5 0.560738 0.040202 0.346306
O O6 0.624426 0.557965 0.266714
O O7 0.711650 0.725051 0.289899
O O8 0.724331 0.534519 0.544284
O O9 0.735632 0.559693 0.032926
O O10 0.076582 0.124409 0.433809
O O11 0.091924 0.091296 0.933690
O O12 0.000000 0.000000 0.672958
O O13 0.165177 0.577630 0.264511
O O14 0.160669 0.482151 0.701723
O O15 0.500000 0.500000 0.174739
O O16 0.265630 0.129866 0.885607
#
# Coordination Sequence:
#
# PCOD9343909 Si02
#       8
#     4   2   4   4   4   4   4   4
#     4  10  22  38  71 102 137 186 232 287 359 429
#     4  10  22  42  70 104 138 182 236 296 358 414
#     4  12  25  43  75  96 141 192 232 295 366 418
#     4  10  21  36  61  98 141 166 214 279 345 415
#     4  10  22  44  72 100 138 177 245 294 341 427
#     4  10  22  39  62  99 138 175 217 275 342 428
#     4  10  23  43  73 101 131 187 249 290 346 447
#     4  11  25  45  67 105 136 179 247 298 343 430
#
# _framework density 22.660318
#
# number of rings (size 3 to 8) (size 9 to 14) (size 15 to 20)
#    0.000    1.600    1.333    2.800   11.200    0.000 
#    0.000    4.000    5.867    0.000    0.000    0.000 
#    0.000    0.000    0.000    0.000    0.000    0.000 
#
# Total GULP energy -167430.696271 kJ/mol
# GULP energy per Si atom -5581.023209 kJ/mol
# Density = 2.260874 g / cm^3
# Si number density = 22.660318 Si / 1000 Ang^3
#
#
#
# Elastic Constant Matrix: (Units=GPa)
#
#
# Indices 1 2 3 4 5 6 
#
# 1 70.8229 36.5830 27.7646 0.0000 0.0000 0.0000
# 2 36.5830 46.4286 14.2439 0.0000 0.0000 0.0000
# 3 27.7646 14.2439 138.1302 0.0000 0.0000 0.0000
# 4 0.0000 0.0000 0.0000 16.8807 0.0000 0.0000
# 5 0.0000 0.0000 0.0000 0.0000 38.3448 0.0000
# 6 0.0000 0.0000 0.0000 0.0000 0.0000 22.6604
#
#
#
# Elastic Compliance Matrix: (Units=1/GPa)
#
#
# Indices 1 2 3 4 5 6 
#
# 1 0.025030 -0.018772 -0.003095 0.000000 0.000000 0.000000
# 2 -0.018772 0.036321 0.000028 0.000000 0.000000 0.000000
# 3 -0.003095 0.000028 0.007859 0.000000 0.000000 0.000000
# 4 0.000000 0.000000 0.000000 0.059239 0.000000 0.000000
# 5 0.000000 0.000000 0.000000 0.000000 0.026079 0.000000
# 6 0.000000 0.000000 0.000000 0.000000 0.000000 0.044130
#
#
# Mechanical properties :
#
#
# Convention : Reuss Voigt Hill
#
# Bulk Modulus (GPa) = 39.16888 45.84051 42.50470
# Shear Modulus (GPa) = 19.93236 27.36319 23.64777
#
# Velocity S-wave (km/s) = 2.96905 3.47873 3.23395
# Velocity P-wave (km/s) = 5.39226 6.03397 5.72212
#
# Compressibility (1/GPa) = 0.02553047
#
# Stress axis : x y z
#
# Youngs Moduli (GPa) = 39.95217 27.53191 127.24529
#
# Poissons Ratio (x) = 0.51684 0.39386
# Poissons Ratio (y) = 0.75000 -0.00355
# Poissons Ratio (z) = 0.12366 -0.00077
#
# Static dielectric constant tensor:
#      x y z
#    x 1.842630 0.000000 0.000000 
#    y 0.000000 1.836340 0.000000 
#    z 0.000000 0.000000 1.921440 
# 
# From -- ./inp_files/1610.got.cif
#   From: 2010.05.17/outbox.cif.g08.bks.cpg/sg32_1_cif.got.tgz:1610.got - 2010.06.03 17:12:27.
