data_PCOD9343559
_publ_section_title
;
Structure prediction by ZEFSAII (Michael W. Deem and Ramdas Pophale) SiO2 
 PCOD9343559
Probable space group: P M N 21
;
_chemical_formula_sum "Si O2"
_cell_formula_units_Z 32
_cell_length_a 14.133880
_cell_length_b 6.428681
_cell_length_c 17.323827
_cell_angle_alpha 90.000000
_cell_angle_beta 90.000000
_cell_angle_gamma 90.000000
_cell_volume 1574.081134
_symmetry_space_group_name_H-M "P M N 21"
_symmetry_group_IT_number 31
_symmetry_cell_setting 'orthorhombic'
loop_
_space_group_symop_operation_xyz
x,y,z
1/2-x,-y,1/2+z
-x,y,z
1/2+x,-y,1/2+z
loop_
_atom_site_type_symbol
_atom_site_label
_atom_site_fract_x
_atom_site_fract_y
_atom_site_fract_z
Si Si1 0.892518 0.130520 0.616270
Si Si2 0.890934 0.272786 0.991869
Si Si3 0.261666 0.267424 0.099569
Si Si4 0.727548 0.586455 0.231893
Si Si5 0.390476 0.398174 0.362755
Si Si6 0.263885 0.044064 0.394898
Si Si7 0.153677 0.413083 0.477351
Si Si8 0.110327 0.720237 0.335480
O O1 0.828309 0.246557 0.680107
O O2 0.902505 0.280531 0.541619
O O3 0.000000 0.079727 0.641990
O O4 0.829740 0.930485 0.594712
O O5 0.886320 0.498129 0.948678
O O6 0.000000 0.209046 0.988165
O O7 0.824256 0.115649 0.945009
O O8 0.848740 0.249846 0.077779
O O9 0.272968 0.378367 0.181161
O O10 0.295145 0.420562 0.031519
O O11 0.667378 0.555212 0.309140
O O12 0.833598 0.636673 0.260262
O O13 0.500000 0.390988 0.341119
O O14 0.342294 0.174521 0.347884
O O15 0.218520 0.234769 0.441364
O O16 0.176615 0.916966 0.358623
O O17 0.114006 0.548092 0.405218
O O18 0.000000 0.771716 0.323163
#
# Coordination Sequence:
#
# PCOD9343559 Si02
#       8
#     4   4   4   4   4   4   4   4
#     4  11  25  42  68  97 129 175 219 270 341 398
#     4  11  22  41  68  98 128 167 220 275 334 393
#     4  11  23  42  64  94 135 171 214 273 323 400
#     4  11  25  44  63  92 139 173 217 275 321 403
#     4  11  23  42  70  99 130 172 219 276 335 387
#     4  12  20  42  68  99 130 169 218 285 329 385
#     4  11  21  43  70  93 132 163 217 278 327 386
#     4  12  26  44  68  96 131 178 227 276 337 394
#
# _framework density 20.329322000000001
#
# number of rings (size 3 to 8) (size 9 to 14) (size 15 to 20)
#    0.000    0.750    6.250    1.125    1.750    5.500 
#    0.000    0.625    0.000    0.000    0.000    0.000 
#    0.000    0.000    0.000    0.000    0.000    0.000 
#
# Total GULP energy -178304.003259 kJ/mol
# GULP energy per Si atom -5572.000102 kJ/mol
# Density = 2.028305 g / cm^3
# Si number density = 20.329322 Si / 1000 Ang^3
#
#
#
# Elastic Constant Matrix: (Units=GPa)
#
#
# Indices 1 2 3 4 5 6 
#
# 1 165.1441 37.8557 15.4866 0.0000 0.0000 0.0000
# 2 37.8557 87.0400 -1.2151 0.0000 0.0000 0.0000
# 3 15.4866 -1.2151 33.5917 0.0000 0.0000 0.0000
# 4 0.0000 0.0000 0.0000 31.1622 0.0000 0.0000
# 5 0.0000 0.0000 0.0000 0.0000 17.8933 0.0000
# 6 0.0000 0.0000 0.0000 0.0000 0.0000 14.3360
#
#
#
# Elastic Compliance Matrix: (Units=1/GPa)
#
#
# Indices 1 2 3 4 5 6 
#
# 1 0.007090 -0.003131 -0.003382 0.000000 0.000000 0.000000
# 2 -0.003131 0.012877 0.001909 0.000000 0.000000 0.000000
# 3 -0.003382 0.001909 0.031398 0.000000 0.000000 0.000000
# 4 0.000000 0.000000 0.000000 0.032090 0.000000 0.000000
# 5 0.000000 0.000000 0.000000 0.000000 0.055887 0.000000
# 6 0.000000 0.000000 0.000000 0.000000 0.000000 0.069754
#
#
# Mechanical properties :
#
#
# Convention : Reuss Voigt Hill
#
# Bulk Modulus (GPa) = 23.72044 43.33667 33.52855
# Shear Modulus (GPa) = 21.51869 28.25488 24.88679
#
# Velocity S-wave (km/s) = 3.25700 3.73212 3.50263
# Velocity P-wave (km/s) = 5.08306 6.31944 5.73466
#
# Compressibility (1/GPa) = 0.04215773
#
# Stress axis : x y z
#
# Youngs Moduli (GPa) = 141.04067 77.65590 31.84963
#
# Poissons Ratio (x) = 0.24313 0.10772
# Poissons Ratio (y) = 0.44158 -0.06081
# Poissons Ratio (z) = 0.47700 -0.14826
#
# Static dielectric constant tensor:
#      x y z
#    x 1.774810 0.000000 0.000000 
#    y 0.000000 1.735720 0.000000 
#    z 0.000000 0.000000 1.757640 
# 
# From -- ./inp_files/6100.got.cif
#   From: 2010.05.17/outbox.cif.g08.bks.cpg/sg31_4_cif.got.tgz:6100.got - 2010.06.03 17:08:30.
