data_PCOD9343707
_publ_section_title
;
Structure prediction by ZEFSAII (Michael W. Deem and Ramdas Pophale) SiO2 
 PCOD9343707
Probable space group: P B A 2
;
_chemical_formula_sum "Si O2"
_cell_formula_units_Z 24
_cell_length_a 24.448956
_cell_length_b 7.744332
_cell_length_c 4.971062
_cell_angle_alpha 90.000000
_cell_angle_beta 90.000000
_cell_angle_gamma 90.000000
_cell_volume 941.225017
_symmetry_space_group_name_H-M "P B A 2"
_symmetry_group_IT_number 32
_symmetry_cell_setting 'orthorhombic'
loop_
_space_group_symop_operation_xyz
x,y,z
-x,-y,z
1/2-x,1/2+y,z
1/2+x,1/2-y,z
loop_
_atom_site_type_symbol
_atom_site_label
_atom_site_fract_x
_atom_site_fract_y
_atom_site_fract_z
Si Si1 0.500000 0.500000 0.876190
Si Si2 0.836262 0.250093 0.136038
Si Si3 0.832257 0.780030 0.664581
Si Si4 0.500000 0.000000 0.384410
Si Si5 0.725822 0.380788 0.159351
Si Si6 0.941419 0.658882 0.902817
Si Si7 0.393382 0.353344 0.630885
O O1 0.535122 0.345273 0.013977
O O2 0.454557 0.398445 0.707568
O O3 0.789985 0.384391 0.218346
O O4 0.885719 0.228962 0.342891
O O5 0.802984 0.067298 0.154125
O O6 0.862685 0.265510 0.845419
O O7 0.807112 0.762605 0.370704
O O8 0.878548 0.667366 0.808967
O O9 0.862483 0.964892 0.645279
O O10 0.781556 0.799500 0.865360
O O11 0.527294 0.122235 0.619310
O O12 0.546748 0.026971 0.147068
#
# Coordination Sequence:
#
# PCOD9343707 Si02
#       7
#     2   4   4   2   4   4   4
#     4  10  22  40  68  90 112 160 210 244 288 354
#     4  10  20  36  54  80 112 144 182 232 284 340
#     4   9  18  34  57  78 103 149 192 220 274 360
#     4  10  22  38  54  82 128 158 180 250 312 342
#     4  10  19  34  55  77 106 141 180 230 284 334
#     4  10  21  39  61  86 117 157 202 241 290 351
#     4   9  20  35  56  84 112 139 187 245 284 326
#
# _framework density 25.498684000000001
#
# number of rings (size 3 to 8) (size 9 to 14) (size 15 to 20)
#    0.000    2.333    0.000    2.000    0.000    6.667 
#    0.000   10.000    0.000    0.000    0.000    0.000 
#    0.000    0.000    0.000    0.000    0.000    0.000 
#
# Total GULP energy -133807.005205 kJ/mol
# GULP energy per Si atom -5575.291884 kJ/mol
# Density = 2.544065 g / cm^3
# Si number density = 25.498684 Si / 1000 Ang^3
#
#
#
# Elastic Constant Matrix: (Units=GPa)
#
#
# Indices 1 2 3 4 5 6 
#
# 1 74.6212 38.4630 -2.3386 0.0000 0.0000 0.0000
# 2 38.4630 82.8666 32.2604 0.0000 0.0000 0.0000
# 3 -2.3386 32.2604 99.9520 0.0000 0.0000 0.0000
# 4 0.0000 0.0000 0.0000 6.9934 0.0000 0.0000
# 5 0.0000 0.0000 0.0000 0.0000 -14.0713 0.0000
# 6 0.0000 0.0000 0.0000 0.0000 0.0000 31.7753
#
#
#
# Elastic Compliance Matrix: (Units=1/GPa)
#
#
# Indices 1 2 3 4 5 6 
#
# 1 0.018748 -0.010148 0.003714 0.000000 0.000000 0.000000
# 2 -0.010148 0.019295 -0.006465 0.000000 0.000000 0.000000
# 3 0.003714 -0.006465 0.012178 0.000000 0.000000 0.000000
# 4 0.000000 0.000000 0.000000 0.142992 0.000000 0.000000
# 5 0.000000 0.000000 0.000000 0.000000 -0.071067 0.000000
# 6 0.000000 0.000000 0.000000 0.000000 0.000000 0.031471
#
#
# Mechanical properties :
#
#
# Convention : Reuss Voigt Hill
#
# Bulk Modulus (GPa) = 40.94453 43.80105 42.37279
# Shear Modulus (GPa) = 26.65865 17.54313 22.10089
#
# Velocity S-wave (km/s) = 3.23691 2.62582 2.94725
# Velocity P-wave (km/s) = 5.48293 5.13890 5.31370
#
# Compressibility (1/GPa) = 0.02442328
#
# Stress axis : x y z
#
# Youngs Moduli (GPa) = 53.33891 51.82799 82.11316
#
# Poissons Ratio (x) = 0.52594 -0.30496
# Poissons Ratio (y) = 0.54128 0.53086
# Poissons Ratio (z) = -0.19810 0.33506
#
# Static dielectric constant tensor:
#      x y z
#    x 2.030960 0.000000 0.000000 
#    y 0.000000 2.079740 0.000000 
#    z 0.000000 0.000000 1.929350 
# 
# From -- ./inp_files/968.got.cif
#   From: 2010.05.17/outbox.cif.g08.bks.cpg/sg32_1_cif.got.tgz:968.got - 2010.06.03 17:12:27.
