data_PCOD9343362
_publ_section_title
;
Structure prediction by ZEFSAII (Michael W. Deem and Ramdas Pophale) SiO2 
 PCOD9343362
Probable space group: P M N 21
;
_chemical_formula_sum "Si O2"
_cell_formula_units_Z 32
_cell_length_a 13.038805
_cell_length_b 9.038669
_cell_length_c 11.733021
_cell_angle_alpha 90.000000
_cell_angle_beta 90.000000
_cell_angle_gamma 90.000000
_cell_volume 1382.776916
_symmetry_space_group_name_H-M "P M N 21"
_symmetry_group_IT_number 31
_symmetry_cell_setting 'orthorhombic'
loop_
_space_group_symop_operation_xyz
x,y,z
1/2-x,-y,1/2+z
-x,y,z
1/2+x,-y,1/2+z
loop_
_atom_site_type_symbol
_atom_site_label
_atom_site_fract_x
_atom_site_fract_y
_atom_site_fract_z
Si Si1 0.332080 0.041808 0.254880
Si Si2 0.699765 0.532344 0.054149
Si Si3 0.887123 0.338876 0.033213
Si Si4 0.307744 0.171835 0.485717
Si Si5 0.111134 0.033625 0.161505
Si Si6 0.665859 0.691964 0.272513
Si Si7 0.888869 0.959894 0.508913
Si Si8 0.612598 0.334565 0.859289
O O1 0.361110 0.130084 0.367416
O O2 0.208600 0.052246 0.241608
O O3 0.379170 0.100493 0.137997
O O4 0.357097 0.866651 0.260585
O O5 0.637408 0.599028 0.160770
O O6 0.787872 0.414320 0.088476
O O7 0.766218 0.664267 0.997976
O O8 0.631193 0.456521 0.957385
O O9 0.875618 0.353399 0.896458
O O10 0.000000 0.395394 0.067583
O O11 0.883888 0.166815 0.069538
O O12 0.375766 0.117154 0.591192
O O13 0.206393 0.068394 0.495175
O O14 0.000000 0.040118 0.218369
O O15 0.788781 0.666615 0.279174
O O16 0.882535 0.823306 0.423433
O O17 0.000000 0.033541 0.497315
O O18 0.500000 0.352477 0.807663
#
# Coordination Sequence:
#
# PCOD9343362 Si02
#       8
#     4   4   4   4   4   4   4   4
#     4  11  20  37  62  92 118 155 197 247 296 349
#     4  11  23  38  60  92 120 154 193 253 297 348
#     4  10  23  42  61  85 123 162 196 240 298 361
#     4  11  21  38  59  89 121 149 193 253 295 339
#     4  10  21  38  60  86 117 156 198 241 292 351
#     4  11  20  39  65  87 115 160 201 241 298 356
#     4  10  21  38  60  86 117 156 198 241 292 351
#     4  10  23  42  61  85 123 162 196 240 298 361
#
# _framework density 23.141838
#
# number of rings (size 3 to 8) (size 9 to 14) (size 15 to 20)
#    0.000    1.500    5.000    2.250    0.000    8.000 
#    0.000    2.500    0.000    0.000    0.000    0.000 
#    0.000    0.000    0.000    0.000    0.000    0.000 
#
# Total GULP energy -178954.223169 kJ/mol
# GULP energy per Si atom -5592.319474 kJ/mol
# Density = 2.308917 g / cm^3
# Si number density = 23.141838 Si / 1000 Ang^3
#
#
#
# Elastic Constant Matrix: (Units=GPa)
#
#
# Indices 1 2 3 4 5 6 
#
# 1 83.5954 4.0860 -16.0434 0.0000 0.0000 0.0000
# 2 4.0860 71.0941 -1.2017 0.0000 0.0000 0.0000
# 3 -16.0434 -1.2017 73.7956 0.0000 0.0000 0.0000
# 4 0.0000 0.0000 0.0000 35.3715 0.0000 0.0000
# 5 0.0000 0.0000 0.0000 0.0000 3.3125 0.0000
# 6 0.0000 0.0000 0.0000 0.0000 0.0000 12.0643
#
#
#
# Elastic Compliance Matrix: (Units=1/GPa)
#
#
# Indices 1 2 3 4 5 6 
#
# 1 0.012515 -0.000673 0.002710 0.000000 0.000000 0.000000
# 2 -0.000673 0.014106 0.000083 0.000000 0.000000 0.000000
# 3 0.002710 0.000083 0.014141 0.000000 0.000000 0.000000
# 4 0.000000 0.000000 0.000000 0.028271 0.000000 0.000000
# 5 0.000000 0.000000 0.000000 0.000000 0.301888 0.000000
# 6 0.000000 0.000000 0.000000 0.000000 0.000000 0.082889
#
#
# Mechanical properties :
#
#
# Convention : Reuss Voigt Hill
#
# Bulk Modulus (GPa) = 22.22111 22.46298 22.34204
# Shear Modulus (GPa) = 10.76260 26.25928 18.51094
#
# Velocity S-wave (km/s) = 2.15889 3.37220 2.83130
# Velocity P-wave (km/s) = 3.97962 4.98899 4.51262
#
# Compressibility (1/GPa) = 0.04500226
#
# Stress axis : x y z
#
# Youngs Moduli (GPa) = 79.90170 70.89189 70.71407
#
# Poissons Ratio (x) = 0.04775 -0.19163
# Poissons Ratio (y) = 0.05381 -0.00589
# Poissons Ratio (z) = -0.21653 -0.00590
#
# Static dielectric constant tensor:
#      x y z
#    x 1.900620 0.000000 0.000000 
#    y 0.000000 1.844680 0.000000 
#    z 0.000000 0.000000 1.874240 
# 
# From -- ./inp_files/4295.got.cif
#   From: 2010.05.17/outbox.cif.g08.bks.cpg/sg31_3_cif.got.tgz:4295.got - 2010.06.03 17:08:30.
