data_PCOD9343772
_publ_section_title
;
Structure prediction by ZEFSAII (Michael W. Deem and Ramdas Pophale) SiO2 
 PCOD9343772
Probable space group: P B A 2
;
_chemical_formula_sum "Si O2"
_cell_formula_units_Z 24
_cell_length_a 14.629786
_cell_length_b 12.070549
_cell_length_c 5.439291
_cell_angle_alpha 90.000000
_cell_angle_beta 90.000000
_cell_angle_gamma 90.000000
_cell_volume 960.521943
_symmetry_space_group_name_H-M "P B A 2"
_symmetry_group_IT_number 32
_symmetry_cell_setting 'orthorhombic'
loop_
_space_group_symop_operation_xyz
x,y,z
-x,-y,z
1/2-x,1/2+y,z
1/2+x,1/2-y,z
loop_
_atom_site_type_symbol
_atom_site_label
_atom_site_fract_x
_atom_site_fract_y
_atom_site_fract_z
Si Si1 0.168560 0.368460 0.932730
Si Si2 0.601434 0.904766 0.932745
Si Si3 0.449042 0.221143 0.432747
Si Si4 0.736771 0.669501 0.432731
Si Si5 0.175642 0.109341 0.932737
Si Si6 0.627642 0.370019 0.432737
O O1 0.092222 0.462138 0.932751
O O2 0.224960 0.383849 0.681292
O O3 0.143209 0.239079 0.932733
O O4 0.224972 0.383843 0.184150
O O5 0.565516 0.849640 0.681552
O O6 0.713803 0.889399 0.932739
O O7 0.565520 0.849638 0.183939
O O8 0.370035 0.312965 0.432753
O O9 0.545301 0.283109 0.432740
O O10 0.780518 0.794066 0.432733
O O11 0.133173 0.062517 0.683544
O O12 0.133171 0.062518 0.181930
#
# Coordination Sequence:
#
# PCOD9343772 Si02
#       6
#     4   4   4   4   4   4
#     4  10  20  35  61  82 115 156 183 237 285 337
#     4  12  21  37  62  89 111 155 197 229 283 348
#     4  12  21  37  62  89 111 155 197 229 283 348
#     4  10  19  40  54  82 120 151 186 236 292 332
#     4  10  19  40  54  82 120 151 186 236 292 332
#     4  10  20  35  61  82 115 156 183 237 285 337
#
# _framework density 24.986416999999999
#
# number of rings (size 3 to 8) (size 9 to 14) (size 15 to 20)
#    0.000    1.333    6.667    2.000    0.000    0.000 
#    0.000   20.000    0.000    6.000    0.000    0.000 
#    0.000    0.000    0.000    0.000    0.000    0.000 
#
# Total GULP energy -134367.606248 kJ/mol
# GULP energy per Si atom -5598.650260 kJ/mol
# Density = 2.492955 g / cm^3
# Si number density = 24.986417 Si / 1000 Ang^3
#
#
#
# Elastic Constant Matrix: (Units=GPa)
#
#
# Indices 1 2 3 4 5 6 
#
# 1 84.7586 14.0736 45.1448 0.0000 0.0000 0.0000
# 2 14.0736 74.2711 26.1606 0.0000 0.0000 0.0000
# 3 45.1448 26.1606 292.6840 0.0000 0.0000 0.0000
# 4 0.0000 0.0000 0.0000 -2.7351 0.0000 0.0000
# 5 0.0000 0.0000 0.0000 0.0000 49.9338 0.0000
# 6 0.0000 0.0000 0.0000 0.0000 0.0000 42.6115
#
#
#
# Elastic Compliance Matrix: (Units=1/GPa)
#
#
# Indices 1 2 3 4 5 6 
#
# 1 0.013090 -0.001827 -0.001856 0.000000 0.000000 0.000000
# 2 -0.001827 0.014157 -0.000984 0.000000 0.000000 0.000000
# 3 -0.001856 -0.000984 0.003791 0.000000 0.000000 0.000000
# 4 0.000000 0.000000 0.000000 -0.365614 0.000000 0.000000
# 5 0.000000 0.000000 0.000000 0.000000 0.020027 0.000000
# 6 0.000000 0.000000 0.000000 0.000000 0.000000 0.023468
#
#
# Mechanical properties :
#
#
# Convention : Reuss Voigt Hill
#
# Bulk Modulus (GPa) = 46.07164 69.16353 57.61758
# Shear Modulus (GPa) = -18.21394 42.38436 12.08521
#
# Velocity S-wave (km/s) = -2.70284 4.12308 2.20164
# Velocity P-wave (km/s) = 2.95605 7.09978 5.43807
#
# Compressibility (1/GPa) = 0.02170533
#
# Stress axis : x y z
#
# Youngs Moduli (GPa) = 76.39440 70.63749 263.79584
#
# Poissons Ratio (x) = 0.12904 0.48954
# Poissons Ratio (y) = 0.13955 0.25947
# Poissons Ratio (z) = 0.14177 0.06948
#
# Static dielectric constant tensor:
#      x y z
#    x 1.961160 0.000000 0.000000 
#    y 0.000000 1.970770 0.000000 
#    z 0.000000 0.000000 2.078630 
# 
# From -- ./inp_files/1181.got.cif
#   From: 2010.05.17/outbox.cif.g08.bks.cpg/sg32_1_cif.got.tgz:1181.got - 2010.06.03 17:12:27.
