data_PCOD9343288
_publ_section_title
;
Structure prediction by ZEFSAII (Michael W. Deem and Ramdas Pophale) SiO2 
 PCOD9343288
Probable space group: P M N 21
;
_chemical_formula_sum "Si O2"
_cell_formula_units_Z 24
_cell_length_a 24.284427
_cell_length_b 4.901195
_cell_length_c 8.780305
_cell_angle_alpha 90.000000
_cell_angle_beta 90.000000
_cell_angle_gamma 90.000000
_cell_volume 1045.055715
_symmetry_space_group_name_H-M "P M N 21"
_symmetry_group_IT_number 31
_symmetry_cell_setting 'orthorhombic'
loop_
_space_group_symop_operation_xyz
x,y,z
1/2-x,-y,1/2+z
-x,y,z
1/2+x,-y,1/2+z
loop_
_atom_site_type_symbol
_atom_site_label
_atom_site_fract_x
_atom_site_fract_y
_atom_site_fract_z
Si Si1 0.822335 0.416180 0.072980
Si Si2 0.560361 0.440525 0.547116
Si Si3 0.718430 0.008673 0.368514
Si Si4 0.202604 0.478939 0.654694
Si Si5 0.838686 0.750712 0.380229
Si Si6 0.440925 0.944547 0.760210
O O1 0.878361 0.500813 0.983018
O O2 0.760161 0.537303 0.059365
O O3 0.833699 0.532808 0.242378
O O4 0.811447 0.098847 0.024569
O O5 0.500000 0.486793 0.470245
O O6 0.560585 0.133346 0.608624
O O7 0.559711 0.640510 0.694750
O O8 0.694378 0.799766 0.241804
O O9 0.782681 0.929731 0.384769
O O10 0.710710 0.293149 0.284263
O O11 0.158111 0.581080 0.535447
O O12 0.889464 0.951824 0.354745
O O13 0.500000 0.993067 0.836655
#
# Coordination Sequence:
#
# PCOD9343288 Si02
#       6
#     4   4   4   4   4   4
#     4   9  19  34  54  75 101 134 171 207 250 304
#     4   9  17  29  47  72  97 122 160 208 248 285
#     4  10  21  34  50  75 105 134 165 206 254 302
#     4  10  21  34  50  75 105 134 165 206 254 302
#     4   9  19  34  54  75 101 134 171 207 250 304
#     4   9  17  29  47  72  97 122 160 208 248 285
#
# _framework density 22.965281999999998
#
# number of rings (size 3 to 8) (size 9 to 14) (size 15 to 20)
#    0.000    2.667    0.000    1.000    0.000   16.000 
#    0.000    0.000    0.000    2.000    0.000    0.000 
#    0.000    0.000    0.000    0.000    0.000    0.000 
#
# Total GULP energy -133785.880055 kJ/mol
# GULP energy per Si atom -5574.411669 kJ/mol
# Density = 2.291301 g / cm^3
# Si number density = 22.965282 Si / 1000 Ang^3
#
#
#
# Elastic Constant Matrix: (Units=GPa)
#
#
# Indices 1 2 3 4 5 6 
#
# 1 142.9700 5.0777 14.9511 0.0000 0.0000 0.0000
# 2 5.0777 59.7328 30.5977 0.0000 0.0000 0.0000
# 3 14.9511 30.5977 80.4937 0.0000 0.0000 0.0000
# 4 0.0000 0.0000 0.0000 30.9352 0.0000 0.0000
# 5 0.0000 0.0000 0.0000 0.0000 25.5848 0.0000
# 6 0.0000 0.0000 0.0000 0.0000 0.0000 29.3330
#
#
#
# Elastic Compliance Matrix: (Units=1/GPa)
#
#
# Indices 1 2 3 4 5 6 
#
# 1 0.007133 0.000090 -0.001359 0.000000 0.000000 0.000000
# 2 0.000090 0.020790 -0.007920 0.000000 0.000000 0.000000
# 3 -0.001359 -0.007920 0.015686 0.000000 0.000000 0.000000
# 4 0.000000 0.000000 0.000000 0.032326 0.000000 0.000000
# 5 0.000000 0.000000 0.000000 0.000000 0.039086 0.000000
# 6 0.000000 0.000000 0.000000 0.000000 0.000000 0.034091
#
#
# Mechanical properties :
#
#
# Convention : Reuss Voigt Hill
#
# Bulk Modulus (GPa) = 39.63202 42.71663 41.17433
# Shear Modulus (GPa) = 28.42503 32.67525 30.55014
#
# Velocity S-wave (km/s) = 3.52197 3.77611 3.65125
# Velocity P-wave (km/s) = 5.81669 6.13620 5.97858
#
# Compressibility (1/GPa) = 0.02523212
#
# Stress axis : x y z
#
# Youngs Moduli (GPa) = 140.18534 48.09922 63.75018
#
# Poissons Ratio (x) = -0.00432 0.08664
# Poissons Ratio (y) = -0.01259 0.50488
# Poissons Ratio (z) = 0.19053 0.38093
#
# Static dielectric constant tensor:
#      x y z
#    x 1.958580 0.000000 0.000000 
#    y 0.000000 1.927900 0.000000 
#    z 0.000000 0.000000 1.908340 
# 
# From -- ./inp_files/3034.got.cif
#   From: 2010.05.17/outbox.cif.g08.bks.cpg/sg31_2_cif.got.tgz:3034.got - 2010.06.03 17:08:30.
