data_PCOD9343381
_publ_section_title
;
Structure prediction by ZEFSAII (Michael W. Deem and Ramdas Pophale) SiO2 
 PCOD9343381
Probable space group: P M N 21
;
_chemical_formula_sum "Si O2"
_cell_formula_units_Z 32
_cell_length_a 14.827650
_cell_length_b 17.015925
_cell_length_c 5.084910
_cell_angle_alpha 90.000000
_cell_angle_beta 90.000000
_cell_angle_gamma 90.000000
_cell_volume 1282.954219
_symmetry_space_group_name_H-M "P M N 21"
_symmetry_group_IT_number 31
_symmetry_cell_setting 'orthorhombic'
loop_
_space_group_symop_operation_xyz
x,y,z
1/2-x,-y,1/2+z
-x,y,z
1/2+x,-y,1/2+z
loop_
_atom_site_type_symbol
_atom_site_label
_atom_site_fract_x
_atom_site_fract_y
_atom_site_fract_z
Si Si1 0.797888 0.473779 0.812140
Si Si2 0.254539 0.682495 0.068270
Si Si3 0.603474 0.236501 0.840191
Si Si4 0.652452 0.076242 0.120778
Si Si5 0.598424 0.386475 0.215360
Si Si6 0.601398 0.847211 0.238289
Si Si7 0.391738 0.771906 0.735721
Si Si8 0.358894 0.987727 0.611477
O O1 0.719282 0.507125 0.617390
O O2 0.792287 0.380319 0.776429
O O3 0.883408 0.520223 0.688430
O O4 0.190521 0.755299 0.153219
O O5 0.338171 0.705826 0.886595
O O6 0.181036 0.637026 0.895492
O O7 0.500000 0.224048 0.742525
O O8 0.628251 0.163902 0.031623
O O9 0.602363 0.323241 0.978982
O O10 0.756331 0.045653 0.111271
O O11 0.629200 0.063966 0.424685
O O12 0.610589 0.017058 0.898499
O O13 0.500000 0.375343 0.337852
O O14 0.500000 0.818709 0.205667
O O15 0.631729 0.845559 0.936202
O O16 0.596709 0.923629 0.418860
O O17 0.645778 0.786846 0.444031
O O18 0.500000 0.761776 0.715337
#
# Coordination Sequence:
#
# PCOD9343381 Si02
#       8
#     4   4   4   4   4   4   4   4
#     4  10  21  41  64  92 123 166 217 260 313 384
#     4  11  23  39  70  93 136 177 225 264 340 393
#     4  11  24  41  63  96 135 177 222 273 331 400
#     4  10  23  37  58  88 122 163 217 268 327 384
#     4  10  23  42  65  98 136 177 221 268 328 399
#     4  10  21  39  61  87 122 164 210 269 334 384
#     4  10  23  38  62  97 128 164 221 280 333 394
#     4  10  21  39  59  85 120 166 218 270 322 392
#
# _framework density 24.942435
#
# number of rings (size 3 to 8) (size 9 to 14) (size 15 to 20)
#    0.000    1.750    1.250    1.875    5.250    2.500 
#    0.000    0.000    0.000    0.750    0.000    0.000 
#    0.000    0.000    0.000    0.000    0.000    0.000 
#
# Total GULP energy -178261.809532 kJ/mol
# GULP energy per Si atom -5570.681548 kJ/mol
# Density = 2.488566 g / cm^3
# Si number density = 24.942435 Si / 1000 Ang^3
#
#
#
# Elastic Constant Matrix: (Units=GPa)
#
#
# Indices 1 2 3 4 5 6 
#
# 1 98.8214 24.2307 24.4609 0.0000 0.0000 0.0000
# 2 24.2307 84.8328 -6.6540 0.0000 0.0000 0.0000
# 3 24.4609 -6.6540 83.7824 0.0000 0.0000 0.0000
# 4 0.0000 0.0000 0.0000 39.4735 0.0000 0.0000
# 5 0.0000 0.0000 0.0000 0.0000 11.1609 0.0000
# 6 0.0000 0.0000 0.0000 0.0000 0.0000 5.2906
#
#
#
# Elastic Compliance Matrix: (Units=1/GPa)
#
#
# Indices 1 2 3 4 5 6 
#
# 1 0.011968 -0.003716 -0.003789 0.000000 0.000000 0.000000
# 2 -0.003716 0.013015 0.002119 0.000000 0.000000 0.000000
# 3 -0.003789 0.002119 0.013210 0.000000 0.000000 0.000000
# 4 0.000000 0.000000 0.000000 0.025333 0.000000 0.000000
# 5 0.000000 0.000000 0.000000 0.000000 0.089599 0.000000
# 6 0.000000 0.000000 0.000000 0.000000 0.000000 0.189013
#
#
# Mechanical properties :
#
#
# Convention : Reuss Voigt Hill
#
# Bulk Modulus (GPa) = 36.46858 39.05685 37.76271
# Shear Modulus (GPa) = 13.81016 26.21160 20.01088
#
# Velocity S-wave (km/s) = 2.35560 3.24525 2.83553
# Velocity P-wave (km/s) = 4.69588 5.45298 5.08853
#
# Compressibility (1/GPa) = 0.02742087
#
# Stress axis : x y z
#
# Youngs Moduli (GPa) = 83.55398 76.83219 75.69874
#
# Poissons Ratio (x) = 0.28549 0.28685
# Poissons Ratio (y) = 0.31046 -0.16037
# Poissons Ratio (z) = 0.31661 -0.16277
#
# Static dielectric constant tensor:
#      x y z
#    x 1.980910 0.000000 0.000000 
#    y 0.000000 2.178560 0.000000 
#    z 0.000000 0.000000 2.016510 
# 
# From -- ./inp_files/684.got.cif
#   From: 2010.05.17/outbox.cif.g08.bks.cpg/sg31_1_cif.got.tgz:684.got - 2010.06.03 17:08:30.
