data_PCOD9343940
_publ_section_title
;
Structure prediction by ZEFSAII (Michael W. Deem and Ramdas Pophale) SiO2 
 PCOD9343940
Probable space group: P B A 2
;
_chemical_formula_sum "Si O2"
_cell_formula_units_Z 32
_cell_length_a 8.336689
_cell_length_b 13.414561
_cell_length_c 11.879405
_cell_angle_alpha 90.000000
_cell_angle_beta 90.000000
_cell_angle_gamma 90.000000
_cell_volume 1328.509774
_symmetry_space_group_name_H-M "P B A 2"
_symmetry_group_IT_number 32
_symmetry_cell_setting 'orthorhombic'
loop_
_space_group_symop_operation_xyz
x,y,z
-x,-y,z
1/2-x,1/2+y,z
1/2+x,1/2-y,z
loop_
_atom_site_type_symbol
_atom_site_label
_atom_site_fract_x
_atom_site_fract_y
_atom_site_fract_z
Si Si1 0.233410 0.816688 0.547470
Si Si2 0.318197 0.858323 0.886583
Si Si3 0.387827 0.367459 0.200111
Si Si4 0.312067 0.519598 0.620683
Si Si5 0.419598 0.647619 0.423295
Si Si6 0.136047 0.687912 0.751764
Si Si7 0.173543 0.224590 0.099381
Si Si8 0.188779 0.515429 0.054713
O O1 0.352092 0.754002 0.468145
O O2 0.132885 0.745820 0.631904
O O3 0.097744 0.862551 0.470666
O O4 0.287920 0.916200 0.614356
O O5 0.200620 0.779196 0.827724
O O6 0.478620 0.853259 0.812148
O O7 0.342939 0.809763 0.008189
O O8 0.269281 0.967953 0.931726
O O9 0.528076 0.373571 0.295089
O O10 0.250612 0.280939 0.209030
O O11 0.497361 0.322046 0.102932
O O12 0.297574 0.464408 0.153177
O O13 0.500000 0.500000 0.647090
O O14 0.310767 0.571868 0.496299
O O15 0.248778 0.596430 0.713973
O O16 0.280269 0.132487 0.060479
O O17 0.000000 0.500000 0.075242
#
# Coordination Sequence:
#
# PCOD9343940 Si02
#       8
#     4   4   4   4   4   4   4   4
#     4  10  21  39  62  92 128 164 211 267 318 388
#     4  11  23  41  63  90 129 171 215 267 324 384
#     4  11  23  42  69  94 128 173 217 274 343 403
#     4   9  20  39  63  94 132 167 215 271 320 393
#     4  10  21  41  65  92 127 168 210 262 328 391
#     4  11  22  40  65  92 126 172 215 260 325 388
#     4  11  23  42  64  95 131 169 220 279 333 396
#     4  11  24  42  63  95 132 170 224 282 331 399
#
# _framework density 24.087139000000001
#
# number of rings (size 3 to 8) (size 9 to 14) (size 15 to 20)
#    0.000    1.500    0.000    7.125    0.000    5.000 
#    0.000   10.000    0.000    6.000    0.000    0.000 
#    0.000    0.000    0.000    0.000    0.000    0.000 
#
# Total GULP energy -178280.952408 kJ/mol
# GULP energy per Si atom -5571.279763 kJ/mol
# Density = 2.403232 g / cm^3
# Si number density = 24.087139 Si / 1000 Ang^3
#
#
#
# Elastic Constant Matrix: (Units=GPa)
#
#
# Indices 1 2 3 4 5 6 
#
# 1 66.2153 29.9347 34.5717 0.0000 0.0000 0.0000
# 2 29.9347 153.8715 49.8628 0.0000 0.0000 0.0000
# 3 34.5717 49.8628 100.9177 0.0000 0.0000 0.0000
# 4 0.0000 0.0000 0.0000 9.1492 0.0000 0.0000
# 5 0.0000 0.0000 0.0000 0.0000 41.3553 0.0000
# 6 0.0000 0.0000 0.0000 0.0000 0.0000 42.9261
#
#
#
# Elastic Compliance Matrix: (Units=1/GPa)
#
#
# Indices 1 2 3 4 5 6 
#
# 1 0.018835 -0.001873 -0.005527 0.000000 0.000000 0.000000
# 2 -0.001873 0.007924 -0.003274 0.000000 0.000000 0.000000
# 3 -0.005527 -0.003274 0.013420 0.000000 0.000000 0.000000
# 4 0.000000 0.000000 0.000000 0.109300 0.000000 0.000000
# 5 0.000000 0.000000 0.000000 0.000000 0.024181 0.000000
# 6 0.000000 0.000000 0.000000 0.000000 0.000000 0.023296
#
#
# Mechanical properties :
#
#
# Convention : Reuss Voigt Hill
#
# Bulk Modulus (GPa) = 53.10203 61.08253 57.09228
# Shear Modulus (GPa) = 22.26387 32.46180 27.36284
#
# Velocity S-wave (km/s) = 3.04354 3.67506 3.37411
# Velocity P-wave (km/s) = 5.86894 6.58955 6.23966
#
# Compressibility (1/GPa) = 0.01883167
#
# Stress axis : x y z
#
# Youngs Moduli (GPa) = 53.09367 126.19620 74.51668
#
# Poissons Ratio (x) = 0.23639 0.41183
# Poissons Ratio (y) = 0.09946 0.24394
# Poissons Ratio (z) = 0.29343 0.41311
#
# Static dielectric constant tensor:
#      x y z
#    x 1.949000 0.000000 0.000000 
#    y 0.000000 2.067450 0.000000 
#    z 0.000000 0.000000 2.118430 
# 
# From -- ./inp_files/3770.got.cif
#   From: 2010.05.17/outbox.cif.g08.bks.cpg/sg32_2_cif.got.tgz:3770.got - 2010.06.03 17:12:27.
