data_PCOD9343311
_publ_section_title
;
Structure prediction by ZEFSAII (Michael W. Deem and Ramdas Pophale) SiO2 
 PCOD9343311
Probable space group: P M N 21
;
_chemical_formula_sum "Si O2"
_cell_formula_units_Z 32
_cell_length_a 15.037360
_cell_length_b 5.255012
_cell_length_c 17.756271
_cell_angle_alpha 90.000000
_cell_angle_beta 90.000000
_cell_angle_gamma 90.000000
_cell_volume 1403.127298
_symmetry_space_group_name_H-M "P M N 21"
_symmetry_group_IT_number 31
_symmetry_cell_setting 'orthorhombic'
loop_
_space_group_symop_operation_xyz
x,y,z
1/2-x,-y,1/2+z
-x,y,z
1/2+x,-y,1/2+z
loop_
_atom_site_type_symbol
_atom_site_label
_atom_site_fract_x
_atom_site_fract_y
_atom_site_fract_z
Si Si1 0.756416 0.135299 0.759390
Si Si2 0.596338 0.599213 0.358063
Si Si3 0.397628 0.537388 0.537041
Si Si4 0.398518 0.445977 0.976761
Si Si5 0.094902 0.749622 0.726643
Si Si6 0.313910 0.621107 0.124126
Si Si7 0.287420 0.025326 0.537492
Si Si8 0.831668 0.049240 0.399906
O O1 0.819867 0.925536 0.721240
O O2 0.819517 0.270513 0.820612
O O3 0.739559 0.335367 0.691362
O O4 0.683164 0.001937 0.811341
O O5 0.500000 0.726221 0.342046
O O6 0.603163 0.568660 0.446541
O O7 0.592652 0.332874 0.313852
O O8 0.500000 0.547421 0.562365
O O9 0.351752 0.267282 0.551164
O O10 0.338629 0.775284 0.564810
O O11 0.500000 0.486592 0.002213
O O12 0.389559 0.180451 0.933660
O O13 0.370284 0.675158 0.920946
O O14 0.331422 0.452772 0.048341
O O15 0.109404 0.493497 0.677621
O O16 0.000000 0.864980 0.704693
O O17 0.302673 0.889174 0.080324
O O18 0.259176 0.025785 0.449865
#
# Coordination Sequence:
#
# PCOD9343311 Si02
#       8
#     4   4   4   4   4   4   4   4
#     4  11  22  37  63  94 132 174 214 268 334 409
#     4   9  19  33  52  87 124 161 197 244 307 384
#     4  11  22  37  63  90 125 168 212 269 322 384
#     4  11  25  46  69  99 134 180 235 290 344 405
#     4  10  21  36  58  92 135 171 206 256 338 420
#     4  10  25  38  64  93 132 175 220 277 348 411
#     4  11  22  40  62  92 129 167 227 268 328 400
#     4  11  24  41  71  97 133 180 229 282 335 405
#
# _framework density 22.806197999999998
#
# number of rings (size 3 to 8) (size 9 to 14) (size 15 to 20)
#    0.000    1.500    1.250    3.750    8.750    1.500 
#    0.000    0.000    0.000    4.500    0.000    0.000 
#    0.000    0.000    0.000    0.000    0.000    0.000 
#
# Total GULP energy -178184.732906 kJ/mol
# GULP energy per Si atom -5568.272903 kJ/mol
# Density = 2.275429 g / cm^3
# Si number density = 22.806198 Si / 1000 Ang^3
#
#
#
# Elastic Constant Matrix: (Units=GPa)
#
#
# Indices 1 2 3 4 5 6 
#
# 1 72.1720 38.1706 13.1400 0.0000 0.0000 0.0000
# 2 38.1706 97.9430 1.9267 0.0000 0.0000 0.0000
# 3 13.1400 1.9267 93.3667 0.0000 0.0000 0.0000
# 4 0.0000 0.0000 0.0000 26.0118 0.0000 0.0000
# 5 0.0000 0.0000 0.0000 0.0000 16.5955 0.0000
# 6 0.0000 0.0000 0.0000 0.0000 0.0000 108.7072
#
#
#
# Elastic Compliance Matrix: (Units=1/GPa)
#
#
# Indices 1 2 3 4 5 6 
#
# 1 0.017969 -0.006956 -0.002385 0.000000 0.000000 0.000000
# 2 -0.006956 0.012907 0.000713 0.000000 0.000000 0.000000
# 3 -0.002385 0.000713 0.011031 0.000000 0.000000 0.000000
# 4 0.000000 0.000000 0.000000 0.038444 0.000000 0.000000
# 5 0.000000 0.000000 0.000000 0.000000 0.060257 0.000000
# 6 0.000000 0.000000 0.000000 0.000000 0.000000 0.009199
#
#
# Mechanical properties :
#
#
# Convention : Reuss Voigt Hill
#
# Bulk Modulus (GPa) = 40.56809 41.10626 40.83718
# Shear Modulus (GPa) = 28.52549 44.27920 36.40235
#
# Velocity S-wave (km/s) = 3.54047 4.41107 3.99953
# Velocity P-wave (km/s) = 5.87708 6.63376 6.26685
#
# Compressibility (1/GPa) = 0.02464991
#
# Stress axis : x y z
#
# Youngs Moduli (GPa) = 55.65143 77.47786 90.64996
#
# Poissons Ratio (x) = 0.53894 0.21623
# Poissons Ratio (y) = 0.38711 -0.06460
# Poissons Ratio (z) = 0.13275 -0.05521
#
# Static dielectric constant tensor:
#      x y z
#    x 1.949560 0.000000 0.000000 
#    y 0.000000 1.936970 0.000000 
#    z 0.000000 0.000000 1.886960 
# 
# From -- ./inp_files/6104.got.cif
#   From: 2010.05.17/outbox.cif.g08.bks.cpg/sg31_4_cif.got.tgz:6104.got - 2010.06.03 17:08:30.
