data_PCOD9343552
_publ_section_title
;
Structure prediction by ZEFSAII (Michael W. Deem and Ramdas Pophale) SiO2 
 PCOD9343552
Probable space group: P M N 21
;
_chemical_formula_sum "Si O2"
_cell_formula_units_Z 20
_cell_length_a 25.846024
_cell_length_b 4.944852
_cell_length_c 7.724497
_cell_angle_alpha 90.000000
_cell_angle_beta 90.000000
_cell_angle_gamma 90.000000
_cell_volume 987.227512
_symmetry_space_group_name_H-M "P M N 21"
_symmetry_group_IT_number 31
_symmetry_cell_setting 'orthorhombic'
loop_
_space_group_symop_operation_xyz
x,y,z
1/2-x,-y,1/2+z
-x,y,z
1/2+x,-y,1/2+z
loop_
_atom_site_type_symbol
_atom_site_label
_atom_site_fract_x
_atom_site_fract_y
_atom_site_fract_z
Si Si1 0.500000 0.937145 0.932170
Si Si2 0.390342 0.060492 0.932235
Si Si3 0.500000 0.434810 0.687759
Si Si4 0.221370 0.383254 0.119263
Si Si5 0.719169 0.881535 0.998700
Si Si6 0.109996 0.438294 0.184413
O O1 0.500000 0.633577 0.857457
O O2 0.500000 0.133637 0.763270
O O3 0.445686 0.009052 0.022241
O O4 0.339259 0.978551 0.036507
O O5 0.385532 0.357630 0.849447
O O6 0.392018 0.860499 0.765457
O O7 0.445214 0.494655 0.598477
O O8 0.257162 0.646469 0.116232
O O9 0.219377 0.253206 0.309671
O O10 0.162361 0.464487 0.075624
O O11 0.245121 0.145572 0.004298
#
# Coordination Sequence:
#
# PCOD9343552 Si02
#       6
#     2   4   2   4   4   4
#     4   8  14  24  42  66  93 120 151 198 253 286
#     4   9  16  28  45  69  97 124 157 203 248 288
#     4   8  14  24  42  66  93 120 151 198 253 286
#     4  11  21  34  51  74 102 134 167 204 246 295
#     4  11  21  34  51  74 102 134 167 204 246 295
#     4   9  16  28  45  69  97 124 157 203 248 288
#
# _framework density 20.258754
#
# number of rings (size 3 to 8) (size 9 to 14) (size 15 to 20)
#    0.000    2.400    0.000    6.000    0.000    0.000 
#    0.000    0.000    0.000    0.000    0.000    8.400 
#    0.000    0.000    0.000    0.000    0.000    0.000 
#
# Total GULP energy -111444.387838 kJ/mol
# GULP energy per Si atom -5572.219392 kJ/mol
# Density = 2.021264 g / cm^3
# Si number density = 20.258754 Si / 1000 Ang^3
#
#
#
# Elastic Constant Matrix: (Units=GPa)
#
#
# Indices 1 2 3 4 5 6 
#
# 1 233.7579 39.3209 18.3424 0.0000 0.0000 0.0000
# 2 39.3209 101.3633 6.5582 0.0000 0.0000 0.0000
# 3 18.3424 6.5582 15.1169 0.0000 0.0000 0.0000
# 4 0.0000 0.0000 0.0000 21.1261 0.0000 0.0000
# 5 0.0000 0.0000 0.0000 0.0000 17.6213 0.0000
# 6 0.0000 0.0000 0.0000 0.0000 0.0000 40.6585
#
#
#
# Elastic Compliance Matrix: (Units=1/GPa)
#
#
# Indices 1 2 3 4 5 6 
#
# 1 0.004962 -0.001580 -0.005336 0.000000 0.000000 0.000000
# 2 -0.001580 0.010653 -0.002705 0.000000 0.000000 0.000000
# 3 -0.005336 -0.002705 0.073799 0.000000 0.000000 0.000000
# 4 0.000000 0.000000 0.000000 0.047335 0.000000 0.000000
# 5 0.000000 0.000000 0.000000 0.000000 0.056749 0.000000
# 6 0.000000 0.000000 0.000000 0.000000 0.000000 0.024595
#
#
# Mechanical properties :
#
#
# Convention : Reuss Voigt Hill
#
# Bulk Modulus (GPa) = 14.25039 53.18680 33.71860
# Shear Modulus (GPa) = 19.17722 34.94897 27.06309
#
# Velocity S-wave (km/s) = 3.08005 4.15797 3.65892
# Velocity P-wave (km/s) = 4.43829 7.02584 5.87626
#
# Compressibility (1/GPa) = 0.07017351
#
# Stress axis : x y z
#
# Youngs Moduli (GPa) = 201.51724 93.86735 13.55035
#
# Poissons Ratio (x) = 0.14829 0.07230
# Poissons Ratio (y) = 0.31835 0.03665
# Poissons Ratio (z) = 1.07526 0.25390
#
# Static dielectric constant tensor:
#      x y z
#    x 1.849870 0.000000 0.000000 
#    y 0.000000 1.703310 0.000000 
#    z 0.000000 0.000000 1.733060 
# 
# From -- ./inp_files/1077.got.cif
#   From: 2010.05.17/outbox.cif.g08.bks.cpg/sg31_1_cif.got.tgz:1077.got - 2010.06.03 17:08:30.
