data_PCOD9343390
_publ_section_title
;
Structure prediction by ZEFSAII (Michael W. Deem and Ramdas Pophale) SiO2 
 PCOD9343390
Probable space group: P M N 21
;
_chemical_formula_sum "Si O2"
_cell_formula_units_Z 24
_cell_length_a 8.502792
_cell_length_b 12.234076
_cell_length_c 12.209119
_cell_angle_alpha 90.000000
_cell_angle_beta 90.000000
_cell_angle_gamma 90.000000
_cell_volume 1270.038996
_symmetry_space_group_name_H-M "P M N 21"
_symmetry_group_IT_number 31
_symmetry_cell_setting 'orthorhombic'
loop_
_space_group_symop_operation_xyz
x,y,z
1/2-x,-y,1/2+z
-x,y,z
1/2+x,-y,1/2+z
loop_
_atom_site_type_symbol
_atom_site_label
_atom_site_fract_x
_atom_site_fract_y
_atom_site_fract_z
Si Si1 0.308972 0.722340 0.944510
Si Si2 0.687628 0.834371 0.367133
Si Si3 0.187994 0.070145 0.306132
Si Si4 0.309509 0.656466 0.186594
Si Si5 0.186239 0.789754 0.608004
Si Si6 0.188856 0.414896 0.234516
O O1 0.500000 0.723213 0.946504
O O2 0.260852 0.840492 0.897483
O O3 0.262302 0.632791 0.853494
O O4 0.254416 0.694020 0.066025
O O5 0.500000 0.826290 0.380344
O O6 0.738319 0.744160 0.278151
O O7 0.767152 0.812822 0.483693
O O8 0.731710 0.954473 0.324788
O O9 0.231665 0.124610 0.190252
O O10 0.000000 0.057552 0.313301
O O11 0.500000 0.652983 0.184754
O O12 0.247290 0.536667 0.214716
O O13 0.242504 0.669926 0.646194
O O14 0.000000 0.798558 0.622037
O O15 0.000000 0.410724 0.228779
#
# Coordination Sequence:
#
# PCOD9343390 Si02
#       6
#     4   4   4   4   4   4
#     4   8  18  38  61  84 115 156 194 239 297 363
#     4  11  24  39  60  93 128 159 203 254 301 362
#     4  10  21  40  65  91 121 158 203 251 307 366
#     4  10  22  39  60  88 122 158 198 243 300 364
#     4  11  23  41  64  87 120 165 208 248 305 363
#     4  10  21  39  62  89 120 154 200 251 304 362
#
# _framework density 18.897057
#
# number of rings (size 3 to 8) (size 9 to 14) (size 15 to 20)
#    0.000    2.000    0.000    4.000    4.667    1.333 
#    0.000    4.167    0.000    0.000    0.000    0.000 
#    0.000    0.000    0.000    0.000    0.000    0.000 
#
# Total GULP energy -134083.604702 kJ/mol
# GULP energy per Si atom -5586.816863 kJ/mol
# Density = 1.885405 g / cm^3
# Si number density = 18.897057 Si / 1000 Ang^3
#
#
#
# Elastic Constant Matrix: (Units=GPa)
#
#
# Indices 1 2 3 4 5 6 
#
# 1 18.3271 -7.4195 -9.5481 0.0000 0.0000 0.0000
# 2 -7.4195 127.7268 47.5615 0.0000 0.0000 0.0000
# 3 -9.5481 47.5615 86.9604 0.0000 0.0000 0.0000
# 4 0.0000 0.0000 0.0000 11.2020 0.0000 0.0000
# 5 0.0000 0.0000 0.0000 0.0000 21.0346 0.0000
# 6 0.0000 0.0000 0.0000 0.0000 0.0000 34.8929
#
#
#
# Elastic Compliance Matrix: (Units=1/GPa)
#
#
# Indices 1 2 3 4 5 6 
#
# 1 0.058034 0.001254 0.005686 0.000000 0.000000 0.000000
# 2 0.001254 0.009859 -0.005254 0.000000 0.000000 0.000000
# 3 0.005686 -0.005254 0.014998 0.000000 0.000000 0.000000
# 4 0.000000 0.000000 0.000000 0.089270 0.000000 0.000000
# 5 0.000000 0.000000 0.000000 0.000000 0.047541 0.000000
# 6 0.000000 0.000000 0.000000 0.000000 0.000000 0.028659
#
#
# Mechanical properties :
#
#
# Convention : Reuss Voigt Hill
#
# Bulk Modulus (GPa) = 11.59263 32.68912 22.14087
# Shear Modulus (GPa) = 18.26536 26.92059 22.59297
#
# Velocity S-wave (km/s) = 3.11235 3.77847 3.46147
# Velocity P-wave (km/s) = 4.36618 6.03091 5.26476
#
# Compressibility (1/GPa) = 0.08626173
#
# Stress axis : x y z
#
# Youngs Moduli (GPa) = 17.23125 101.43441 66.67729
#
# Poissons Ratio (x) = -0.12717 -0.37915
# Poissons Ratio (y) = -0.02160 0.35034
# Poissons Ratio (z) = -0.09798 0.53297
#
# Static dielectric constant tensor:
#      x y z
#    x 1.647970 0.000000 0.000000 
#    y 0.000000 1.617570 0.000000 
#    z 0.000000 0.000000 1.642120 
# 
# From -- ./inp_files/3443.got.cif
#   From: 2010.05.17/outbox.cif.g08.bks.cpg/sg31_2_cif.got.tgz:3443.got - 2010.06.03 17:08:30.
