data_PCOD9343334
_publ_section_title
;
Structure prediction by ZEFSAII (Michael W. Deem and Ramdas Pophale) SiO2 
 PCOD9343334
Probable space group: P M N 21
;
_chemical_formula_sum "Si O2"
_cell_formula_units_Z 32
_cell_length_a 8.025270
_cell_length_b 16.275066
_cell_length_c 11.412654
_cell_angle_alpha 90.000000
_cell_angle_beta 90.000000
_cell_angle_gamma 90.000000
_cell_volume 1490.627269
_symmetry_space_group_name_H-M "P M N 21"
_symmetry_group_IT_number 31
_symmetry_cell_setting 'orthorhombic'
loop_
_space_group_symop_operation_xyz
x,y,z
1/2-x,-y,1/2+z
-x,y,z
1/2+x,-y,1/2+z
loop_
_atom_site_type_symbol
_atom_site_label
_atom_site_fract_x
_atom_site_fract_y
_atom_site_fract_z
Si Si1 0.306121 0.145050 0.897980
Si Si2 0.799083 0.155192 0.564076
Si Si3 0.700177 0.461640 0.664675
Si Si4 0.805748 0.010102 0.719882
Si Si5 0.807815 0.156514 0.152396
Si Si6 0.194025 0.712377 0.251078
Si Si7 0.695022 0.447580 0.401071
Si Si8 0.701302 0.734603 0.852568
O O1 0.500000 0.141056 0.862945
O O2 0.217233 0.072356 0.827984
O O3 0.237630 0.234957 0.859877
O O4 0.290700 0.137959 0.035417
O O5 0.751439 0.064558 0.606719
O O6 0.713429 0.221084 0.648723
O O7 0.759201 0.188721 0.436740
O O8 0.000000 0.160444 0.580618
O O9 0.500000 0.455913 0.650821
O O10 0.769186 0.372968 0.707554
O O11 0.760837 0.478447 0.529885
O O12 0.731145 0.519776 0.777419
O O13 0.000000 0.989465 0.708875
O O14 0.704714 0.926582 0.728303
O O15 0.745952 0.235243 0.224403
O O16 0.000000 0.170688 0.122009
O O17 0.000000 0.694692 0.275774
O O18 0.500000 0.467867 0.396111
O O19 0.720104 0.349150 0.398315
O O20 0.500000 0.724138 0.853012
#
# Coordination Sequence:
#
# PCOD9343334 Si02
#       8
#     4   4   4   4   4   4   4   4
#     4  10  21  38  59  84 118 157 200 252 307 362
#     4   9  18  34  59  86 113 147 190 239 292 351
#     4  10  22  41  63  93 130 163 203 260 317 377
#     4  10  21  37  59  88 118 155 201 249 301 364
#     4  11  24  39  57  85 122 162 203 251 308 366
#     4   9  18  36  61  85 112 149 191 243 298 354
#     4  11  24  41  65  95 126 164 214 261 314 385
#     4  10  22  40  61  86 121 161 198 249 309 365
#
# _framework density 21.467473999999999
#
# number of rings (size 3 to 8) (size 9 to 14) (size 15 to 20)
#    0.000    2.000    1.250    1.500    1.750    4.500 
#    0.000    2.500    0.000    0.000    0.000    0.000 
#    0.000    0.000    0.000    0.000    0.000    0.000 
#
# Total GULP energy -178417.203334 kJ/mol
# GULP energy per Si atom -5575.537604 kJ/mol
# Density = 2.141861 g / cm^3
# Si number density = 21.467474 Si / 1000 Ang^3
#
#
#
# Elastic Constant Matrix: (Units=GPa)
#
#
# Indices 1 2 3 4 5 6 
#
# 1 17.9355 -3.0508 7.1737 0.0000 0.0000 0.0000
# 2 -3.0508 52.6719 35.2274 0.0000 0.0000 0.0000
# 3 7.1737 35.2274 116.5776 0.0000 0.0000 0.0000
# 4 0.0000 0.0000 0.0000 25.5451 0.0000 0.0000
# 5 0.0000 0.0000 0.0000 0.0000 16.6381 0.0000
# 6 0.0000 0.0000 0.0000 0.0000 0.0000 20.3970
#
#
#
# Elastic Compliance Matrix: (Units=1/GPa)
#
#
# Indices 1 2 3 4 5 6 
#
# 1 0.059361 0.007371 -0.005880 0.000000 0.000000 0.000000
# 2 0.007371 0.024710 -0.007920 0.000000 0.000000 0.000000
# 3 -0.005880 -0.007920 0.011333 0.000000 0.000000 0.000000
# 4 0.000000 0.000000 0.000000 0.039147 0.000000 0.000000
# 5 0.000000 0.000000 0.000000 0.000000 0.060103 0.000000
# 6 0.000000 0.000000 0.000000 0.000000 0.000000 0.049027
#
#
# Mechanical properties :
#
#
# Convention : Reuss Voigt Hill
#
# Bulk Modulus (GPa) = 12.11465 29.54285 20.82875
# Shear Modulus (GPa) = 17.60228 22.37167 19.98698
#
# Velocity S-wave (km/s) = 2.86659 3.23169 3.05460
# Velocity P-wave (km/s) = 4.07577 5.26466 4.70790
#
# Compressibility (1/GPa) = 0.08254467
#
# Stress axis : x y z
#
# Youngs Moduli (GPa) = 16.84607 40.47020 88.23654
#
# Poissons Ratio (x) = -0.29830 0.51885
# Poissons Ratio (y) = -0.12417 0.69886
# Poissons Ratio (z) = 0.09906 0.32054
#
# Static dielectric constant tensor:
#      x y z
#    x 1.779060 0.000000 0.000000 
#    y 0.000000 1.765570 0.000000 
#    z 0.000000 0.000000 1.839420 
# 
# From -- ./inp_files/3586.got.cif
#   From: 2010.05.17/outbox.cif.g08.bks.cpg/sg31_2_cif.got.tgz:3586.got - 2010.06.03 17:08:30.
