data_PCOD9343875
_publ_section_title
;
Structure prediction by ZEFSAII (Michael W. Deem and Ramdas Pophale) SiO2 
 PCOD9343875
Probable space group: P B A 2
;
_chemical_formula_sum "Si O2"
_cell_formula_units_Z 32
_cell_length_a 15.337528
_cell_length_b 18.771003
_cell_length_c 5.110667
_cell_angle_alpha 90.000000
_cell_angle_beta 90.000000
_cell_angle_gamma 90.000000
_cell_volume 1471.365037
_symmetry_space_group_name_H-M "P B A 2"
_symmetry_group_IT_number 32
_symmetry_cell_setting 'orthorhombic'
loop_
_space_group_symop_operation_xyz
x,y,z
-x,-y,z
1/2-x,1/2+y,z
1/2+x,1/2-y,z
loop_
_atom_site_type_symbol
_atom_site_label
_atom_site_fract_x
_atom_site_fract_y
_atom_site_fract_z
Si Si1 0.755537 0.411702 0.175100
Si Si2 0.627661 0.653753 0.799895
Si Si3 0.022431 0.804124 0.302150
Si Si4 0.443523 0.162813 0.595091
Si Si5 0.093434 0.007866 0.926906
Si Si6 0.945924 0.429455 0.088975
Si Si7 0.869277 0.874544 0.551773
Si Si8 0.260906 0.218150 0.820375
O O1 0.842994 0.446292 0.071749
O O2 0.722993 0.410650 0.472638
O O3 0.672944 0.451631 0.058113
O O4 0.764851 0.328994 0.085050
O O5 0.591510 0.660576 0.504608
O O6 0.627343 0.570595 0.862108
O O7 0.717073 0.698338 0.839505
O O8 0.561460 0.691379 0.010674
O O9 0.010883 0.727516 0.440464
O O10 0.930929 0.844788 0.324280
O O11 0.450112 0.100152 0.383735
O O12 0.345102 0.191046 0.652675
O O13 0.471417 0.130612 0.874932
O O14 0.075480 0.064135 0.692901
O O15 0.000000 0.000000 0.068545
O O16 0.000000 0.500000 0.048650
O O17 0.832419 0.805981 0.707205
#
# Coordination Sequence:
#
# PCOD9343875 Si02
#       8
#     4   4   4   4   4   4   4   4
#     4  10  22  40  64  92 130 175 224 267 329 408
#     4  11  24  42  64  94 132 171 221 274 338 388
#     4  11  23  40  65  94 126 170 222 274 326 408
#     4  10  20  41  65  92 123 166 222 273 335 396
#     4  11  23  41  62  99 135 181 215 276 341 410
#     4  11  22  42  68  94 129 173 222 279 342 395
#     4  11  22  39  66  94 133 176 229 266 337 411
#     4   9  21  40  65  88 124 174 221 271 330 395
#
# _framework density 21.748512000000002
#
# number of rings (size 3 to 8) (size 9 to 14) (size 15 to 20)
#    0.000    1.500    2.500    3.375    5.250    0.500 
#    2.250    0.000    0.000    0.000    0.000    0.000 
#    0.000    0.000    0.000    0.000    0.000    0.000 
#
# Total GULP energy -178241.855218 kJ/mol
# GULP energy per Si atom -5570.057976 kJ/mol
# Density = 2.169901 g / cm^3
# Si number density = 21.748512 Si / 1000 Ang^3
#
#
#
# Elastic Constant Matrix: (Units=GPa)
#
#
# Indices 1 2 3 4 5 6 
#
# 1 70.2358 39.1256 8.6937 0.0000 0.0000 0.0000
# 2 39.1256 109.4046 -6.6078 0.0000 0.0000 0.0000
# 3 8.6937 -6.6078 61.3818 0.0000 0.0000 0.0000
# 4 0.0000 0.0000 0.0000 15.6566 0.0000 0.0000
# 5 0.0000 0.0000 0.0000 0.0000 15.3050 0.0000
# 6 0.0000 0.0000 0.0000 0.0000 0.0000 31.2407
#
#
#
# Elastic Compliance Matrix: (Units=1/GPa)
#
#
# Indices 1 2 3 4 5 6 
#
# 1 0.018437 -0.006795 -0.003343 0.000000 0.000000 0.000000
# 2 -0.006795 0.011705 0.002222 0.000000 0.000000 0.000000
# 3 -0.003343 0.002222 0.017004 0.000000 0.000000 0.000000
# 4 0.000000 0.000000 0.000000 0.063871 0.000000 0.000000
# 5 0.000000 0.000000 0.000000 0.000000 0.065338 0.000000
# 6 0.000000 0.000000 0.000000 0.000000 0.000000 0.032010
#
#
# Mechanical properties :
#
#
# Convention : Reuss Voigt Hill
#
# Bulk Modulus (GPa) = 31.93405 35.93834 33.93620
# Shear Modulus (GPa) = 21.30980 25.76118 23.53549
#
# Velocity S-wave (km/s) = 3.13362 3.44539 3.29320
# Velocity P-wave (km/s) = 5.27332 5.69105 5.48616
#
# Compressibility (1/GPa) = 0.03131454
#
# Stress axis : x y z
#
# Youngs Moduli (GPa) = 54.23886 85.43505 58.80905
#
# Poissons Ratio (x) = 0.58056 0.19659
# Poissons Ratio (y) = 0.36857 -0.13070
# Poissons Ratio (z) = 0.18131 -0.18988
#
# Static dielectric constant tensor:
#      x y z
#    x 1.805180 0.000000 0.000000 
#    y 0.000000 1.819090 0.000000 
#    z 0.000000 0.000000 1.911380 
# 
# From -- ./inp_files/1303.got.cif
#   From: 2010.05.17/outbox.cif.g08.bks.cpg/sg32_1_cif.got.tgz:1303.got - 2010.06.03 17:12:27.
