data_PCOD9343927
_publ_section_title
;
Structure prediction by ZEFSAII (Michael W. Deem and Ramdas Pophale) SiO2 
 PCOD9343927
Probable space group: P B A 2
;
_chemical_formula_sum "Si O2"
_cell_formula_units_Z 32
_cell_length_a 11.344069
_cell_length_b 8.808195
_cell_length_c 14.676576
_cell_angle_alpha 90.000000
_cell_angle_beta 90.000000
_cell_angle_gamma 90.000000
_cell_volume 1466.494802
_symmetry_space_group_name_H-M "P B A 2"
_symmetry_group_IT_number 32
_symmetry_cell_setting 'orthorhombic'
loop_
_space_group_symop_operation_xyz
x,y,z
-x,-y,z
1/2-x,1/2+y,z
1/2+x,1/2-y,z
loop_
_atom_site_type_symbol
_atom_site_label
_atom_site_fract_x
_atom_site_fract_y
_atom_site_fract_z
Si Si1 0.805972 0.864126 0.418710
Si Si2 0.316938 0.380155 0.548147
Si Si3 0.516285 0.676697 0.703465
Si Si4 0.874561 0.581546 0.096790
Si Si5 0.136039 0.434987 0.703466
Si Si6 0.194028 0.135875 0.988222
Si Si7 0.816938 0.119843 0.858785
Si Si8 0.874562 0.581547 0.310143
O O1 0.735271 0.745398 0.481375
O O2 0.878883 0.749036 0.355244
O O3 0.867089 0.981681 0.487952
O O4 0.720267 0.971683 0.359085
O O5 0.407716 0.294207 0.613813
O O6 0.216060 0.454449 0.613894
O O7 0.500000 0.500000 0.703463
O O8 0.392303 0.756159 0.703466
O O9 0.592283 0.705789 0.793119
O O10 0.878883 0.749035 0.051688
O O11 0.779733 0.471682 0.047847
O O12 0.845212 0.596226 0.203466
O O13 0.000000 0.500000 0.087381
O O14 0.216060 0.454450 0.793039
O O15 0.000000 0.500000 0.703467
O O16 0.264730 0.254603 0.925557
O O17 0.132911 0.018321 0.918980
O O18 0.000000 0.500000 0.319552
#
# Coordination Sequence:
#
# PCOD9343927 Si02
#       8
#     4   4   4   4   4   4   4   4
#     4  10  21  38  61  86 119 152 194 250 295 351
#     4  10  22  37  54  86 116 152 203 239 285 352
#     4  11  22  35  54  78 116 156 190 238 285 331
#     4  10  22  41  64  89 117 153 195 244 308 370
#     4  11  22  37  58  80 117 162 196 240 290 335
#     4  10  21  38  61  86 119 152 194 250 295 351
#     4  10  22  37  54  86 116 152 203 239 285 352
#     4  10  22  41  64  89 117 153 195 244 308 370
#
# _framework density 21.820740000000001
#
# number of rings (size 3 to 8) (size 9 to 14) (size 15 to 20)
#    0.000    1.750    0.000    3.750    0.000   14.000 
#    0.000    3.750    0.000   13.500    0.000    0.000 
#    0.000    0.000    0.000    0.000    0.000    0.000 
#
# Total GULP energy -178697.085714 kJ/mol
# GULP energy per Si atom -5584.283929 kJ/mol
# Density = 2.177108 g / cm^3
# Si number density = 21.820740 Si / 1000 Ang^3
#
#
#
# Elastic Constant Matrix: (Units=GPa)
#
#
# Indices 1 2 3 4 5 6 
#
# 1 65.8572 22.9009 47.2802 0.0000 0.0000 0.0000
# 2 22.9009 121.2326 54.3647 0.0000 0.0000 0.0000
# 3 47.2802 54.3647 146.4124 0.0000 0.0000 0.0000
# 4 0.0000 0.0000 0.0000 30.6255 0.0000 0.0000
# 5 0.0000 0.0000 0.0000 0.0000 18.7996 0.0000
# 6 0.0000 0.0000 0.0000 0.0000 0.0000 31.0142
#
#
#
# Elastic Compliance Matrix: (Units=1/GPa)
#
#
# Indices 1 2 3 4 5 6 
#
# 1 0.019878 -0.001052 -0.006029 0.000000 0.000000 0.000000
# 2 -0.001052 0.009952 -0.003356 0.000000 0.000000 0.000000
# 3 -0.006029 -0.003356 0.010023 0.000000 0.000000 0.000000
# 4 0.000000 0.000000 0.000000 0.032652 0.000000 0.000000
# 5 0.000000 0.000000 0.000000 0.000000 0.053192 0.000000
# 6 0.000000 0.000000 0.000000 0.000000 0.000000 0.032243
#
#
# Mechanical properties :
#
#
# Convention : Reuss Voigt Hill
#
# Bulk Modulus (GPa) = 52.68392 64.73262 58.70827
# Shear Modulus (GPa) = 27.00653 30.01829 28.51241
#
# Velocity S-wave (km/s) = 3.52185 3.71304 3.61870
# Velocity P-wave (km/s) = 6.38234 6.93630 6.66508
#
# Compressibility (1/GPa) = 0.01898112
#
# Stress axis : x y z
#
# Youngs Moduli (GPa) = 50.30649 100.48153 99.77179
#
# Poissons Ratio (x) = 0.10566 0.60149
# Poissons Ratio (y) = 0.05290 0.33481
# Poissons Ratio (z) = 0.30328 0.33719
#
# Static dielectric constant tensor:
#      x y z
#    x 1.849430 0.000000 0.000000 
#    y 0.000000 1.846050 0.000000 
#    z 0.000000 0.000000 1.833970 
# 
# From -- ./inp_files/4169.got.cif
#   From: 2010.05.17/outbox.cif.g08.bks.cpg/sg32_3_cif.got.tgz:4169.got - 2010.06.03 17:12:27.
