data_PCOD9343323
_publ_section_title
;
Structure prediction by ZEFSAII (Michael W. Deem and Ramdas Pophale) SiO2 
 PCOD9343323
Probable space group: P M N 21
;
_chemical_formula_sum "Si O2"
_cell_formula_units_Z 32
_cell_length_a 8.893529
_cell_length_b 7.154208
_cell_length_c 28.705481
_cell_angle_alpha 90.000000
_cell_angle_beta 90.000000
_cell_angle_gamma 90.000000
_cell_volume 1826.419421
_symmetry_space_group_name_H-M "P M N 21"
_symmetry_group_IT_number 31
_symmetry_cell_setting 'orthorhombic'
loop_
_space_group_symop_operation_xyz
x,y,z
1/2-x,-y,1/2+z
-x,y,z
1/2+x,-y,1/2+z
loop_
_atom_site_type_symbol
_atom_site_label
_atom_site_fract_x
_atom_site_fract_y
_atom_site_fract_z
Si Si1 0.679125 0.757762 0.726640
Si Si2 0.179238 0.495701 0.051218
Si Si3 0.820095 0.482032 0.652637
Si Si4 0.679309 0.203262 0.982354
Si Si5 0.820095 0.482032 0.800643
Si Si6 0.321209 0.837252 0.226640
Si Si7 0.179238 0.495706 0.402062
Si Si8 0.679309 0.203267 0.470926
O O1 0.500000 0.741834 0.726640
O O2 0.747022 0.650357 0.681984
O O3 0.747019 0.650357 0.771297
O O4 0.730339 0.972010 0.726640
O O5 0.254197 0.524965 0.101110
O O6 0.000000 0.474645 0.055945
O O7 0.247802 0.315639 0.025242
O O8 0.208704 0.670517 0.016779
O O9 0.788182 0.293262 0.681939
O O10 0.000000 0.506212 0.651776
O O11 0.500000 0.190993 0.988694
O O12 0.708704 0.329479 0.936501
O O13 0.750002 0.999998 0.976640
O O14 0.788182 0.293263 0.771341
O O15 0.754201 0.475033 0.852170
O O16 0.000000 0.506215 0.801503
O O17 0.500000 0.878198 0.226640
O O18 0.000000 0.474654 0.397334
O O19 0.247799 0.315643 0.428039
O O20 0.500000 0.191003 0.464586
#
# Coordination Sequence:
#
# PCOD9343323 Si02
#       8
#     4   4   4   4   4   4   4   4
#     4  11  22  36  57  83 113 145 179 225 274 324
#     4  10  21  37  57  82 111 143 183 228 273 323
#     4  10  21  38  59  81 109 145 183 225 272 323
#     4  10  21  37  57  81 112 147 183 226 273 324
#     4  10  21  38  59  81 109 145 183 225 272 323
#     4   9  20  38  57  79 109 145 185 225 268 324
#     4  10  21  37  57  82 111 143 183 228 273 323
#     4  10  21  37  57  81 112 147 183 226 273 324
#
# _framework density 17.520620000000001
#
# number of rings (size 3 to 8) (size 9 to 14) (size 15 to 20)
#    0.000    2.000    0.000    4.125    0.000    8.000 
#    0.000    5.000    0.000    0.000    0.000    0.000 
#    0.000    0.000    0.000    0.000    0.000    0.000 
#
# Total GULP energy -178749.137368 kJ/mol
# GULP energy per Si atom -5585.910543 kJ/mol
# Density = 1.748074 g / cm^3
# Si number density = 17.520620 Si / 1000 Ang^3
#
#
#
# Elastic Constant Matrix: (Units=GPa)
#
#
# Indices 1 2 3 4 5 6 
#
# 1 106.8342 80.8646 74.7658 0.0000 0.0000 0.0000
# 2 80.8646 133.4847 50.8689 0.0000 0.0000 0.0000
# 3 74.7658 50.8689 136.2081 0.0000 0.0000 0.0000
# 4 0.0000 0.0000 0.0000 4.9920 0.0000 0.0000
# 5 0.0000 0.0000 0.0000 0.0000 36.6160 0.0000
# 6 0.0000 0.0000 0.0000 0.0000 0.0000 30.3273
#
#
#
# Elastic Compliance Matrix: (Units=1/GPa)
#
#
# Indices 1 2 3 4 5 6 
#
# 1 0.024206 -0.011193 -0.009106 0.000000 0.000000 0.000000
# 2 -0.011193 0.013911 0.000949 0.000000 0.000000 0.000000
# 3 -0.009106 0.000949 0.011986 0.000000 0.000000 0.000000
# 4 0.000000 0.000000 0.000000 0.200321 0.000000 0.000000
# 5 0.000000 0.000000 0.000000 0.000000 0.027310 0.000000
# 6 0.000000 0.000000 0.000000 0.000000 0.000000 0.032974
#
#
# Mechanical properties :
#
#
# Convention : Reuss Voigt Hill
#
# Bulk Modulus (GPa) = 87.71379 87.72509 87.71944
# Shear Modulus (GPa) = 14.15591 25.72225 19.93908
#
# Velocity S-wave (km/s) = 2.84554 3.83575 3.37714
# Velocity P-wave (km/s) = 7.80820 8.35438 8.08590
#
# Compressibility (1/GPa) = 0.01140072
#
# Stress axis : x y z
#
# Youngs Moduli (GPa) = 41.31260 71.88662 83.43169
#
# Poissons Ratio (x) = 0.80466 0.75976
# Poissons Ratio (y) = 0.46243 -0.07917
# Poissons Ratio (z) = 0.37621 -0.06822
#
# Static dielectric constant tensor:
#      x y z
#    x 1.580820 0.000000 0.000000 
#    y 0.000000 1.566200 0.000000 
#    z 0.000000 0.000000 1.571010 
# 
# From -- ./inp_files/6622.got.cif
#   From: 2010.05.17/outbox.cif.g08.bks.cpg/sg31_4_cif.got.tgz:6622.got - 2010.06.03 17:08:30.
