data_PCOD9343626
_publ_section_title
;
Structure prediction by ZEFSAII (Michael W. Deem and Ramdas Pophale) SiO2 
 PCOD9343626
Probable space group: P M N 21
;
_chemical_formula_sum "Si O2"
_cell_formula_units_Z 32
_cell_length_a 9.000000
_cell_length_b 15.000000
_cell_length_c 12.000000
_cell_angle_alpha 90.000000
_cell_angle_beta 90.000000
_cell_angle_gamma 90.000000
_cell_volume 1620.000000
_symmetry_space_group_name_H-M "P M N 21"
_symmetry_group_IT_number 31
_symmetry_cell_setting 'orthorhombic'
loop_
_space_group_symop_operation_xyz
x,y,z
1/2-x,-y,1/2+z
-x,y,z
1/2+x,-y,1/2+z
loop_
_atom_site_type_symbol
_atom_site_label
_atom_site_fract_x
_atom_site_fract_y
_atom_site_fract_z
Si Si1 0.680926 0.075698 0.563280
Si Si2 0.679219 0.710607 0.679883
Si Si3 0.166576 0.376367 0.560022
Si Si4 0.174059 0.580295 0.516552
Si Si5 0.322866 0.235889 0.413105
Si Si6 0.829848 0.337843 0.807364
Si Si7 0.321955 0.878147 0.524750
Si Si8 0.173897 0.841372 0.293704
O O1 0.500000 0.076631 0.562216
O O2 0.724931 0.138753 0.460205
O O3 0.730113 0.118890 0.678470
O O4 0.731359 0.974125 0.565862
O O5 0.500000 0.700494 0.678846
O O6 0.759878 0.624169 0.628673
O O7 0.736902 0.734893 0.802386
O O8 0.722648 0.793232 0.598459
O O9 0.181183 0.474081 0.510786
O O10 0.282257 0.307066 0.509334
O O11 0.174340 0.391092 0.692559
O O12 0.000000 0.340730 0.536084
O O13 0.279086 0.613878 0.417911
O O14 0.000000 0.606606 0.504586
O O15 0.500000 0.235276 0.393483
O O16 0.708532 0.262205 0.788871
O O17 0.000000 0.303741 0.821061
O O18 0.500000 0.878179 0.525345
O O19 0.262779 0.872673 0.400434
O O20 0.000000 0.860419 0.306365
#
# Coordination Sequence:
#
# PCOD9343626 Si02
#       8
#     4   4   4   4   4   4   4   4
#     4   9  21  40  61  89 123 159 200 250 306 357
#     4  11  24  41  62  89 125 165 203 248 306 365
#     4  10  24  43  63  91 124 159 202 251 307 364
#     4  11  24  42  64  92 123 159 204 254 303 363
#     4  11  23  41  64  89 123 164 205 251 304 361
#     4  11  22  40  64  90 122 160 201 252 307 364
#     4  10  22  41  62  87 123 162 201 249 303 363
#     4  11  21  38  64  91 119 156 204 255 302 357
#
# _framework density 19.753086
#
# number of rings (size 3 to 8) (size 9 to 14) (size 15 to 20)
#    0.000    1.500    2.500    1.875    3.500    2.000 
#    0.000    1.875    0.000    0.000    0.000    0.000 
#    0.000    0.000    0.000    0.000    0.000    0.000 
#
# Total GULP energy -178508.869361 kJ/mol
# GULP energy per Si atom -5578.402168 kJ/mol
# Density = 1.970813 g / cm^3
# Si number density = 19.753086 Si / 1000 Ang^3
#
#
#
# Elastic Constant Matrix: (Units=GPa)
#
#
# Indices 1 2 3 4 5 6 
#
# 1 29.6002 7.4728 5.1938 0.0000 0.0000 0.0000
# 2 7.4728 40.6846 -3.6923 0.0000 0.0000 0.0000
# 3 5.1938 -3.6923 67.3432 0.0000 0.0000 0.0000
# 4 0.0000 0.0000 0.0000 24.0817 0.0000 0.0000
# 5 0.0000 0.0000 0.0000 0.0000 12.7978 0.0000
# 6 0.0000 0.0000 0.0000 0.0000 0.0000 12.6251
#
#
#
# Elastic Compliance Matrix: (Units=1/GPa)
#
#
# Indices 1 2 3 4 5 6 
#
# 1 0.036084 -0.006915 -0.003162 0.000000 0.000000 0.000000
# 2 -0.006915 0.026027 0.001960 0.000000 0.000000 0.000000
# 3 -0.003162 0.001960 0.015201 0.000000 0.000000 0.000000
# 4 0.000000 0.000000 0.000000 0.041525 0.000000 0.000000
# 5 0.000000 0.000000 0.000000 0.000000 0.078139 0.000000
# 6 0.000000 0.000000 0.000000 0.000000 0.000000 0.079207
#
#
# Mechanical properties :
#
#
# Convention : Reuss Voigt Hill
#
# Bulk Modulus (GPa) = 16.37222 17.28627 16.82924
# Shear Modulus (GPa) = 15.98588 18.47782 17.23185
#
# Velocity S-wave (km/s) = 2.84788 3.06181 2.95678
# Velocity P-wave (km/s) = 4.37268 4.61192 4.49389
#
# Compressibility (1/GPa) = 0.06107908
#
# Stress axis : x y z
#
# Youngs Moduli (GPa) = 27.71304 38.42122 65.78659
#
# Poissons Ratio (x) = 0.26567 0.20802
# Poissons Ratio (y) = 0.19163 -0.12896
# Poissons Ratio (z) = 0.08763 -0.07532
#
# Static dielectric constant tensor:
#      x y z
#    x 1.685400 0.000000 0.000000 
#    y 0.000000 1.752660 0.000000 
#    z 0.000000 0.000000 1.653030 
# 
# From -- ./inp_files/3597.got.cif
#   From: 2010.05.17/outbox.ucp.g08.bks.cvg/sg31_2_cif.got.tgz:3597.got - 2010.06.11 10:34:26.
