data_PCOD9343075
_publ_section_title
;
Structure prediction by ZEFSAII (Michael W. Deem and Ramdas Pophale) SiO2 
 PCOD9343075
Probable space group: P M N 21
;
_chemical_formula_sum "Si O2"
_cell_formula_units_Z 32
_cell_length_a 7.626930
_cell_length_b 7.293807
_cell_length_c 25.777161
_cell_angle_alpha 90.000000
_cell_angle_beta 90.000000
_cell_angle_gamma 90.000000
_cell_volume 1433.966851
_symmetry_space_group_name_H-M "P M N 21"
_symmetry_group_IT_number 31
_symmetry_cell_setting 'orthorhombic'
loop_
_space_group_symop_operation_xyz
x,y,z
1/2-x,-y,1/2+z
-x,y,z
1/2+x,-y,1/2+z
loop_
_atom_site_type_symbol
_atom_site_label
_atom_site_fract_x
_atom_site_fract_y
_atom_site_fract_z
Si Si1 0.706613 0.750346 0.455030
Si Si2 0.214722 0.564561 0.156778
Si Si3 0.214787 0.289218 0.247093
Si Si4 0.296182 0.208600 0.840701
Si Si5 0.294762 0.827597 0.969668
Si Si6 0.785473 0.870926 0.230162
Si Si7 0.207136 0.232804 0.358652
Si Si8 0.796196 0.525718 0.041771
O O1 0.500000 0.763936 0.462202
O O2 0.732236 0.703606 0.394182
O O3 0.779159 0.605960 0.496812
O O4 0.778761 0.953732 0.465891
O O5 0.269441 0.423291 0.201477
O O6 0.266894 0.762867 0.178908
O O7 0.280389 0.519118 0.099407
O O8 0.000000 0.561862 0.155200
O O9 0.275848 0.326045 0.306278
O O10 0.000000 0.294373 0.249118
O O11 0.267531 0.081932 0.232861
O O12 0.500000 0.257954 0.838171
O O13 0.223554 0.232411 0.782722
O O14 0.281516 0.987428 0.848801
O O15 0.500000 0.784498 0.971448
O O16 0.217193 0.743479 0.916073
O O17 0.211994 0.730661 0.018959
O O18 0.000000 0.869990 0.232458
O O19 0.000000 0.275973 0.361857
O O20 0.000000 0.474431 0.047153
#
# Coordination Sequence:
#
# PCOD9343075 Si02
#       8
#     4   4   4   4   4   4   4   4
#     4  10  20  34  52  75 107 143 172 206 257 315
#     4   9  17  28  43  66  95 128 166 204 247 298
#     4   8  13  23  40  64  93 119 147 193 250 298
#     4   8  14  27  48  75 102 126 161 208 255 306
#     4  10  20  35  56  78 101 134 174 218 263 304
#     4   8  14  25  44  69  95 123 159 209 258 295
#     4   7  12  24  43  70  98 118 147 197 252 300
#     4  10  22  36  49  73 107 139 174 213 254 306
#
# _framework density 22.315716999999999
#
# number of rings (size 3 to 8) (size 9 to 14) (size 15 to 20)
#    0.000    3.250    0.000    3.000    0.000    3.000 
#    0.000    6.250    0.000    0.750    0.000    8.750 
#    0.000    0.000    0.000    0.000    0.000    0.000 
#
# Total GULP energy -178449.391939 kJ/mol
# GULP energy per Si atom -5576.543498 kJ/mol
# Density = 2.226493 g / cm^3
# Si number density = 22.315717 Si / 1000 Ang^3
#
#
#
# Elastic Constant Matrix: (Units=GPa)
#
#
# Indices 1 2 3 4 5 6 
#
# 1 43.6066 -7.4160 7.8822 0.0000 0.0000 0.0000
# 2 -7.4160 42.6502 22.1388 0.0000 0.0000 0.0000
# 3 7.8822 22.1388 146.4100 0.0000 0.0000 0.0000
# 4 0.0000 0.0000 0.0000 30.9796 0.0000 0.0000
# 5 0.0000 0.0000 0.0000 0.0000 7.0238 0.0000
# 6 0.0000 0.0000 0.0000 0.0000 0.0000 8.6682
#
#
#
# Elastic Compliance Matrix: (Units=1/GPa)
#
#
# Indices 1 2 3 4 5 6 
#
# 1 0.024215 0.005303 -0.002106 0.000000 0.000000 0.000000
# 2 0.005303 0.026605 -0.004309 0.000000 0.000000 0.000000
# 3 -0.002106 -0.004309 0.007595 0.000000 0.000000 0.000000
# 4 0.000000 0.000000 0.000000 0.032279 0.000000 0.000000
# 5 0.000000 0.000000 0.000000 0.000000 0.142373 0.000000
# 6 0.000000 0.000000 0.000000 0.000000 0.000000 0.115364
#
#
# Mechanical properties :
#
#
# Convention : Reuss Voigt Hill
#
# Bulk Modulus (GPa) = 17.79563 30.87520 24.33542
# Shear Modulus (GPa) = 13.53605 23.33844 18.43725
#
# Velocity S-wave (km/s) = 2.46554 3.23744 2.87749
# Velocity P-wave (km/s) = 4.01210 5.27639 4.68707
#
# Compressibility (1/GPa) = 0.05619358
#
# Stress axis : x y z
#
# Youngs Moduli (GPa) = 41.29705 37.58673 131.66582
#
# Poissons Ratio (x) = -0.19934 0.27723
# Poissons Ratio (y) = -0.21901 0.56728
# Poissons Ratio (z) = 0.08695 0.16194
#
# Static dielectric constant tensor:
#      x y z
#    x 1.876370 0.000000 0.000000 
#    y 0.000000 1.841010 0.000000 
#    z 0.000000 0.000000 1.841460 
# 
# From -- ./inp_files/6457.got.cif
#   From: 2010.05.17/outbox.cif.g08.bks.cpg/sg31_4_cif.got.tgz:6457.got - 2010.06.03 17:08:30.
