data_PCOD9343414
_publ_section_title
;
Structure prediction by ZEFSAII (Michael W. Deem and Ramdas Pophale) SiO2 
 PCOD9343414
Probable space group: P M N 21
;
_chemical_formula_sum "Si O2"
_cell_formula_units_Z 20
_cell_length_a 9.673652
_cell_length_b 11.249132
_cell_length_c 9.262486
_cell_angle_alpha 90.000000
_cell_angle_beta 90.000000
_cell_angle_gamma 90.000000
_cell_volume 1007.945470
_symmetry_space_group_name_H-M "P M N 21"
_symmetry_group_IT_number 31
_symmetry_cell_setting 'orthorhombic'
loop_
_space_group_symop_operation_xyz
x,y,z
1/2-x,-y,1/2+z
-x,y,z
1/2+x,-y,1/2+z
loop_
_atom_site_type_symbol
_atom_site_label
_atom_site_fract_x
_atom_site_fract_y
_atom_site_fract_z
Si Si1 0.751809 0.193298 0.584130
Si Si2 0.500000 0.547191 0.704999
Si Si3 0.301587 0.353368 0.821080
Si Si4 0.500000 0.360988 0.087171
Si Si5 0.500000 0.925631 0.218286
Si Si6 0.000000 0.319152 0.907874
Si Si7 0.500000 0.629176 0.025057
Si Si8 0.500000 0.182877 0.359567
O O1 0.678328 0.232155 0.732300
O O2 0.637583 0.188310 0.459893
O O3 0.860552 0.088824 0.621785
O O4 0.861225 0.298918 0.556458
O O5 0.370441 0.456683 0.723615
O O6 0.500000 0.640815 0.575556
O O7 0.500000 0.614599 0.854676
O O8 0.141375 0.374027 0.850111
O O9 0.371812 0.340167 0.977607
O O10 0.500000 0.502929 0.103392
O O11 0.500000 0.283355 0.232707
O O12 0.500000 0.816900 0.339717
O O13 0.500000 0.053115 0.289423
#
# Coordination Sequence:
#
# PCOD9343414 Si02
#       8
#     4   2   4   2   2   2   2   2
#     4  10  22  45  65  91 138 173 220 280 349 383
#     4  10  22  35  60  96 132 166 224 265 340 410
#     4   9  21  41  58  93 134 175 204 281 339 398
#     4  10  24  39  61 101 139 160 230 273 336 412
#     4   9  24  48  66  90 138 182 226 286 338 390
#     4  10  21  40  66  84 130 187 222 264 353 399
#     4   9  22  41  59  95 140 174 198 283 343 404
#     4  12  25  43  76 104 119 187 246 275 326 409
#
# _framework density 19.842343
#
# number of rings (size 3 to 8) (size 9 to 14) (size 15 to 20)
#    0.000    2.400    0.000    1.800    8.400    4.800 
#   10.800    1.000    0.000    0.000    0.000    0.000 
#    0.000    0.000    0.000    0.000    0.000    0.000 
#
# Total GULP energy -111355.459585 kJ/mol
# GULP energy per Si atom -5567.772979 kJ/mol
# Density = 1.979718 g / cm^3
# Si number density = 19.842343 Si / 1000 Ang^3
#
#
#
# Elastic Constant Matrix: (Units=GPa)
#
#
# Indices 1 2 3 4 5 6 
#
# 1 165.9305 67.0796 73.3488 0.0000 0.0000 0.0000
# 2 67.0796 93.3054 64.1392 0.0000 0.0000 0.0000
# 3 73.3488 64.1392 137.8445 0.0000 0.0000 0.0000
# 4 0.0000 0.0000 0.0000 32.7596 0.0000 0.0000
# 5 0.0000 0.0000 0.0000 0.0000 28.6754 0.0000
# 6 0.0000 0.0000 0.0000 0.0000 0.0000 -6.9622
#
#
#
# Elastic Compliance Matrix: (Units=1/GPa)
#
#
# Indices 1 2 3 4 5 6 
#
# 1 0.009108 -0.004729 -0.002646 0.000000 0.000000 0.000000
# 2 -0.004729 0.018213 -0.005958 0.000000 0.000000 0.000000
# 3 -0.002646 -0.005958 0.011435 0.000000 0.000000 0.000000
# 4 0.000000 0.000000 0.000000 0.030525 0.000000 0.000000
# 5 0.000000 0.000000 0.000000 0.000000 0.034873 0.000000
# 6 0.000000 0.000000 0.000000 0.000000 0.000000 -0.143634
#
#
# Mechanical properties :
#
#
# Convention : Reuss Voigt Hill
#
# Bulk Modulus (GPa) = 82.71704 89.57953 86.14828
# Shear Modulus (GPa) = -569.29481 23.72877 -272.78302
#
# Velocity S-wave (km/s) = -16.95677 3.46188 -11.73770
# Velocity P-wave (km/s) = 18.48238 7.82452 11.84008
#
# Compressibility (1/GPa) = 0.01208941
#
# Stress axis : x y z
#
# Youngs Moduli (GPa) = 109.79225 54.90573 87.45165
#
# Poissons Ratio (x) = 0.25965 0.23140
# Poissons Ratio (y) = 0.51922 0.52105
# Poissons Ratio (z) = 0.29052 0.32714
#
# Static dielectric constant tensor:
#      x y z
#    x 1.769580 0.000000 0.000000 
#    y 0.000000 1.716500 0.000000 
#    z 0.000000 0.000000 1.747990 
# 
# From -- ./inp_files/1630.got.cif
#   From: 2010.05.17/outbox.cif.g08.bks.cpg/sg31_1_cif.got.tgz:1630.got - 2010.06.03 17:08:30.
