data_PCOD9343836
_publ_section_title
;
Structure prediction by ZEFSAII (Michael W. Deem and Ramdas Pophale) SiO2 
 PCOD9343836
Probable space group: P B A 2
;
_chemical_formula_sum "Si O2"
_cell_formula_units_Z 32
_cell_length_a 16.165047
_cell_length_b 9.258953
_cell_length_c 10.543301
_cell_angle_alpha 90.000000
_cell_angle_beta 90.000000
_cell_angle_gamma 90.000000
_cell_volume 1578.030731
_symmetry_space_group_name_H-M "P B A 2"
_symmetry_group_IT_number 32
_symmetry_cell_setting 'orthorhombic'
loop_
_space_group_symop_operation_xyz
x,y,z
-x,-y,z
1/2-x,1/2+y,z
1/2+x,1/2-y,z
loop_
_atom_site_type_symbol
_atom_site_label
_atom_site_fract_x
_atom_site_fract_y
_atom_site_fract_z
Si Si1 0.087598 0.418526 0.697050
Si Si2 0.188812 0.686874 0.737455
Si Si3 0.659853 0.148369 0.419529
Si Si4 0.924368 0.095040 0.858685
Si Si5 0.009715 0.332897 0.035551
Si Si6 0.856007 0.796157 0.893054
Si Si7 0.489497 0.169723 0.330900
Si Si8 0.181075 0.677319 0.436886
O O1 0.144520 0.535719 0.769369
O O2 0.133008 0.371960 0.567525
O O3 0.084888 0.277889 0.784794
O O4 0.000000 0.500000 0.673456
O O5 0.126088 0.818437 0.754968
O O6 0.265993 0.717799 0.829240
O O7 0.202391 0.672006 0.586980
O O8 0.580310 0.228098 0.361891
O O9 0.743079 0.231340 0.386810
O O10 0.676429 0.983013 0.379043
O O11 0.868652 0.966344 0.915597
O O12 0.000000 0.000000 0.807518
O O13 0.956466 0.213524 0.959133
O O14 0.000000 0.500000 0.992385
O O15 0.979776 0.325720 0.180276
O O16 0.106004 0.286343 0.014753
O O17 0.411690 0.233288 0.406997
O O18 0.500000 0.000000 0.368546
#
# Coordination Sequence:
#
# PCOD9343836 Si02
#       8
#     4   4   4   4   4   4   4   4
#     4  11  20  34  60  88 121 168 206 249 318 398
#     4  11  21  36  58  91 126 159 198 253 326 380
#     4  10  20  38  61  92 123 159 207 254 309 376
#     4  10  22  37  57  87 123 158 204 258 306 367
#     4  10  21  41  63  83 117 166 217 247 303 376
#     4  11  21  35  58  87 127 156 201 264 311 366
#     4   9  20  41  66  86 117 168 212 254 302 372
#     4  10  21  38  63  92 126 158 204 257 310 378
#
# _framework density 20.27844
#
# number of rings (size 3 to 8) (size 9 to 14) (size 15 to 20)
#    0.000    1.750    1.250    5.250    1.750    0.000 
#    2.250    4.375    2.750    0.000    0.000    0.000 
#    0.000    0.000    0.000    0.000    0.000    0.000 
#
# Total GULP energy -178165.173014 kJ/mol
# GULP energy per Si atom -5567.661657 kJ/mol
# Density = 2.023229 g / cm^3
# Si number density = 20.278440 Si / 1000 Ang^3
#
#
#
# Elastic Constant Matrix: (Units=GPa)
#
#
# Indices 1 2 3 4 5 6 
#
# 1 141.2400 42.9048 15.0372 0.0000 0.0000 0.0000
# 2 42.9048 103.1806 14.8338 0.0000 0.0000 0.0000
# 3 15.0372 14.8338 25.1316 0.0000 0.0000 0.0000
# 4 0.0000 0.0000 0.0000 10.6476 0.0000 0.0000
# 5 0.0000 0.0000 0.0000 0.0000 20.9501 0.0000
# 6 0.0000 0.0000 0.0000 0.0000 0.0000 36.6300
#
#
#
# Elastic Compliance Matrix: (Units=1/GPa)
#
#
# Indices 1 2 3 4 5 6 
#
# 1 0.008335 -0.003004 -0.003214 0.000000 0.000000 0.000000
# 2 -0.003004 0.011673 -0.005093 0.000000 0.000000 0.000000
# 3 -0.003214 -0.005093 0.044720 0.000000 0.000000 0.000000
# 4 0.000000 0.000000 0.000000 0.093918 0.000000 0.000000
# 5 0.000000 0.000000 0.000000 0.000000 0.047732 0.000000
# 6 0.000000 0.000000 0.000000 0.000000 0.000000 0.027300
#
#
# Mechanical properties :
#
#
# Convention : Reuss Voigt Hill
#
# Bulk Modulus (GPa) = 23.74939 46.12265 34.93602
# Shear Modulus (GPa) = 18.49564 26.76396 22.62980
#
# Velocity S-wave (km/s) = 3.02335 3.63688 3.34421
# Velocity P-wave (km/s) = 4.89128 6.35845 5.67250
#
# Compressibility (1/GPa) = 0.04210635
#
# Stress axis : x y z
#
# Youngs Moduli (GPa) = 119.97921 85.66850 22.36159
#
# Poissons Ratio (x) = 0.25732 0.07187
# Poissons Ratio (y) = 0.36038 0.11388
# Poissons Ratio (z) = 0.38562 0.43628
#
# Static dielectric constant tensor:
#      x y z
#    x 1.831050 0.000000 0.000000 
#    y 0.000000 1.749120 0.000000 
#    z 0.000000 0.000000 1.744540 
# 
# From -- ./inp_files/3963.got.cif
#   From: 2010.05.17/outbox.cif.g08.bks.cpg/sg32_2_cif.got.tgz:3963.got - 2010.06.03 17:12:27.
