data_PCOD9343037
_publ_section_title
;
Structure prediction by ZEFSAII (Michael W. Deem and Ramdas Pophale) SiO2 
 PCOD9343037
Probable space group: P M N 21
;
_chemical_formula_sum "Si O2"
_cell_formula_units_Z 32
_cell_length_a 14.444274
_cell_length_b 9.134051
_cell_length_c 12.812034
_cell_angle_alpha 90.000000
_cell_angle_beta 90.000000
_cell_angle_gamma 90.000000
_cell_volume 1690.352315
_symmetry_space_group_name_H-M "P M N 21"
_symmetry_group_IT_number 31
_symmetry_cell_setting 'orthorhombic'
loop_
_space_group_symop_operation_xyz
x,y,z
1/2-x,-y,1/2+z
-x,y,z
1/2+x,-y,1/2+z
loop_
_atom_site_type_symbol
_atom_site_label
_atom_site_fract_x
_atom_site_fract_y
_atom_site_fract_z
Si Si1 0.601455 0.548791 0.466920
Si Si2 0.607032 0.878778 0.057960
Si Si3 0.681936 0.853443 0.505225
Si Si4 0.750009 0.625589 0.096894
Si Si5 0.817515 0.853723 0.693138
Si Si6 0.392869 0.122563 0.639260
Si Si7 0.312423 0.001008 0.848972
Si Si8 0.601501 0.451472 0.227169
O O1 0.500000 0.503907 0.510138
O O2 0.611946 0.723062 0.482187
O O3 0.690400 0.473165 0.518708
O O4 0.602268 0.502578 0.346545
O O5 0.500000 0.844714 0.073872
O O6 0.672430 0.737542 0.055020
O O7 0.639643 0.994335 0.147807
O O8 0.624937 0.951528 0.945400
O O9 0.749569 0.806018 0.599349
O O10 0.639299 0.005859 0.549923
O O11 0.743055 0.882340 0.402301
O O12 0.827722 0.735888 0.140595
O O13 0.690322 0.525100 0.173817
O O14 0.756675 0.883433 0.796127
O O15 0.887644 0.723374 0.715823
O O16 0.500000 0.156058 0.623863
O O17 0.374283 0.051189 0.752125
O O18 0.500000 0.493867 0.182888
#
# Coordination Sequence:
#
# PCOD9343037 Si02
#       8
#     4   4   4   4   4   4   4   4
#     4  11  24  40  62  90 121 162 202 243 301 364
#     4  11  22  38  63  90 118 158 204 249 296 352
#     4  10  20  40  63  87 123 157 198 248 300 352
#     4  12  22  42  60  84 130 156 198 250 300 354
#     4  10  20  40  63  87 123 157 198 248 300 352
#     4  11  22  38  63  90 118 158 204 249 296 352
#     4  10  19  38  65  88 116 156 195 252 301 340
#     4  11  24  40  62  90 121 162 202 243 301 364
#
# _framework density 18.930965
#
# number of rings (size 3 to 8) (size 9 to 14) (size 15 to 20)
#    0.000    1.250    5.000    3.375    0.000    0.000 
#    0.000    1.250    0.000    3.000    0.000    0.000 
#    0.000    0.000    0.000    0.000    0.000    0.000 
#
# Total GULP energy -178399.593169 kJ/mol
# GULP energy per Si atom -5574.987287 kJ/mol
# Density = 1.888788 g / cm^3
# Si number density = 18.930965 Si / 1000 Ang^3
#
#
#
# Elastic Constant Matrix: (Units=GPa)
#
#
# Indices 1 2 3 4 5 6 
#
# 1 149.1816 40.3078 21.4944 0.0000 0.0000 0.0000
# 2 40.3078 80.1059 18.1928 0.0000 0.0000 0.0000
# 3 21.4944 18.1928 47.1105 0.0000 0.0000 0.0000
# 4 0.0000 0.0000 0.0000 9.7008 0.0000 0.0000
# 5 0.0000 0.0000 0.0000 0.0000 23.1490 0.0000
# 6 0.0000 0.0000 0.0000 0.0000 0.0000 39.5778
#
#
#
# Elastic Compliance Matrix: (Units=1/GPa)
#
#
# Indices 1 2 3 4 5 6 
#
# 1 0.007977 -0.003494 -0.002290 0.000000 0.000000 0.000000
# 2 -0.003494 0.015214 -0.004281 0.000000 0.000000 0.000000
# 3 -0.002290 -0.004281 0.023925 0.000000 0.000000 0.000000
# 4 0.000000 0.000000 0.000000 0.103084 0.000000 0.000000
# 5 0.000000 0.000000 0.000000 0.000000 0.043198 0.000000
# 6 0.000000 0.000000 0.000000 0.000000 0.000000 0.025267
#
#
# Mechanical properties :
#
#
# Convention : Reuss Voigt Hill
#
# Bulk Modulus (GPa) = 37.05720 48.48755 42.77237
# Shear Modulus (GPa) = 20.17833 27.57907 23.87870
#
# Velocity S-wave (km/s) = 3.26834 3.82098 3.55541
# Velocity P-wave (km/s) = 5.81895 6.71825 6.28471
#
# Compressibility (1/GPa) = 0.02698531
#
# Stress axis : x y z
#
# Youngs Moduli (GPa) = 125.35627 65.72989 41.79739
#
# Poissons Ratio (x) = 0.22965 0.09573
# Poissons Ratio (y) = 0.43797 0.17894
# Poissons Ratio (z) = 0.28712 0.28139
#
# Static dielectric constant tensor:
#      x y z
#    x 1.653720 0.000000 0.000000 
#    y 0.000000 1.689140 0.000000 
#    z 0.000000 0.000000 1.632950 
# 
# From -- ./inp_files/4276.got.cif
#   From: 2010.05.17/outbox.cif.g08.bks.cpg/sg31_3_cif.got.tgz:4276.got - 2010.06.03 17:08:30.
