data_PCOD9343187
_publ_section_title
;
Structure prediction by ZEFSAII (Michael W. Deem and Ramdas Pophale) SiO2 
 PCOD9343187
Probable space group: P M N 21
;
_chemical_formula_sum "Si O2"
_cell_formula_units_Z 32
_cell_length_a 8.407272
_cell_length_b 16.504826
_cell_length_c 10.747133
_cell_angle_alpha 90.000000
_cell_angle_beta 90.000000
_cell_angle_gamma 90.000000
_cell_volume 1491.278210
_symmetry_space_group_name_H-M "P M N 21"
_symmetry_group_IT_number 31
_symmetry_cell_setting 'orthorhombic'
loop_
_space_group_symop_operation_xyz
x,y,z
1/2-x,-y,1/2+z
-x,y,z
1/2+x,-y,1/2+z
loop_
_atom_site_type_symbol
_atom_site_label
_atom_site_fract_x
_atom_site_fract_y
_atom_site_fract_z
Si Si1 0.683841 0.513146 0.310150
Si Si2 0.317572 0.917890 0.037313
Si Si3 0.311816 0.738939 0.650595
Si Si4 0.322389 0.157027 0.763841
Si Si5 0.688802 0.423074 0.068756
Si Si6 0.315274 0.097991 0.044505
Si Si7 0.193265 0.251852 0.431953
Si Si8 0.183975 0.663744 0.174476
O O1 0.500000 0.491798 0.328218
O O2 0.754707 0.453844 0.203121
O O3 0.754690 0.526557 0.447978
O O4 0.704869 0.598559 0.239001
O O5 0.500000 0.928679 0.995035
O O6 0.305999 0.885699 0.177731
O O7 0.244673 0.007403 0.040360
O O8 0.252432 0.841013 0.960236
O O9 0.500000 0.727468 0.641093
O O10 0.231354 0.672049 0.562418
O O11 0.271466 0.831914 0.620273
O O12 0.260735 0.724731 0.793113
O O13 0.500000 0.136725 0.714175
O O14 0.304914 0.252822 0.750806
O O15 0.314266 0.128647 0.903517
O O16 0.500000 0.432094 0.072666
O O17 0.500000 0.093343 0.087675
O O18 0.264832 0.311153 0.535506
O O19 0.000000 0.252977 0.443021
O O20 0.000000 0.635973 0.176940
#
# Coordination Sequence:
#
# PCOD9343187 Si02
#       8
#     4   4   4   4   4   4   4   4
#     4  11  25  44  69 100 132 169 213 265 320 382
#     4   9  19  35  55  82 115 155 200 250 305 365
#     4  11  24  40  63  91 124 166 211 263 321 381
#     4   9  19  35  55  79 110 148 192 242 298 363
#     4  11  26  46  68  97 134 172 215 268 323 386
#     4  10  21  36  57  82 116 158 199 250 312 372
#     4   9  20  38  59  87 124 165 210 261 316 377
#     4  10  20  36  62  92 121 161 206 253 313 374
#
# _framework density 21.458100999999999
#
# number of rings (size 3 to 8) (size 9 to 14) (size 15 to 20)
#    0.000    2.000    0.000    2.250    3.500    5.500 
#    0.000    0.000    0.000    0.000    0.000    0.000 
#    0.000    0.000    0.000    0.000    0.000    0.000 
#
# Total GULP energy -178589.454430 kJ/mol
# GULP energy per Si atom -5580.920451 kJ/mol
# Density = 2.140926 g / cm^3
# Si number density = 21.458101 Si / 1000 Ang^3
#
#
#
# Elastic Constant Matrix: (Units=GPa)
#
#
# Indices 1 2 3 4 5 6 
#
# 1 18.1522 3.6629 12.1873 0.0000 0.0000 0.0000
# 2 3.6629 62.8596 34.4646 0.0000 0.0000 0.0000
# 3 12.1873 34.4646 88.2638 0.0000 0.0000 0.0000
# 4 0.0000 0.0000 0.0000 6.0648 0.0000 0.0000
# 5 0.0000 0.0000 0.0000 0.0000 25.0547 0.0000
# 6 0.0000 0.0000 0.0000 0.0000 0.0000 7.3759
#
#
#
# Elastic Compliance Matrix: (Units=1/GPa)
#
#
# Indices 1 2 3 4 5 6 
#
# 1 0.060809 0.001349 -0.008923 0.000000 0.000000 0.000000
# 2 0.001349 0.020272 -0.008102 0.000000 0.000000 0.000000
# 3 -0.008923 -0.008102 0.015725 0.000000 0.000000 0.000000
# 4 0.000000 0.000000 0.000000 0.164885 0.000000 0.000000
# 5 0.000000 0.000000 0.000000 0.000000 0.039913 0.000000
# 6 0.000000 0.000000 0.000000 0.000000 0.000000 0.135577
#
#
# Mechanical properties :
#
#
# Convention : Reuss Voigt Hill
#
# Bulk Modulus (GPa) = 15.27798 29.98950 22.63374
# Shear Modulus (GPa) = 10.19678 15.62980 12.91329
#
# Velocity S-wave (km/s) = 2.18226 2.70179 2.45580
# Velocity P-wave (km/s) = 3.67220 4.87228 4.31417
#
# Compressibility (1/GPa) = 0.06545368
#
# Stress axis : x y z
#
# Youngs Moduli (GPa) = 16.44506 49.32923 63.59169
#
# Poissons Ratio (x) = -0.06654 0.56743
# Poissons Ratio (y) = -0.02218 0.51521
# Poissons Ratio (z) = 0.14674 0.39966
#
# Static dielectric constant tensor:
#      x y z
#    x 1.775430 0.000000 0.000000 
#    y 0.000000 1.809610 0.000000 
#    z 0.000000 0.000000 1.765600 
# 
# From -- ./inp_files/3748.got.cif
#   From: 2010.05.17/outbox.cif.g08.bks.cpg/sg31_2_cif.got.tgz:3748.got - 2010.06.03 17:08:30.
