data_PCOD9343235
_publ_section_title
;
Structure prediction by ZEFSAII (Michael W. Deem and Ramdas Pophale) SiO2 
 PCOD9343235
Probable space group: P M N 21
;
_chemical_formula_sum "Si O2"
_cell_formula_units_Z 32
_cell_length_a 13.396550
_cell_length_b 15.173680
_cell_length_c 8.004159
_cell_angle_alpha 90.000000
_cell_angle_beta 90.000000
_cell_angle_gamma 90.000000
_cell_volume 1627.045123
_symmetry_space_group_name_H-M "P M N 21"
_symmetry_group_IT_number 31
_symmetry_cell_setting 'orthorhombic'
loop_
_space_group_symop_operation_xyz
x,y,z
1/2-x,-y,1/2+z
-x,y,z
1/2+x,-y,1/2+z
loop_
_atom_site_type_symbol
_atom_site_label
_atom_site_fract_x
_atom_site_fract_y
_atom_site_fract_z
Si Si1 0.613722 0.323503 0.370230
Si Si2 0.210663 0.603995 0.560739
Si Si3 0.385141 0.922610 0.775679
Si Si4 0.883778 0.868599 0.286382
Si Si5 0.293426 0.796221 0.494840
Si Si6 0.884347 0.294142 0.682889
Si Si7 0.752898 0.815325 0.974650
Si Si8 0.292842 0.425372 0.685811
O O1 0.500000 0.299749 0.389578
O O2 0.631362 0.384105 0.209133
O O3 0.678757 0.235406 0.343477
O O4 0.651180 0.371006 0.540450
O O5 0.270043 0.696230 0.551345
O O6 0.280983 0.524129 0.619934
O O7 0.167102 0.583616 0.375553
O O8 0.500000 0.900675 0.822447
O O9 0.350970 0.860054 0.622345
O O10 0.382911 0.027147 0.748795
O O11 0.300991 0.902690 0.914480
O O12 0.811570 0.840914 0.438859
O O13 0.827124 0.825335 0.129925
O O14 0.000000 0.841452 0.306494
O O15 0.359715 0.776378 0.329275
O O16 0.839205 0.248520 0.518707
O O17 0.816764 0.380852 0.704107
O O18 0.000000 0.313217 0.674983
#
# Coordination Sequence:
#
# PCOD9343235 Si02
#       8
#     4   4   4   4   4   4   4   4
#     4  11  23  40  64  91 123 165 211 255 307 370
#     4  11  21  40  63  86 126 164 201 254 307 361
#     4  11  21  36  60  89 118 154 201 253 312 378
#     4  10  22  39  60  85 118 159 203 252 313 375
#     4  10  21  38  59  86 121 155 195 254 307 365
#     4   9  19  36  59  85 114 156 199 245 304 365
#     4  10  20  38  59  83 121 157 197 255 307 367
#     4  10  22  39  63  87 127 162 204 258 304 357
#
# _framework density 19.667556000000001
#
# number of rings (size 3 to 8) (size 9 to 14) (size 15 to 20)
#    0.000    1.750    2.500    2.625    0.000    1.500 
#    0.000    0.625    0.000    5.250    0.000    0.000 
#    0.000    0.000    0.000    0.000    0.000    0.000 
#
# Total GULP energy -178319.329849 kJ/mol
# GULP energy per Si atom -5572.479058 kJ/mol
# Density = 1.962279 g / cm^3
# Si number density = 19.667556 Si / 1000 Ang^3
#
#
#
# Elastic Constant Matrix: (Units=GPa)
#
#
# Indices 1 2 3 4 5 6 
#
# 1 123.6881 23.5596 33.6295 0.0000 0.0000 0.0000
# 2 23.5596 91.4591 10.3585 0.0000 0.0000 0.0000
# 3 33.6295 10.3585 68.6720 0.0000 0.0000 0.0000
# 4 0.0000 0.0000 0.0000 24.9938 0.0000 0.0000
# 5 0.0000 0.0000 0.0000 0.0000 18.0271 0.0000
# 6 0.0000 0.0000 0.0000 0.0000 0.0000 15.9352
#
#
#
# Elastic Compliance Matrix: (Units=1/GPa)
#
#
# Indices 1 2 3 4 5 6 
#
# 1 0.009670 -0.001989 -0.004435 0.000000 0.000000 0.000000
# 2 -0.001989 0.011533 -0.000766 0.000000 0.000000 0.000000
# 3 -0.004435 -0.000766 0.016850 0.000000 0.000000 0.000000
# 4 0.000000 0.000000 0.000000 0.040010 0.000000 0.000000
# 5 0.000000 0.000000 0.000000 0.000000 0.055472 0.000000
# 6 0.000000 0.000000 0.000000 0.000000 0.000000 0.062754
#
#
# Mechanical properties :
#
#
# Convention : Reuss Voigt Hill
#
# Bulk Modulus (GPa) = 42.24300 46.54605 44.39453
# Shear Modulus (GPa) = 22.87723 26.20934 24.54328
#
# Velocity S-wave (km/s) = 3.41427 3.65446 3.53641
# Velocity P-wave (km/s) = 6.08836 6.44396 6.26868
#
# Compressibility (1/GPa) = 0.02367256
#
# Stress axis : x y z
#
# Youngs Moduli (GPa) = 103.41754 86.70904 59.34883
#
# Poissons Ratio (x) = 0.17242 0.26323
# Poissons Ratio (y) = 0.20565 0.04545
# Poissons Ratio (z) = 0.45869 0.06640
#
# Static dielectric constant tensor:
#      x y z
#    x 1.660890 0.000000 0.000000 
#    y 0.000000 1.701680 0.000000 
#    z 0.000000 0.000000 1.775310 
# 
# From -- ./inp_files/2263.got.cif
#   From: 2010.05.17/outbox.cif.g08.bks.cpg/sg31_2_cif.got.tgz:2263.got - 2010.06.03 17:08:30.
