data_PCOD9343784
_publ_section_title
;
Structure prediction by ZEFSAII (Michael W. Deem and Ramdas Pophale) SiO2 
 PCOD9343784
Probable space group: P B A 2
;
_chemical_formula_sum "Si O2"
_cell_formula_units_Z 26
_cell_length_a 28.358175
_cell_length_b 6.967364
_cell_length_c 5.471619
_cell_angle_alpha 90.000000
_cell_angle_beta 90.000000
_cell_angle_gamma 90.000000
_cell_volume 1081.091935
_symmetry_space_group_name_H-M "P B A 2"
_symmetry_group_IT_number 32
_symmetry_cell_setting 'orthorhombic'
loop_
_space_group_symop_operation_xyz
x,y,z
-x,-y,z
1/2-x,1/2+y,z
1/2+x,1/2-y,z
loop_
_atom_site_type_symbol
_atom_site_label
_atom_site_fract_x
_atom_site_fract_y
_atom_site_fract_z
Si Si1 0.443522 0.827333 0.626960
Si Si2 0.365409 0.374372 0.727983
Si Si3 0.000000 0.500000 0.252752
Si Si4 0.182048 0.915599 0.225939
Si Si5 0.208416 0.472048 0.229682
Si Si6 0.963588 0.259154 0.839326
Si Si7 0.660706 0.083835 0.727160
O O1 0.464127 0.832005 0.354734
O O2 0.482214 0.711977 0.782315
O O3 0.389439 0.808973 0.696869
O O4 0.454129 0.055953 0.666877
O O5 0.348146 0.456792 0.468964
O O6 0.421231 0.378932 0.775218
O O7 0.351293 0.146009 0.728086
O O8 0.340913 0.463370 0.966146
O O9 0.036081 0.636851 0.100697
O O10 0.187460 0.685188 0.228210
O O11 0.235364 0.990138 0.234686
O O12 0.191102 0.378532 0.483084
O O13 0.188937 0.379397 0.978693
#
# Coordination Sequence:
#
# PCOD9343784 Si02
#       7
#     4   4   2   4   4   4   4
#     4   8  15  22  35  59  88 119 150 175 223 272
#     4   9  18  28  45  64  91 123 152 184 229 275
#     4   8  14  20  36  54  92 120 152 176 214 280
#     4  10  20  33  48  67  91 121 157 193 229 269
#     4  10  20  33  48  67  91 121 157 193 229 269
#     4   8  15  22  35  59  88 119 150 175 223 272
#     4   9  18  28  45  64  91 123 152 184 229 275
#
# _framework density 24.049758000000001
#
# number of rings (size 3 to 8) (size 9 to 14) (size 15 to 20)
#    0.000    3.385    0.000    0.923   15.077    0.000 
#    0.000    0.000    0.000    0.000    0.000    0.000 
#    0.000    7.385    0.000    0.000    0.000    0.000 
#
# Total GULP energy -144896.123330 kJ/mol
# GULP energy per Si atom -5572.927820 kJ/mol
# Density = 2.399502 g / cm^3
# Si number density = 24.049758 Si / 1000 Ang^3
#
#
#
# Elastic Constant Matrix: (Units=GPa)
#
#
# Indices 1 2 3 4 5 6 
#
# 1 173.1672 16.6709 78.2071 0.0000 0.0000 0.0000
# 2 16.6709 69.8700 7.5172 0.0000 0.0000 0.0000
# 3 78.2071 7.5172 159.0633 0.0000 0.0000 0.0000
# 4 0.0000 0.0000 0.0000 -14.9050 0.0000 0.0000
# 5 0.0000 0.0000 0.0000 0.0000 142.9275 0.0000
# 6 0.0000 0.0000 0.0000 0.0000 0.0000 23.4987
#
#
#
# Elastic Compliance Matrix: (Units=1/GPa)
#
#
# Indices 1 2 3 4 5 6 
#
# 1 0.007559 -0.001411 -0.003650 0.000000 0.000000 0.000000
# 2 -0.001411 0.014649 0.000001 0.000000 0.000000 0.000000
# 3 -0.003650 0.000001 0.008081 0.000000 0.000000 0.000000
# 4 0.000000 0.000000 0.000000 -0.067091 0.000000 0.000000
# 5 0.000000 0.000000 0.000000 0.000000 0.006997 0.000000
# 6 0.000000 0.000000 0.000000 0.000000 0.000000 0.042556
#
#
# Mechanical properties :
#
#
# Convention : Reuss Voigt Hill
#
# Bulk Modulus (GPa) = 49.57771 67.43231 58.50501
# Shear Modulus (GPa) = 168.96548 50.28460 109.62504
#
# Velocity S-wave (km/s) = 8.39102 4.57755 6.75881
# Velocity P-wave (km/s) = 10.70225 7.48586 9.23516
#
# Compressibility (1/GPa) = 0.02017035
#
# Stress axis : x y z
#
# Youngs Moduli (GPa) = 132.29316 68.26506 123.74287
#
# Poissons Ratio (x) = 0.09631 0.45164
# Poissons Ratio (y) = 0.18665 -0.00017
# Poissons Ratio (z) = 0.48285 -0.00010
#
# Static dielectric constant tensor:
#      x y z
#    x 1.844930 0.000000 0.000000 
#    y 0.000000 1.997780 0.000000 
#    z 0.000000 0.000000 2.089670 
# 
# From -- ./inp_files/599.got.cif
#   From: 2010.05.17/outbox.cif.g08.bks.cpg/sg32_1_cif.got.tgz:599.got - 2010.06.03 17:12:27.
