data_PCOD9343497
_publ_section_title
;
Structure prediction by ZEFSAII (Michael W. Deem and Ramdas Pophale) SiO2 
 PCOD9343497
Probable space group: P M N 21
;
_chemical_formula_sum "Si O2"
_cell_formula_units_Z 32
_cell_length_a 8.596244
_cell_length_b 11.138388
_cell_length_c 14.436268
_cell_angle_alpha 90.000000
_cell_angle_beta 90.000000
_cell_angle_gamma 90.000000
_cell_volume 1382.248134
_symmetry_space_group_name_H-M "P M N 21"
_symmetry_group_IT_number 31
_symmetry_cell_setting 'orthorhombic'
loop_
_space_group_symop_operation_xyz
x,y,z
1/2-x,-y,1/2+z
-x,y,z
1/2+x,-y,1/2+z
loop_
_atom_site_type_symbol
_atom_site_label
_atom_site_fract_x
_atom_site_fract_y
_atom_site_fract_z
Si Si1 0.181754 0.435504 0.965070
Si Si2 0.684110 0.305247 0.131786
Si Si3 0.814288 0.178182 0.522385
Si Si4 0.819058 0.666034 0.175873
Si Si5 0.811220 0.060142 0.342655
Si Si6 0.812407 0.054047 0.129653
Si Si7 0.317525 0.207839 0.863919
Si Si8 0.686390 0.563451 0.796212
O O1 0.216558 0.311381 0.909938
O O2 0.246744 0.538888 0.897752
O O3 0.000000 0.451375 0.980345
O O4 0.265573 0.411832 0.062382
O O5 0.500000 0.299138 0.137846
O O6 0.752495 0.181419 0.091697
O O7 0.757194 0.327566 0.233115
O O8 0.759631 0.291419 0.582094
O O9 0.758278 0.159760 0.416443
O O10 0.000000 0.178918 0.520549
O O11 0.756224 0.060131 0.577279
O O12 0.809756 0.771797 0.252838
O O13 0.762262 0.551092 0.233374
O O14 0.000000 0.644966 0.155889
O O15 0.757397 0.058683 0.236986
O O16 0.000000 0.066797 0.338077
O O17 0.772880 0.928461 0.383549
O O18 0.000000 0.048589 0.126370
O O19 0.500000 0.228054 0.889968
O O20 0.500000 0.564969 0.803011
#
# Coordination Sequence:
#
# PCOD9343497 Si02
#       8
#     4   4   4   4   4   4   4   4
#     4  11  22  38  63  96 124 159 208 257 307 369
#     4  12  25  43  64  92 126 163 207 259 314 372
#     4  11  21  34  57  90 123 158 201 249 303 365
#     4   9  18  35  59  83 112 152 195 244 301 357
#     4   9  19  35  55  81 118 161 198 239 301 367
#     4  11  22  41  63  86 121 166 208 252 309 370
#     4   9  16  33  58  82 115 158 202 250 300 351
#     4  10  22  43  67  90 119 161 207 260 315 365
#
# _framework density 23.150690000000001
#
# number of rings (size 3 to 8) (size 9 to 14) (size 15 to 20)
#    0.000    1.750    1.250    4.875    0.000    3.500 
#    2.250    3.125    0.000    0.000    0.000    0.000 
#    0.000    0.000    0.000    0.000    0.000    0.000 
#
# Total GULP energy -178967.267865 kJ/mol
# GULP energy per Si atom -5592.727121 kJ/mol
# Density = 2.309800 g / cm^3
# Si number density = 23.150690 Si / 1000 Ang^3
#
#
#
# Elastic Constant Matrix: (Units=GPa)
#
#
# Indices 1 2 3 4 5 6 
#
# 1 27.8509 -5.2946 6.5473 0.0000 0.0000 0.0000
# 2 -5.2946 56.5790 13.5623 0.0000 0.0000 0.0000
# 3 6.5473 13.5623 121.0422 0.0000 0.0000 0.0000
# 4 0.0000 0.0000 0.0000 46.4471 0.0000 0.0000
# 5 0.0000 0.0000 0.0000 0.0000 5.7588 0.0000
# 6 0.0000 0.0000 0.0000 0.0000 0.0000 255.5988
#
#
#
# Elastic Compliance Matrix: (Units=1/GPa)
#
#
# Indices 1 2 3 4 5 6 
#
# 1 0.037262 0.004080 -0.002473 0.000000 0.000000 0.000000
# 2 0.004080 0.018609 -0.002306 0.000000 0.000000 0.000000
# 3 -0.002473 -0.002306 0.008654 0.000000 0.000000 0.000000
# 4 0.000000 0.000000 0.000000 0.021530 0.000000 0.000000
# 5 0.000000 0.000000 0.000000 0.000000 0.173647 0.000000
# 6 0.000000 0.000000 0.000000 0.000000 0.000000 0.003912
#
#
# Mechanical properties :
#
#
# Convention : Reuss Voigt Hill
#
# Bulk Modulus (GPa) = 15.84098 26.12247 20.98173
# Shear Modulus (GPa) = 17.47921 74.27140 45.87530
#
# Velocity S-wave (km/s) = 2.75074 5.67022 4.45634
# Velocity P-wave (km/s) = 4.11657 7.36048 5.96334
#
# Compressibility (1/GPa) = 0.06312739
#
# Stress axis : x y z
#
# Youngs Moduli (GPa) = 26.83676 53.73778 115.55776
#
# Poissons Ratio (x) = -0.21923 0.28574
# Poissons Ratio (y) = -0.10948 0.26645
# Poissons Ratio (z) = 0.06636 0.12390
#
# Static dielectric constant tensor:
#      x y z
#    x 1.772300 0.000000 0.000000 
#    y 0.000000 1.910050 0.000000 
#    z 0.000000 0.000000 1.919700 
# 
# From -- ./inp_files/4977.got.cif
#   From: 2010.05.17/outbox.cif.g08.bks.cpg/sg31_3_cif.got.tgz:4977.got - 2010.06.03 17:08:30.
