data_PCOD9344082
_publ_section_title
;
Structure prediction by ZEFSAII (Michael W. Deem and Ramdas Pophale) SiO2 
 PCOD9344082
Probable space group: P B A 2
;
_chemical_formula_sum "Si O2"
_cell_formula_units_Z 24
_cell_length_a 18.071377
_cell_length_b 10.820789
_cell_length_c 4.735218
_cell_angle_alpha 90.000000
_cell_angle_beta 90.000000
_cell_angle_gamma 90.000000
_cell_volume 925.955579
_symmetry_space_group_name_H-M "P B A 2"
_symmetry_group_IT_number 32
_symmetry_cell_setting 'orthorhombic'
loop_
_space_group_symop_operation_xyz
x,y,z
-x,-y,z
1/2-x,1/2+y,z
1/2+x,1/2-y,z
loop_
_atom_site_type_symbol
_atom_site_label
_atom_site_fract_x
_atom_site_fract_y
_atom_site_fract_z
Si Si1 0.919426 0.336367 0.826930
Si Si2 0.965377 0.834145 0.106179
Si Si3 0.756929 0.004920 0.507695
Si Si4 0.617260 0.684663 0.295358
Si Si5 0.866093 0.811041 0.643527
Si Si6 0.336858 0.933958 0.995529
O O1 0.821286 0.098013 0.420290
O O2 0.906632 0.293283 0.509806
O O3 0.860734 0.255013 0.010354
O O4 0.996639 0.282534 0.940865
O O5 0.919241 0.789940 0.376291
O O6 0.042232 0.891238 0.225097
O O7 0.913776 0.895543 0.865486
O O8 0.793382 0.869709 0.499608
O O9 0.685994 0.043797 0.319695
O O10 0.734866 0.015023 0.832111
O O11 0.596635 0.976529 0.901167
O O12 0.846428 0.699179 0.852998
#
# Coordination Sequence:
#
# PCOD9344082 Si02
#       6
#     4   4   4   4   4   4
#     4  10  22  45  71 101 139 190 231 290 375 426
#     4  10  22  46  70 102 142 178 240 300 358 446
#     4  12  28  45  72 103 145 192 235 303 355 446
#     4  10  22  45  71 101 139 190 231 290 375 426
#     4  12  26  46  70 110 136 186 248 300 360 436
#     4  12  28  45  72 103 145 192 235 303 355 446
#
# _framework density 25.919170000000001
#
# number of rings (size 3 to 8) (size 9 to 14) (size 15 to 20)
#    1.000    0.000    1.667    4.000    7.000    1.333 
#    6.000    0.000    0.000    0.000    0.000    0.000 
#    0.000    0.000    0.000    0.000    0.000    0.000 
#
# Total GULP energy -134075.974549 kJ/mol
# GULP energy per Si atom -5586.498940 kJ/mol
# Density = 2.586018 g / cm^3
# Si number density = 25.919170 Si / 1000 Ang^3
#
#
#
# Elastic Constant Matrix: (Units=GPa)
#
#
# Indices 1 2 3 4 5 6 
#
# 1 71.1207 7.7061 12.9324 0.0000 0.0000 0.0000
# 2 7.7061 53.2357 8.9385 0.0000 0.0000 0.0000
# 3 12.9324 8.9385 133.0385 0.0000 0.0000 0.0000
# 4 0.0000 0.0000 0.0000 32.7692 0.0000 0.0000
# 5 0.0000 0.0000 0.0000 0.0000 57.4425 0.0000
# 6 0.0000 0.0000 0.0000 0.0000 0.0000 39.0818
#
#
#
# Elastic Compliance Matrix: (Units=1/GPa)
#
#
# Indices 1 2 3 4 5 6 
#
# 1 0.014498 -0.001883 -0.001283 0.000000 0.000000 0.000000
# 2 -0.001883 0.019243 -0.001110 0.000000 0.000000 0.000000
# 3 -0.001283 -0.001110 0.007716 0.000000 0.000000 0.000000
# 4 0.000000 0.000000 0.000000 0.030516 0.000000 0.000000
# 5 0.000000 0.000000 0.000000 0.000000 0.017409 0.000000
# 6 0.000000 0.000000 0.000000 0.000000 0.000000 0.025587
#
#
# Mechanical properties :
#
#
# Convention : Reuss Voigt Hill
#
# Bulk Modulus (GPa) = 30.39016 35.17210 32.78113
# Shear Modulus (GPa) = 37.17752 41.04657 39.11204
#
# Velocity S-wave (km/s) = 3.79141 3.98381 3.88880
# Velocity P-wave (km/s) = 5.56029 5.89579 5.73050
#
# Compressibility (1/GPa) = 0.03290539
#
# Stress axis : x y z
#
# Youngs Moduli (GPa) = 68.97544 51.96601 129.60279
#
# Poissons Ratio (x) = 0.09787 0.16625
# Poissons Ratio (y) = 0.12990 0.14384
# Poissons Ratio (z) = 0.08848 0.05767
#
# Static dielectric constant tensor:
#      x y z
#    x 2.105790 0.000000 0.000000 
#    y 0.000000 2.187930 0.000000 
#    z 0.000000 0.000000 1.963120 
# 
# From -- ./inp_files/1419.got.cif
#   From: 2010.05.17/outbox.cif.g08.bks.cpg/sg32_1_cif.got.tgz:1419.got - 2010.06.03 17:12:27.
