data_PCOD9344615
_publ_section_title
;
Structure prediction by ZEFSAII (Michael W. Deem and Ramdas Pophale) SiO2 
 PCOD9344615
Probable space group: P N A 21
;
_chemical_formula_sum "Si O2"
_cell_formula_units_Z 28
_cell_length_a 10.117226
_cell_length_b 27.548909
_cell_length_c 5.174462
_cell_angle_alpha 90.000000
_cell_angle_beta 90.000000
_cell_angle_gamma 90.000000
_cell_volume 1442.218486
_symmetry_space_group_name_H-M "P N A 21"
_symmetry_group_IT_number 33
_symmetry_cell_setting 'orthorhombic'
loop_
_space_group_symop_operation_xyz
x,y,z
-x,-y,1/2+z
1/2-x,1/2+y,1/2+z
1/2+x,1/2-y,z
loop_
_atom_site_type_symbol
_atom_site_label
_atom_site_fract_x
_atom_site_fract_y
_atom_site_fract_z
Si Si1 0.414030 0.631313 0.385590
Si Si2 0.564763 0.062349 0.951379
Si Si3 0.352469 0.217169 0.334010
Si Si4 0.048926 0.194751 0.385372
Si Si5 0.665677 0.018926 0.451609
Si Si6 0.446332 0.521476 0.285139
Si Si7 0.610487 0.846377 0.336172
O O1 0.452859 0.654613 0.658764
O O2 0.469729 0.578044 0.337609
O O3 0.254181 0.628369 0.365838
O O4 0.455510 0.667918 0.159294
O O5 0.664281 0.044273 0.729803
O O6 0.502204 0.113991 0.882445
O O7 0.446052 0.022838 0.949987
O O8 0.628061 0.058173 0.233191
O O9 0.192979 0.220670 0.356698
O O10 0.431115 0.266989 0.364415
O O11 0.394986 0.179541 0.559014
O O12 0.389596 0.194138 0.058732
O O13 0.800747 0.993673 0.374970
O O14 0.536864 0.491090 0.484090
#
# Coordination Sequence:
#
# PCOD9344615 Si02
#       7
#     4   4   4   4   4   4   4
#     4  10  21  39  60  81 111 157 198 227 279 356
#     4  10  19  35  59  83 114 145 189 248 282 339
#     4  10  21  36  60  87 115 149 191 245 290 351
#     4  10  21  39  61  85 114 148 195 238 295 349
#     4  10  21  35  55  84 115 150 190 239 294 318
#     4  12  24  40  59  84 121 159 202 237 278 354
#     4  10  19  36  60  86 112 148 197 234 286 351
#
# _framework density 19.414535999999998
#
# number of rings (size 3 to 8) (size 9 to 14) (size 15 to 20)
#    0.000    1.714    1.429    3.429    0.000    0.000 
#    0.000    8.571    0.000    0.000    0.000    0.000 
#    0.000    0.000    0.000    0.000    0.000    0.000 
#
# Total GULP energy -156430.828397 kJ/mol
# GULP energy per Si atom -5586.815300 kJ/mol
# Density = 1.937035 g / cm^3
# Si number density = 19.414536 Si / 1000 Ang^3
#
#
#
# Elastic Constant Matrix: (Units=GPa)
#
#
# Indices 1 2 3 4 5 6 
#
# 1 24.6428 14.9204 4.7090 0.0000 0.0000 0.0000
# 2 14.9204 49.6279 -24.2063 0.0000 0.0000 0.0000
# 3 4.7090 -24.2063 43.5156 0.0000 0.0000 0.0000
# 4 0.0000 0.0000 0.0000 11.4212 0.0000 0.0000
# 5 0.0000 0.0000 0.0000 0.0000 18.9959 0.0000
# 6 0.0000 0.0000 0.0000 0.0000 0.0000 17.8634
#
#
#
# Elastic Compliance Matrix: (Units=1/GPa)
#
#
# Indices 1 2 3 4 5 6 
#
# 1 0.063996 -0.031040 -0.024192 0.000000 0.000000 0.000000
# 2 -0.031040 0.042708 0.027116 0.000000 0.000000 0.000000
# 3 -0.024192 0.027116 0.040682 0.000000 0.000000 0.000000
# 4 0.000000 0.000000 0.000000 0.087556 0.000000 0.000000
# 5 0.000000 0.000000 0.000000 0.000000 0.052643 0.000000
# 6 0.000000 0.000000 0.000000 0.000000 0.000000 0.055980
#
#
# Mechanical properties :
#
#
# Convention : Reuss Voigt Hill
#
# Bulk Modulus (GPa) = 10.97038 12.07030 11.52034
# Shear Modulus (GPa) = 11.62299 17.81366 14.71832
#
# Velocity S-wave (km/s) = 2.44944 3.03238 2.75636
# Velocity P-wave (km/s) = 3.69629 4.30013 4.00959
#
# Compressibility (1/GPa) = 0.09115452
#
# Stress axis : x y z
#
# Youngs Moduli (GPa) = 15.62589 23.41488 24.58100
#
# Poissons Ratio (x) = 0.72680 0.59466
# Poissons Ratio (y) = 0.48503 -0.66654
# Poissons Ratio (z) = 0.37802 -0.63492
#
# Static dielectric constant tensor:
#      x y z
#    x 1.685350 0.000000 0.000000 
#    y 0.000000 1.638800 0.000000 
#    z 0.000000 0.000000 1.659220 
# 
# From -- ./inp_files/483.got.cif
#   From: 2010.05.17/outbox.cif.g08.bks.cpg/sg33_1_cif.got.tgz:483.got - 2010.06.03 17:15:25.
