data_PCOD9344256
_publ_section_title
;
Structure prediction by ZEFSAII (Michael W. Deem and Ramdas Pophale) SiO2 
 PCOD9344256
Probable space group: P B A 2
;
_chemical_formula_sum "Si O2"
_cell_formula_units_Z 24
_cell_length_a 12.833172
_cell_length_b 13.158887
_cell_length_c 6.936384
_cell_angle_alpha 90.000000
_cell_angle_beta 90.000000
_cell_angle_gamma 90.000000
_cell_volume 1171.348971
_symmetry_space_group_name_H-M "P B A 2"
_symmetry_group_IT_number 32
_symmetry_cell_setting 'orthorhombic'
loop_
_space_group_symop_operation_xyz
x,y,z
-x,-y,z
1/2-x,1/2+y,z
1/2+x,1/2-y,z
loop_
_atom_site_type_symbol
_atom_site_label
_atom_site_fract_x
_atom_site_fract_y
_atom_site_fract_z
Si Si1 0.370129 0.371013 0.762090
Si Si2 0.000000 0.500000 0.950117
Si Si3 0.345861 0.632620 0.238382
Si Si4 0.976780 0.726978 0.953332
Si Si5 0.810102 0.761103 0.632765
Si Si6 0.500000 0.500000 0.473546
Si Si7 0.732143 0.946636 0.895182
O O1 0.416050 0.282508 0.896822
O O2 0.277545 0.323747 0.640357
O O3 0.458122 0.413597 0.618712
O O4 0.316819 0.463138 0.876866
O O5 0.985007 0.613439 0.039677
O O6 0.886044 0.481621 0.853220
O O7 0.325472 0.707225 0.414649
O O8 0.408358 0.540428 0.337384
O O9 0.418186 0.694675 0.091311
O O10 0.247643 0.595766 0.112428
O O11 0.909299 0.722427 0.755263
O O12 0.767884 0.860625 0.745553
#
# Coordination Sequence:
#
# PCOD9344256 Si02
#       7
#     4   2   4   4   4   2   4
#     4  12  22  43  75  93 135 179 224 280 337 415
#     4  12  24  44  70  96 136 190 216 272 354 412
#     4  11  24  42  68  99 134 172 228 284 331 404
#     4  11  24  44  67  98 135 178 225 275 346 405
#     4  11  23  44  67  99 131 176 222 282 341 403
#     4  12  22  40  72 102 126 174 236 270 338 400
#     4  11  24  44  67  98 135 178 225 275 346 405
#
# _framework density 20.489197999999998
#
# number of rings (size 3 to 8) (size 9 to 14) (size 15 to 20)
#    0.000    0.667    6.667    2.000    0.000    2.667 
#    0.000    1.667    0.000    0.000    0.000    0.000 
#    0.000    0.000    0.000    0.000    0.000    0.000 
#
# Total GULP energy -133889.447513 kJ/mol
# GULP energy per Si atom -5578.726980 kJ/mol
# Density = 2.044256 g / cm^3
# Si number density = 20.489198 Si / 1000 Ang^3
#
#
#
# Elastic Constant Matrix: (Units=GPa)
#
#
# Indices 1 2 3 4 5 6 
#
# 1 71.9867 2.2217 10.6467 0.0000 0.0000 0.0000
# 2 2.2217 76.3865 -5.3995 0.0000 0.0000 0.0000
# 3 10.6467 -5.3995 85.5088 0.0000 0.0000 0.0000
# 4 0.0000 0.0000 0.0000 7.8332 0.0000 0.0000
# 5 0.0000 0.0000 0.0000 0.0000 17.1884 0.0000
# 6 0.0000 0.0000 0.0000 0.0000 0.0000 47.5626
#
#
#
# Elastic Compliance Matrix: (Units=1/GPa)
#
#
# Indices 1 2 3 4 5 6 
#
# 1 0.014174 -0.000539 -0.001799 0.000000 0.000000 0.000000
# 2 -0.000539 0.013171 0.000899 0.000000 0.000000 0.000000
# 3 -0.001799 0.000899 0.011975 0.000000 0.000000 0.000000
# 4 0.000000 0.000000 0.000000 0.127662 0.000000 0.000000
# 5 0.000000 0.000000 0.000000 0.000000 0.058179 0.000000
# 6 0.000000 0.000000 0.000000 0.000000 0.000000 0.021025
#
#
# Mechanical properties :
#
#
# Convention : Reuss Voigt Hill
#
# Bulk Modulus (GPa) = 27.44147 27.64664 27.54406
# Shear Modulus (GPa) = 19.14154 29.61104 24.37629
#
# Velocity S-wave (km/s) = 3.05983 3.80571 3.45297
# Velocity P-wave (km/s) = 5.08975 5.73008 5.41938
#
# Compressibility (1/GPa) = 0.03644119
#
# Stress axis : x y z
#
# Youngs Moduli (GPa) = 70.55099 75.92697 83.50423
#
# Poissons Ratio (x) = 0.04096 0.15021
# Poissons Ratio (y) = 0.03806 -0.07506
# Poissons Ratio (z) = 0.12691 -0.06824
#
# Static dielectric constant tensor:
#      x y z
#    x 1.752860 0.000000 0.000000 
#    y 0.000000 1.756530 0.000000 
#    z 0.000000 0.000000 1.692740 
# 
# From -- ./inp_files/1193.got.cif
#   From: 2010.05.17/outbox.cif.g08.bks.cpg/sg32_1_cif.got.tgz:1193.got - 2010.06.03 17:12:27.
