data_PCOD9344756
_publ_section_title
;
Structure prediction by ZEFSAII (Michael W. Deem and Ramdas Pophale) SiO2 
 PCOD9344756
Probable space group: P N A 21
;
_chemical_formula_sum "Si O2"
_cell_formula_units_Z 28
_cell_length_a 11.061133
_cell_length_b 9.641650
_cell_length_c 9.854765
_cell_angle_alpha 90.000000
_cell_angle_beta 90.000000
_cell_angle_gamma 90.000000
_cell_volume 1050.986770
_symmetry_space_group_name_H-M "P N A 21"
_symmetry_group_IT_number 33
_symmetry_cell_setting 'orthorhombic'
loop_
_space_group_symop_operation_xyz
x,y,z
-x,-y,1/2+z
1/2-x,1/2+y,1/2+z
1/2+x,1/2-y,z
loop_
_atom_site_type_symbol
_atom_site_label
_atom_site_fract_x
_atom_site_fract_y
_atom_site_fract_z
Si Si1 0.348421 0.151176 0.836460
Si Si2 0.441217 0.579487 0.937329
Si Si3 0.510894 0.607592 0.234008
Si Si4 0.252137 0.855124 0.535030
Si Si5 0.430833 0.009607 0.338811
Si Si6 0.737976 0.726889 0.839695
Si Si7 0.260751 0.860379 0.140908
O O1 0.464728 0.253692 0.817402
O O2 0.424277 0.009984 0.841285
O O3 0.263629 0.206149 0.711071
O O4 0.274580 0.204833 0.966498
O O5 0.539040 0.509413 0.835349
O O6 0.360444 0.685187 0.856014
O O7 0.471222 0.644699 0.082984
O O8 0.358345 0.451654 0.987678
O O9 0.647535 0.555824 0.202227
O O10 0.368022 0.929163 0.466691
O O11 0.246194 0.844826 0.694872
O O12 0.375484 0.937970 0.202531
O O13 0.376256 0.165140 0.342364
O O14 0.739204 0.647907 0.982827
#
# Coordination Sequence:
#
# PCOD9344756 Si02
#       7
#     4   4   4   4   4   4   4
#     4   8  18  37  56  77 110 154 180 235 283 338
#     4  10  20  37  60  87 111 156 192 244 294 332
#     4   9  19  36  58  83 112 144 199 241 282 334
#     4   9  21  37  53  87 113 142 199 236 273 352
#     4  10  19  41  57  77 117 151 186 233 294 338
#     4  11  21  36  58  82 122 147 185 242 288 343
#     4   9  20  38  54  85 113 144 195 239 272 353
#
# _framework density 26.641627
#
# number of rings (size 3 to 8) (size 9 to 14) (size 15 to 20)
#    0.857    1.714    2.857    0.857    2.000    3.429 
#    0.000    5.714    0.000    0.000    0.000    0.000 
#    0.000    0.000    0.000    0.000    0.000    0.000 
#
# Total GULP energy -156268.802452 kJ/mol
# GULP energy per Si atom -5581.028659 kJ/mol
# Density = 2.658099 g / cm^3
# Si number density = 26.641627 Si / 1000 Ang^3
#
#
#
# Elastic Constant Matrix: (Units=GPa)
#
#
# Indices 1 2 3 4 5 6 
#
# 1 59.4845 23.3073 40.5528 0.0000 0.0000 0.0000
# 2 23.3073 78.3045 58.7956 0.0000 0.0000 0.0000
# 3 40.5528 58.7956 246.2141 0.0000 0.0000 0.0000
# 4 0.0000 0.0000 0.0000 28.4463 0.0000 0.0000
# 5 0.0000 0.0000 0.0000 0.0000 18.1385 0.0000
# 6 0.0000 0.0000 0.0000 0.0000 0.0000 38.2552
#
#
#
# Elastic Compliance Matrix: (Units=1/GPa)
#
#
# Indices 1 2 3 4 5 6 
#
# 1 0.020033 -0.004247 -0.002285 0.000000 0.000000 0.000000
# 2 -0.004247 0.016461 -0.003231 0.000000 0.000000 0.000000
# 3 -0.002285 -0.003231 0.005210 0.000000 0.000000 0.000000
# 4 0.000000 0.000000 0.000000 0.035154 0.000000 0.000000
# 5 0.000000 0.000000 0.000000 0.000000 0.055131 0.000000
# 6 0.000000 0.000000 0.000000 0.000000 0.000000 0.026140
#
#
# Mechanical properties :
#
#
# Convention : Reuss Voigt Hill
#
# Bulk Modulus (GPa) = 45.09281 69.92383 57.50832
# Shear Modulus (GPa) = 27.01989 34.39117 30.70553
#
# Velocity S-wave (km/s) = 3.18810 3.59678 3.39859
# Velocity P-wave (km/s) = 5.52399 6.59941 6.08550
#
# Compressibility (1/GPa) = 0.02217648
#
# Stress axis : x y z
#
# Youngs Moduli (GPa) = 49.91724 60.74944 191.95382
#
# Poissons Ratio (x) = 0.25799 0.43870
# Poissons Ratio (y) = 0.21199 0.62028
# Poissons Ratio (z) = 0.11408 0.19631
#
# Static dielectric constant tensor:
#      x y z
#    x 2.165000 0.000000 0.000000 
#    y 0.000000 2.204880 0.000000 
#    z 0.000000 0.000000 2.071720 
# 
# From -- ./inp_files/4477.got.cif
#   From: 2010.05.17/outbox.cif.g08.bks.cpg/sg33_3_cif.got.tgz:4477.got - 2010.06.03 17:15:25.
