data_PCOD9344264
_publ_section_title
;
Structure prediction by ZEFSAII (Michael W. Deem and Ramdas Pophale) SiO2 
 PCOD9344264
Probable space group: P B A 2
;
_chemical_formula_sum "Si O2"
_cell_formula_units_Z 24
_cell_length_a 9.819079
_cell_length_b 9.686452
_cell_length_c 12.557076
_cell_angle_alpha 90.000000
_cell_angle_beta 90.000000
_cell_angle_gamma 90.000000
_cell_volume 1194.329082
_symmetry_space_group_name_H-M "P B A 2"
_symmetry_group_IT_number 32
_symmetry_cell_setting 'orthorhombic'
loop_
_space_group_symop_operation_xyz
x,y,z
-x,-y,z
1/2-x,1/2+y,z
1/2+x,1/2-y,z
loop_
_atom_site_type_symbol
_atom_site_label
_atom_site_fract_x
_atom_site_fract_y
_atom_site_fract_z
Si Si1 0.726665 0.253986 0.292730
Si Si2 0.972494 0.161690 0.151803
Si Si3 0.832999 0.510432 0.673494
Si Si4 0.979378 0.667732 0.938356
Si Si5 0.662130 0.000370 0.430558
Si Si6 0.730726 0.756158 0.804395
O O1 0.825802 0.187348 0.204670
O O2 0.584107 0.291266 0.238422
O O3 0.711192 0.147368 0.388911
O O4 0.787882 0.390478 0.344835
O O5 0.000000 0.000000 0.125932
O O6 0.989261 0.261515 0.050707
O O7 0.795913 0.474465 0.552371
O O8 0.774817 0.658249 0.707271
O O9 0.760353 0.409267 0.757084
O O10 0.000000 0.500000 0.683947
O O11 0.829253 0.709149 0.899644
O O12 0.000000 0.500000 0.940543
O O13 0.079192 0.740396 0.852405
O O14 0.500000 0.000000 0.430220
#
# Coordination Sequence:
#
# PCOD9344264 Si02
#       6
#     4   4   4   4   4   4
#     4  12  24  46  68 102 136 174 226 280 334 398
#     4  12  28  44  69 101 134 174 233 279 335 402
#     4  11  24  45  68 103 137 177 225 271 338 405
#     4  12  28  46  69  99 134 180 229 275 341 404
#     4  11  24  43  72  99 137 183 217 275 340 397
#     4  12  22  48  68  98 138 170 224 282 326 402
#
# _framework density 20.094965999999999
#
# number of rings (size 3 to 8) (size 9 to 14) (size 15 to 20)
#    0.000    0.333    6.667    2.000    4.667    2.667 
#    0.000    1.667    0.000    0.000    0.000    0.000 
#    0.000    0.000    0.000    0.000    0.000    0.000 
#
# Total GULP energy -134034.051893 kJ/mol
# GULP energy per Si atom -5584.752162 kJ/mol
# Density = 2.004923 g / cm^3
# Si number density = 20.094966 Si / 1000 Ang^3
#
#
#
# Elastic Constant Matrix: (Units=GPa)
#
#
# Indices 1 2 3 4 5 6 
#
# 1 32.5238 19.1683 -14.9405 0.0000 0.0000 0.0000
# 2 19.1683 90.9104 4.9737 0.0000 0.0000 0.0000
# 3 -14.9405 4.9737 68.6777 0.0000 0.0000 0.0000
# 4 0.0000 0.0000 0.0000 52.3619 0.0000 0.0000
# 5 0.0000 0.0000 0.0000 0.0000 30.9557 0.0000
# 6 0.0000 0.0000 0.0000 0.0000 0.0000 21.6499
#
#
#
# Elastic Compliance Matrix: (Units=1/GPa)
#
#
# Indices 1 2 3 4 5 6 
#
# 1 0.040412 -0.009038 0.009446 0.000000 0.000000 0.000000
# 2 -0.009038 0.013065 -0.002912 0.000000 0.000000 0.000000
# 3 0.009446 -0.002912 0.016827 0.000000 0.000000 0.000000
# 4 0.000000 0.000000 0.000000 0.019098 0.000000 0.000000
# 5 0.000000 0.000000 0.000000 0.000000 0.032304 0.000000
# 6 0.000000 0.000000 0.000000 0.000000 0.000000 0.046190
#
#
# Mechanical properties :
#
#
# Convention : Reuss Voigt Hill
#
# Bulk Modulus (GPa) = 15.31488 23.39054 19.35271
# Shear Modulus (GPa) = 25.68466 33.18752 29.43609
#
# Velocity S-wave (km/s) = 3.57902 4.06832 3.83149
# Velocity P-wave (km/s) = 4.97162 5.80806 5.40604
#
# Compressibility (1/GPa) = 0.06529598
#
# Stress axis : x y z
#
# Youngs Moduli (GPa) = 24.74484 76.54176 59.42968
#
# Poissons Ratio (x) = 0.69176 -0.56137
# Poissons Ratio (y) = 0.22364 0.17307
# Poissons Ratio (z) = -0.23374 0.22291
#
# Static dielectric constant tensor:
#      x y z
#    x 1.682540 0.000000 0.000000 
#    y 0.000000 1.670260 0.000000 
#    z 0.000000 0.000000 1.692370 
# 
# From -- ./inp_files/4119.got.cif
#   From: 2010.05.17/outbox.cif.g08.bks.cpg/sg32_3_cif.got.tgz:4119.got - 2010.06.03 17:12:27.
