data_PCOD9344847
_publ_section_title
;
Structure prediction by ZEFSAII (Michael W. Deem and Ramdas Pophale) SiO2 
 PCOD9344847
Probable space group: P N A 21
;
_chemical_formula_sum "Si O2"
_cell_formula_units_Z 28
_cell_length_a 23.414227
_cell_length_b 8.362387
_cell_length_c 5.495212
_cell_angle_alpha 90.000000
_cell_angle_beta 90.000000
_cell_angle_gamma 90.000000
_cell_volume 1075.956066
_symmetry_space_group_name_H-M "P N A 21"
_symmetry_group_IT_number 33
_symmetry_cell_setting 'orthorhombic'
loop_
_space_group_symop_operation_xyz
x,y,z
-x,-y,1/2+z
1/2-x,1/2+y,1/2+z
1/2+x,1/2-y,z
loop_
_atom_site_type_symbol
_atom_site_label
_atom_site_fract_x
_atom_site_fract_y
_atom_site_fract_z
Si Si1 0.554181 0.389531 0.934230
Si Si2 0.788527 0.224858 0.243014
Si Si3 0.660877 0.108162 0.234334
Si Si4 0.865937 0.524162 0.225920
Si Si5 0.568567 0.496242 0.423660
Si Si6 0.515157 0.921732 0.568324
Si Si7 0.342344 0.281310 0.750027
O O1 0.586500 0.440576 0.690661
O O2 0.500507 0.516985 0.939658
O O3 0.587621 0.398705 0.187223
O O4 0.517742 0.228435 0.954798
O O5 0.810510 0.409201 0.232134
O O6 0.819517 0.160876 0.488167
O O7 0.721772 0.193306 0.252772
O O8 0.807190 0.154867 0.981619
O O9 0.633088 0.137607 0.494350
O O10 0.663697 0.910815 0.240177
O O11 0.633797 0.127090 0.969408
O O12 0.921775 0.413627 0.190915
O O13 0.594249 0.665564 0.330249
O O14 0.518801 0.027589 0.318059
#
# Coordination Sequence:
#
# PCOD9344847 Si02
#       7
#     4   4   4   4   4   4   4
#     4  10  21  37  62  94 131 167 224 265 328 384
#     4  10  20  36  64  93 128 165 223 270 328 407
#     4  10  20  37  65  94 130 162 222 272 334 412
#     4  10  22  40  66  96 128 177 222 272 347 400
#     4  10  20  36  63  95 126 169 214 276 317 405
#     4  12  25  43  70  97 139 184 230 281 345 415
#     4  10  20  35  60  91 128 164 211 258 345 381
#
# _framework density 26.023368000000001
#
# number of rings (size 3 to 8) (size 9 to 14) (size 15 to 20)
#    0.000    1.714    0.000    5.143    0.000    6.857 
#    0.000    0.000   62.857    0.000    0.000    0.000 
#    0.000    0.000    0.000    0.000    0.000    0.000 
#
# Total GULP energy -156126.893492 kJ/mol
# GULP energy per Si atom -5575.960482 kJ/mol
# Density = 2.596414 g / cm^3
# Si number density = 26.023368 Si / 1000 Ang^3
#
#
#
# Elastic Constant Matrix: (Units=GPa)
#
#
# Indices 1 2 3 4 5 6 
#
# 1 54.8887 20.0126 21.3005 0.0000 0.0000 0.0000
# 2 20.0126 59.2911 33.5217 0.0000 0.0000 0.0000
# 3 21.3005 33.5217 296.0578 0.0000 0.0000 0.0000
# 4 0.0000 0.0000 0.0000 36.1134 0.0000 0.0000
# 5 0.0000 0.0000 0.0000 0.0000 40.5559 0.0000
# 6 0.0000 0.0000 0.0000 0.0000 0.0000 42.9278
#
#
#
# Elastic Compliance Matrix: (Units=1/GPa)
#
#
# Indices 1 2 3 4 5 6 
#
# 1 0.020932 -0.006639 -0.000754 0.000000 0.000000 0.000000
# 2 -0.006639 0.020125 -0.001801 0.000000 0.000000 0.000000
# 3 -0.000754 -0.001801 0.003636 0.000000 0.000000 0.000000
# 4 0.000000 0.000000 0.000000 0.027691 0.000000 0.000000
# 5 0.000000 0.000000 0.000000 0.000000 0.024657 0.000000
# 6 0.000000 0.000000 0.000000 0.000000 0.000000 0.023295
#
#
# Mechanical properties :
#
#
# Convention : Reuss Voigt Hill
#
# Bulk Modulus (GPa) = 38.01608 62.21191 50.11399
# Shear Modulus (GPa) = 33.90015 46.27960 40.08987
#
# Velocity S-wave (km/s) = 3.61318 4.22167 3.92922
# Velocity P-wave (km/s) = 5.66100 6.90806 6.31539
#
# Compressibility (1/GPa) = 0.02630466
#
# Stress axis : x y z
#
# Youngs Moduli (GPa) = 47.77396 49.68950 275.03374
#
# Poissons Ratio (x) = 0.32987 0.20746
# Poissons Ratio (y) = 0.31716 0.49535
# Poissons Ratio (z) = 0.03604 0.08949
#
# Static dielectric constant tensor:
#      x y z
#    x 2.046650 0.000000 0.000000 
#    y 0.000000 2.169650 0.000000 
#    z 0.000000 0.000000 2.132460 
# 
# From -- ./inp_files/2208.got.cif
#   From: 2010.05.17/outbox.cif.g08.bks.cpg/sg33_2_cif.got.tgz:2208.got - 2010.06.03 17:15:25.
