data_PCOD9344826
_publ_section_title
;
Structure prediction by ZEFSAII (Michael W. Deem and Ramdas Pophale) SiO2 
 PCOD9344826
Probable space group: P N A 21
;
_chemical_formula_sum "Si O2"
_cell_formula_units_Z 28
_cell_length_a 26.438114
_cell_length_b 8.107773
_cell_length_c 5.185638
_cell_angle_alpha 90.000000
_cell_angle_beta 90.000000
_cell_angle_gamma 90.000000
_cell_volume 1111.563424
_symmetry_space_group_name_H-M "P N A 21"
_symmetry_group_IT_number 33
_symmetry_cell_setting 'orthorhombic'
loop_
_space_group_symop_operation_xyz
x,y,z
-x,-y,1/2+z
1/2-x,1/2+y,1/2+z
1/2+x,1/2-y,z
loop_
_atom_site_type_symbol
_atom_site_label
_atom_site_fract_x
_atom_site_fract_y
_atom_site_fract_z
Si Si1 0.252694 0.682345 0.043340
Si Si2 0.997625 0.768718 0.519072
Si Si3 0.348006 0.461530 0.988966
Si Si4 0.705074 0.139444 0.057043
Si Si5 0.401606 0.177111 0.177244
Si Si6 0.887048 0.886072 0.497754
Si Si7 0.445921 0.062027 0.685370
O O1 0.268150 0.772158 0.309249
O O2 0.204079 0.561028 0.045377
O O3 0.293472 0.539697 0.984014
O O4 0.263218 0.810577 0.813539
O O5 0.946881 0.869234 0.535068
O O6 0.980314 0.595255 0.643072
O O7 0.051182 0.809147 0.648792
O O8 0.016167 0.716946 0.233316
O O9 0.369442 0.473582 0.699929
O O10 0.352739 0.279336 0.103272
O O11 0.376128 0.574975 0.200532
O O12 0.649545 0.229732 0.068728
O O13 0.410140 0.094418 0.446812
O O14 0.413876 0.051213 0.947258
#
# Coordination Sequence:
#
# PCOD9344826 Si02
#       7
#     4   4   4   4   4   4   4
#     4  10  21  41  65  87 128 153 204 247 313 357
#     4  10  21  36  55  76 113 149 188 237 281 329
#     4  10  22  39  55  85 115 151 182 246 288 344
#     4  10  21  42  62  94 117 165 194 257 301 372
#     4  10  20  35  55  77 108 144 190 221 287 325
#     4  10  23  36  60  80 118 149 190 232 299 341
#     4  10  20  35  54  75 111 147 182 242 273 322
#
# _framework density 25.189743
#
# number of rings (size 3 to 8) (size 9 to 14) (size 15 to 20)
#    0.857    1.143    1.429    1.714    2.000    1.143 
#    5.143    0.000    0.000    0.000    0.000    0.000 
#    0.000    0.000    0.000    0.000    0.000    0.000 
#
# Total GULP energy -156291.041317 kJ/mol
# GULP energy per Si atom -5581.822904 kJ/mol
# Density = 2.513241 g / cm^3
# Si number density = 25.189743 Si / 1000 Ang^3
#
#
#
# Elastic Constant Matrix: (Units=GPa)
#
#
# Indices 1 2 3 4 5 6 
#
# 1 67.0199 5.4347 8.4760 0.0000 0.0000 0.0000
# 2 5.4347 48.3204 22.7437 0.0000 0.0000 0.0000
# 3 8.4760 22.7437 122.7606 0.0000 0.0000 0.0000
# 4 0.0000 0.0000 0.0000 30.4217 0.0000 0.0000
# 5 0.0000 0.0000 0.0000 0.0000 17.0141 0.0000
# 6 0.0000 0.0000 0.0000 0.0000 0.0000 39.9419
#
#
#
# Elastic Compliance Matrix: (Units=1/GPa)
#
#
# Indices 1 2 3 4 5 6 
#
# 1 0.015129 -0.001326 -0.000799 0.000000 0.000000 0.000000
# 2 -0.001326 0.022788 -0.004130 0.000000 0.000000 0.000000
# 3 -0.000799 -0.004130 0.008966 0.000000 0.000000 0.000000
# 4 0.000000 0.000000 0.000000 0.032871 0.000000 0.000000
# 5 0.000000 0.000000 0.000000 0.000000 0.058775 0.000000
# 6 0.000000 0.000000 0.000000 0.000000 0.000000 0.025036
#
#
# Mechanical properties :
#
#
# Convention : Reuss Voigt Hill
#
# Bulk Modulus (GPa) = 29.09158 34.60106 31.84632
# Shear Modulus (GPa) = 26.66173 30.90531 28.78352
#
# Velocity S-wave (km/s) = 3.25689 3.50651 3.38401
# Velocity P-wave (km/s) = 5.07121 5.49183 5.28570
#
# Compressibility (1/GPa) = 0.03437421
#
# Stress axis : x y z
#
# Youngs Moduli (GPa) = 66.09606 43.88192 111.52817
#
# Poissons Ratio (x) = 0.05817 0.08911
# Poissons Ratio (y) = 0.08761 0.46066
# Poissons Ratio (z) = 0.05281 0.18125
#
# Static dielectric constant tensor:
#      x y z
#    x 2.137140 0.000000 0.000000 
#    y 0.000000 2.031510 0.000000 
#    z 0.000000 0.000000 1.983670 
# 
# From -- ./inp_files/2511.got.cif
#   From: 2010.05.17/outbox.cif.g08.bks.cpg/sg33_2_cif.got.tgz:2511.got - 2010.06.03 17:15:25.
