data_PCOD9344130
_publ_section_title
;
Structure prediction by ZEFSAII (Michael W. Deem and Ramdas Pophale) SiO2 
 PCOD9344130
Probable space group: P B A 2
;
_chemical_formula_sum "Si O2"
_cell_formula_units_Z 18
_cell_length_a 5.126634
_cell_length_b 27.599900
_cell_length_c 5.097624
_cell_angle_alpha 90.000000
_cell_angle_beta 90.000000
_cell_angle_gamma 90.000000
_cell_volume 721.286196
_symmetry_space_group_name_H-M "P B A 2"
_symmetry_group_IT_number 32
_symmetry_cell_setting 'orthorhombic'
loop_
_space_group_symop_operation_xyz
x,y,z
-x,-y,z
1/2-x,1/2+y,z
1/2+x,1/2-y,z
loop_
_atom_site_type_symbol
_atom_site_label
_atom_site_fract_x
_atom_site_fract_y
_atom_site_fract_z
Si Si1 0.189769 0.901725 0.932690
Si Si2 0.312291 0.218539 0.124538
Si Si3 0.214449 0.583315 0.264430
Si Si4 0.000000 0.000000 0.016950
Si Si5 0.048111 0.655166 0.626269
O O1 0.261577 0.863268 0.711185
O O2 0.443361 0.906342 0.118723
O O3 0.948135 0.888446 0.117059
O O4 0.129643 0.957142 0.848806
O O5 0.015313 0.236541 0.134138
O O6 0.906754 0.314270 0.366000
O O7 0.357344 0.189237 0.857956
O O8 0.297962 0.528280 0.206031
O O9 0.188624 0.603693 0.557890
#
# Coordination Sequence:
#
# PCOD9344130 Si02
#       5
#     4   4   4   2   4
#     4  10  23  44  77 108 158 202 256 312 373 464
#     4  12  30  51  82 113 150 193 256 331 398 474
#     4  10  23  44  77 108 158 202 256 312 373 464
#     4   8  22  46  72 116 156 200 268 302 380 432
#     4  12  26  52  83 110 158 200 260 313 404 452
#
# _framework density 24.955421000000001
#
# number of rings (size 3 to 8) (size 9 to 14) (size 15 to 20)
#    1.333    0.000    2.222    2.000    3.111    5.333 
#    0.000    6.667    0.000    0.000    0.000    0.000 
#    0.000    0.000    0.000    0.000    0.000    0.000 
#
# Total GULP energy -100622.523369 kJ/mol
# GULP energy per Si atom -5590.140187 kJ/mol
# Density = 2.489862 g / cm^3
# Si number density = 24.955421 Si / 1000 Ang^3
#
#
#
# Elastic Constant Matrix: (Units=GPa)
#
#
# Indices 1 2 3 4 5 6 
#
# 1 121.7630 -3.6102 16.6622 0.0000 0.0000 0.0000
# 2 -3.6102 80.6487 27.5299 0.0000 0.0000 0.0000
# 3 16.6622 27.5299 131.1899 0.0000 0.0000 0.0000
# 4 0.0000 0.0000 0.0000 45.9523 0.0000 0.0000
# 5 0.0000 0.0000 0.0000 0.0000 28.2491 0.0000
# 6 0.0000 0.0000 0.0000 0.0000 0.0000 57.8204
#
#
#
# Elastic Compliance Matrix: (Units=1/GPa)
#
#
# Indices 1 2 3 4 5 6 
#
# 1 0.008405 0.000798 -0.001235 0.000000 0.000000 0.000000
# 2 0.000798 0.013432 -0.002920 0.000000 0.000000 0.000000
# 3 -0.001235 -0.002920 0.008392 0.000000 0.000000 0.000000
# 4 0.000000 0.000000 0.000000 0.021762 0.000000 0.000000
# 5 0.000000 0.000000 0.000000 0.000000 0.035399 0.000000
# 6 0.000000 0.000000 0.000000 0.000000 0.000000 0.017295
#
#
# Mechanical properties :
#
#
# Convention : Reuss Voigt Hill
#
# Bulk Modulus (GPa) = 42.52582 46.08504 44.30543
# Shear Modulus (GPa) = 41.93292 45.93900 43.93596
#
# Velocity S-wave (km/s) = 4.10361 4.29516 4.20048
# Velocity P-wave (km/s) = 6.28733 6.56543 6.42788
#
# Compressibility (1/GPa) = 0.02351513
#
# Stress axis : x y z
#
# Youngs Moduli (GPa) = 118.97223 74.44949 119.15903
#
# Poissons Ratio (x) = -0.05940 0.14716
# Poissons Ratio (y) = -0.09492 0.34794
# Poissons Ratio (z) = 0.14693 0.21739
#
# Static dielectric constant tensor:
#      x y z
#    x 1.967750 0.000000 0.000000 
#    y 0.000000 2.038200 0.000000 
#    z 0.000000 0.000000 1.965040 
# 
# From -- ./inp_files/166.got.cif
#   From: 2010.05.17/outbox.cif.g08.bks.cpg/sg32_1_cif.got.tgz:166.got - 2010.06.03 17:12:27.
