data_PCOD9344151
_publ_section_title
;
Structure prediction by ZEFSAII (Michael W. Deem and Ramdas Pophale) SiO2 
 PCOD9344151
Probable space group: P B A 2
;
_chemical_formula_sum "Si O2"
_cell_formula_units_Z 26
_cell_length_a 8.029988
_cell_length_b 10.548451
_cell_length_c 13.173541
_cell_angle_alpha 90.000000
_cell_angle_beta 90.000000
_cell_angle_gamma 90.000000
_cell_volume 1115.850760
_symmetry_space_group_name_H-M "P B A 2"
_symmetry_group_IT_number 32
_symmetry_cell_setting 'orthorhombic'
loop_
_space_group_symop_operation_xyz
x,y,z
-x,-y,z
1/2-x,1/2+y,z
1/2+x,1/2-y,z
loop_
_atom_site_type_symbol
_atom_site_label
_atom_site_fract_x
_atom_site_fract_y
_atom_site_fract_z
Si Si1 0.622476 0.840313 0.277470
Si Si2 0.857402 0.247947 0.775059
Si Si3 0.618258 0.885043 0.037421
Si Si4 0.500000 0.000000 0.705237
Si Si5 0.567371 0.342012 0.920178
Si Si6 0.240724 0.411179 0.357009
Si Si7 0.672131 0.577444 0.590766
O O1 0.615226 0.869012 0.158262
O O2 0.660112 0.693181 0.293296
O O3 0.449795 0.871987 0.333575
O O4 0.753743 0.941462 0.324543
O O5 0.973418 0.373405 0.770541
O O6 0.698098 0.295413 0.835437
O O7 0.840769 0.202170 0.660334
O O8 0.918744 0.125471 0.841419
O O9 0.500000 0.000000 0.009002
O O10 0.531830 0.761741 0.987543
O O11 0.806890 0.909745 0.997792
O O12 0.666016 0.008891 0.637455
O O13 0.290877 0.395959 0.473584
O O14 0.500000 0.500000 0.599716
#
# Coordination Sequence:
#
# PCOD9344151 Si02
#       7
#     4   4   4   2   4   4   4
#     4  11  25  49  74 108 147 195 252 327 388 466
#     4  11  24  46  69 106 147 195 248 304 379 453
#     4  11  23  45  72 100 144 192 244 315 382 453
#     4  12  26  46  76 100 160 200 248 320 366 446
#     4  10  24  40  70 105 138 189 245 302 376 453
#     4  11  27  45  76 108 149 192 257 314 393 456
#     4  12  29  46  76 111 150 204 258 308 386 467
#
# _framework density 23.300605999999998
#
# number of rings (size 3 to 8) (size 9 to 14) (size 15 to 20)
#    0.000    0.923    3.077    2.769   10.769    1.231 
#    0.000    2.308    0.000    0.000    0.000    0.000 
#    0.000    0.000    0.000    0.000    0.000    0.000 
#
# Total GULP energy -145104.286472 kJ/mol
# GULP energy per Si atom -5580.934095 kJ/mol
# Density = 2.324757 g / cm^3
# Si number density = 23.300606 Si / 1000 Ang^3
#
#
#
# Elastic Constant Matrix: (Units=GPa)
#
#
# Indices 1 2 3 4 5 6 
#
# 1 76.3438 12.4112 11.6548 0.0000 0.0000 0.0000
# 2 12.4112 56.1066 26.2292 0.0000 0.0000 0.0000
# 3 11.6548 26.2292 143.6521 0.0000 0.0000 0.0000
# 4 0.0000 0.0000 0.0000 12.0894 0.0000 0.0000
# 5 0.0000 0.0000 0.0000 0.0000 -21.3834 0.0000
# 6 0.0000 0.0000 0.0000 0.0000 0.0000 25.3479
#
#
#
# Elastic Compliance Matrix: (Units=1/GPa)
#
#
# Indices 1 2 3 4 5 6 
#
# 1 0.013636 -0.002732 -0.000607 0.000000 0.000000 0.000000
# 2 -0.002732 0.020034 -0.003436 0.000000 0.000000 0.000000
# 3 -0.000607 -0.003436 0.007638 0.000000 0.000000 0.000000
# 4 0.000000 0.000000 0.000000 0.082717 0.000000 0.000000
# 5 0.000000 0.000000 0.000000 0.000000 -0.046765 0.000000
# 6 0.000000 0.000000 0.000000 0.000000 0.000000 0.039451
#
#
# Mechanical properties :
#
#
# Convention : Reuss Voigt Hill
#
# Bulk Modulus (GPa) = 36.02885 41.85476 38.94181
# Shear Modulus (GPa) = 35.83859 18.26460 27.05160
#
# Velocity S-wave (km/s) = 3.92611 2.80280 3.41102
# Velocity P-wave (km/s) = 6.00405 5.33631 5.68000
#
# Compressibility (1/GPa) = 0.02775553
#
# Stress axis : x y z
#
# Youngs Moduli (GPa) = 73.33762 49.91502 130.92479
#
# Poissons Ratio (x) = 0.13638 0.07952
# Poissons Ratio (y) = 0.20038 0.44990
# Poissons Ratio (z) = 0.04454 0.17152
#
# Static dielectric constant tensor:
#      x y z
#    x 2.032180 0.000000 0.000000 
#    y 0.000000 2.228510 0.000000 
#    z 0.000000 0.000000 1.833450 
# 
# From -- ./inp_files/3697.got.cif
#   From: 2010.05.17/outbox.cif.g08.bks.cpg/sg32_2_cif.got.tgz:3697.got - 2010.06.03 17:12:27.
