data_PCOD9344884
_publ_section_title
;
Structure prediction by ZEFSAII (Michael W. Deem and Ramdas Pophale) SiO2 
 PCOD9344884
Probable space group: P N A 21
;
_chemical_formula_sum "Si O2"
_cell_formula_units_Z 24
_cell_length_a 5.033486
_cell_length_b 7.467551
_cell_length_c 22.051592
_cell_angle_alpha 90.000000
_cell_angle_beta 90.000000
_cell_angle_gamma 90.000000
_cell_volume 828.871126
_symmetry_space_group_name_H-M "P N A 21"
_symmetry_group_IT_number 33
_symmetry_cell_setting 'orthorhombic'
loop_
_space_group_symop_operation_xyz
x,y,z
-x,-y,1/2+z
1/2-x,1/2+y,1/2+z
1/2+x,1/2-y,z
loop_
_atom_site_type_symbol
_atom_site_label
_atom_site_fract_x
_atom_site_fract_y
_atom_site_fract_z
Si Si1 0.377149 0.583595 0.804530
Si Si2 0.516450 0.633158 0.058724
Si Si3 0.353284 0.222846 0.829450
Si Si4 0.164736 0.138188 0.160384
Si Si5 0.726006 0.845269 0.473480
Si Si6 0.153491 0.757299 0.898663
O O1 0.124367 0.402062 0.813988
O O2 0.363918 0.596700 0.731259
O O3 0.394994 0.597793 0.886240
O O4 0.149387 0.759553 0.820556
O O5 0.216239 0.698656 0.055482
O O6 0.578114 0.529510 0.120624
O O7 0.609547 0.506407 0.004289
O O8 0.580062 0.388285 0.806869
O O9 0.301414 0.196638 0.900937
O O10 0.462947 0.199591 0.147136
O O11 0.427778 0.814132 0.496416
O O12 0.411438 0.859332 0.925214
#
# Coordination Sequence:
#
# PCOD9344884 Si02
#       6
#     4   4   4   4   4   4
#     4  10  20  36  62  90 133 167 221 259 316 401
#     4  12  26  44  71 101 138 173 228 295 348 399
#     4  10  24  37  64  89 127 173 224 268 324 392
#     4  12  23  41  68 105 136 183 226 270 346 414
#     4  10  21  46  73  95 128 174 233 282 342 408
#     4   8  16  30  52  80 116 160 194 250 298 358
#
# _framework density 28.955041000000001
#
# number of rings (size 3 to 8) (size 9 to 14) (size 15 to 20)
#    1.000    0.667    1.667    3.000    2.333    1.333 
#    0.000    0.000   44.000    0.000    0.000    0.000 
#    0.000    0.000    0.000    0.000    0.000    0.000 
#
# Total GULP energy -133696.075414 kJ/mol
# GULP energy per Si atom -5570.669809 kJ/mol
# Density = 2.888914 g / cm^3
# Si number density = 28.955041 Si / 1000 Ang^3
#
#
#
# Elastic Constant Matrix: (Units=GPa)
#
#
# Indices 1 2 3 4 5 6 
#
# 1 335.4156 11.8780 36.0933 0.0000 0.0000 0.0000
# 2 11.8780 167.9705 34.2667 0.0000 0.0000 0.0000
# 3 36.0933 34.2667 157.8704 0.0000 0.0000 0.0000
# 4 0.0000 0.0000 0.0000 6.8979 0.0000 0.0000
# 5 0.0000 0.0000 0.0000 0.0000 33.1968 0.0000
# 6 0.0000 0.0000 0.0000 0.0000 0.0000 85.8138
#
#
#
# Elastic Compliance Matrix: (Units=1/GPa)
#
#
# Indices 1 2 3 4 5 6 
#
# 1 0.003058 -0.000077 -0.000682 0.000000 0.000000 0.000000
# 2 -0.000077 0.006231 -0.001335 0.000000 0.000000 0.000000
# 3 -0.000682 -0.001335 0.006780 0.000000 0.000000 0.000000
# 4 0.000000 0.000000 0.000000 0.144972 0.000000 0.000000
# 5 0.000000 0.000000 0.000000 0.000000 0.030123 0.000000
# 6 0.000000 0.000000 0.000000 0.000000 0.000000 0.011653
#
#
# Mechanical properties :
#
#
# Convention : Reuss Voigt Hill
#
# Bulk Modulus (GPa) = 84.17296 91.74805 87.96050
# Shear Modulus (GPa) = 23.70055 63.78294 43.74175
#
# Velocity S-wave (km/s) = 2.86410 4.69852 3.89096
# Velocity P-wave (km/s) = 6.33015 7.82240 7.11550
#
# Compressibility (1/GPa) = 0.01188030
#
# Stress axis : x y z
#
# Youngs Moduli (GPa) = 327.06187 160.48276 147.49143
#
# Poissons Ratio (x) = 0.01236 0.10064
# Poissons Ratio (y) = 0.02519 0.19689
# Poissons Ratio (z) = 0.22316 0.21423
#
# Static dielectric constant tensor:
#      x y z
#    x 2.326180 0.000000 0.000000 
#    y 0.000000 2.757050 0.000000 
#    z 0.000000 0.000000 2.108780 
# 
# From -- ./inp_files/9186.got.cif
#   From: 2010.05.17/outbox.cif.g08.bks.cpg/sg33_5_cif.got.tgz:9186.got - 2010.06.03 17:15:25.
