data_PCOD9344099
_publ_section_title
;
Structure prediction by ZEFSAII (Michael W. Deem and Ramdas Pophale) SiO2 
 PCOD9344099
Probable space group: P B A 2
;
_chemical_formula_sum "Si O2"
_cell_formula_units_Z 32
_cell_length_a 30.541948
_cell_length_b 8.501973
_cell_length_c 5.112823
_cell_angle_alpha 90.000000
_cell_angle_beta 90.000000
_cell_angle_gamma 90.000000
_cell_volume 1327.630476
_symmetry_space_group_name_H-M "P B A 2"
_symmetry_group_IT_number 32
_symmetry_cell_setting 'orthorhombic'
loop_
_space_group_symop_operation_xyz
x,y,z
-x,-y,z
1/2-x,1/2+y,z
1/2+x,1/2-y,z
loop_
_atom_site_type_symbol
_atom_site_label
_atom_site_fract_x
_atom_site_fract_y
_atom_site_fract_z
Si Si1 0.377282 0.983190 0.239770
Si Si2 0.681134 0.239667 0.578525
Si Si3 0.245372 0.756639 0.239941
Si Si4 0.370965 0.521069 0.918743
Si Si5 0.532217 0.355088 0.782139
Si Si6 0.648520 0.686288 0.426073
Si Si7 0.292579 0.015136 0.928265
Si Si8 0.030028 0.352213 0.260382
O O1 0.357378 0.838761 0.409006
O O2 0.424512 0.926020 0.158687
O O3 0.377415 0.149853 0.389171
O O4 0.343512 0.018305 0.006135
O O5 0.715971 0.330291 0.399174
O O6 0.661835 0.339781 0.819502
O O7 0.708470 0.088549 0.674954
O O8 0.199762 0.771939 0.391307
O O9 0.267941 0.916045 0.149724
O O10 0.230672 0.678946 0.964193
O O11 0.420273 0.583744 0.879848
O O12 0.361885 0.386478 0.705131
O O13 0.363392 0.443307 0.202455
O O14 0.500000 0.500000 0.727586
O O15 0.536957 0.252512 0.519122
O O16 0.512638 0.252902 0.021206
O O17 0.000000 0.500000 0.326663
#
# Coordination Sequence:
#
# PCOD9344099 Si02
#       8
#     4   4   4   4   4   4   4   4
#     4  10  25  46  69 105 142 188 245 293 370 429
#     4  11  24  44  74  95 142 197 240 301 368 434
#     4  10  24  42  61 106 135 188 250 298 358 425
#     4  12  27  47  75 104 148 195 243 296 380 438
#     4  12  28  50  78 114 152 189 247 306 375 446
#     4  11  28  44  71 107 146 193 244 307 353 438
#     4  10  23  40  69  92 142 182 241 299 356 423
#     4  12  27  49  80 111 148 193 243 301 372 451
#
# _framework density 24.103093000000001
#
# number of rings (size 3 to 8) (size 9 to 14) (size 15 to 20)
#    0.000    1.000    1.250    3.000   14.000    2.000 
#    0.000    0.000    0.000    0.000    0.000    0.000 
#    0.000    0.000    0.000    0.000    0.000    0.000 
#
# Total GULP energy -179162.287617 kJ/mol
# GULP energy per Si atom -5598.821488 kJ/mol
# Density = 2.404823 g / cm^3
# Si number density = 24.103093 Si / 1000 Ang^3
#
#
#
# Elastic Constant Matrix: (Units=GPa)
#
#
# Indices 1 2 3 4 5 6 
#
# 1 100.3050 39.0601 7.4666 0.0000 0.0000 0.0000
# 2 39.0601 98.1596 16.9563 0.0000 0.0000 0.0000
# 3 7.4666 16.9563 82.8055 0.0000 0.0000 0.0000
# 4 0.0000 0.0000 0.0000 48.3589 0.0000 0.0000
# 5 0.0000 0.0000 0.0000 0.0000 18.2041 0.0000
# 6 0.0000 0.0000 0.0000 0.0000 0.0000 24.9811
#
#
#
# Elastic Compliance Matrix: (Units=1/GPa)
#
#
# Indices 1 2 3 4 5 6 
#
# 1 0.011799 -0.004677 -0.000106 0.000000 0.000000 0.000000
# 2 -0.004677 0.012415 -0.002121 0.000000 0.000000 0.000000
# 3 -0.000106 -0.002121 0.012520 0.000000 0.000000 0.000000
# 4 0.000000 0.000000 0.000000 0.020679 0.000000 0.000000
# 5 0.000000 0.000000 0.000000 0.000000 0.054933 0.000000
# 6 0.000000 0.000000 0.000000 0.000000 0.000000 0.040030
#
#
# Mechanical properties :
#
#
# Convention : Reuss Voigt Hill
#
# Bulk Modulus (GPa) = 43.61682 45.35957 44.48820
# Shear Modulus (GPa) = 28.76466 32.82796 30.79631
#
# Velocity S-wave (km/s) = 3.45831 3.69451 3.57836
# Velocity P-wave (km/s) = 5.83796 6.08761 5.96409
#
# Compressibility (1/GPa) = 0.02292694
#
# Stress axis : x y z
#
# Youngs Moduli (GPa) = 84.75562 80.54955 79.87028
#
# Poissons Ratio (x) = 0.37670 0.00849
# Poissons Ratio (y) = 0.39637 0.16937
# Poissons Ratio (z) = 0.00901 0.17081
#
# Static dielectric constant tensor:
#      x y z
#    x 1.909060 0.000000 0.000000 
#    y 0.000000 1.985310 0.000000 
#    z 0.000000 0.000000 1.904950 
# 
# From -- ./inp_files/1819.got.cif
#   From: 2010.05.17/outbox.cif.g08.bks.cpg/sg32_1_cif.got.tgz:1819.got - 2010.06.03 17:12:27.
