data_PCOD9344782
_publ_section_title
;
Structure prediction by ZEFSAII (Michael W. Deem and Ramdas Pophale) SiO2 
 PCOD9344782
Probable space group: P N A 21
;
_chemical_formula_sum "Si O2"
_cell_formula_units_Z 32
_cell_length_a 15.562820
_cell_length_b 24.931517
_cell_length_c 5.066901
_cell_angle_alpha 90.000000
_cell_angle_beta 90.000000
_cell_angle_gamma 90.000000
_cell_volume 1965.981460
_symmetry_space_group_name_H-M "P N A 21"
_symmetry_group_IT_number 33
_symmetry_cell_setting 'orthorhombic'
loop_
_space_group_symop_operation_xyz
x,y,z
-x,-y,1/2+z
1/2-x,1/2+y,1/2+z
1/2+x,1/2-y,z
loop_
_atom_site_type_symbol
_atom_site_label
_atom_site_fract_x
_atom_site_fract_y
_atom_site_fract_z
Si Si1 0.440355 0.063609 0.010480
Si Si2 0.783408 0.809139 0.177231
Si Si3 0.558590 0.752034 0.506038
Si Si4 0.691820 0.847331 0.650044
Si Si5 0.307209 0.847881 0.864766
Si Si6 0.215637 0.809704 0.337678
Si Si7 0.939786 0.563403 0.004749
Si Si8 0.059601 0.252289 0.504491
O O1 0.356043 0.098269 0.067827
O O2 0.500387 0.075049 0.257496
O O3 0.420809 0.000136 0.007660
O O4 0.500306 0.076729 0.757531
O O5 0.770812 0.840784 0.447766
O O6 0.749601 0.749715 0.257724
O O7 0.879075 0.797391 0.079342
O O8 0.726124 0.835781 0.945204
O O9 0.621064 0.801205 0.586355
O O10 0.619892 0.702135 0.434641
O O11 0.500228 0.766361 0.253818
O O12 0.498733 0.740419 0.753713
O O13 0.272809 0.836445 0.569609
O O14 0.228225 0.841284 0.066969
O O15 0.355165 0.902211 0.947622
O O16 0.377939 0.801683 0.927520
#
# Coordination Sequence:
#
# PCOD9344782 Si02
#       8
#     4   4   4   4   4   4   4   4
#     4  10  20  33  49  72  99 126 161 200 232 274
#     4  10  20  32  45  66  94 124 158 196 230 276
#     4  11  19  29  45  66  92 122 156 188 226 276
#     4  11  19  32  48  66  95 130 158 186 236 282
#     4  11  19  32  48  66  95 130 158 186 236 282
#     4  10  20  32  45  66  94 124 158 196 230 276
#     4  10  20  33  49  72  99 126 161 200 232 274
#     4  11  19  29  45  66  92 122 156 188 226 276
#
# _framework density 16.276857
#
# number of rings (size 3 to 8) (size 9 to 14) (size 15 to 20)
#    0.000    1.500    0.000   10.500    0.000    0.000 
#    0.000    0.000    0.000    0.000    0.000    0.000 
#    0.000   20.000    0.000    0.000    0.000    0.000 
#
# Total GULP energy -178372.128738 kJ/mol
# GULP energy per Si atom -5574.129023 kJ/mol
# Density = 1.623981 g / cm^3
# Si number density = 16.276857 Si / 1000 Ang^3
#
#
#
# Elastic Constant Matrix: (Units=GPa)
#
#
# Indices 1 2 3 4 5 6 
#
# 1 50.2137 5.6592 14.1703 0.0000 0.0000 0.0000
# 2 5.6592 25.3361 9.1499 0.0000 0.0000 0.0000
# 3 14.1703 9.1499 113.9056 0.0000 0.0000 0.0000
# 4 0.0000 0.0000 0.0000 30.5918 0.0000 0.0000
# 5 0.0000 0.0000 0.0000 0.0000 76.9605 0.0000
# 6 0.0000 0.0000 0.0000 0.0000 0.0000 10.6178
#
#
#
# Elastic Compliance Matrix: (Units=1/GPa)
#
#
# Indices 1 2 3 4 5 6 
#
# 1 0.021000 -0.003859 -0.002302 0.000000 0.000000 0.000000
# 2 -0.003859 0.041358 -0.002842 0.000000 0.000000 0.000000
# 3 -0.002302 -0.002842 0.009294 0.000000 0.000000 0.000000
# 4 0.000000 0.000000 0.000000 0.032688 0.000000 0.000000
# 5 0.000000 0.000000 0.000000 0.000000 0.012994 0.000000
# 6 0.000000 0.000000 0.000000 0.000000 0.000000 0.094182
#
#
# Mechanical properties :
#
#
# Convention : Reuss Voigt Hill
#
# Bulk Modulus (GPa) = 18.64141 27.49046 23.06594
# Shear Modulus (GPa) = 20.20986 34.33240 27.27113
#
# Velocity S-wave (km/s) = 3.52750 4.59767 4.09767
# Velocity P-wave (km/s) = 5.29798 6.71645 6.04894
#
# Compressibility (1/GPa) = 0.05364401
#
# Stress axis : x y z
#
# Youngs Moduli (GPa) = 47.62009 24.17921 107.59700
#
# Poissons Ratio (x) = 0.09331 0.24773
# Poissons Ratio (y) = 0.18377 0.30581
# Poissons Ratio (z) = 0.10964 0.06872
#
# Static dielectric constant tensor:
#      x y z
#    x 1.598020 0.000000 0.000000 
#    y 0.000000 1.455140 0.000000 
#    z 0.000000 0.000000 1.593540 
# 
# From -- ./inp_files/1154.got.cif
#   From: 2010.05.17/outbox.cif.g08.bks.cpg/sg33_1_cif.got.tgz:1154.got - 2010.06.03 17:15:25.
