data_PCOD9344609
_publ_section_title
;
Structure prediction by ZEFSAII (Michael W. Deem and Ramdas Pophale) SiO2 
 PCOD9344609
Probable space group: P N A 21
;
_chemical_formula_sum "Si O2"
_cell_formula_units_Z 32
_cell_length_a 35.164978
_cell_length_b 6.464614
_cell_length_c 4.875670
_cell_angle_alpha 90.000000
_cell_angle_beta 90.000000
_cell_angle_gamma 90.000000
_cell_volume 1108.376354
_symmetry_space_group_name_H-M "P N A 21"
_symmetry_group_IT_number 33
_symmetry_cell_setting 'orthorhombic'
loop_
_space_group_symop_operation_xyz
x,y,z
-x,-y,1/2+z
1/2-x,1/2+y,1/2+z
1/2+x,1/2-y,z
loop_
_atom_site_type_symbol
_atom_site_label
_atom_site_fract_x
_atom_site_fract_y
_atom_site_fract_z
Si Si1 0.122383 0.575281 0.210420
Si Si2 0.076609 0.978744 0.128767
Si Si3 0.877428 0.890785 0.152662
Si Si4 0.513943 0.264333 0.954521
Si Si5 0.333711 0.190373 0.230913
Si Si6 0.548016 0.025456 0.452583
Si Si7 0.769940 0.052160 0.437884
Si Si8 0.701866 0.302762 0.445723
O O1 0.093299 0.466033 0.425660
O O2 0.154387 0.661091 0.416683
O O3 0.092011 0.746381 0.089596
O O4 0.146506 0.524545 0.936074
O O5 0.092029 0.030570 0.429979
O O6 0.097746 0.146233 0.927117
O O7 0.032235 0.020447 0.057710
O O8 0.843332 0.781425 0.979887
O O9 0.852816 0.083949 0.275747
O O10 0.469758 0.203507 0.995763
O O11 0.529636 0.185345 0.665056
O O12 0.533258 0.102094 0.162154
O O13 0.291123 0.240842 0.325305
O O14 0.213828 0.020388 0.230242
O O15 0.781540 0.867762 0.238393
O O16 0.725533 0.096316 0.393506
#
# Coordination Sequence:
#
# PCOD9344609 Si02
#       8
#     4   4   4   4   4   4   4   4
#     4  10  19  35  58  82 104 139 190 233 269 324
#     4  10  19  35  58  82 104 139 190 233 269 324
#     4   9  18  34  57  80 109 145 180 226 285 332
#     4  10  21  38  56  78 114 153 182 221 287 347
#     4   9  18  34  57  80 109 145 180 226 285 332
#     4  10  21  38  56  78 114 153 182 221 287 347
#     4  11  22  39  60  84 116 153 191 232 284 341
#     4  11  22  39  60  84 116 153 191 232 284 341
#
# _framework density 28.871061000000001
#
# number of rings (size 3 to 8) (size 9 to 14) (size 15 to 20)
#    0.000    2.000    0.000    6.000    0.000    0.000 
#    0.000   15.000    0.000    0.000    0.000    0.000 
#    0.000    0.000    0.000    0.000    0.000    0.000 
#
# Total GULP energy -178865.700496 kJ/mol
# GULP energy per Si atom -5589.553141 kJ/mol
# Density = 2.880535 g / cm^3
# Si number density = 28.871061 Si / 1000 Ang^3
#
#
#
# Elastic Constant Matrix: (Units=GPa)
#
#
# Indices 1 2 3 4 5 6 
#
# 1 192.9207 31.8634 43.9691 0.0000 0.0000 0.0000
# 2 31.8634 54.7809 -10.9356 0.0000 0.0000 0.0000
# 3 43.9691 -10.9356 107.6361 0.0000 0.0000 0.0000
# 4 0.0000 0.0000 0.0000 25.0485 0.0000 0.0000
# 5 0.0000 0.0000 0.0000 0.0000 26.7476 0.0000
# 6 0.0000 0.0000 0.0000 0.0000 0.0000 52.9802
#
#
#
# Elastic Compliance Matrix: (Units=1/GPa)
#
#
# Indices 1 2 3 4 5 6 
#
# 1 0.006650 -0.004502 -0.003174 0.000000 0.000000 0.000000
# 2 -0.004502 0.021680 0.004042 0.000000 0.000000 0.000000
# 3 -0.003174 0.004042 0.010998 0.000000 0.000000 0.000000
# 4 0.000000 0.000000 0.000000 0.039923 0.000000 0.000000
# 5 0.000000 0.000000 0.000000 0.000000 0.037387 0.000000
# 6 0.000000 0.000000 0.000000 0.000000 0.000000 0.018875
#
#
# Mechanical properties :
#
#
# Convention : Reuss Voigt Hill
#
# Bulk Modulus (GPa) = 31.19201 53.90351 42.54776
# Shear Modulus (GPa) = 32.58024 40.31797 36.44910
#
# Velocity S-wave (km/s) = 3.36292 3.74101 3.55699
# Velocity P-wave (km/s) = 5.08983 6.11320 5.62483
#
# Compressibility (1/GPa) = 0.03205949
#
# Stress axis : x y z
#
# Youngs Moduli (GPa) = 150.36623 46.12577 90.92743
#
# Poissons Ratio (x) = 0.20765 0.28861
# Poissons Ratio (y) = 0.67693 -0.36750
# Poissons Ratio (z) = 0.47727 -0.18642
#
# Static dielectric constant tensor:
#      x y z
#    x 2.524550 0.000000 0.000000 
#    y 0.000000 2.451680 0.000000 
#    z 0.000000 0.000000 2.145470 
# 
# From -- ./inp_files/2551.got.cif
#   From: 2010.05.17/outbox.cif.g08.bks.cpg/sg33_2_cif.got.tgz:2551.got - 2010.06.03 17:15:25.
