data_PCOD9344771
_publ_section_title
;
Structure prediction by ZEFSAII (Michael W. Deem and Ramdas Pophale) SiO2 
 PCOD9344771
Probable space group: P N A 21
;
_chemical_formula_sum "Si O2"
_cell_formula_units_Z 20
_cell_length_a 9.354086
_cell_length_b 17.045748
_cell_length_c 6.958705
_cell_angle_alpha 90.000000
_cell_angle_beta 90.000000
_cell_angle_gamma 90.000000
_cell_volume 1109.547369
_symmetry_space_group_name_H-M "P N A 21"
_symmetry_group_IT_number 33
_symmetry_cell_setting 'orthorhombic'
loop_
_space_group_symop_operation_xyz
x,y,z
-x,-y,1/2+z
1/2-x,1/2+y,1/2+z
1/2+x,1/2-y,z
loop_
_atom_site_type_symbol
_atom_site_label
_atom_site_fract_x
_atom_site_fract_y
_atom_site_fract_z
Si Si1 0.116925 0.315479 0.648690
Si Si2 0.291268 0.165476 0.722324
Si Si3 0.879426 0.084851 0.656318
Si Si4 0.095342 0.180200 0.392118
Si Si5 0.585205 0.409825 0.004686
O O1 0.210192 0.248661 0.758793
O O2 0.214189 0.391852 0.646758
O O3 0.097563 0.272645 0.441015
O O4 0.960041 0.327241 0.732224
O O5 0.235550 0.147444 0.505189
O O6 0.221303 0.104480 0.867632
O O7 0.963296 0.142795 0.510599
O O8 0.948721 0.098038 0.865398
O O9 0.909793 0.996097 0.595025
O O10 0.086979 0.153011 0.175571
#
# Coordination Sequence:
#
# PCOD9344771 Si02
#       5
#     4   4   4   4   4
#     4  10  19  44  59  83 130 156 196 267 290 353
#     4   9  20  39  59  85 123 152 203 250 296 358
#     4  11  21  39  66  88 122 163 203 251 303 365
#     4   9  19  39  62  87 114 157 200 249 294 366
#     4  11  21  39  64  89 121 164 206 245 307 368
#
# _framework density 18.025369000000001
#
# number of rings (size 3 to 8) (size 9 to 14) (size 15 to 20)
#    1.200    0.800    4.000    0.000    0.000    0.000 
#   18.000    0.000    0.000    0.000    0.000    0.000 
#    0.000    0.000    0.000    0.000    0.000    0.000 
#
# Total GULP energy -111342.587756 kJ/mol
# GULP energy per Si atom -5567.129388 kJ/mol
# Density = 1.798434 g / cm^3
# Si number density = 18.025369 Si / 1000 Ang^3
#
#
#
# Elastic Constant Matrix: (Units=GPa)
#
#
# Indices 1 2 3 4 5 6 
#
# 1 133.3270 12.2314 30.7214 0.0000 0.0000 0.0000
# 2 12.2314 34.0120 28.0225 0.0000 0.0000 0.0000
# 3 30.7214 28.0225 106.3443 0.0000 0.0000 0.0000
# 4 0.0000 0.0000 0.0000 29.8703 0.0000 0.0000
# 5 0.0000 0.0000 0.0000 0.0000 5.0819 0.0000
# 6 0.0000 0.0000 0.0000 0.0000 0.0000 24.2448
#
#
#
# Elastic Compliance Matrix: (Units=1/GPa)
#
#
# Indices 1 2 3 4 5 6 
#
# 1 0.008077 -0.001255 -0.002003 0.000000 0.000000 0.000000
# 2 -0.001255 0.037750 -0.009585 0.000000 0.000000 0.000000
# 3 -0.002003 -0.009585 0.012508 0.000000 0.000000 0.000000
# 4 0.000000 0.000000 0.000000 0.033478 0.000000 0.000000
# 5 0.000000 0.000000 0.000000 0.000000 0.196777 0.000000
# 6 0.000000 0.000000 0.000000 0.000000 0.000000 0.041246
#
#
# Mechanical properties :
#
#
# Convention : Reuss Voigt Hill
#
# Bulk Modulus (GPa) = 30.62803 46.18155 38.40479
# Shear Modulus (GPa) = 13.64617 25.35326 19.49972
#
# Velocity S-wave (km/s) = 2.75445 3.75445 3.29263
# Velocity P-wave (km/s) = 5.21004 6.66861 5.98393
#
# Compressibility (1/GPa) = 0.03264983
#
# Stress axis : x y z
#
# Youngs Moduli (GPa) = 123.80958 26.49036 79.95100
#
# Poissons Ratio (x) = 0.03323 0.16012
# Poissons Ratio (y) = 0.15533 0.76632
# Poissons Ratio (z) = 0.24796 0.25391
#
# Static dielectric constant tensor:
#      x y z
#    x 1.616540 0.000000 0.000000 
#    y 0.000000 1.647020 0.000000 
#    z 0.000000 0.000000 1.616080 
# 
# From -- ./inp_files/355.got.cif
#   From: 2010.05.17/outbox.cif.g08.bks.cpg/sg33_1_cif.got.tgz:355.got - 2010.06.03 17:15:25.
