data_PCOD9344775
_publ_section_title
;
Structure prediction by ZEFSAII (Michael W. Deem and Ramdas Pophale) SiO2 
 PCOD9344775
Probable space group: P N A 21
;
_chemical_formula_sum "Si O2"
_cell_formula_units_Z 24
_cell_length_a 9.642576
_cell_length_b 7.985520
_cell_length_c 11.546708
_cell_angle_alpha 90.000000
_cell_angle_beta 90.000000
_cell_angle_gamma 90.000000
_cell_volume 889.107872
_symmetry_space_group_name_H-M "P N A 21"
_symmetry_group_IT_number 33
_symmetry_cell_setting 'orthorhombic'
loop_
_space_group_symop_operation_xyz
x,y,z
-x,-y,1/2+z
1/2-x,1/2+y,1/2+z
1/2+x,1/2-y,z
loop_
_atom_site_type_symbol
_atom_site_label
_atom_site_fract_x
_atom_site_fract_y
_atom_site_fract_z
Si Si1 0.581556 0.152614 0.336990
Si Si2 0.392612 0.239933 0.689090
Si Si3 0.755306 0.895318 0.474065
Si Si4 0.483486 0.551097 0.991165
Si Si5 0.663578 0.026047 0.731584
Si Si6 0.748011 0.101588 0.115867
O O1 0.600590 0.312387 0.419404
O O2 0.672606 0.190000 0.223527
O O3 0.640926 0.980492 0.392488
O O4 0.420927 0.115272 0.304183
O O5 0.421032 0.340219 0.573394
O O6 0.541900 0.166295 0.722737
O O7 0.302340 0.369520 0.766365
O O8 0.302070 0.085110 0.643064
O O9 0.795812 0.703703 0.502251
O O10 0.695977 0.951958 0.602360
O O11 0.899318 0.959631 0.417790
O O12 0.407299 0.426124 0.079636
#
# Coordination Sequence:
#
# PCOD9344775 Si02
#       6
#     4   4   4   4   4   4
#     4  11  26  50  80 113 159 224 273 338 438 496
#     4  10  19  46  73 107 157 207 250 347 398 477
#     4  11  26  47  75 118 156 211 283 342 415 508
#     4  11  23  48  81 107 163 215 275 347 418 503
#     4  10  22  44  76 108 156 204 274 324 409 501
#     4  11  26  47  77 115 161 211 277 354 410 509
#
# _framework density 26.993351000000001
#
# number of rings (size 3 to 8) (size 9 to 14) (size 15 to 20)
#    0.000    1.333    3.333    1.000    7.000    0.000 
#   12.000    5.000    0.000    0.000    0.000    0.000 
#    0.000    0.000    0.000    0.000    0.000    0.000 
#
# Total GULP energy -133829.392023 kJ/mol
# GULP energy per Si atom -5576.224668 kJ/mol
# Density = 2.693191 g / cm^3
# Si number density = 26.993351 Si / 1000 Ang^3
#
#
#
# Elastic Constant Matrix: (Units=GPa)
#
#
# Indices 1 2 3 4 5 6 
#
# 1 110.1233 25.3312 27.7544 0.0000 0.0000 0.0000
# 2 25.3312 72.7122 22.0406 0.0000 0.0000 0.0000
# 3 27.7544 22.0406 67.6117 0.0000 0.0000 0.0000
# 4 0.0000 0.0000 0.0000 20.9453 0.0000 0.0000
# 5 0.0000 0.0000 0.0000 0.0000 55.6384 0.0000
# 6 0.0000 0.0000 0.0000 0.0000 0.0000 -244.4246
#
#
#
# Elastic Compliance Matrix: (Units=1/GPa)
#
#
# Indices 1 2 3 4 5 6 
#
# 1 0.010561 -0.002625 -0.003480 0.000000 0.000000 0.000000
# 2 -0.002625 0.015913 -0.004110 0.000000 0.000000 0.000000
# 3 -0.003480 -0.004110 0.017559 0.000000 0.000000 0.000000
# 4 0.000000 0.000000 0.000000 0.047743 0.000000 0.000000
# 5 0.000000 0.000000 0.000000 0.000000 0.017973 0.000000
# 6 0.000000 0.000000 0.000000 0.000000 0.000000 -0.004091
#
#
# Mechanical properties :
#
#
# Convention : Reuss Voigt Hill
#
# Bulk Modulus (GPa) = 42.36544 44.52216 43.44380
# Shear Modulus (GPa) = 37.32582 -21.88009 7.72286
#
# Velocity S-wave (km/s) = 3.72261 -2.85015 1.69329
# Velocity P-wave (km/s) = 5.84858 2.38714 4.46679
#
# Compressibility (1/GPa) = 0.02360415
#
# Stress axis : x y z
#
# Youngs Moduli (GPa) = 94.68371 62.84158 56.95191
#
# Poissons Ratio (x) = 0.16493 0.19819
# Poissons Ratio (y) = 0.24850 0.23408
# Poissons Ratio (z) = 0.32949 0.25829
#
# Static dielectric constant tensor:
#      x y z
#    x 2.109850 0.000000 0.000000 
#    y 0.000000 2.252960 0.000000 
#    z 0.000000 0.000000 2.106730 
# 
# From -- ./inp_files/7567.got.cif
#   From: 2010.05.17/outbox.cif.g08.bks.cpg/sg33_4_cif.got.tgz:7567.got - 2010.06.03 17:15:25.
