data_PCOD9344124
_publ_section_title
;
Structure prediction by ZEFSAII (Michael W. Deem and Ramdas Pophale) SiO2 
 PCOD9344124
Probable space group: P B A 2
;
_chemical_formula_sum "Si O2"
_cell_formula_units_Z 18
_cell_length_a 10.110398
_cell_length_b 8.635924
_cell_length_c 10.049938
_cell_angle_alpha 90.000000
_cell_angle_beta 90.000000
_cell_angle_gamma 90.000000
_cell_volume 877.486505
_symmetry_space_group_name_H-M "P B A 2"
_symmetry_group_IT_number 32
_symmetry_cell_setting 'orthorhombic'
loop_
_space_group_symop_operation_xyz
x,y,z
-x,-y,z
1/2-x,1/2+y,z
1/2+x,1/2-y,z
loop_
_atom_site_type_symbol
_atom_site_label
_atom_site_fract_x
_atom_site_fract_y
_atom_site_fract_z
Si Si1 0.627452 0.088967 0.597570
Si Si2 0.366806 0.595069 0.726121
Si Si3 0.144058 0.628101 0.091894
Si Si4 0.883750 0.722659 0.994536
Si Si5 0.000000 0.500000 0.337480
O O1 0.614159 0.270445 0.618322
O O2 0.500000 0.000000 0.658187
O O3 0.753602 0.017845 0.671100
O O4 0.611774 0.058334 0.440165
O O5 0.500000 0.500000 0.748101
O O6 0.338143 0.696067 0.858524
O O7 0.073782 0.612816 0.234859
O O8 0.143757 0.460156 0.018527
O O9 0.290815 0.692595 0.101050
O O10 0.041764 0.736835 0.010567
#
# Coordination Sequence:
#
# PCOD9344124 Si02
#       5
#     4   4   4   4   2
#     4  10  24  42  67  93 134 176 216 274 329 394
#     4  12  25  41  66 102 132 174 221 277 340 398
#     4  10  23  44  67  96 133 175 220 273 331 381
#     4  10  24  39  66  97 132 171 217 278 327 394
#     4   8  22  46  68  88 136 168 226 266 318 404
#
# _framework density 20.513134999999998
#
# number of rings (size 3 to 8) (size 9 to 14) (size 15 to 20)
#    0.667    1.333    0.000    2.667   12.444    3.556 
#    0.000    0.000    0.000    0.000    0.000    0.000 
#    0.000    0.000    0.000    0.000    0.000    0.000 
#
# Total GULP energy -100279.255357 kJ/mol
# GULP energy per Si atom -5571.069742 kJ/mol
# Density = 2.046645 g / cm^3
# Si number density = 20.513135 Si / 1000 Ang^3
#
#
#
# Elastic Constant Matrix: (Units=GPa)
#
#
# Indices 1 2 3 4 5 6 
#
# 1 104.4794 46.4991 20.2702 0.0000 0.0000 0.0000
# 2 46.4991 85.4682 21.3343 0.0000 0.0000 0.0000
# 3 20.2702 21.3343 106.1408 0.0000 0.0000 0.0000
# 4 0.0000 0.0000 0.0000 16.8530 0.0000 0.0000
# 5 0.0000 0.0000 0.0000 0.0000 19.9019 0.0000
# 6 0.0000 0.0000 0.0000 0.0000 0.0000 42.9189
#
#
#
# Elastic Compliance Matrix: (Units=1/GPa)
#
#
# Indices 1 2 3 4 5 6 
#
# 1 0.012749 -0.006663 -0.001096 0.000000 0.000000 0.000000
# 2 -0.006663 0.015800 -0.001903 0.000000 0.000000 0.000000
# 3 -0.001096 -0.001903 0.010013 0.000000 0.000000 0.000000
# 4 0.000000 0.000000 0.000000 0.059337 0.000000 0.000000
# 5 0.000000 0.000000 0.000000 0.000000 0.050246 0.000000
# 6 0.000000 0.000000 0.000000 0.000000 0.000000 0.023300
#
#
# Mechanical properties :
#
#
# Convention : Reuss Voigt Hill
#
# Bulk Modulus (GPa) = 51.97718 52.47730 52.22724
# Shear Modulus (GPa) = 25.35728 29.80040 27.57884
#
# Velocity S-wave (km/s) = 3.51970 3.81563 3.67065
# Velocity P-wave (km/s) = 6.47389 6.71192 6.59398
#
# Compressibility (1/GPa) = 0.01923921
#
# Stress axis : x y z
#
# Youngs Moduli (GPa) = 78.43705 63.29015 99.86757
#
# Poissons Ratio (x) = 0.42168 0.10941
# Poissons Ratio (y) = 0.52260 0.19009
# Poissons Ratio (z) = 0.08593 0.12047
#
# Static dielectric constant tensor:
#      x y z
#    x 1.727740 0.000000 0.000000 
#    y 0.000000 1.689980 0.000000 
#    z 0.000000 0.000000 1.771060 
# 
# From -- ./inp_files/3636.got.cif
#   From: 2010.05.17/outbox.cif.g08.bks.cpg/sg32_2_cif.got.tgz:3636.got - 2010.06.03 17:12:27.
