data_PCOD9344828
_publ_section_title
;
Structure prediction by ZEFSAII (Michael W. Deem and Ramdas Pophale) SiO2 
 PCOD9344828
Probable space group: P N A 21
;
_chemical_formula_sum "Si O2"
_cell_formula_units_Z 28
_cell_length_a 8.321477
_cell_length_b 22.632750
_cell_length_c 5.554448
_cell_angle_alpha 90.000000
_cell_angle_beta 90.000000
_cell_angle_gamma 90.000000
_cell_volume 1046.113120
_symmetry_space_group_name_H-M "P N A 21"
_symmetry_group_IT_number 33
_symmetry_cell_setting 'orthorhombic'
loop_
_space_group_symop_operation_xyz
x,y,z
-x,-y,1/2+z
1/2-x,1/2+y,1/2+z
1/2+x,1/2-y,z
loop_
_atom_site_type_symbol
_atom_site_label
_atom_site_fract_x
_atom_site_fract_y
_atom_site_fract_z
Si Si1 0.927793 0.936386 0.913160
Si Si2 0.716718 0.489856 0.918433
Si Si3 0.229482 0.656008 0.108397
Si Si4 0.260029 0.836314 0.209022
Si Si5 0.557823 0.275207 0.915675
Si Si6 0.032239 0.314105 0.296893
Si Si7 0.993630 0.583282 0.410030
O O1 0.854647 0.956535 0.656305
O O2 0.876470 0.869953 0.959698
O O3 0.848425 0.966308 0.156076
O O4 0.117030 0.949271 0.924094
O O5 0.909584 0.478741 0.944922
O O6 0.128402 0.698584 0.947182
O O7 0.295446 0.682818 0.352351
O O8 0.096772 0.608506 0.187085
O O9 0.394681 0.787035 0.288186
O O10 0.098229 0.809678 0.320133
O O11 0.312417 0.899870 0.326243
O O12 0.303436 0.833804 0.928732
O O13 0.554520 0.249413 0.178007
O O14 0.987429 0.372360 0.136057
#
# Coordination Sequence:
#
# PCOD9344828 Si02
#       7
#     4   4   4   4   4   4   4
#     4   9  17  30  54  86 117 146 188 243 301 350
#     4   9  16  30  54  88 116 144 187 243 299 355
#     4  10  20  35  56  83 114 152 194 243 295 353
#     4  10  22  36  54  81 104 152 194 232 288 345
#     4  11  23  38  54  79 112 150 198 240 285 351
#     4  10  20  38  57  75 115 150 190 244 293 339
#     4   9  18  33  55  82 110 146 187 233 295 347
#
# _framework density 26.765746
#
# number of rings (size 3 to 8) (size 9 to 14) (size 15 to 20)
#    0.000    2.286    1.429    2.571    0.000    6.857 
#    0.000    1.429    0.000    0.000    3.714    0.000 
#    0.000    0.000    0.000    0.000    0.000    0.000 
#
# Total GULP energy -155963.472913 kJ/mol
# GULP energy per Si atom -5570.124033 kJ/mol
# Density = 2.670483 g / cm^3
# Si number density = 26.765746 Si / 1000 Ang^3
#
#
#
# Elastic Constant Matrix: (Units=GPa)
#
#
# Indices 1 2 3 4 5 6 
#
# 1 81.7604 31.3884 42.9394 0.0000 0.0000 0.0000
# 2 31.3884 29.7181 26.3726 0.0000 0.0000 0.0000
# 3 42.9394 26.3726 111.5285 0.0000 0.0000 0.0000
# 4 0.0000 0.0000 0.0000 16.0973 0.0000 0.0000
# 5 0.0000 0.0000 0.0000 0.0000 57.8723 0.0000
# 6 0.0000 0.0000 0.0000 0.0000 0.0000 32.2151
#
#
#
# Elastic Compliance Matrix: (Units=1/GPa)
#
#
# Indices 1 2 3 4 5 6 
#
# 1 0.021727 -0.019648 -0.003719 0.000000 0.000000 0.000000
# 2 -0.019648 0.060353 -0.006707 0.000000 0.000000 0.000000
# 3 -0.003719 -0.006707 0.011984 0.000000 0.000000 0.000000
# 4 0.000000 0.000000 0.000000 0.062122 0.000000 0.000000
# 5 0.000000 0.000000 0.000000 0.000000 0.017279 0.000000
# 6 0.000000 0.000000 0.000000 0.000000 0.000000 0.031041
#
#
# Mechanical properties :
#
#
# Convention : Reuss Voigt Hill
#
# Bulk Modulus (GPa) = 29.48368 47.15642 38.32005
# Shear Modulus (GPa) = 18.11852 29.39070 23.75461
#
# Velocity S-wave (km/s) = 2.60461 3.31731 2.98233
# Velocity P-wave (km/s) = 4.48159 5.68588 5.11927
#
# Compressibility (1/GPa) = 0.03391706
#
# Stress axis : x y z
#
# Youngs Moduli (GPa) = 46.02575 16.56907 83.44361
#
# Poissons Ratio (x) = 0.32554 0.31033
# Poissons Ratio (y) = 0.90430 0.55965
# Poissons Ratio (z) = 0.17117 0.11113
#
# Static dielectric constant tensor:
#      x y z
#    x 1.830290 0.000000 0.000000 
#    y 0.000000 4.191920 0.000000 
#    z 0.000000 0.000000 2.471630 
# 
# From -- ./inp_files/562.got.cif
#   From: 2010.05.17/outbox.cif.g08.bks.cpg/sg33_1_cif.got.tgz:562.got - 2010.06.03 17:15:25.
