data_PCOD9344703
_publ_section_title
;
Structure prediction by ZEFSAII (Michael W. Deem and Ramdas Pophale) SiO2 
 PCOD9344703
Probable space group: P N A 21
;
_chemical_formula_sum "Si O2"
_cell_formula_units_Z 24
_cell_length_a 11.434231
_cell_length_b 11.287711
_cell_length_c 9.000304
_cell_angle_alpha 90.000000
_cell_angle_beta 90.000000
_cell_angle_gamma 90.000000
_cell_volume 1161.635891
_symmetry_space_group_name_H-M "P N A 21"
_symmetry_group_IT_number 33
_symmetry_cell_setting 'orthorhombic'
loop_
_space_group_symop_operation_xyz
x,y,z
-x,-y,1/2+z
1/2-x,1/2+y,1/2+z
1/2+x,1/2-y,z
loop_
_atom_site_type_symbol
_atom_site_label
_atom_site_fract_x
_atom_site_fract_y
_atom_site_fract_z
Si Si1 0.134362 0.915779 0.083430
Si Si2 0.060264 0.064548 0.334264
Si Si3 0.961055 0.267549 0.169859
Si Si4 0.202176 0.667817 0.946495
Si Si5 0.913673 0.512587 0.652823
Si Si6 0.859386 0.445214 0.987761
O O1 0.024530 0.937821 0.974941
O O2 0.184357 0.784743 0.047608
O O3 0.233864 0.008396 0.033716
O O4 0.109116 0.682779 0.813199
O O5 0.989231 0.134064 0.205187
O O6 0.170312 0.146052 0.379508
O O7 0.101914 0.944679 0.253855
O O8 0.079893 0.344788 0.152914
O O9 0.883321 0.308699 0.031206
O O10 0.173002 0.551536 0.041742
O O11 0.455760 0.985955 0.089827
O O12 0.111522 0.530373 0.317800
#
# Coordination Sequence:
#
# PCOD9344703 Si02
#       6
#     4   4   4   4   4   4
#     4  11  26  41  69  94 140 171 216 280 337 390
#     4  11  24  45  62 101 135 172 222 273 337 393
#     4   9  19  40  67  87 126 178 214 267 322 392
#     4  11  22  41  66  95 134 177 213 277 333 395
#     4  10  19  37  67  98 120 171 228 265 320 394
#     4  10  20  40  65  95 121 173 225 264 321 398
#
# _framework density 20.660519000000001
#
# number of rings (size 3 to 8) (size 9 to 14) (size 15 to 20)
#    1.000    0.667    3.333    1.000    4.667    1.333 
#    0.000    3.333    0.000    0.000    0.000    0.000 
#    0.000    0.000    0.000    0.000    0.000    0.000 
#
# Total GULP energy -133737.919742 kJ/mol
# GULP energy per Si atom -5572.413323 kJ/mol
# Density = 2.061349 g / cm^3
# Si number density = 20.660519 Si / 1000 Ang^3
#
#
#
# Elastic Constant Matrix: (Units=GPa)
#
#
# Indices 1 2 3 4 5 6 
#
# 1 74.5449 10.5172 6.7512 0.0000 0.0000 0.0000
# 2 10.5172 36.1595 0.0374 0.0000 0.0000 0.0000
# 3 6.7512 0.0374 21.3206 0.0000 0.0000 0.0000
# 4 0.0000 0.0000 0.0000 33.9579 0.0000 0.0000
# 5 0.0000 0.0000 0.0000 0.0000 19.3291 0.0000
# 6 0.0000 0.0000 0.0000 0.0000 0.0000 13.2513
#
#
#
# Elastic Compliance Matrix: (Units=1/GPa)
#
#
# Indices 1 2 3 4 5 6 
#
# 1 0.014419 -0.004189 -0.004558 0.000000 0.000000 0.000000
# 2 -0.004189 0.028872 0.001276 0.000000 0.000000 0.000000
# 3 -0.004558 0.001276 0.048344 0.000000 0.000000 0.000000
# 4 0.000000 0.000000 0.000000 0.029448 0.000000 0.000000
# 5 0.000000 0.000000 0.000000 0.000000 0.051736 0.000000
# 6 0.000000 0.000000 0.000000 0.000000 0.000000 0.075464
#
#
# Mechanical properties :
#
#
# Convention : Reuss Voigt Hill
#
# Bulk Modulus (GPa) = 13.03918 18.51517 15.77717
# Shear Modulus (GPa) = 17.31361 20.95560 19.13460
#
# Velocity S-wave (km/s) = 2.89797 3.18823 3.04656
# Velocity P-wave (km/s) = 4.18599 4.74702 4.47530
#
# Compressibility (1/GPa) = 0.07669195
#
# Stress axis : x y z
#
# Youngs Moduli (GPa) = 69.35502 34.63526 20.68503
#
# Poissons Ratio (x) = 0.14509 0.09429
# Poissons Ratio (y) = 0.29053 -0.02639
# Poissons Ratio (z) = 0.31614 -0.04419
#
# Static dielectric constant tensor:
#      x y z
#    x 1.730600 0.000000 0.000000 
#    y 0.000000 1.786940 0.000000 
#    z 0.000000 0.000000 1.715160 
# 
# From -- ./inp_files/6313.got.cif
#   From: 2010.05.17/outbox.cif.g08.bks.cpg/sg33_4_cif.got.tgz:6313.got - 2010.06.03 17:15:25.
