data_PCOD9344269
_publ_section_title
;
Structure prediction by ZEFSAII (Michael W. Deem and Ramdas Pophale) SiO2 
 PCOD9344269
Probable space group: P B A 2
;
_chemical_formula_sum "Si O2"
_cell_formula_units_Z 16
_cell_length_a 14.627932
_cell_length_b 7.104951
_cell_length_c 6.782326
_cell_angle_alpha 90.000000
_cell_angle_beta 90.000000
_cell_angle_gamma 90.000000
_cell_volume 704.892161
_symmetry_space_group_name_H-M "P B A 2"
_symmetry_group_IT_number 32
_symmetry_cell_setting 'orthorhombic'
loop_
_space_group_symop_operation_xyz
x,y,z
-x,-y,z
1/2-x,1/2+y,z
1/2+x,1/2-y,z
loop_
_atom_site_type_symbol
_atom_site_label
_atom_site_fract_x
_atom_site_fract_y
_atom_site_fract_z
Si Si1 0.087424 0.906445 0.976610
Si Si2 0.634594 0.851570 0.688113
Si Si3 0.186113 0.293762 0.915688
Si Si4 0.608956 0.949079 0.236329
O O1 0.060701 0.796177 0.774508
O O2 0.124474 0.742070 0.114168
O O3 0.000000 0.000000 0.074977
O O4 0.151171 0.083190 0.941087
O O5 0.632623 0.896514 0.459687
O O6 0.724886 0.745980 0.776636
O O7 0.627891 0.053861 0.792791
O O8 0.172674 0.391902 0.132782
O O9 0.500000 0.000000 0.221999
#
# Coordination Sequence:
#
# PCOD9344269 Si02
#       4
#     4   4   4   4
#     4  11  24  46  72 100 146 189 236 302 366 424
#     4  11  26  44  71 107 143 191 244 302 361 438
#     4  11  24  49  66 102 150 188 236 304 365 429
#     4  11  26  45  74 108 144 190 248 300 361 440
#
# _framework density 22.698505999999998
#
# number of rings (size 3 to 8) (size 9 to 14) (size 15 to 20)
#    0.000    1.000    5.000    0.000    3.500    7.000 
#    0.000    0.000    0.000    0.000    0.000    0.000 
#    0.000    0.000    0.000    0.000    0.000    0.000 
#
# Total GULP energy -89133.984198 kJ/mol
# GULP energy per Si atom -5570.874012 kJ/mol
# Density = 2.264684 g / cm^3
# Si number density = 22.698506 Si / 1000 Ang^3
#
#
#
# Elastic Constant Matrix: (Units=GPa)
#
#
# Indices 1 2 3 4 5 6 
#
# 1 81.0927 37.1370 13.3206 0.0000 0.0000 0.0000
# 2 37.1370 214.1673 78.9870 0.0000 0.0000 0.0000
# 3 13.3206 78.9870 190.2807 0.0000 0.0000 0.0000
# 4 0.0000 0.0000 0.0000 25.7592 0.0000 0.0000
# 5 0.0000 0.0000 0.0000 0.0000 21.2088 0.0000
# 6 0.0000 0.0000 0.0000 0.0000 0.0000 35.2375
#
#
#
# Elastic Compliance Matrix: (Units=1/GPa)
#
#
# Indices 1 2 3 4 5 6 
#
# 1 0.013395 -0.002334 0.000031 0.000000 0.000000 0.000000
# 2 -0.002334 0.005920 -0.002294 0.000000 0.000000 0.000000
# 3 0.000031 -0.002294 0.006205 0.000000 0.000000 0.000000
# 4 0.000000 0.000000 0.000000 0.038821 0.000000 0.000000
# 5 0.000000 0.000000 0.000000 0.000000 0.047150 0.000000
# 6 0.000000 0.000000 0.000000 0.000000 0.000000 0.028379
#
#
# Mechanical properties :
#
#
# Convention : Reuss Voigt Hill
#
# Bulk Modulus (GPa) = 61.24914 82.71445 71.98180
# Shear Modulus (GPa) = 32.36082 40.18082 36.27082
#
# Velocity S-wave (km/s) = 3.77991 4.21194 4.00176
# Velocity P-wave (km/s) = 6.78916 7.75716 7.28924
#
# Compressibility (1/GPa) = 0.01632676
#
# Stress axis : x y z
#
# Youngs Moduli (GPa) = 74.65217 168.91617 161.14766
#
# Poissons Ratio (x) = 0.39430 -0.00503
# Poissons Ratio (y) = 0.17426 0.36968
# Poissons Ratio (z) = -0.00233 0.38750
#
# Static dielectric constant tensor:
#      x y z
#    x 2.270470 0.000000 0.000000 
#    y 0.000000 1.784420 0.000000 
#    z 0.000000 0.000000 1.856040 
# 
# From -- ./inp_files/1528.got.cif
#   From: 2010.05.17/outbox.cif.g08.bks.cpg/sg32_1_cif.got.tgz:1528.got - 2010.06.03 17:12:27.
