data_PCOD9344416
_publ_section_title
;
Structure prediction by ZEFSAII (Michael W. Deem and Ramdas Pophale) SiO2 
 PCOD9344416
Probable space group: P N A 21
;
_chemical_formula_sum "Si O2"
_cell_formula_units_Z 28
_cell_length_a 25.636070
_cell_length_b 13.374599
_cell_length_c 5.143898
_cell_angle_alpha 90.000000
_cell_angle_beta 90.000000
_cell_angle_gamma 90.000000
_cell_volume 1763.699398
_symmetry_space_group_name_H-M "P N A 21"
_symmetry_group_IT_number 33
_symmetry_cell_setting 'orthorhombic'
loop_
_space_group_symop_operation_xyz
x,y,z
-x,-y,1/2+z
1/2-x,1/2+y,1/2+z
1/2+x,1/2-y,z
loop_
_atom_site_type_symbol
_atom_site_label
_atom_site_fract_x
_atom_site_fract_y
_atom_site_fract_z
Si Si1 0.686976 0.752913 0.328710
Si Si2 0.247133 0.055595 0.784895
Si Si3 0.580456 0.457392 0.334392
Si Si4 0.810580 0.867888 0.779642
Si Si5 0.527554 0.621548 0.631737
Si Si6 0.919668 0.170684 0.640165
Si Si7 0.744900 0.675856 0.822904
O O1 0.705439 0.867889 0.337742
O O2 0.627969 0.737371 0.236251
O O3 0.701035 0.702273 0.604688
O O4 0.721947 0.700241 0.106487
O O5 0.224495 0.079621 0.500758
O O6 0.259953 0.939355 0.804306
O O7 0.204081 0.084158 0.002331
O O8 0.629892 0.386851 0.357919
O O9 0.557137 0.514442 0.587806
O O10 0.531118 0.402650 0.208876
O O11 0.598224 0.554372 0.166811
O O12 0.792062 0.752899 0.771963
O O13 0.534505 0.674636 0.354829
O O14 0.557612 0.682037 0.854439
#
# Coordination Sequence:
#
# PCOD9344416 Si02
#       7
#     4   4   4   4   4   4   4
#     4  10  20  31  49  69  95 124 165 188 239 280
#     4  10  20  34  47  71  97 127 156 204 223 286
#     4  10  19  31  44  68  97 123 153 194 234 293
#     4  10  22  29  52  69  94 132 160 182 251 280
#     4  10  20  28  45  66  97 120 156 189 242 273
#     4  10  18  29  44  67  88 126 149 191 231 284
#     4  10  19  34  45  72  94 124 161 198 228 290
#
# _framework density 15.875721
#
# number of rings (size 3 to 8) (size 9 to 14) (size 15 to 20)
#    0.857    1.143    1.429    3.429    4.000    0.000 
#    0.000    0.000    0.000    0.000    0.000    2.000 
#    0.000    0.000    0.000    0.000    0.000    0.000 
#
# Total GULP energy -155941.449856 kJ/mol
# GULP energy per Si atom -5569.337495 kJ/mol
# Density = 1.583959 g / cm^3
# Si number density = 15.875721 Si / 1000 Ang^3
#
#
#
# Elastic Constant Matrix: (Units=GPa)
#
#
# Indices 1 2 3 4 5 6 
#
# 1 61.9516 17.7712 -8.4269 0.0000 0.0000 0.0000
# 2 17.7712 90.1275 2.5831 0.0000 0.0000 0.0000
# 3 -8.4269 2.5831 51.3982 0.0000 0.0000 0.0000
# 4 0.0000 0.0000 0.0000 11.7568 0.0000 0.0000
# 5 0.0000 0.0000 0.0000 0.0000 14.9366 0.0000
# 6 0.0000 0.0000 0.0000 0.0000 0.0000 15.9778
#
#
#
# Elastic Compliance Matrix: (Units=1/GPa)
#
#
# Indices 1 2 3 4 5 6 
#
# 1 0.017577 -0.003554 0.003060 0.000000 0.000000 0.000000
# 2 -0.003554 0.011830 -0.001177 0.000000 0.000000 0.000000
# 3 0.003060 -0.001177 0.020017 0.000000 0.000000 0.000000
# 4 0.000000 0.000000 0.000000 0.085057 0.000000 0.000000
# 5 0.000000 0.000000 0.000000 0.000000 0.066949 0.000000
# 6 0.000000 0.000000 0.000000 0.000000 0.000000 0.062587
#
#
# Mechanical properties :
#
#
# Convention : Reuss Voigt Hill
#
# Bulk Modulus (GPa) = 21.69977 25.25911 23.47944
# Shear Modulus (GPa) = 17.68538 21.30423 19.49480
#
# Velocity S-wave (km/s) = 3.34127 3.66722 3.50803
# Velocity P-wave (km/s) = 5.34637 5.82034 5.58838
#
# Compressibility (1/GPa) = 0.04608343
#
# Stress axis : x y z
#
# Youngs Moduli (GPa) = 56.89163 84.53215 49.95786
#
# Poissons Ratio (x) = 0.30039 -0.15289
# Poissons Ratio (y) = 0.20217 0.05881
# Poissons Ratio (z) = -0.17411 0.09951
#
# Static dielectric constant tensor:
#      x y z
#    x 1.518380 0.000000 0.000000 
#    y 0.000000 1.521390 0.000000 
#    z 0.000000 0.000000 1.567080 
# 
# From -- ./inp_files/2106.got.cif
#   From: 2010.05.17/outbox.cif.g08.bks.cpg/sg33_2_cif.got.tgz:2106.got - 2010.06.03 17:15:25.
