data_PCOD9344327
_publ_section_title
;
Structure prediction by ZEFSAII (Michael W. Deem and Ramdas Pophale) SiO2 
 PCOD9344327
Probable space group: P B A 2
;
_chemical_formula_sum "Si O2"
_cell_formula_units_Z 30
_cell_length_a 15.000000
_cell_length_b 12.000000
_cell_length_c 9.000000
_cell_angle_alpha 90.000000
_cell_angle_beta 90.000000
_cell_angle_gamma 90.000000
_cell_volume 1620.000000
_symmetry_space_group_name_H-M "P B A 2"
_symmetry_group_IT_number 32
_symmetry_cell_setting 'orthorhombic'
loop_
_space_group_symop_operation_xyz
x,y,z
-x,-y,z
1/2-x,1/2+y,z
1/2+x,1/2-y,z
loop_
_atom_site_type_symbol
_atom_site_label
_atom_site_fract_x
_atom_site_fract_y
_atom_site_fract_z
Si Si1 0.041931 0.332475 0.857990
Si Si2 0.268061 0.338893 0.352381
Si Si3 0.500000 0.000000 0.290880
Si Si4 0.463371 0.618718 0.058028
Si Si5 0.584768 0.181594 0.510359
Si Si6 0.529789 0.628804 0.368626
Si Si7 0.768961 0.908044 0.193441
Si Si8 0.384126 0.043730 0.007828
O O1 0.062477 0.336312 0.683459
O O2 0.047252 0.211008 0.931709
O O3 0.106635 0.418166 0.946501
O O4 0.944227 0.381909 0.898826
O O5 0.189396 0.329696 0.473646
O O6 0.368572 0.346554 0.414967
O O7 0.256823 0.214896 0.268163
O O8 0.257002 0.465414 0.271907
O O9 0.460965 0.906848 0.398782
O O10 0.572167 0.953156 0.173472
O O11 0.500000 0.500000 0.002424
O O12 0.527648 0.658898 0.192200
O O13 0.371661 0.600619 0.147311
O O14 0.541268 0.297834 0.458198
O O15 0.500000 0.500000 0.381579
O O16 0.714116 0.916324 0.039865
#
# Coordination Sequence:
#
# PCOD9344327 Si02
#       8
#     4   4   2   4   4   4   4   4
#     4  10  23  42  58  92 134 172 210 273 353 409
#     4  12  23  40  68 106 126 178 223 294 342 404
#     4  10  18  34  66  88 112 156 216 280 320 362
#     4  11  21  40  64  91 130 175 220 279 328 400
#     4  12  23  40  64  95 137 169 222 280 348 418
#     4  11  22  43  66  94 134 175 228 286 337 405
#     4  12  22  39  69  99 128 161 242 282 336 392
#     4  10  21  40  66  90 119 168 225 279 324 397
#
# _framework density 18.518519000000001
#
# number of rings (size 3 to 8) (size 9 to 14) (size 15 to 20)
#    0.000    1.067    5.333    4.800    0.000    0.533 
#    2.400    1.333    0.000    0.000    0.000    0.000 
#    0.000    0.000    0.000    0.000    0.000    0.000 
#
# Total GULP energy -167114.808110 kJ/mol
# GULP energy per Si atom -5570.493604 kJ/mol
# Density = 1.847637 g / cm^3
# Si number density = 18.518519 Si / 1000 Ang^3
#
#
#
# Elastic Constant Matrix: (Units=GPa)
#
#
# Indices 1 2 3 4 5 6 
#
# 1 105.7788 44.3122 37.1253 0.0000 0.0000 0.0000
# 2 44.3122 138.6641 53.5063 0.0000 0.0000 0.0000
# 3 37.1253 53.5063 126.2004 0.0000 0.0000 0.0000
# 4 0.0000 0.0000 0.0000 21.0919 0.0000 0.0000
# 5 0.0000 0.0000 0.0000 0.0000 22.4705 0.0000
# 6 0.0000 0.0000 0.0000 0.0000 0.0000 28.9192
#
#
#
# Elastic Compliance Matrix: (Units=1/GPa)
#
#
# Indices 1 2 3 4 5 6 
#
# 1 0.011387 -0.002805 -0.002160 0.000000 0.000000 0.000000
# 2 -0.002805 0.009313 -0.003123 0.000000 0.000000 0.000000
# 3 -0.002160 -0.003123 0.009884 0.000000 0.000000 0.000000
# 4 0.000000 0.000000 0.000000 0.047412 0.000000 0.000000
# 5 0.000000 0.000000 0.000000 0.000000 0.044503 0.000000
# 6 0.000000 0.000000 0.000000 0.000000 0.000000 0.034579
#
#
# Mechanical properties :
#
#
# Convention : Reuss Voigt Hill
#
# Bulk Modulus (GPa) = 69.41592 71.17009 70.29301
# Shear Modulus (GPa) = 28.08073 30.20961 29.14517
#
# Velocity S-wave (km/s) = 3.89827 4.04334 3.97147
# Velocity P-wave (km/s) = 7.60447 7.76617 7.68575
#
# Compressibility (1/GPa) = 0.01440592
#
# Stress axis : x y z
#
# Youngs Moduli (GPa) = 87.81853 107.37252 101.17641
#
# Poissons Ratio (x) = 0.30121 0.21859
# Poissons Ratio (y) = 0.24635 0.31602
# Poissons Ratio (z) = 0.18973 0.33537
#
# Static dielectric constant tensor:
#      x y z
#    x 1.721450 0.000000 0.000000 
#    y 0.000000 1.695540 0.000000 
#    z 0.000000 0.000000 1.613190 
# 
# From -- ./inp_files/3061.got.cif
#   From: 2010.05.17/outbox.ucp.g08.bks.cvg/sg32_2_cif.got.tgz:3061.got - 2010.06.11 10:34:49.
