data_PCOD9344305
_publ_section_title
;
Structure prediction by ZEFSAII (Michael W. Deem and Ramdas Pophale) SiO2 
 PCOD9344305
Probable space group: P B A 2
;
_chemical_formula_sum "Si O2"
_cell_formula_units_Z 16
_cell_length_a 9.426209
_cell_length_b 13.156846
_cell_length_c 5.035777
_cell_angle_alpha 90.000000
_cell_angle_beta 90.000000
_cell_angle_gamma 90.000000
_cell_volume 624.532935
_symmetry_space_group_name_H-M "P B A 2"
_symmetry_group_IT_number 32
_symmetry_cell_setting 'orthorhombic'
loop_
_space_group_symop_operation_xyz
x,y,z
-x,-y,z
1/2-x,1/2+y,z
1/2+x,1/2-y,z
loop_
_atom_site_type_symbol
_atom_site_label
_atom_site_fract_x
_atom_site_fract_y
_atom_site_fract_z
Si Si1 0.571848 0.109835 0.402510
Si Si2 0.686541 0.372780 0.034136
Si Si3 0.668980 0.496863 0.539239
Si Si4 0.963145 0.275383 0.900761
O O1 0.509106 0.191322 0.607988
O O2 0.500000 0.000000 0.455886
O O3 0.739352 0.093394 0.450485
O O4 0.532601 0.145112 0.108478
O O5 0.712220 0.466088 0.835807
O O6 0.796549 0.286282 0.947607
O O7 0.529499 0.332214 0.977512
O O8 0.709577 0.407121 0.333283
O O9 0.500000 0.500000 0.519055
#
# Coordination Sequence:
#
# PCOD9344305 Si02
#       4
#     4   4   4   4
#     4  12  23  46  70  94 129 178 222 269 323 393
#     4  12  26  46  66 101 135 173 219 271 331 396
#     4  12  27  44  70  98 135 172 226 274 323 387
#     4  12  26  43  70  97 135 174 219 271 335 392
#
# _framework density 25.619147000000002
#
# number of rings (size 3 to 8) (size 9 to 14) (size 15 to 20)
#    0.000    0.000    5.000    4.500    7.000    0.000 
#    0.000    0.000    0.000    0.000    0.000    0.000 
#    0.000    0.000    0.000    0.000    0.000    0.000 
#
# Total GULP energy -89771.562220 kJ/mol
# GULP energy per Si atom -5610.722639 kJ/mol
# Density = 2.556084 g / cm^3
# Si number density = 25.619147 Si / 1000 Ang^3
#
#
#
# Elastic Constant Matrix: (Units=GPa)
#
#
# Indices 1 2 3 4 5 6 
#
# 1 118.0584 -11.6079 16.5485 0.0000 0.0000 0.0000
# 2 -11.6079 32.6830 14.3251 0.0000 0.0000 0.0000
# 3 16.5485 14.3251 74.2240 0.0000 0.0000 0.0000
# 4 0.0000 0.0000 0.0000 29.3982 0.0000 0.0000
# 5 0.0000 0.0000 0.0000 0.0000 25.1850 0.0000
# 6 0.0000 0.0000 0.0000 0.0000 0.0000 42.4253
#
#
#
# Elastic Compliance Matrix: (Units=1/GPa)
#
#
# Indices 1 2 3 4 5 6 
#
# 1 0.009342 0.004622 -0.002975 0.000000 0.000000 0.000000
# 2 0.004622 0.035711 -0.007923 0.000000 0.000000 0.000000
# 3 -0.002975 -0.007923 0.015665 0.000000 0.000000 0.000000
# 4 0.000000 0.000000 0.000000 0.034016 0.000000 0.000000
# 5 0.000000 0.000000 0.000000 0.000000 0.039706 0.000000
# 6 0.000000 0.000000 0.000000 0.000000 0.000000 0.023571
#
#
# Mechanical properties :
#
#
# Convention : Reuss Voigt Hill
#
# Bulk Modulus (GPa) = 20.76129 29.27741 25.01935
# Shear Modulus (GPa) = 26.79279 33.11500 29.95390
#
# Velocity S-wave (km/s) = 3.23741 3.59916 3.42307
# Velocity P-wave (km/s) = 4.70062 5.35954 5.04086
#
# Compressibility (1/GPa) = 0.04816657
#
# Stress axis : x y z
#
# Youngs Moduli (GPa) = 107.04579 28.00256 63.83645
#
# Poissons Ratio (x) = -0.12942 0.18990
# Poissons Ratio (y) = -0.49474 0.50575
# Poissons Ratio (z) = 0.31844 0.22185
#
# Static dielectric constant tensor:
#      x y z
#    x 2.044370 0.000000 0.000000 
#    y 0.000000 1.994540 0.000000 
#    z 0.000000 0.000000 1.908430 
# 
# From -- ./inp_files/323.got.cif
#   From: 2010.05.17/outbox.cif.g08.bks.cpg/sg32_1_cif.got.tgz:323.got - 2010.06.03 17:12:27.
