data_PCOD9344644
_publ_section_title
;
Structure prediction by ZEFSAII (Michael W. Deem and Ramdas Pophale) SiO2 
 PCOD9344644
Probable space group: P N A 21
;
_chemical_formula_sum "Si O2"
_cell_formula_units_Z 32
_cell_length_a 20.422396
_cell_length_b 9.592864
_cell_length_c 8.903914
_cell_angle_alpha 90.000000
_cell_angle_beta 90.000000
_cell_angle_gamma 90.000000
_cell_volume 1744.359269
_symmetry_space_group_name_H-M "P N A 21"
_symmetry_group_IT_number 33
_symmetry_cell_setting 'orthorhombic'
loop_
_space_group_symop_operation_xyz
x,y,z
-x,-y,1/2+z
1/2-x,1/2+y,1/2+z
1/2+x,1/2-y,z
loop_
_atom_site_type_symbol
_atom_site_label
_atom_site_fract_x
_atom_site_fract_y
_atom_site_fract_z
Si Si1 0.589178 0.511092 0.554520
Si Si2 0.359346 0.742777 0.215093
Si Si3 0.498490 0.174962 0.285797
Si Si4 0.141823 0.775557 0.783127
Si Si5 0.337605 0.532442 0.482862
Si Si6 0.797062 0.481789 0.144530
Si Si7 0.952150 0.972521 0.718811
Si Si8 0.435161 0.968320 0.062556
O O1 0.635011 0.376336 0.586216
O O2 0.624174 0.646284 0.625844
O O3 0.567069 0.529917 0.382990
O O4 0.523309 0.484218 0.654290
O O5 0.356216 0.658239 0.369956
O O6 0.421669 0.843361 0.182827
O O7 0.301104 0.857585 0.202192
O O8 0.429171 0.232866 0.347046
O O9 0.541710 0.306373 0.241526
O O10 0.533413 0.087580 0.413069
O O11 0.478734 0.083517 0.142765
O O12 0.183866 0.636433 0.764860
O O13 0.173184 0.894649 0.883348
O O14 0.270797 0.557739 0.570998
O O15 0.396491 0.501743 0.596780
O O16 0.860991 0.477857 0.035784
#
# Coordination Sequence:
#
# PCOD9344644 Si02
#       8
#     4   4   4   4   4   4   4   4
#     4  10  19  37  57  87 116 149 193 249 298 347
#     4   9  20  39  61  81 116 154 193 247 290 343
#     4  10  19  36  57  89 117 151 190 252 299 350
#     4   9  21  39  58  84 121 150 196 254 293 342
#     4  11  23  37  62  85 114 160 202 234 298 358
#     4   9  21  40  56  82 117 154 190 243 284 353
#     4  11  21  34  58  86 119 152 199 240 304 354
#     4   9  20  36  61  82 122 150 191 241 300 337
#
# _framework density 18.344843000000001
#
# number of rings (size 3 to 8) (size 9 to 14) (size 15 to 20)
#    0.750    1.500    1.250    2.250    1.750    3.000 
#    2.250    2.500    0.000    0.000    0.000    0.000 
#    0.000    0.000    0.000    0.000    0.000    0.000 
#
# Total GULP energy -178140.059690 kJ/mol
# GULP energy per Si atom -5566.876865 kJ/mol
# Density = 1.830309 g / cm^3
# Si number density = 18.344843 Si / 1000 Ang^3
#
#
#
# Elastic Constant Matrix: (Units=GPa)
#
#
# Indices 1 2 3 4 5 6 
#
# 1 39.7675 19.4033 14.1522 0.0000 0.0000 0.0000
# 2 19.4033 40.5661 -2.6926 0.0000 0.0000 0.0000
# 3 14.1522 -2.6926 46.9382 0.0000 0.0000 0.0000
# 4 0.0000 0.0000 0.0000 19.3373 0.0000 0.0000
# 5 0.0000 0.0000 0.0000 0.0000 10.9974 0.0000
# 6 0.0000 0.0000 0.0000 0.0000 0.0000 11.2778
#
#
#
# Elastic Compliance Matrix: (Units=1/GPa)
#
#
# Indices 1 2 3 4 5 6 
#
# 1 0.039388 -0.019703 -0.013006 0.000000 0.000000 0.000000
# 2 -0.019703 0.034602 0.007926 0.000000 0.000000 0.000000
# 3 -0.013006 0.007926 0.025681 0.000000 0.000000 0.000000
# 4 0.000000 0.000000 0.000000 0.051714 0.000000 0.000000
# 5 0.000000 0.000000 0.000000 0.000000 0.090931 0.000000
# 6 0.000000 0.000000 0.000000 0.000000 0.000000 0.088670
#
#
# Mechanical properties :
#
#
# Convention : Reuss Voigt Hill
#
# Bulk Modulus (GPa) = 19.95892 20.99974 20.47933
# Shear Modulus (GPa) = 12.58643 14.74974 13.66809
#
# Velocity S-wave (km/s) = 2.62220 2.83861 2.73255
# Velocity P-wave (km/s) = 4.48011 4.71335 4.59821
#
# Compressibility (1/GPa) = 0.05010291
#
# Stress axis : x y z
#
# Youngs Moduli (GPa) = 25.38826 28.90045 38.93976
#
# Poissons Ratio (x) = 0.56943 0.50645
# Poissons Ratio (y) = 0.50023 -0.30862
# Poissons Ratio (z) = 0.33020 -0.22905
#
# Static dielectric constant tensor:
#      x y z
#    x 1.628090 0.000000 0.000000 
#    y 0.000000 1.665280 0.000000 
#    z 0.000000 0.000000 1.624380 
# 
# From -- ./inp_files/5192.got.cif
#   From: 2010.05.17/outbox.cif.g08.bks.cpg/sg33_3_cif.got.tgz:5192.got - 2010.06.03 17:15:25.
