data_PCOD9344080
_publ_section_title
;
Structure prediction by ZEFSAII (Michael W. Deem and Ramdas Pophale) SiO2 
 PCOD9344080
Probable space group: P B A 2
;
_chemical_formula_sum "Si O2"
_cell_formula_units_Z 20
_cell_length_a 5.171933
_cell_length_b 29.023356
_cell_length_c 5.079814
_cell_angle_alpha 90.000000
_cell_angle_beta 90.000000
_cell_angle_gamma 90.000000
_cell_volume 762.514892
_symmetry_space_group_name_H-M "P B A 2"
_symmetry_group_IT_number 32
_symmetry_cell_setting 'orthorhombic'
loop_
_space_group_symop_operation_xyz
x,y,z
-x,-y,z
1/2-x,1/2+y,z
1/2+x,1/2-y,z
loop_
_atom_site_type_symbol
_atom_site_label
_atom_site_fract_x
_atom_site_fract_y
_atom_site_fract_z
Si Si1 0.760627 0.470742 0.188630
Si Si2 0.574769 0.608919 0.979101
Si Si3 0.330382 0.263670 0.339014
Si Si4 0.161649 0.178521 0.643659
Si Si5 0.940647 0.599294 0.484188
O O1 0.500000 0.500000 0.241057
O O2 0.000000 0.500000 0.071145
O O3 0.891154 0.446793 0.441576
O O4 0.654126 0.427531 0.022487
O O5 0.772744 0.605630 0.219439
O O6 0.740074 0.596588 0.721996
O O7 0.443886 0.658652 0.916914
O O8 0.566225 0.240414 0.185894
O O9 0.292527 0.227752 0.585279
O O10 0.409056 0.311810 0.462239
O O11 0.354736 0.140199 0.533015
#
# Coordination Sequence:
#
# PCOD9344080 Si02
#       5
#     4   4   4   4   4
#     4  12  28  58  80 122 160 212 268 336 402 480
#     4  12  27  53  83 116 161 210 266 330 400 484
#     4   8  18  38  70 106 152 198 256 320 370 470
#     4  10  22  44  78 114 160 210 264 320 408 452
#     4  12  27  53  83 116 161 210 266 330 400 484
#
# _framework density 26.228994
#
# number of rings (size 3 to 8) (size 9 to 14) (size 15 to 20)
#    1.200    0.000    2.000    3.600    0.000    0.000 
#   10.800    2.000    0.000    0.000    0.000    0.000 
#    0.000    0.000    0.000    0.000    0.000    0.000 
#
# Total GULP energy -111828.123040 kJ/mol
# GULP energy per Si atom -5591.406152 kJ/mol
# Density = 2.616930 g / cm^3
# Si number density = 26.228994 Si / 1000 Ang^3
#
#
#
# Elastic Constant Matrix: (Units=GPa)
#
#
# Indices 1 2 3 4 5 6 
#
# 1 189.1425 46.0474 44.0711 0.0000 0.0000 0.0000
# 2 46.0474 101.0702 30.9515 0.0000 0.0000 0.0000
# 3 44.0711 30.9515 140.4426 0.0000 0.0000 0.0000
# 4 0.0000 0.0000 0.0000 11.4120 0.0000 0.0000
# 5 0.0000 0.0000 0.0000 0.0000 42.4061 0.0000
# 6 0.0000 0.0000 0.0000 0.0000 0.0000 65.6376
#
#
#
# Elastic Compliance Matrix: (Units=1/GPa)
#
#
# Indices 1 2 3 4 5 6 
#
# 1 0.006199 -0.002390 -0.001419 0.000000 0.000000 0.000000
# 2 -0.002390 0.011532 -0.001791 0.000000 0.000000 0.000000
# 3 -0.001419 -0.001791 0.007960 0.000000 0.000000 0.000000
# 4 0.000000 0.000000 0.000000 0.087627 0.000000 0.000000
# 5 0.000000 0.000000 0.000000 0.000000 0.023582 0.000000
# 6 0.000000 0.000000 0.000000 0.000000 0.000000 0.015235
#
#
# Mechanical properties :
#
#
# Convention : Reuss Voigt Hill
#
# Bulk Modulus (GPa) = 69.00746 74.75505 71.88126
# Shear Modulus (GPa) = 29.73255 44.53014 37.13134
#
# Velocity S-wave (km/s) = 3.37051 4.12484 3.76661
# Velocity P-wave (km/s) = 6.44313 7.15881 6.81037
#
# Compressibility (1/GPa) = 0.01449119
#
# Stress axis : x y z
#
# Youngs Moduli (GPa) = 161.30520 86.71836 125.62293
#
# Poissons Ratio (x) = 0.20726 0.17822
# Poissons Ratio (y) = 0.38552 0.22504
# Poissons Ratio (z) = 0.22884 0.15535
#
# Static dielectric constant tensor:
#      x y z
#    x 2.185260 0.000000 0.000000 
#    y 0.000000 2.087680 0.000000 
#    z 0.000000 0.000000 2.015280 
# 
# From -- ./inp_files/218.got.cif
#   From: 2010.05.17/outbox.cif.g08.bks.cpg/sg32_1_cif.got.tgz:218.got - 2010.06.03 17:12:27.
