data_PCOD9344936
_publ_section_title
;
Structure prediction by ZEFSAII (Michael W. Deem and Ramdas Pophale) SiO2 
 PCOD9344936
Probable space group: P N A 21
;
_chemical_formula_sum "Si O2"
_cell_formula_units_Z 28
_cell_length_a 9.640117
_cell_length_b 9.386974
_cell_length_c 17.031809
_cell_angle_alpha 90.000000
_cell_angle_beta 90.000000
_cell_angle_gamma 90.000000
_cell_volume 1541.234415
_symmetry_space_group_name_H-M "P N A 21"
_symmetry_group_IT_number 33
_symmetry_cell_setting 'orthorhombic'
loop_
_space_group_symop_operation_xyz
x,y,z
-x,-y,1/2+z
1/2-x,1/2+y,1/2+z
1/2+x,1/2-y,z
loop_
_atom_site_type_symbol
_atom_site_label
_atom_site_fract_x
_atom_site_fract_y
_atom_site_fract_z
Si Si1 0.640840 0.533468 0.688360
Si Si2 0.357259 0.903467 0.275474
Si Si3 0.820796 0.663767 0.813953
Si Si4 0.976838 0.334884 0.175944
Si Si5 0.573592 0.705144 0.211465
Si Si6 0.121732 0.571075 0.081661
Si Si7 0.113299 0.613595 0.897894
O O1 0.729622 0.542316 0.769768
O O2 0.610033 0.694194 0.660521
O O3 0.502947 0.444556 0.702885
O O4 0.729647 0.456340 0.621561
O O5 0.490193 0.802063 0.273063
O O6 0.229673 0.821570 0.237673
O O7 0.392504 0.044743 0.224269
O O8 0.331272 0.965989 0.361144
O O9 0.711234 0.764624 0.858681
O O10 0.903105 0.719134 0.736270
O O11 0.951323 0.627769 0.870538
O O12 0.038753 0.425671 0.104006
O O13 0.562208 0.796719 0.131737
O O14 0.123367 0.608508 0.991015
#
# Coordination Sequence:
#
# PCOD9344936 Si02
#       7
#     4   4   4   4   4   4   4
#     4  11  20  39  66  89 115 167 210 247 305 376
#     4  10  21  39  62  89 119 160 209 253 297 366
#     4  10  20  37  66  89 112 162 215 245 297 371
#     4   9  20  39  65  89 117 163 213 249 291 380
#     4  11  22  39  64  90 121 162 210 252 306 366
#     4  10  24  40  59  93 130 158 202 262 313 364
#     4  11  23  39  62  91 130 158 203 264 311 361
#
# _framework density 18.167255000000001
#
# number of rings (size 3 to 8) (size 9 to 14) (size 15 to 20)
#    0.000    1.714    4.286    1.714    4.000    0.000 
#    2.571    0.000    0.000    0.000    0.000    0.000 
#    0.000    0.000    0.000    0.000    0.000    0.000 
#
# Total GULP energy -155955.388773 kJ/mol
# GULP energy per Si atom -5569.835313 kJ/mol
# Density = 1.812591 g / cm^3
# Si number density = 18.167255 Si / 1000 Ang^3
#
#
#
# Elastic Constant Matrix: (Units=GPa)
#
#
# Indices 1 2 3 4 5 6 
#
# 1 80.3295 36.5297 35.1121 0.0000 0.0000 0.0000
# 2 36.5297 87.4206 23.5471 0.0000 0.0000 0.0000
# 3 35.1121 23.5471 114.9856 0.0000 0.0000 0.0000
# 4 0.0000 0.0000 0.0000 17.3075 0.0000 0.0000
# 5 0.0000 0.0000 0.0000 0.0000 14.8376 0.0000
# 6 0.0000 0.0000 0.0000 0.0000 0.0000 39.9542
#
#
#
# Elastic Compliance Matrix: (Units=1/GPa)
#
#
# Indices 1 2 3 4 5 6 
#
# 1 0.016896 -0.006001 -0.003930 0.000000 0.000000 0.000000
# 2 -0.006001 0.014238 -0.001083 0.000000 0.000000 0.000000
# 3 -0.003930 -0.001083 0.010119 0.000000 0.000000 0.000000
# 4 0.000000 0.000000 0.000000 0.057778 0.000000 0.000000
# 5 0.000000 0.000000 0.000000 0.000000 0.067396 0.000000
# 6 0.000000 0.000000 0.000000 0.000000 0.000000 0.025029
#
#
# Mechanical properties :
#
#
# Convention : Reuss Voigt Hill
#
# Bulk Modulus (GPa) = 52.02078 52.56817 52.29448
# Shear Modulus (GPa) = 22.73823 26.92299 24.83061
#
# Velocity S-wave (km/s) = 3.54164 3.85379 3.70101
# Velocity P-wave (km/s) = 6.73950 6.98575 6.86373
#
# Compressibility (1/GPa) = 0.01922309
#
# Stress axis : x y z
#
# Youngs Moduli (GPa) = 59.18618 70.23219 98.82664
#
# Poissons Ratio (x) = 0.42150 0.38842
# Poissons Ratio (y) = 0.35520 0.10705
# Poissons Ratio (z) = 0.23262 0.07607
#
# Static dielectric constant tensor:
#      x y z
#    x 1.674770 0.000000 0.000000 
#    y 0.000000 1.642970 0.000000 
#    z 0.000000 0.000000 1.606750 
# 
# From -- ./inp_files/8675.got.cif
#   From: 2010.05.17/outbox.cif.g08.bks.cpg/sg33_5_cif.got.tgz:8675.got - 2010.06.03 17:15:25.
