data_PCOD9344735
_publ_section_title
;
Structure prediction by ZEFSAII (Michael W. Deem and Ramdas Pophale) SiO2 
 PCOD9344735
Probable space group: P N A 21
;
_chemical_formula_sum "Si O2"
_cell_formula_units_Z 32
_cell_length_a 8.469018
_cell_length_b 26.586870
_cell_length_c 6.385001
_cell_angle_alpha 90.000000
_cell_angle_beta 90.000000
_cell_angle_gamma 90.000000
_cell_volume 1437.676711
_symmetry_space_group_name_H-M "P N A 21"
_symmetry_group_IT_number 33
_symmetry_cell_setting 'orthorhombic'
loop_
_space_group_symop_operation_xyz
x,y,z
-x,-y,1/2+z
1/2-x,1/2+y,1/2+z
1/2+x,1/2-y,z
loop_
_atom_site_type_symbol
_atom_site_label
_atom_site_fract_x
_atom_site_fract_y
_atom_site_fract_z
Si Si1 0.333338 0.041149 0.148810
Si Si2 0.897973 0.288167 0.373012
Si Si3 0.878097 0.024034 0.956715
Si Si4 0.434144 0.424485 0.572326
Si Si5 0.447975 0.286815 0.981055
Si Si6 0.862671 0.866942 0.743055
Si Si7 0.672943 0.225251 0.677247
Si Si8 0.661080 0.047765 0.339092
O O1 0.208426 0.085360 0.121902
O O2 0.495974 0.062830 0.240417
O O3 0.255653 0.004665 0.322124
O O4 0.363974 0.006818 0.946777
O O5 0.931426 0.256966 0.159094
O O6 0.787436 0.334486 0.313719
O O7 0.791546 0.252498 0.518902
O O8 0.048720 0.301685 0.519498
O O9 0.941959 0.069981 0.819783
O O10 0.792299 0.043454 0.160596
O O11 0.006632 0.981264 0.008380
O O12 0.544210 0.386552 0.448399
O O13 0.251543 0.417856 0.507107
O O14 0.522799 0.333164 0.104387
O O15 0.570612 0.265557 0.809474
O O16 0.286228 0.299455 0.854922
#
# Coordination Sequence:
#
# PCOD9344735 Si02
#       8
#     4   4   4   4   4   4   4   4
#     4  10  23  40  68  94 131 177 228 284 339 419
#     4  11  21  45  71 100 142 186 230 295 358 430
#     4  10  19  39  66  89 124 178 215 263 348 404
#     4  10  22  38  65  95 131 173 223 280 333 415
#     4  11  21  45  71 100 142 185 230 293 357 432
#     4  11  24  45  67 105 137 176 243 296 344 419
#     4  10  22  40  74  99 128 202 224 270 376 428
#     4  11  20  42  64  92 131 181 223 271 363 405
#
# _framework density 22.258133999999998
#
# number of rings (size 3 to 8) (size 9 to 14) (size 15 to 20)
#    0.000    1.500    5.000    0.000    0.000    0.000 
#   11.250    0.000    2.750    0.000    0.000    0.000 
#    0.000    0.000    0.000    0.000    0.000    0.000 
#
# Total GULP energy -178745.206256 kJ/mol
# GULP energy per Si atom -5585.787695 kJ/mol
# Density = 2.220747 g / cm^3
# Si number density = 22.258134 Si / 1000 Ang^3
#
#
#
# Elastic Constant Matrix: (Units=GPa)
#
#
# Indices 1 2 3 4 5 6 
#
# 1 123.3678 15.2899 38.3402 0.0000 0.0000 0.0000
# 2 15.2899 46.1493 5.9377 0.0000 0.0000 0.0000
# 3 38.3402 5.9377 85.7276 0.0000 0.0000 0.0000
# 4 0.0000 0.0000 0.0000 22.6943 0.0000 0.0000
# 5 0.0000 0.0000 0.0000 0.0000 39.3659 0.0000
# 6 0.0000 0.0000 0.0000 0.0000 0.0000 38.9309
#
#
#
# Elastic Compliance Matrix: (Units=1/GPa)
#
#
# Indices 1 2 3 4 5 6 
#
# 1 0.009734 -0.002689 -0.004167 0.000000 0.000000 0.000000
# 2 -0.002689 0.022606 -0.000363 0.000000 0.000000 0.000000
# 3 -0.004167 -0.000363 0.013554 0.000000 0.000000 0.000000
# 4 0.000000 0.000000 0.000000 0.044064 0.000000 0.000000
# 5 0.000000 0.000000 0.000000 0.000000 0.025403 0.000000
# 6 0.000000 0.000000 0.000000 0.000000 0.000000 0.025687
#
#
# Mechanical properties :
#
#
# Convention : Reuss Voigt Hill
#
# Bulk Modulus (GPa) = 31.79079 41.59781 36.69430
# Shear Modulus (GPa) = 30.12571 33.24336 31.68453
#
# Velocity S-wave (km/s) = 3.68294 3.86882 3.77703
# Velocity P-wave (km/s) = 5.69203 6.21984 5.96178
#
# Compressibility (1/GPa) = 0.03145565
#
# Stress axis : x y z
#
# Youngs Moduli (GPa) = 102.73083 44.23530 73.78044
#
# Poissons Ratio (x) = 0.11894 0.30746
# Poissons Ratio (y) = 0.27623 0.02680
# Poissons Ratio (z) = 0.42810 0.01607
#
# Static dielectric constant tensor:
#      x y z
#    x 1.833470 0.000000 0.000000 
#    y 0.000000 1.807630 0.000000 
#    z 0.000000 0.000000 1.847910 
# 
# From -- ./inp_files/610.got.cif
#   From: 2010.05.17/outbox.cif.g08.bks.cpg/sg33_1_cif.got.tgz:610.got - 2010.06.03 17:15:25.
