data_PCOD9344518
_publ_section_title
;
Structure prediction by ZEFSAII (Michael W. Deem and Ramdas Pophale) SiO2 
 PCOD9344518
Probable space group: P N A 21
;
_chemical_formula_sum "Si O2"
_cell_formula_units_Z 32
_cell_length_a 13.558557
_cell_length_b 8.988179
_cell_length_c 13.159006
_cell_angle_alpha 90.000000
_cell_angle_beta 90.000000
_cell_angle_gamma 90.000000
_cell_volume 1603.645127
_symmetry_space_group_name_H-M "P N A 21"
_symmetry_group_IT_number 33
_symmetry_cell_setting 'orthorhombic'
loop_
_space_group_symop_operation_xyz
x,y,z
-x,-y,1/2+z
1/2-x,1/2+y,1/2+z
1/2+x,1/2-y,z
loop_
_atom_site_type_symbol
_atom_site_label
_atom_site_fract_x
_atom_site_fract_y
_atom_site_fract_z
Si Si1 0.912915 0.825615 0.823880
Si Si2 0.982887 0.000000 0.492499
Si Si3 0.147733 0.509238 0.612704
Si Si4 0.647980 0.404749 0.800626
Si Si5 0.647733 0.009238 0.372295
Si Si6 0.500000 0.149953 0.742499
Si Si7 0.587085 0.674385 0.661119
Si Si8 0.647980 0.595251 0.184373
O O1 0.844999 0.680940 0.835890
O O2 1.000000 0.788824 0.742499
O O3 0.866786 0.973457 0.773546
O O4 0.952357 0.873427 0.935870
O O5 0.912867 0.950187 0.401031
O O6 0.047643 0.873427 0.549128
O O7 0.912867 0.049813 0.583968
O O8 0.151917 0.500000 0.492499
O O9 0.042733 0.450095 0.652451
O O10 0.155001 0.680940 0.649109
O O11 0.237929 0.411888 0.655854
O O12 0.762071 0.411888 0.829144
O O13 0.591576 0.255252 0.770694
O O14 0.633214 0.526543 0.711453
O O15 0.542733 0.950095 0.332547
O O16 0.408424 0.255252 0.714305
#
# Coordination Sequence:
#
# PCOD9344518 Si02
#       8
#     4   4   4   4   4   4   4   4
#     4  10  21  41  68  91 127 169 206 266 315 375
#     4  10  18  40  70  90 122 168 210 248 332 368
#     4  12  25  41  66  97 127 165 217 264 315 377
#     4  11  22  42  67  90 128 171 212 258 319 376
#     4  12  25  41  66  97 127 165 217 264 315 377
#     4  12  24  44  62  94 134 170 204 268 318 372
#     4  10  21  41  68  91 127 169 206 266 315 375
#     4  11  22  42  67  90 128 171 212 258 319 376
#
# _framework density 19.954540000000001
#
# number of rings (size 3 to 8) (size 9 to 14) (size 15 to 20)
#    0.000    1.000    6.250    3.000    0.000    0.000 
#    0.000    0.000    0.000    0.000    0.000    0.000 
#    0.000    0.000    0.000    0.000    0.000    0.000 
#
# Total GULP energy -178465.443467 kJ/mol
# GULP energy per Si atom -5577.045108 kJ/mol
# Density = 1.990912 g / cm^3
# Si number density = 19.954540 Si / 1000 Ang^3
#
#
#
# Elastic Constant Matrix: (Units=GPa)
#
#
# Indices 1 2 3 4 5 6 
#
# 1 102.7920 33.8436 37.7362 0.0000 0.0000 0.0000
# 2 33.8436 66.2018 29.9371 0.0000 0.0000 0.0000
# 3 37.7362 29.9371 79.1752 0.0000 0.0000 0.0000
# 4 0.0000 0.0000 0.0000 39.4549 0.0000 0.0000
# 5 0.0000 0.0000 0.0000 0.0000 23.7102 0.0000
# 6 0.0000 0.0000 0.0000 0.0000 0.0000 46.0611
#
#
#
# Elastic Compliance Matrix: (Units=1/GPa)
#
#
# Indices 1 2 3 4 5 6 
#
# 1 0.012849 -0.004583 -0.004391 0.000000 0.000000 0.000000
# 2 -0.004583 0.019855 -0.005323 0.000000 0.000000 0.000000
# 3 -0.004391 -0.005323 0.016736 0.000000 0.000000 0.000000
# 4 0.000000 0.000000 0.000000 0.025345 0.000000 0.000000
# 5 0.000000 0.000000 0.000000 0.000000 0.042176 0.000000
# 6 0.000000 0.000000 0.000000 0.000000 0.000000 0.021710
#
#
# Mechanical properties :
#
#
# Convention : Reuss Voigt Hill
#
# Bulk Modulus (GPa) = 47.97169 50.13364 49.05267
# Shear Modulus (GPa) = 28.69993 31.62203 30.16098
#
# Velocity S-wave (km/s) = 3.79656 3.98515 3.89200
# Velocity P-wave (km/s) = 6.58112 6.80836 6.69570
#
# Compressibility (1/GPa) = 0.02084563
#
# Stress axis : x y z
#
# Youngs Moduli (GPa) = 77.82441 50.36391 59.75149
#
# Poissons Ratio (x) = 0.23082 0.26239
# Poissons Ratio (y) = 0.35667 0.31807
# Poissons Ratio (z) = 0.34175 0.26810
#
# Static dielectric constant tensor:
#      x y z
#    x 1.708580 0.000000 0.000000 
#    y 0.000000 1.728820 0.000000 
#    z 0.000000 0.000000 1.668990 
# 
# From -- ./inp_files/6793.got.cif
#   From: 2010.05.17/outbox.cif.g08.bks.cpg/sg33_4_cif.got.tgz:6793.got - 2010.06.03 17:15:25.
