data_PCOD9344333
_publ_section_title
;
Structure prediction by ZEFSAII (Michael W. Deem and Ramdas Pophale) SiO2 
 PCOD9344333
Probable space group: P B A 2
;
_chemical_formula_sum "Si O2"
_cell_formula_units_Z 32
_cell_length_a 15.000000
_cell_length_b 12.000000
_cell_length_c 9.000000
_cell_angle_alpha 90.000000
_cell_angle_beta 90.000000
_cell_angle_gamma 90.000000
_cell_volume 1620.000000
_symmetry_space_group_name_H-M "P B A 2"
_symmetry_group_IT_number 32
_symmetry_cell_setting 'orthorhombic'
loop_
_space_group_symop_operation_xyz
x,y,z
-x,-y,z
1/2-x,1/2+y,z
1/2+x,1/2-y,z
loop_
_atom_site_type_symbol
_atom_site_label
_atom_site_fract_x
_atom_site_fract_y
_atom_site_fract_z
Si Si1 0.836179 0.732957 0.174580
Si Si2 0.599370 0.005181 0.602508
Si Si3 0.130332 0.752296 0.682752
Si Si4 0.731840 0.603484 0.429060
Si Si5 0.415080 0.579330 0.375271
Si Si6 0.241517 0.142917 0.902290
Si Si7 0.898883 0.544419 0.938440
Si Si8 0.949506 0.883380 0.723057
O O1 0.768290 0.677361 0.292617
O O2 0.903102 0.812709 0.269726
O O3 0.785068 0.814649 0.063455
O O4 0.877613 0.639582 0.061322
O O5 0.622332 0.875423 0.629163
O O6 0.500000 0.000000 0.534566
O O7 0.678619 0.059183 0.509196
O O8 0.593573 0.071126 0.760830
O O9 0.171103 0.829383 0.550662
O O10 0.203558 0.739111 0.813726
O O11 0.032767 0.795579 0.737554
O O12 0.671911 0.500318 0.372227
O O13 0.500000 0.500000 0.338577
O O14 0.425593 0.617130 0.547401
O O15 0.145771 0.123033 0.813518
O O16 0.313877 0.042260 0.928836
O O17 0.000000 0.500000 0.973250
O O18 0.000000 0.000000 0.757796
#
# Coordination Sequence:
#
# PCOD9344333 Si02
#       8
#     4   4   4   4   4   4   4   4
#     4  12  27  41  70  95 148 194 222 281 365 427
#     4  10  24  41  71 101 132 173 238 293 341 412
#     4  11  24  42  77  99 134 183 231 305 351 411
#     4  12  23  44  68 100 141 179 232 287 355 426
#     4  11  24  46  67 103 141 177 238 291 342 427
#     4  11  26  44  70 105 141 181 240 290 356 427
#     4  10  24  46  67 100 139 182 237 289 344 429
#     4  11  24  46  76 107 134 179 244 298 358 411
#
# _framework density 19.753086
#
# number of rings (size 3 to 8) (size 9 to 14) (size 15 to 20)
#    0.000    1.000    2.500    4.500   10.500    2.000 
#    0.000    0.000    0.000    0.000    0.000    0.000 
#    0.000    0.000    0.000    0.000    0.000    0.000 
#
# Total GULP energy -178624.272901 kJ/mol
# GULP energy per Si atom -5582.008528 kJ/mol
# Density = 1.970813 g / cm^3
# Si number density = 19.753086 Si / 1000 Ang^3
#
#
#
# Elastic Constant Matrix: (Units=GPa)
#
#
# Indices 1 2 3 4 5 6 
#
# 1 178.0993 53.1126 63.0388 0.0000 0.0000 0.0000
# 2 53.1126 90.3477 53.6798 0.0000 0.0000 0.0000
# 3 63.0388 53.6798 91.6883 0.0000 0.0000 0.0000
# 4 0.0000 0.0000 0.0000 43.6679 0.0000 0.0000
# 5 0.0000 0.0000 0.0000 0.0000 25.7760 0.0000
# 6 0.0000 0.0000 0.0000 0.0000 0.0000 51.6373
#
#
#
# Elastic Compliance Matrix: (Units=1/GPa)
#
#
# Indices 1 2 3 4 5 6 
#
# 1 0.007675 -0.002111 -0.004041 0.000000 0.000000 0.000000
# 2 -0.002111 0.017553 -0.008825 0.000000 0.000000 0.000000
# 3 -0.004041 -0.008825 0.018851 0.000000 0.000000 0.000000
# 4 0.000000 0.000000 0.000000 0.022900 0.000000 0.000000
# 5 0.000000 0.000000 0.000000 0.000000 0.038796 0.000000
# 6 0.000000 0.000000 0.000000 0.000000 0.000000 0.019366
#
#
# Mechanical properties :
#
#
# Convention : Reuss Voigt Hill
#
# Bulk Modulus (GPa) = 70.79498 77.75531 74.27514
# Shear Modulus (GPa) = 31.28873 36.90319 34.09596
#
# Velocity S-wave (km/s) = 3.98426 4.32698 4.15915
# Velocity P-wave (km/s) = 7.55536 8.02576 7.79411
#
# Compressibility (1/GPa) = 0.01412529
#
# Stress axis : x y z
#
# Youngs Moduli (GPa) = 130.30050 56.97147 53.04659
#
# Poissons Ratio (x) = 0.12026 0.21435
# Poissons Ratio (y) = 0.27505 0.46814
# Poissons Ratio (z) = 0.52650 0.50278
#
# Static dielectric constant tensor:
#      x y z
#    x 1.711530 0.000000 0.000000 
#    y 0.000000 1.739790 0.000000 
#    z 0.000000 0.000000 1.689950 
# 
# From -- ./inp_files/3092.got.cif
#   From: 2010.05.17/outbox.ucp.g08.bks.cvg/sg32_2_cif.got.tgz:3092.got - 2010.06.11 10:34:49.
