data_PCOD9344706
_publ_section_title
;
Structure prediction by ZEFSAII (Michael W. Deem and Ramdas Pophale) SiO2 
 PCOD9344706
Probable space group: P N A 21
;
_chemical_formula_sum "Si O2"
_cell_formula_units_Z 32
_cell_length_a 9.039497
_cell_length_b 18.387434
_cell_length_c 8.191056
_cell_angle_alpha 90.000000
_cell_angle_beta 90.000000
_cell_angle_gamma 90.000000
_cell_volume 1361.461256
_symmetry_space_group_name_H-M "P N A 21"
_symmetry_group_IT_number 33
_symmetry_cell_setting 'orthorhombic'
loop_
_space_group_symop_operation_xyz
x,y,z
-x,-y,1/2+z
1/2-x,1/2+y,1/2+z
1/2+x,1/2-y,z
loop_
_atom_site_type_symbol
_atom_site_label
_atom_site_fract_x
_atom_site_fract_y
_atom_site_fract_z
Si Si1 0.586802 0.611968 0.282530
Si Si2 0.801495 0.725495 0.424918
Si Si3 0.319269 0.999130 0.324939
Si Si4 0.733155 0.438733 0.838640
Si Si5 0.407459 0.162410 0.068589
Si Si6 0.439853 0.735015 0.082810
Si Si7 0.397374 0.949488 0.684209
Si Si8 0.189007 0.648496 0.003356
O O1 0.682651 0.661598 0.404374
O O2 0.688146 0.543296 0.237090
O O3 0.437708 0.580776 0.362643
O O4 0.542025 0.666578 0.136692
O O5 0.729855 0.781521 0.554505
O O6 0.832212 0.752959 0.240364
O O7 0.967768 0.702215 0.463068
O O8 0.345829 0.961311 0.500111
O O9 0.470662 0.994199 0.225691
O O10 0.295946 0.083331 0.371882
O O11 0.767765 0.523129 0.802260
O O12 0.777656 0.394323 0.673361
O O13 0.834321 0.407770 0.982610
O O14 0.523868 0.128608 0.200672
O O15 0.319333 0.704953 0.956810
O O16 0.540252 0.803675 0.033079
#
# Coordination Sequence:
#
# PCOD9344706 Si02
#       8
#     4   4   4   4   4   4   4   4
#     4  11  20  37  64  94 130 166 227 287 318 405
#     4  12  18  33  59 100 120 164 221 274 319 395
#     4  11  25  42  64  98 136 173 229 275 349 403
#     4  10  19  38  58  94 123 168 217 273 335 392
#     4  12  20  37  63  91 132 158 224 277 328 381
#     4  11  18  35  65  92 128 166 222 270 326 398
#     4  11  23  42  63  90 132 180 214 276 336 416
#     4  10  21  36  62  97 131 161 218 284 321 394
#
# _framework density 23.504158
#
# number of rings (size 3 to 8) (size 9 to 14) (size 15 to 20)
#    0.000    1.000    8.750    0.000    1.750    0.000 
#    6.750    2.500    0.000    0.000    0.000    0.000 
#    0.000    0.000    0.000    0.000    0.000    0.000 
#
# Total GULP energy -178222.216561 kJ/mol
# GULP energy per Si atom -5569.444268 kJ/mol
# Density = 2.345066 g / cm^3
# Si number density = 23.504158 Si / 1000 Ang^3
#
#
#
# Elastic Constant Matrix: (Units=GPa)
#
#
# Indices 1 2 3 4 5 6 
#
# 1 105.6967 43.3885 8.5153 0.0000 0.0000 0.0000
# 2 43.3885 108.8221 18.6488 0.0000 0.0000 0.0000
# 3 8.5153 18.6488 38.3544 0.0000 0.0000 0.0000
# 4 0.0000 0.0000 0.0000 22.6102 0.0000 0.0000
# 5 0.0000 0.0000 0.0000 0.0000 1.6641 0.0000
# 6 0.0000 0.0000 0.0000 0.0000 0.0000 36.9788
#
#
#
# Elastic Compliance Matrix: (Units=1/GPa)
#
#
# Indices 1 2 3 4 5 6 
#
# 1 0.011317 -0.004453 -0.000348 0.000000 0.000000 0.000000
# 2 -0.004453 0.011776 -0.004737 0.000000 0.000000 0.000000
# 3 -0.000348 -0.004737 0.028453 0.000000 0.000000 0.000000
# 4 0.000000 0.000000 0.000000 0.044228 0.000000 0.000000
# 5 0.000000 0.000000 0.000000 0.000000 0.600918 0.000000
# 6 0.000000 0.000000 0.000000 0.000000 0.000000 0.027043
#
#
# Mechanical properties :
#
#
# Convention : Reuss Voigt Hill
#
# Bulk Modulus (GPa) = 30.79640 43.77540 37.28590
# Shear Modulus (GPa) = 6.63452 24.40533 15.51992
#
# Velocity S-wave (km/s) = 1.68191 3.22583 2.57243
# Velocity P-wave (km/s) = 4.11130 5.70435 4.97204
#
# Compressibility (1/GPa) = 0.03247133
#
# Stress axis : x y z
#
# Youngs Moduli (GPa) = 88.36411 84.91525 35.14537
#
# Poissons Ratio (x) = 0.37809 0.01222
# Poissons Ratio (y) = 0.39345 0.16650
# Poissons Ratio (z) = 0.03071 0.40228
#
# Static dielectric constant tensor:
#      x y z
#    x 1.897430 0.000000 0.000000 
#    y 0.000000 1.995520 0.000000 
#    z 0.000000 0.000000 2.119970 
# 
# From -- ./inp_files/3502.got.cif
#   From: 2010.05.17/outbox.cif.g08.bks.cpg/sg33_2_cif.got.tgz:3502.got - 2010.06.03 17:15:25.
