data_PCOD9344347
_publ_section_title
;
Structure prediction by ZEFSAII (Michael W. Deem and Ramdas Pophale) SiO2 
 PCOD9344347
Probable space group: P N A 21
;
_chemical_formula_sum "Si O2"
_cell_formula_units_Z 28
_cell_length_a 7.180414
_cell_length_b 31.542854
_cell_length_c 5.288129
_cell_angle_alpha 90.000000
_cell_angle_beta 90.000000
_cell_angle_gamma 90.000000
_cell_volume 1197.712306
_symmetry_space_group_name_H-M "P N A 21"
_symmetry_group_IT_number 33
_symmetry_cell_setting 'orthorhombic'
loop_
_space_group_symop_operation_xyz
x,y,z
-x,-y,1/2+z
1/2-x,1/2+y,1/2+z
1/2+x,1/2-y,z
loop_
_atom_site_type_symbol
_atom_site_label
_atom_site_fract_x
_atom_site_fract_y
_atom_site_fract_z
Si Si1 0.822274 0.345306 0.875000
Si Si2 0.871065 0.199450 0.372047
Si Si3 0.920323 0.058403 0.898857
Si Si4 0.632265 0.652483 0.368021
Si Si5 0.187164 0.700643 0.870230
Si Si6 0.256471 0.025059 0.593735
Si Si7 0.184782 0.563499 0.590768
O O1 0.595244 0.346492 0.863910
O O2 0.883466 0.328031 0.602499
O O3 0.877583 0.391899 0.973318
O O4 0.881456 0.313303 0.095487
O O5 0.799658 0.175611 0.618056
O O6 0.840160 0.249394 0.401010
O O7 0.092401 0.193255 0.366032
O O8 0.802989 0.177901 0.114500
O O9 0.820622 0.102963 0.864707
O O10 0.048700 0.044284 0.659783
O O11 0.087679 0.065042 0.100673
O O12 0.785584 0.021403 0.989187
O O13 0.351355 0.028975 0.869651
O O14 0.362574 0.051563 0.376768
#
# Coordination Sequence:
#
# PCOD9344347 Si02
#       7
#     4   4   4   4   4   4   4
#     4   9  17  28  44  61  83 116 146 186 220 269
#     4  10  20  33  46  68  84 123 148 194 221 274
#     4   9  17  23  36  55  84 118 152 172 210 260
#     4   9  19  27  44  60  89 116 159 173 224 268
#     4  10  19  32  48  64  89 112 155 183 236 264
#     4  10  16  22  35  54  84 116 150 177 202 264
#     4   9  16  23  35  54  79 109 150 169 217 249
#
# _framework density 23.377901000000001
#
# number of rings (size 3 to 8) (size 9 to 14) (size 15 to 20)
#    0.857    1.714    1.429    1.714    6.000    0.000 
#    0.000    0.000    0.000    0.000    0.000    0.000 
#    0.000    0.000    0.000   25.714    2.857    0.000 
#
# Total GULP energy -156265.910782 kJ/mol
# GULP energy per Si atom -5580.925385 kJ/mol
# Density = 2.332469 g / cm^3
# Si number density = 23.377901 Si / 1000 Ang^3
#
#
#
# Elastic Constant Matrix: (Units=GPa)
#
#
# Indices 1 2 3 4 5 6 
#
# 1 88.2242 -6.6919 -3.2527 0.0000 0.0000 0.0000
# 2 -6.6919 130.6204 32.5542 0.0000 0.0000 0.0000
# 3 -3.2527 32.5542 127.6649 0.0000 0.0000 0.0000
# 4 0.0000 0.0000 0.0000 27.1566 0.0000 0.0000
# 5 0.0000 0.0000 0.0000 0.0000 -22.5055 0.0000
# 6 0.0000 0.0000 0.0000 0.0000 0.0000 14.9870
#
#
#
# Elastic Compliance Matrix: (Units=1/GPa)
#
#
# Indices 1 2 3 4 5 6 
#
# 1 0.011382 0.000546 0.000151 0.000000 0.000000 0.000000
# 2 0.000546 0.008201 -0.002077 0.000000 0.000000 0.000000
# 3 0.000151 -0.002077 0.008367 0.000000 0.000000 0.000000
# 4 0.000000 0.000000 0.000000 0.036823 0.000000 0.000000
# 5 0.000000 0.000000 0.000000 0.000000 -0.044434 0.000000
# 6 0.000000 0.000000 0.000000 0.000000 0.000000 0.066724
#
#
# Mechanical properties :
#
#
# Convention : Reuss Voigt Hill
#
# Bulk Modulus (GPa) = 39.70203 43.52541 41.61372
# Shear Modulus (GPa) = 50.90506 25.52095 38.21301
#
# Velocity S-wave (km/s) = 4.67142 3.30763 4.04738
# Velocity P-wave (km/s) = 6.79086 5.76592 6.29927
#
# Compressibility (1/GPa) = 0.02518763
#
# Stress axis : x y z
#
# Youngs Moduli (GPa) = 87.86039 121.92918 119.52286
#
# Poissons Ratio (x) = -0.06651 -0.01803
# Poissons Ratio (y) = -0.04793 0.24830
# Poissons Ratio (z) = -0.01326 0.25330
#
# Static dielectric constant tensor:
#      x y z
#    x 1.930300 0.000000 0.000000 
#    y 0.000000 1.916140 0.000000 
#    z 0.000000 0.000000 1.865320 
# 
# From -- ./inp_files/1167.got.cif
#   From: 2010.05.17/outbox.cif.g08.bks.cpg/sg33_1_cif.got.tgz:1167.got - 2010.06.03 17:15:25.
