data_PCOD9344328
_publ_section_title
;
Structure prediction by ZEFSAII (Michael W. Deem and Ramdas Pophale) SiO2 
 PCOD9344328
Probable space group: P B A 2
;
_chemical_formula_sum "Si O2"
_cell_formula_units_Z 32
_cell_length_a 15.000000
_cell_length_b 12.000000
_cell_length_c 9.000000
_cell_angle_alpha 90.000000
_cell_angle_beta 90.000000
_cell_angle_gamma 90.000000
_cell_volume 1620.000000
_symmetry_space_group_name_H-M "P B A 2"
_symmetry_group_IT_number 32
_symmetry_cell_setting 'orthorhombic'
loop_
_space_group_symop_operation_xyz
x,y,z
-x,-y,z
1/2-x,1/2+y,z
1/2+x,1/2-y,z
loop_
_atom_site_type_symbol
_atom_site_label
_atom_site_fract_x
_atom_site_fract_y
_atom_site_fract_z
Si Si1 0.434462 0.898094 0.543210
Si Si2 0.398693 0.520762 0.847915
Si Si3 0.779365 0.480818 0.365320
Si Si4 0.913218 0.281933 0.352065
Si Si5 0.219546 0.463262 0.018354
Si Si6 0.900894 0.043176 0.503288
Si Si7 0.100667 0.286773 0.852445
Si Si8 0.944903 0.386613 0.038994
O O1 0.348795 0.941532 0.454171
O O2 0.499211 0.826076 0.438381
O O3 0.399366 0.834591 0.686695
O O4 0.500000 0.000000 0.590140
O O5 0.500000 0.500000 0.903992
O O6 0.316729 0.476359 0.946287
O O7 0.393614 0.465168 0.683015
O O8 0.387800 0.654641 0.844084
O O9 0.828028 0.361764 0.373769
O O10 0.682028 0.475269 0.436802
O O11 0.774132 0.526521 0.196715
O O12 0.893112 0.162947 0.423645
O O13 0.932664 0.303035 0.177447
O O14 0.172887 0.351305 0.955137
O O15 0.148901 0.563549 0.980225
O O16 0.000000 0.000000 0.466862
O O17 0.004866 0.323343 0.919474
O O18 0.000000 0.500000 0.086930
#
# Coordination Sequence:
#
# PCOD9344328 Si02
#       8
#     4   4   4   4   4   4   4   4
#     4  10  18  35  63  93 119 155 205 250 306 376
#     4  11  26  43  58  86 125 163 209 258 307 370
#     4  10  23  40  63  94 122 157 209 255 304 378
#     4  10  21  39  64  88 124 165 199 259 315 358
#     4  10  22  41  63  92 123 157 208 256 305 376
#     4  11  25  42  58  86 124 163 210 257 308 372
#     4  11  22  38  65  92 125 166 198 256 318 361
#     4   9  19  40  66  97 126 156 208 257 307 377
#
# _framework density 19.753086
#
# number of rings (size 3 to 8) (size 9 to 14) (size 15 to 20)
#    0.000    1.750    0.000    6.000    0.000    9.500 
#    0.000    0.000    0.000    0.000    0.000    0.000 
#    0.000    0.000    0.000    0.000    0.000    0.000 
#
# Total GULP energy -178719.979557 kJ/mol
# GULP energy per Si atom -5584.999361 kJ/mol
# Density = 1.970813 g / cm^3
# Si number density = 19.753086 Si / 1000 Ang^3
#
#
#
# Elastic Constant Matrix: (Units=GPa)
#
#
# Indices 1 2 3 4 5 6 
#
# 1 161.5821 29.7808 57.7915 0.0000 0.0000 0.0000
# 2 29.7808 91.3979 54.3960 0.0000 0.0000 0.0000
# 3 57.7915 54.3960 87.3276 0.0000 0.0000 0.0000
# 4 0.0000 0.0000 0.0000 27.0100 0.0000 0.0000
# 5 0.0000 0.0000 0.0000 0.0000 37.8595 0.0000
# 6 0.0000 0.0000 0.0000 0.0000 0.0000 9.6544
#
#
#
# Elastic Compliance Matrix: (Units=1/GPa)
#
#
# Indices 1 2 3 4 5 6 
#
# 1 0.008152 0.000881 -0.005944 0.000000 0.000000 0.000000
# 2 0.000881 0.017482 -0.011473 0.000000 0.000000 0.000000
# 3 -0.005944 -0.011473 0.022531 0.000000 0.000000 0.000000
# 4 0.000000 0.000000 0.000000 0.037023 0.000000 0.000000
# 5 0.000000 0.000000 0.000000 0.000000 0.026413 0.000000
# 6 0.000000 0.000000 0.000000 0.000000 0.000000 0.103580
#
#
# Mechanical properties :
#
#
# Convention : Reuss Voigt Hill
#
# Bulk Modulus (GPa) = 66.24891 69.36046 67.80468
# Shear Modulus (GPa) = 19.74069 28.12742 23.93405
#
# Velocity S-wave (km/s) = 3.16471 3.77762 3.48467
# Velocity P-wave (km/s) = 6.85312 7.36323 7.11275
#
# Compressibility (1/GPa) = 0.01509459
#
# Stress axis : x y z
#
# Youngs Moduli (GPa) = 122.66485 57.20155 44.38337
#
# Poissons Ratio (x) = -0.05041 0.26381
# Poissons Ratio (y) = -0.10810 0.50920
# Poissons Ratio (z) = 0.72911 0.65625
#
# Static dielectric constant tensor:
#      x y z
#    x 1.678430 0.000000 0.000000 
#    y 0.000000 1.716140 0.000000 
#    z 0.000000 0.000000 1.681880 
# 
# From -- ./inp_files/3083.got.cif
#   From: 2010.05.17/outbox.ucp.g08.bks.cvg/sg32_2_cif.got.tgz:3083.got - 2010.06.11 10:34:49.
