data_PCOD9344353
_publ_section_title
;
Structure prediction by ZEFSAII (Michael W. Deem and Ramdas Pophale) SiO2 
 PCOD9344353
Probable space group: P N A 21
;
_chemical_formula_sum "Si O2"
_cell_formula_units_Z 32
_cell_length_a 5.600483
_cell_length_b 23.343621
_cell_length_c 11.698873
_cell_angle_alpha 90.000000
_cell_angle_beta 90.000000
_cell_angle_gamma 90.000000
_cell_volume 1529.458626
_symmetry_space_group_name_H-M "P N A 21"
_symmetry_group_IT_number 33
_symmetry_cell_setting 'orthorhombic'
loop_
_space_group_symop_operation_xyz
x,y,z
-x,-y,1/2+z
1/2-x,1/2+y,1/2+z
1/2+x,1/2-y,z
loop_
_atom_site_type_symbol
_atom_site_label
_atom_site_fract_x
_atom_site_fract_y
_atom_site_fract_z
Si Si1 0.750000 0.920748 0.883280
Si Si2 0.250000 0.620963 0.136088
Si Si3 0.250000 0.021954 0.062445
Si Si4 0.250000 0.407046 0.395295
Si Si5 0.750000 0.717330 0.011700
Si Si6 0.250000 0.949697 0.476955
Si Si7 0.750000 0.757339 0.260275
Si Si8 0.750000 0.071026 0.724594
O O1 0.496108 0.909741 0.826496
O O2 0.003892 0.909741 0.826496
O O3 0.750000 0.983849 0.937270
O O4 0.750000 0.880838 0.998774
O O5 0.250000 0.682164 0.195718
O O6 0.495347 0.591435 0.175846
O O7 0.004652 0.591435 0.175846
O O8 0.250000 0.963880 0.979126
O O9 0.494832 0.055678 0.038512
O O10 0.250000 0.995850 0.189130
O O11 0.005168 0.055678 0.038512
O O12 0.250000 0.346537 0.461896
O O13 0.500000 0.750000 0.981221
O O14 0.750000 0.714420 0.150719
O O15 0.250000 0.915630 0.358399
O O16 0.500000 0.750000 0.323685
#
# Coordination Sequence:
#
# PCOD9344353 Si02
#       8
#     4   4   4   4   4   4   4   4
#     4  10  16  29  44  55  81 109 148 192 217 256
#     4  12  19  31  46  65  90 128 158 193 228 261
#     4  10  19  33  48  61  90 118 151 207 225 269
#     4  10  16  27  41  55  79 115 147 179 217 246
#     4  10  18  22  34  55  78 106 142 186 188 248
#     4  10  20  32  45  68  84 111 162 197 238 260
#     4  10  19  27  40  61  88 118 159 190 206 261
#     4  12  21  31  50  66  88 123 161 200 223 293
#
# _framework density 20.922436999999999
#
# number of rings (size 3 to 8) (size 9 to 14) (size 15 to 20)
#    0.000    1.500    5.000    5.250    0.000    0.000 
#    0.000    0.000    0.000    0.000    0.000    0.000 
#    0.000    0.000    0.000    0.000    0.000  475.000 
#
# Total GULP energy -178373.551502 kJ/mol
# GULP energy per Si atom -5574.173484 kJ/mol
# Density = 2.087482 g / cm^3
# Si number density = 20.922437 Si / 1000 Ang^3
#
#
#
# Elastic Constant Matrix: (Units=GPa)
#
#
# Indices 1 2 3 4 5 6 
#
# 1 274.5748 35.2289 23.7514 0.0000 0.0000 0.0000
# 2 35.2289 19.8719 -3.4979 0.0000 0.0000 0.0000
# 3 23.7514 -3.4979 35.8527 0.0000 0.0000 0.0000
# 4 0.0000 0.0000 0.0000 6.1938 0.0000 0.0000
# 5 0.0000 0.0000 0.0000 0.0000 10.8486 0.0000
# 6 0.0000 0.0000 0.0000 0.0000 0.0000 27.4948
#
#
#
# Elastic Compliance Matrix: (Units=1/GPa)
#
#
# Indices 1 2 3 4 5 6 
#
# 1 0.005357 -0.010299 -0.004554 0.000000 0.000000 0.000000
# 2 -0.010299 0.071001 0.013750 0.000000 0.000000 0.000000
# 3 -0.004554 0.013750 0.032250 0.000000 0.000000 0.000000
# 4 0.000000 0.000000 0.000000 0.161452 0.000000 0.000000
# 5 0.000000 0.000000 0.000000 0.000000 0.092178 0.000000
# 6 0.000000 0.000000 0.000000 0.000000 0.000000 0.036371
#
#
# Mechanical properties :
#
#
# Convention : Reuss Voigt Hill
#
# Bulk Modulus (GPa) = 9.39834 49.02936 29.21385
# Shear Modulus (GPa) = 11.46047 27.22857 19.34452
#
# Velocity S-wave (km/s) = 2.34297 3.61141 3.04399
# Velocity P-wave (km/s) = 3.43818 6.39332 5.13301
#
# Compressibility (1/GPa) = 0.10640181
#
# Stress axis : x y z
#
# Youngs Moduli (GPa) = 186.66082 14.08439 31.00763
#
# Poissons Ratio (x) = 0.14506 0.14120
# Poissons Ratio (y) = 1.92242 -0.42635
# Poissons Ratio (z) = 0.85003 -0.19366
#
# Static dielectric constant tensor:
#      x y z
#    x 1.866830 0.000000 0.000000 
#    y 0.000000 1.833080 0.000000 
#    z 0.000000 0.000000 1.752860 
# 
# From -- ./inp_files/5627.got.cif
#   From: 2010.05.17/outbox.cif.g08.bks.cpg/sg33_3_cif.got.tgz:5627.got - 2010.06.03 17:15:25.
