data_PCOD9344759
_publ_section_title
;
Structure prediction by ZEFSAII (Michael W. Deem and Ramdas Pophale) SiO2 
 PCOD9344759
Probable space group: P N A 21
;
_chemical_formula_sum "Si O2"
_cell_formula_units_Z 32
_cell_length_a 14.219837
_cell_length_b 10.748841
_cell_length_c 8.139641
_cell_angle_alpha 90.000000
_cell_angle_beta 90.000000
_cell_angle_gamma 90.000000
_cell_volume 1244.117811
_symmetry_space_group_name_H-M "P N A 21"
_symmetry_group_IT_number 33
_symmetry_cell_setting 'orthorhombic'
loop_
_space_group_symop_operation_xyz
x,y,z
-x,-y,1/2+z
1/2-x,1/2+y,1/2+z
1/2+x,1/2-y,z
loop_
_atom_site_type_symbol
_atom_site_label
_atom_site_fract_x
_atom_site_fract_y
_atom_site_fract_z
Si Si1 0.979303 0.315216 0.054020
Si Si2 0.896797 0.931709 0.971922
Si Si3 0.735488 0.107306 0.943278
Si Si4 0.629011 0.322533 0.830704
Si Si5 0.433695 0.306137 0.387448
Si Si6 0.192558 0.561279 0.409320
Si Si7 0.404778 0.066788 0.564598
Si Si8 0.713001 0.200692 0.320191
O O1 0.025446 0.450757 0.088320
O O2 0.977062 0.233722 0.214781
O O3 0.039555 0.241772 0.916877
O O4 0.872452 0.348837 0.012589
O O5 0.887921 0.892839 0.161808
O O6 0.841411 0.059005 0.940116
O O7 0.841763 0.824939 0.868549
O O8 0.007527 0.927747 0.934956
O O9 0.711882 0.165180 0.125118
O O10 0.667805 0.986687 0.928914
O O11 0.701583 0.205939 0.811002
O O12 0.697515 0.413239 0.935519
O O13 0.454464 0.193091 0.512772
O O14 0.322166 0.304432 0.370534
O O15 0.159624 0.589873 0.222695
O O16 0.169496 0.415850 0.419772
#
# Coordination Sequence:
#
# PCOD9344759 Si02
#       8
#     4   4   4   4   4   4   4   4
#     4  11  24  39  69 104 135 176 244 284 337 422
#     4  12  23  45  70  97 140 182 226 288 349 416
#     4  10  22  44  68  94 140 173 230 284 337 417
#     4  11  23  44  68 101 136 187 231 285 349 414
#     4  12  24  41  66 104 139 177 229 291 350 421
#     4  11  22  44  69  94 136 183 227 293 349 405
#     4  10  19  41  65  94 130 175 228 286 331 401
#     4  11  23  46  69 100 140 179 229 291 354 410
#
# _framework density 25.721035000000001
#
# number of rings (size 3 to 8) (size 9 to 14) (size 15 to 20)
#    0.000    1.000    3.750    5.250    0.000    3.000 
#    9.000    0.000    0.000    0.000    0.000    0.000 
#    0.000    0.000    0.000    0.000    0.000    0.000 
#
# Total GULP energy -179154.802520 kJ/mol
# GULP energy per Si atom -5598.587579 kJ/mol
# Density = 2.566249 g / cm^3
# Si number density = 25.721035 Si / 1000 Ang^3
#
#
#
# Elastic Constant Matrix: (Units=GPa)
#
#
# Indices 1 2 3 4 5 6 
#
# 1 137.0125 7.9835 23.6764 0.0000 0.0000 0.0000
# 2 7.9835 72.7578 9.4027 0.0000 0.0000 0.0000
# 3 23.6764 9.4027 46.2891 0.0000 0.0000 0.0000
# 4 0.0000 0.0000 0.0000 25.5264 0.0000 0.0000
# 5 0.0000 0.0000 0.0000 0.0000 29.9545 0.0000
# 6 0.0000 0.0000 0.0000 0.0000 0.0000 50.1763
#
#
#
# Elastic Compliance Matrix: (Units=1/GPa)
#
#
# Indices 1 2 3 4 5 6 
#
# 1 0.008015 -0.000359 -0.004027 0.000000 0.000000 0.000000
# 2 -0.000359 0.014131 -0.002687 0.000000 0.000000 0.000000
# 3 -0.004027 -0.002687 0.024209 0.000000 0.000000 0.000000
# 4 0.000000 0.000000 0.000000 0.039175 0.000000 0.000000
# 5 0.000000 0.000000 0.000000 0.000000 0.033384 0.000000
# 6 0.000000 0.000000 0.000000 0.000000 0.000000 0.019930
#
#
# Mechanical properties :
#
#
# Convention : Reuss Voigt Hill
#
# Bulk Modulus (GPa) = 31.04656 37.57608 34.31132
# Shear Modulus (GPa) = 30.53886 35.46455 33.00170
#
# Velocity S-wave (km/s) = 3.44948 3.71727 3.58587
# Velocity P-wave (km/s) = 5.28790 5.75021 5.52389
#
# Compressibility (1/GPa) = 0.03220969
#
# Stress axis : x y z
#
# Youngs Moduli (GPa) = 124.76009 70.76717 41.30728
#
# Poissons Ratio (x) = 0.02541 0.16634
# Poissons Ratio (y) = 0.04480 0.11098
# Poissons Ratio (z) = 0.50239 0.19013
#
# Static dielectric constant tensor:
#      x y z
#    x 2.059890 0.000000 0.000000 
#    y 0.000000 2.091510 0.000000 
#    z 0.000000 0.000000 2.010980 
# 
# From -- ./inp_files/4442.got.cif
#   From: 2010.05.17/outbox.cif.g08.bks.cpg/sg33_3_cif.got.tgz:4442.got - 2010.06.03 17:15:25.
