data_PCOD9344704
_publ_section_title
;
Structure prediction by ZEFSAII (Michael W. Deem and Ramdas Pophale) SiO2 
 PCOD9344704
Probable space group: P N A 21
;
_chemical_formula_sum "Si O2"
_cell_formula_units_Z 20
_cell_length_a 5.480498
_cell_length_b 18.097832
_cell_length_c 7.631337
_cell_angle_alpha 90.000000
_cell_angle_beta 90.000000
_cell_angle_gamma 90.000000
_cell_volume 756.915168
_symmetry_space_group_name_H-M "P N A 21"
_symmetry_group_IT_number 33
_symmetry_cell_setting 'orthorhombic'
loop_
_space_group_symop_operation_xyz
x,y,z
-x,-y,1/2+z
1/2-x,1/2+y,1/2+z
1/2+x,1/2-y,z
loop_
_atom_site_type_symbol
_atom_site_label
_atom_site_fract_x
_atom_site_fract_y
_atom_site_fract_z
Si Si1 0.853344 0.680360 0.186100
Si Si2 0.355932 0.958011 0.739964
Si Si3 0.149028 0.289314 0.271088
Si Si4 0.646111 0.476009 0.082124
Si Si5 0.853226 0.843647 0.326464
O O1 0.853414 0.753892 0.310602
O O2 0.606174 0.637737 0.229361
O O3 0.101176 0.637462 0.227261
O O4 0.852709 0.706213 0.984633
O O5 0.349150 0.871399 0.698610
O O6 0.639926 0.978838 0.726366
O O7 0.133827 0.992372 0.627597
O O8 0.254991 0.971752 0.933067
O O9 0.398709 0.249823 0.218028
O O10 0.649774 0.392520 0.000560
#
# Coordination Sequence:
#
# PCOD9344704 Si02
#       5
#     4   4   4   4   4
#     4  10  19  37  68 106 127 197 227 292 346 451
#     4  12  30  49  77 110 150 202 251 312 384 435
#     4  12  23  45  72 105 150 192 250 294 375 442
#     4  12  28  51  73 111 149 201 252 316 370 457
#     4  10  20  38  66  98 142 172 252 274 365 423
#
# _framework density 26.42304
#
# number of rings (size 3 to 8) (size 9 to 14) (size 15 to 20)
#    0.000    0.800    4.000    3.600    5.600    0.000 
#   21.600    0.000    0.000    0.000    0.000    0.000 
#    0.000    0.000    0.000    0.000    0.000    0.000 
#
# Total GULP energy -111999.498409 kJ/mol
# GULP energy per Si atom -5599.974920 kJ/mol
# Density = 2.636290 g / cm^3
# Si number density = 26.423040 Si / 1000 Ang^3
#
#
#
# Elastic Constant Matrix: (Units=GPa)
#
#
# Indices 1 2 3 4 5 6 
#
# 1 247.9423 39.1683 42.9068 0.0000 0.0000 0.0000
# 2 39.1683 92.7328 -6.5606 0.0000 0.0000 0.0000
# 3 42.9068 -6.5606 44.2429 0.0000 0.0000 0.0000
# 4 0.0000 0.0000 0.0000 39.7583 0.0000 0.0000
# 5 0.0000 0.0000 0.0000 0.0000 49.8528 0.0000
# 6 0.0000 0.0000 0.0000 0.0000 0.0000 47.8583
#
#
#
# Elastic Compliance Matrix: (Units=1/GPa)
#
#
# Indices 1 2 3 4 5 6 
#
# 1 0.005442 -0.002701 -0.005679 0.000000 0.000000 0.000000
# 2 -0.002701 0.012238 0.004434 0.000000 0.000000 0.000000
# 3 -0.005679 0.004434 0.028767 0.000000 0.000000 0.000000
# 4 0.000000 0.000000 0.000000 0.025152 0.000000 0.000000
# 5 0.000000 0.000000 0.000000 0.000000 0.020059 0.000000
# 6 0.000000 0.000000 0.000000 0.000000 0.000000 0.020895
#
#
# Mechanical properties :
#
#
# Convention : Reuss Voigt Hill
#
# Bulk Modulus (GPa) = 25.93583 59.54968 42.74275
# Shear Modulus (GPa) = 37.51030 48.12077 42.81554
#
# Velocity S-wave (km/s) = 3.77185 4.27214 4.02977
# Velocity P-wave (km/s) = 5.36713 6.84988 6.15333
#
# Compressibility (1/GPa) = 0.03855670
#
# Stress axis : x y z
#
# Youngs Moduli (GPa) = 183.73910 81.71273 34.76200
#
# Poissons Ratio (x) = 0.22067 0.19740
# Poissons Ratio (y) = 0.49620 -0.15412
# Poissons Ratio (z) = 1.04338 -0.36229
#
# Static dielectric constant tensor:
#      x y z
#    x 2.047050 0.000000 0.000000 
#    y 0.000000 2.142010 0.000000 
#    z 0.000000 0.000000 2.066530 
# 
# From -- ./inp_files/2649.got.cif
#   From: 2010.05.17/outbox.cif.g08.bks.cpg/sg33_2_cif.got.tgz:2649.got - 2010.06.03 17:15:25.
