data_PCOD9344415
_publ_section_title
;
Structure prediction by ZEFSAII (Michael W. Deem and Ramdas Pophale) SiO2 
 PCOD9344415
Probable space group: P N A 21
;
_chemical_formula_sum "Si O2"
_cell_formula_units_Z 32
_cell_length_a 8.207035
_cell_length_b 23.390691
_cell_length_c 6.853742
_cell_angle_alpha 90.000000
_cell_angle_beta 90.000000
_cell_angle_gamma 90.000000
_cell_volume 1315.700650
_symmetry_space_group_name_H-M "P N A 21"
_symmetry_group_IT_number 33
_symmetry_cell_setting 'orthorhombic'
loop_
_space_group_symop_operation_xyz
x,y,z
-x,-y,1/2+z
1/2-x,1/2+y,1/2+z
1/2+x,1/2-y,z
loop_
_atom_site_type_symbol
_atom_site_label
_atom_site_fract_x
_atom_site_fract_y
_atom_site_fract_z
Si Si1 0.090253 0.744546 0.851550
Si Si2 0.178034 0.578228 0.434222
Si Si3 0.854438 0.555071 0.856129
Si Si4 0.656232 0.248170 0.063844
Si Si5 0.155278 0.382180 0.939007
Si Si6 0.506479 0.360210 0.931549
Si Si7 0.448457 0.368926 0.401155
Si Si8 0.179736 0.617527 0.888226
O O1 0.154445 0.742173 0.623396
O O2 0.125765 0.682546 0.935515
O O3 0.899259 0.750221 0.792776
O O4 0.109854 0.804797 0.961127
O O5 0.164050 0.510760 0.409445
O O6 0.353794 0.597578 0.362454
O O7 0.184817 0.604936 0.653629
O O8 0.015234 0.603603 0.337741
O O9 0.847316 0.573750 0.625075
O O10 0.697342 0.587836 0.938296
O O11 0.029499 0.575922 0.936094
O O12 0.638293 0.183579 0.001730
O O13 0.588517 0.297032 0.921943
O O14 0.333906 0.379563 0.842818
O O15 0.466354 0.364407 0.163697
O O16 0.632433 0.387117 0.456489
#
# Coordination Sequence:
#
# PCOD9344415 Si02
#       8
#     4   4   4   4   4   4   4   4
#     4  11  13  23  43  66  87 110 136 168 226 285
#     4  10  19  29  40  60  92 123 153 175 202 264
#     4  10  19  29  40  60  92 123 153 175 202 264
#     4  11  13  23  43  66  87 110 136 168 226 285
#     4  10  18  29  44  64  89 123 144 172 226 258
#     4   9  17  26  42  64  87 117 138 176 223 266
#     4   9  17  26  42  64  87 117 138 176 223 266
#     4  10  18  29  44  64  89 123 144 172 226 258
#
# _framework density 24.321643000000002
#
# number of rings (size 3 to 8) (size 9 to 14) (size 15 to 20)
#    0.000    2.000   10.000    0.000    0.000    1.000 
#    0.000    0.000    0.000    0.000    0.000    0.000 
#    0.000    8.000    0.000    1.500    0.000    0.000 
#
# Total GULP energy -178149.430324 kJ/mol
# GULP energy per Si atom -5567.169698 kJ/mol
# Density = 2.426629 g / cm^3
# Si number density = 24.321643 Si / 1000 Ang^3
#
#
#
# Elastic Constant Matrix: (Units=GPa)
#
#
# Indices 1 2 3 4 5 6 
#
# 1 173.4378 76.0547 -15.0277 0.0000 0.0000 0.0000
# 2 76.0547 165.3125 -4.5170 0.0000 0.0000 0.0000
# 3 -15.0277 -4.5170 74.4015 0.0000 0.0000 0.0000
# 4 0.0000 0.0000 0.0000 4.9023 0.0000 0.0000
# 5 0.0000 0.0000 0.0000 0.0000 -46.0538 0.0000
# 6 0.0000 0.0000 0.0000 0.0000 0.0000 49.1187
#
#
#
# Elastic Compliance Matrix: (Units=1/GPa)
#
#
# Indices 1 2 3 4 5 6 
#
# 1 0.007343 -0.003343 0.001280 0.000000 0.000000 0.000000
# 2 -0.003343 0.007581 -0.000215 0.000000 0.000000 0.000000
# 3 0.001280 -0.000215 0.013686 0.000000 0.000000 0.000000
# 4 0.000000 0.000000 0.000000 0.203985 0.000000 0.000000
# 5 0.000000 0.000000 0.000000 0.000000 -0.021714 0.000000
# 6 0.000000 0.000000 0.000000 0.000000 0.000000 0.020359
#
#
# Mechanical properties :
#
#
# Convention : Reuss Voigt Hill
#
# Bulk Modulus (GPa) = 41.57295 58.46355 50.01825
# Shear Modulus (GPa) = 20.50741 25.36955 22.93848
#
# Velocity S-wave (km/s) = 2.90690 3.23319 3.07437
# Velocity P-wave (km/s) = 5.32887 6.16667 5.76301
#
# Compressibility (1/GPa) = 0.02405410
#
# Stress axis : x y z
#
# Youngs Moduli (GPa) = 136.18997 131.90273 73.06686
#
# Poissons Ratio (x) = 0.44097 -0.09353
# Poissons Ratio (y) = 0.45530 0.01571
# Poissons Ratio (z) = -0.17434 0.02836
#
# Static dielectric constant tensor:
#      x y z
#    x 2.028160 0.000000 0.000000 
#    y 0.000000 1.853340 0.000000 
#    z 0.000000 0.000000 2.025140 
# 
# From -- ./inp_files/6121.got.cif
#   From: 2010.05.17/outbox.cif.g08.bks.cpg/sg33_4_cif.got.tgz:6121.got - 2010.06.03 17:15:25.
