data_PCOD9344020
_publ_section_title
;
Structure prediction by ZEFSAII (Michael W. Deem and Ramdas Pophale) SiO2 
 PCOD9344020
Probable space group: P B A 2
;
_chemical_formula_sum "Si O2"
_cell_formula_units_Z 26
_cell_length_a 14.249086
_cell_length_b 10.595658
_cell_length_c 10.264958
_cell_angle_alpha 90.000000
_cell_angle_beta 90.000000
_cell_angle_gamma 90.000000
_cell_volume 1549.787367
_symmetry_space_group_name_H-M "P B A 2"
_symmetry_group_IT_number 32
_symmetry_cell_setting 'orthorhombic'
loop_
_space_group_symop_operation_xyz
x,y,z
-x,-y,z
1/2-x,1/2+y,z
1/2+x,1/2-y,z
loop_
_atom_site_type_symbol
_atom_site_label
_atom_site_fract_x
_atom_site_fract_y
_atom_site_fract_z
Si Si1 0.065892 0.887178 0.823710
Si Si2 0.757513 0.374550 0.159922
Si Si3 0.468240 0.863204 0.918710
Si Si4 0.757512 0.625444 0.982291
Si Si5 0.500000 0.500000 0.571107
Si Si6 0.065893 0.112820 0.318505
Si Si7 0.531758 0.863203 0.223508
O O1 0.167371 0.886662 0.889636
O O2 0.016592 0.754156 0.849490
O O3 0.063294 0.918618 0.669982
O O4 0.000000 0.000000 0.881498
O O5 0.667372 0.386661 0.252578
O O6 0.856279 0.359336 0.232450
O O7 0.763189 0.499995 0.071103
O O8 0.750000 0.249995 0.071110
O O9 0.356277 0.859337 0.909761
O O10 0.500000 0.000000 0.870010
O O11 0.499996 0.855239 0.071110
O O12 0.436703 0.581377 0.472233
O O13 0.016593 0.245843 0.292730
O O14 0.000000 0.000000 0.260717
O O15 0.500000 0.000000 0.272210
#
# Coordination Sequence:
#
# PCOD9344020 Si02
#       7
#     4   4   4   4   2   4   4
#     4  10  22  39  62  80 119 165 207 244 277 361
#     4  12  21  32  60  95 119 151 188 245 321 367
#     4  11  20  36  56  91 130 145 177 251 323 365
#     4  12  21  32  60  95 119 151 188 245 321 367
#     4   8  24  44  60  76 118 164 226 242 268 332
#     4  10  22  39  62  80 119 165 207 244 277 361
#     4  11  20  36  56  91 130 145 177 251 323 365
#
# _framework density 16.776494
#
# number of rings (size 3 to 8) (size 9 to 14) (size 15 to 20)
#    0.923    0.308    6.154    1.846    0.000    0.000 
#    0.000    2.308    0.000    0.000    0.000    0.000 
#    0.000    0.000    0.000    0.000    0.000    0.000 
#
# Total GULP energy -144927.753616 kJ/mol
# GULP energy per Si atom -5574.144370 kJ/mol
# Density = 1.673831 g / cm^3
# Si number density = 16.776494 Si / 1000 Ang^3
#
#
#
# Elastic Constant Matrix: (Units=GPa)
#
#
# Indices 1 2 3 4 5 6 
#
# 1 155.0710 30.2363 36.1082 0.0000 0.0000 0.0000
# 2 30.2363 133.2170 32.7678 0.0000 0.0000 0.0000
# 3 36.1082 32.7678 71.2662 0.0000 0.0000 0.0000
# 4 0.0000 0.0000 0.0000 58.2844 0.0000 0.0000
# 5 0.0000 0.0000 0.0000 0.0000 2.5783 0.0000
# 6 0.0000 0.0000 0.0000 0.0000 0.0000 29.3466
#
#
#
# Elastic Compliance Matrix: (Units=1/GPa)
#
#
# Indices 1 2 3 4 5 6 
#
# 1 0.007396 -0.000853 -0.003355 0.000000 0.000000 0.000000
# 2 -0.000853 0.008562 -0.003504 0.000000 0.000000 0.000000
# 3 -0.003355 -0.003504 0.017343 0.000000 0.000000 0.000000
# 4 0.000000 0.000000 0.000000 0.017157 0.000000 0.000000
# 5 0.000000 0.000000 0.000000 0.000000 0.387847 0.000000
# 6 0.000000 0.000000 0.000000 0.000000 0.000000 0.034076
#
#
# Mechanical properties :
#
#
# Convention : Reuss Voigt Hill
#
# Bulk Modulus (GPa) = 55.94175 61.97542 58.95859
# Shear Modulus (GPa) = 10.12625 35.40466 22.76546
#
# Velocity S-wave (km/s) = 2.45949 4.59886 3.68772
# Velocity P-wave (km/s) = 6.44074 8.07598 7.30426
#
# Compressibility (1/GPa) = 0.01787574
#
# Stress axis : x y z
#
# Youngs Moduli (GPa) = 135.20297 116.79148 57.65985
#
# Poissons Ratio (x) = 0.09968 0.19345
# Poissons Ratio (y) = 0.11540 0.20207
# Poissons Ratio (z) = 0.45361 0.40929
#
# Static dielectric constant tensor:
#      x y z
#    x 1.566910 0.000000 0.000000 
#    y 0.000000 1.654960 0.000000 
#    z 0.000000 0.000000 1.579170 
# 
# From -- ./inp_files/3917.got.cif
#   From: 2010.05.17/outbox.cif.g08.bks.cpg/sg32_2_cif.got.tgz:3917.got - 2010.06.03 17:12:27.
