data_PCOD9344598
_publ_section_title
;
Structure prediction by ZEFSAII (Michael W. Deem and Ramdas Pophale) SiO2 
 PCOD9344598
Probable space group: P N A 21
;
_chemical_formula_sum "Si O2"
_cell_formula_units_Z 24
_cell_length_a 8.470072
_cell_length_b 21.913995
_cell_length_c 4.987251
_cell_angle_alpha 90.000000
_cell_angle_beta 90.000000
_cell_angle_gamma 90.000000
_cell_volume 925.699196
_symmetry_space_group_name_H-M "P N A 21"
_symmetry_group_IT_number 33
_symmetry_cell_setting 'orthorhombic'
loop_
_space_group_symop_operation_xyz
x,y,z
-x,-y,1/2+z
1/2-x,1/2+y,1/2+z
1/2+x,1/2-y,z
loop_
_atom_site_type_symbol
_atom_site_label
_atom_site_fract_x
_atom_site_fract_y
_atom_site_fract_z
Si Si1 0.921095 0.369455 0.338680
Si Si2 0.210180 0.668020 0.347725
Si Si3 0.803920 0.574693 0.512837
Si Si4 0.860027 0.128962 0.509875
Si Si5 0.419391 0.525643 0.127521
Si Si6 0.985016 0.748986 0.119047
O O1 0.849999 0.382050 0.632834
O O2 0.030794 0.414059 0.163951
O O3 0.020408 0.307125 0.409220
O O4 0.771248 0.356604 0.144309
O O5 0.059289 0.713231 0.369559
O O6 0.339022 0.711808 0.219270
O O7 0.772718 0.603695 0.220013
O O8 0.741730 0.505149 0.523000
O O9 0.683008 0.609488 0.711203
O O10 0.020536 0.094456 0.599475
O O11 0.891022 0.200231 0.522380
O O12 0.449873 0.507790 0.435673
#
# Coordination Sequence:
#
# PCOD9344598 Si02
#       6
#     4   4   4   4   4   4
#     4  10  23  34  54  76 106 144 180 214 275 320
#     4  10  24  35  54  75 109 141 184 217 267 325
#     4  10  19  35  55  80 109 139 182 225 274 327
#     4  10  20  31  58  80 109 140 178 230 277 315
#     4   8  16  31  50  80 104 134 177 226 270 319
#     4  10  24  36  55  77 113 140 183 222 271 328
#
# _framework density 25.926348999999998
#
# number of rings (size 3 to 8) (size 9 to 14) (size 15 to 20)
#    1.000    1.333    0.000    2.000    7.000    0.000 
#    0.000    0.000    0.000    2.000    0.000    0.000 
#    0.000    0.000    0.000    0.000    0.000    0.000 
#
# Total GULP energy -133833.561213 kJ/mol
# GULP energy per Si atom -5576.398384 kJ/mol
# Density = 2.586734 g / cm^3
# Si number density = 25.926349 Si / 1000 Ang^3
#
#
#
# Elastic Constant Matrix: (Units=GPa)
#
#
# Indices 1 2 3 4 5 6 
#
# 1 58.1229 -5.2606 3.3696 0.0000 0.0000 0.0000
# 2 -5.2606 80.3866 -1.5666 0.0000 0.0000 0.0000
# 3 3.3696 -1.5666 130.2743 0.0000 0.0000 0.0000
# 4 0.0000 0.0000 0.0000 11.9605 0.0000 0.0000
# 5 0.0000 0.0000 0.0000 0.0000 13.0605 0.0000
# 6 0.0000 0.0000 0.0000 0.0000 0.0000 28.3557
#
#
#
# Elastic Compliance Matrix: (Units=1/GPa)
#
#
# Indices 1 2 3 4 5 6 
#
# 1 0.017332 0.001126 -0.000435 0.000000 0.000000 0.000000
# 2 0.001126 0.012516 0.000121 0.000000 0.000000 0.000000
# 3 -0.000435 0.000121 0.007689 0.000000 0.000000 0.000000
# 4 0.000000 0.000000 0.000000 0.083608 0.000000 0.000000
# 5 0.000000 0.000000 0.000000 0.000000 0.076567 0.000000
# 6 0.000000 0.000000 0.000000 0.000000 0.000000 0.035266
#
#
# Mechanical properties :
#
#
# Convention : Reuss Voigt Hill
#
# Bulk Modulus (GPa) = 25.53526 29.09650 27.31588
# Shear Modulus (GPa) = 20.45767 28.82478 24.64122
#
# Velocity S-wave (km/s) = 2.81208 3.33798 3.08625
# Velocity P-wave (km/s) = 4.51822 5.10913 4.82273
#
# Compressibility (1/GPa) = 0.03916153
#
# Stress axis : x y z
#
# Youngs Moduli (GPa) = 57.69673 79.89821 130.05899
#
# Poissons Ratio (x) = -0.08995 0.05654
# Poissons Ratio (y) = -0.06495 -0.01579
# Poissons Ratio (z) = 0.02508 -0.00970
#
# Static dielectric constant tensor:
#      x y z
#    x 2.189740 0.000000 0.000000 
#    y 0.000000 2.053580 0.000000 
#    z 0.000000 0.000000 1.919410 
# 
# From -- ./inp_files/461.got.cif
#   From: 2010.05.17/outbox.cif.g08.bks.cpg/sg33_1_cif.got.tgz:461.got - 2010.06.03 17:15:25.
