data_PCOD9344585
_publ_section_title
;
Structure prediction by ZEFSAII (Michael W. Deem and Ramdas Pophale) SiO2 
 PCOD9344585
Probable space group: P N A 21
;
_chemical_formula_sum "Si O2"
_cell_formula_units_Z 32
_cell_length_a 8.905314
_cell_length_b 16.249130
_cell_length_c 9.721331
_cell_angle_alpha 90.000000
_cell_angle_beta 90.000000
_cell_angle_gamma 90.000000
_cell_volume 1406.711640
_symmetry_space_group_name_H-M "P N A 21"
_symmetry_group_IT_number 33
_symmetry_cell_setting 'orthorhombic'
loop_
_space_group_symop_operation_xyz
x,y,z
-x,-y,1/2+z
1/2-x,1/2+y,1/2+z
1/2+x,1/2-y,z
loop_
_atom_site_type_symbol
_atom_site_label
_atom_site_fract_x
_atom_site_fract_y
_atom_site_fract_z
Si Si1 0.949640 0.250544 0.087500
Si Si2 0.698903 0.185100 0.275599
Si Si3 0.330663 0.553156 0.842430
Si Si4 0.169337 0.946844 0.942799
Si Si5 0.949640 0.749456 0.197730
Si Si6 0.292519 0.626894 0.534293
Si Si7 0.301097 0.185100 0.509630
Si Si8 0.207481 0.873106 0.250936
O O1 0.818009 0.194923 0.151893
O O2 0.861348 0.323412 0.010700
O O3 0.038831 0.292158 0.214591
O O4 0.073583 0.192446 0.019002
O O5 0.715417 0.095894 0.339947
O O6 0.750000 0.250000 0.392615
O O7 0.500000 0.572771 0.892615
O O8 0.304436 0.594157 0.692609
O O9 0.215416 0.595894 0.945282
O O10 0.311042 0.455403 0.837688
O O11 0.195564 0.905843 0.092620
O O12 0.188957 0.044597 0.947541
O O13 0.818008 0.805077 0.133337
O O14 0.038831 0.707842 0.070639
O O15 0.861348 0.676588 0.274530
O O16 0.073583 0.807554 0.266227
#
# Coordination Sequence:
#
# PCOD9344585 Si02
#       8
#     4   4   4   4   4   4   4   4
#     4  10  19  34  59  88 111 156 196 245 294 353
#     4  11  17  30  60  86 114 147 194 243 298 341
#     4  11  20  35  57  90 119 154 196 248 298 347
#     4  11  20  35  57  90 119 154 196 248 298 347
#     4  10  19  34  59  88 111 156 196 245 294 353
#     4  10  22  34  60  84 123 151 199 245 297 353
#     4  11  17  30  60  86 114 147 194 243 298 341
#     4  10  22  34  60  84 123 151 199 245 297 353
#
# _framework density 22.748087999999999
#
# number of rings (size 3 to 8) (size 9 to 14) (size 15 to 20)
#    0.000    1.500    7.500    0.750    0.000    0.000 
#    0.000    1.250   33.000    0.000    0.000    0.000 
#    0.000    0.000    0.000    0.000    0.000    0.000 
#
# Total GULP energy -179035.750287 kJ/mol
# GULP energy per Si atom -5594.867196 kJ/mol
# Density = 2.269631 g / cm^3
# Si number density = 22.748088 Si / 1000 Ang^3
#
#
#
# Elastic Constant Matrix: (Units=GPa)
#
#
# Indices 1 2 3 4 5 6 
#
# 1 104.6301 52.3395 19.0816 0.0000 0.0000 0.0000
# 2 52.3395 159.2340 36.5579 0.0000 0.0000 0.0000
# 3 19.0816 36.5579 34.0755 0.0000 0.0000 0.0000
# 4 0.0000 0.0000 0.0000 45.2122 0.0000 0.0000
# 5 0.0000 0.0000 0.0000 0.0000 17.9176 0.0000
# 6 0.0000 0.0000 0.0000 0.0000 0.0000 36.8884
#
#
#
# Elastic Compliance Matrix: (Units=1/GPa)
#
#
# Indices 1 2 3 4 5 6 
#
# 1 0.011698 -0.003106 -0.003218 0.000000 0.000000 0.000000
# 2 -0.003106 0.009157 -0.008085 0.000000 0.000000 0.000000
# 3 -0.003218 -0.008085 0.039823 0.000000 0.000000 0.000000
# 4 0.000000 0.000000 0.000000 0.022118 0.000000 0.000000
# 5 0.000000 0.000000 0.000000 0.000000 0.055811 0.000000
# 6 0.000000 0.000000 0.000000 0.000000 0.000000 0.027109
#
#
# Mechanical properties :
#
#
# Convention : Reuss Voigt Hill
#
# Bulk Modulus (GPa) = 31.38800 57.09973 44.24386
# Shear Modulus (GPa) = 24.37189 32.66769 28.51979
#
# Velocity S-wave (km/s) = 3.27675 3.79365 3.54464
# Velocity P-wave (km/s) = 5.30510 6.65916 6.02032
#
# Compressibility (1/GPa) = 0.03185931
#
# Stress axis : x y z
#
# Youngs Moduli (GPa) = 85.48278 109.20285 25.11139
#
# Poissons Ratio (x) = 0.33922 0.08081
# Poissons Ratio (y) = 0.26554 0.20302
# Poissons Ratio (z) = 0.27510 0.88289
#
# Static dielectric constant tensor:
#      x y z
#    x 1.807820 0.000000 0.000000 
#    y 0.000000 1.820200 0.000000 
#    z 0.000000 0.000000 1.959880 
# 
# From -- ./inp_files/7723.got.cif
#   From: 2010.05.17/outbox.cif.g08.bks.cpg/sg33_4_cif.got.tgz:7723.got - 2010.06.03 17:15:25.
