data_PCOD9344363
_publ_section_title
;
Structure prediction by ZEFSAII (Michael W. Deem and Ramdas Pophale) SiO2 
 PCOD9344363
Probable space group: P N A 21
;
_chemical_formula_sum "Si O2"
_cell_formula_units_Z 24
_cell_length_a 16.617226
_cell_length_b 13.307910
_cell_length_c 5.191331
_cell_angle_alpha 90.000000
_cell_angle_beta 90.000000
_cell_angle_gamma 90.000000
_cell_volume 1148.013782
_symmetry_space_group_name_H-M "P N A 21"
_symmetry_group_IT_number 33
_symmetry_cell_setting 'orthorhombic'
loop_
_space_group_symop_operation_xyz
x,y,z
-x,-y,1/2+z
1/2-x,1/2+y,1/2+z
1/2+x,1/2-y,z
loop_
_atom_site_type_symbol
_atom_site_label
_atom_site_fract_x
_atom_site_fract_y
_atom_site_fract_z
Si Si1 0.033188 0.626834 0.522770
Si Si2 0.476400 0.563442 0.978452
Si Si3 0.313107 0.492718 0.022034
Si Si4 0.565611 0.109405 0.520563
Si Si5 0.612904 0.694269 0.773749
Si Si6 0.254959 0.909482 0.015006
O O1 0.062676 0.512359 0.534961
O O2 0.100710 0.702749 0.624855
O O3 0.995206 0.646361 0.242673
O O4 0.963197 0.636686 0.735866
O O5 0.486730 0.493547 0.724974
O O6 0.381141 0.578681 0.026555
O O7 0.531345 0.659318 0.915989
O O8 0.269425 0.478449 0.754345
O O9 0.367777 0.392777 0.066236
O O10 0.252181 0.480703 0.260846
O O11 0.658061 0.137029 0.558430
O O12 0.688247 0.677443 0.964574
#
# Coordination Sequence:
#
# PCOD9344363 Si02
#       6
#     4   4   4   4   4   4
#     4  10  22  39  61  80 111 157 204 232 284 346
#     4  10  16  30  50  82 115 150 185 217 285 365
#     4   9  18  31  56  83 112 153 173 233 294 356
#     4  10  22  40  59  82 111 157 197 244 280 344
#     4   9  21  32  62  82 116 150 193 237 295 348
#     4  10  19  34  58  79 113 149 184 239 302 327
#
# _framework density 20.905671000000002
#
# number of rings (size 3 to 8) (size 9 to 14) (size 15 to 20)
#    1.000    1.333    1.667    1.000    2.333    0.000 
#    0.000    1.667    3.667    0.000    0.000    0.000 
#    0.000    0.000    0.000    0.000    0.000    0.000 
#
# Total GULP energy -133680.186276 kJ/mol
# GULP energy per Si atom -5570.007762 kJ/mol
# Density = 2.085809 g / cm^3
# Si number density = 20.905671 Si / 1000 Ang^3
#
#
#
# Elastic Constant Matrix: (Units=GPa)
#
#
# Indices 1 2 3 4 5 6 
#
# 1 41.4253 5.9022 -4.7939 0.0000 0.0000 0.0000
# 2 5.9022 34.6177 13.2971 0.0000 0.0000 0.0000
# 3 -4.7939 13.2971 115.1591 0.0000 0.0000 0.0000
# 4 0.0000 0.0000 0.0000 19.3981 0.0000 0.0000
# 5 0.0000 0.0000 0.0000 0.0000 20.6305 0.0000
# 6 0.0000 0.0000 0.0000 0.0000 0.0000 0.7538
#
#
#
# Elastic Compliance Matrix: (Units=1/GPa)
#
#
# Indices 1 2 3 4 5 6 
#
# 1 0.025021 -0.004883 0.001605 0.000000 0.000000 0.000000
# 2 -0.004883 0.031180 -0.003804 0.000000 0.000000 0.000000
# 3 0.001605 -0.003804 0.009190 0.000000 0.000000 0.000000
# 4 0.000000 0.000000 0.000000 0.051552 0.000000 0.000000
# 5 0.000000 0.000000 0.000000 0.000000 0.048472 0.000000
# 6 0.000000 0.000000 0.000000 0.000000 0.000000 1.326549
#
#
# Mechanical properties :
#
#
# Convention : Reuss Voigt Hill
#
# Bulk Modulus (GPa) = 19.51995 24.44587 21.98291
# Shear Modulus (GPa) = 3.28256 19.94291 11.61274
#
# Velocity S-wave (km/s) = 1.25443 3.09195 2.35942
# Velocity P-wave (km/s) = 3.38460 4.94628 4.23800
#
# Compressibility (1/GPa) = 0.05122963
#
# Stress axis : x y z
#
# Youngs Moduli (GPa) = 39.96594 32.07137 108.81792
#
# Poissons Ratio (x) = 0.15660 -0.17470
# Poissons Ratio (y) = 0.19514 0.41390
# Poissons Ratio (z) = -0.06416 0.12199
#
# Static dielectric constant tensor:
#      x y z
#    x 1.790580 0.000000 0.000000 
#    y 0.000000 1.760580 0.000000 
#    z 0.000000 0.000000 1.735640 
# 
# From -- ./inp_files/1357.got.cif
#   From: 2010.05.17/outbox.cif.g08.bks.cpg/sg33_1_cif.got.tgz:1357.got - 2010.06.03 17:15:25.
