data_PCOD9344719
_publ_section_title
;
Structure prediction by ZEFSAII (Michael W. Deem and Ramdas Pophale) SiO2 
 PCOD9344719
Probable space group: P N A 21
;
_chemical_formula_sum "Si O2"
_cell_formula_units_Z 28
_cell_length_a 15.888087
_cell_length_b 7.424985
_cell_length_c 10.009117
_cell_angle_alpha 90.000000
_cell_angle_beta 90.000000
_cell_angle_gamma 90.000000
_cell_volume 1180.763598
_symmetry_space_group_name_H-M "P N A 21"
_symmetry_group_IT_number 33
_symmetry_cell_setting 'orthorhombic'
loop_
_space_group_symop_operation_xyz
x,y,z
-x,-y,1/2+z
1/2-x,1/2+y,1/2+z
1/2+x,1/2-y,z
loop_
_atom_site_type_symbol
_atom_site_label
_atom_site_fract_x
_atom_site_fract_y
_atom_site_fract_z
Si Si1 0.277285 0.110296 0.773900
Si Si2 0.457514 0.152866 0.638757
Si Si3 0.724173 0.319622 0.258022
Si Si4 0.648428 0.868649 0.533974
Si Si5 0.112840 0.996056 0.046926
Si Si6 0.528021 0.170109 0.926993
Si Si7 0.785492 0.728465 0.026959
O O1 0.367091 0.159469 0.711434
O O2 0.210562 0.194534 0.674484
O O3 0.276186 0.895910 0.762588
O O4 0.281789 0.184975 0.923603
O O5 0.461317 0.352151 0.573852
O O6 0.450149 0.000134 0.523558
O O7 0.516856 0.121864 0.769522
O O8 0.809546 0.361429 0.178247
O O9 0.645555 0.400683 0.179086
O O10 0.717818 0.375993 0.411813
O O11 0.562316 0.776762 0.494865
O O12 0.639862 0.084552 0.507446
O O13 0.196274 0.879479 0.009740
O O14 0.085837 0.154277 0.946827
#
# Coordination Sequence:
#
# PCOD9344719 Si02
#       7
#     4   4   4   4   4   4   4
#     4   9  18  38  60  82 120 159 200 256 314 369
#     4  10  23  41  65  90 123 174 213 262 327 390
#     4  10  19  38  65  89 124 160 210 269 313 382
#     4   9  21  37  54  90 121 158 207 256 314 377
#     4  10  22  42  65  94 130 172 217 268 336 386
#     4  11  23  43  62  92 135 170 214 271 327 392
#     4   9  20  37  61  91 119 161 215 260 317 384
#
# _framework density 23.713466
#
# number of rings (size 3 to 8) (size 9 to 14) (size 15 to 20)
#    0.000    2.286    1.429    0.000    0.000    9.143 
#   10.286    0.000    0.000    0.000    0.000    0.000 
#    0.000    0.000    0.000    0.000    0.000    0.000 
#
# Total GULP energy -156035.208467 kJ/mol
# GULP energy per Si atom -5572.686017 kJ/mol
# Density = 2.365949 g / cm^3
# Si number density = 23.713466 Si / 1000 Ang^3
#
#
#
# Elastic Constant Matrix: (Units=GPa)
#
#
# Indices 1 2 3 4 5 6 
#
# 1 25.7938 -2.9441 -0.8881 0.0000 0.0000 0.0000
# 2 -2.9441 105.4298 24.9294 0.0000 0.0000 0.0000
# 3 -0.8881 24.9294 86.1661 0.0000 0.0000 0.0000
# 4 0.0000 0.0000 0.0000 20.2915 0.0000 0.0000
# 5 0.0000 0.0000 0.0000 0.0000 9.0712 0.0000
# 6 0.0000 0.0000 0.0000 0.0000 0.0000 57.8101
#
#
#
# Elastic Compliance Matrix: (Units=1/GPa)
#
#
# Indices 1 2 3 4 5 6 
#
# 1 0.038894 0.001064 0.000093 0.000000 0.000000 0.000000
# 2 0.001064 0.010211 -0.002943 0.000000 0.000000 0.000000
# 3 0.000093 -0.002943 0.012458 0.000000 0.000000 0.000000
# 4 0.000000 0.000000 0.000000 0.049282 0.000000 0.000000
# 5 0.000000 0.000000 0.000000 0.000000 0.110240 0.000000
# 6 0.000000 0.000000 0.000000 0.000000 0.000000 0.017298
#
#
# Mechanical properties :
#
#
# Convention : Reuss Voigt Hill
#
# Bulk Modulus (GPa) = 17.24432 28.84269 23.04350
# Shear Modulus (GPa) = 19.13630 30.52072 24.82851
#
# Velocity S-wave (km/s) = 2.84382 3.59146 3.23928
# Velocity P-wave (km/s) = 4.25098 5.42102 4.87126
#
# Compressibility (1/GPa) = 0.05799012
#
# Stress axis : x y z
#
# Youngs Moduli (GPa) = 25.71116 97.93718 80.26994
#
# Poissons Ratio (x) = -0.10422 -0.00747
# Poissons Ratio (y) = -0.02736 0.23625
# Poissons Ratio (z) = -0.00239 0.28824
#
# Static dielectric constant tensor:
#      x y z
#    x 1.941890 0.000000 0.000000 
#    y 0.000000 1.964510 0.000000 
#    z 0.000000 0.000000 2.056690 
# 
# From -- ./inp_files/4729.got.cif
#   From: 2010.05.17/outbox.cif.g08.bks.cpg/sg33_3_cif.got.tgz:4729.got - 2010.06.03 17:15:25.
