data_PCOD9344815
_publ_section_title
;
Structure prediction by ZEFSAII (Michael W. Deem and Ramdas Pophale) SiO2 
 PCOD9344815
Probable space group: P N A 21
;
_chemical_formula_sum "Si O2"
_cell_formula_units_Z 24
_cell_length_a 8.322804
_cell_length_b 8.904229
_cell_length_c 13.931438
_cell_angle_alpha 90.000000
_cell_angle_beta 90.000000
_cell_angle_gamma 90.000000
_cell_volume 1032.433135
_symmetry_space_group_name_H-M "P N A 21"
_symmetry_group_IT_number 33
_symmetry_cell_setting 'orthorhombic'
loop_
_space_group_symop_operation_xyz
x,y,z
-x,-y,1/2+z
1/2-x,1/2+y,1/2+z
1/2+x,1/2-y,z
loop_
_atom_site_type_symbol
_atom_site_label
_atom_site_fract_x
_atom_site_fract_y
_atom_site_fract_z
Si Si1 0.345411 0.439184 0.038780
Si Si2 0.482670 0.938831 0.431827
Si Si3 0.330707 0.520026 0.459401
Si Si4 0.123381 0.017361 0.744717
Si Si5 0.049615 0.696661 0.232265
Si Si6 0.115145 0.297726 0.532497
O O1 0.362586 0.410509 0.152924
O O2 0.361263 0.621383 0.026238
O O3 0.173761 0.402634 0.993724
O O4 0.510565 0.390907 0.987436
O O5 0.663503 0.886766 0.463214
O O6 0.517618 0.118342 0.447099
O O7 0.465120 0.882628 0.323369
O O8 0.354643 0.457845 0.351677
O O9 0.288291 0.380636 0.528022
O O10 0.967353 0.123898 0.743019
O O11 0.270193 0.135550 0.732358
O O12 0.969179 0.656392 0.131429
#
# Coordination Sequence:
#
# PCOD9344815 Si02
#       6
#     4   4   4   4   4   4
#     4  11  19  34  58  79 103 140 178 215 265 311
#     4   9  20  33  51  82 108 135 170 224 266 301
#     4   9  21  33  51  83 109 130 175 226 258 310
#     4  10  21  35  54  83 104 138 182 218 260 314
#     4  10  20  34  56  79 107 139 178 221 260 311
#     4   9  19  35  54  78 105 136 175 220 257 309
#
# _framework density 23.246057
#
# number of rings (size 3 to 8) (size 9 to 14) (size 15 to 20)
#    1.000    1.333    1.667    1.000    9.333    0.000 
#    0.000    0.000    0.000   12.000    0.000    0.000 
#    0.000    0.000    0.000    0.000    0.000    0.000 
#
# Total GULP energy -133861.743119 kJ/mol
# GULP energy per Si atom -5577.572630 kJ/mol
# Density = 2.319315 g / cm^3
# Si number density = 23.246057 Si / 1000 Ang^3
#
#
#
# Elastic Constant Matrix: (Units=GPa)
#
#
# Indices 1 2 3 4 5 6 
#
# 1 144.1858 16.7374 66.6433 0.0000 0.0000 0.0000
# 2 16.7374 48.4698 20.3451 0.0000 0.0000 0.0000
# 3 66.6433 20.3451 118.9861 0.0000 0.0000 0.0000
# 4 0.0000 0.0000 0.0000 22.6260 0.0000 0.0000
# 5 0.0000 0.0000 0.0000 0.0000 37.7414 0.0000
# 6 0.0000 0.0000 0.0000 0.0000 0.0000 41.9179
#
#
#
# Elastic Compliance Matrix: (Units=1/GPa)
#
#
# Indices 1 2 3 4 5 6 
#
# 1 0.009414 -0.001118 -0.005082 0.000000 0.000000 0.000000
# 2 -0.001118 0.022359 -0.003197 0.000000 0.000000 0.000000
# 3 -0.005082 -0.003197 0.011797 0.000000 0.000000 0.000000
# 4 0.000000 0.000000 0.000000 0.044197 0.000000 0.000000
# 5 0.000000 0.000000 0.000000 0.000000 0.026496 0.000000
# 6 0.000000 0.000000 0.000000 0.000000 0.000000 0.023856
#
#
# Mechanical properties :
#
#
# Convention : Reuss Voigt Hill
#
# Bulk Modulus (GPa) = 40.35909 57.67701 49.01805
# Shear Modulus (GPa) = 30.27151 34.31811 32.29481
#
# Velocity S-wave (km/s) = 3.61254 3.84643 3.73132
# Velocity P-wave (km/s) = 5.89915 6.67773 6.30048
#
# Compressibility (1/GPa) = 0.02477757
#
# Stress axis : x y z
#
# Youngs Moduli (GPa) = 106.22500 44.72399 84.76622
#
# Poissons Ratio (x) = 0.04999 0.43075
# Poissons Ratio (y) = 0.11874 0.27100
# Poissons Ratio (z) = 0.53979 0.14299
#
# Static dielectric constant tensor:
#      x y z
#    x 1.974050 0.000000 0.000000 
#    y 0.000000 1.930040 0.000000 
#    z 0.000000 0.000000 1.881520 
# 
# From -- ./inp_files/5895.got.cif
#   From: 2010.05.17/outbox.cif.g08.bks.cpg/sg33_3_cif.got.tgz:5895.got - 2010.06.03 17:15:25.
