data_PCOD9344950
_publ_section_title
;
Structure prediction by ZEFSAII (Michael W. Deem and Ramdas Pophale) SiO2 
 PCOD9344950
Probable space group: P N A 21
;
_chemical_formula_sum "Si O2"
_cell_formula_units_Z 32
_cell_length_a 12.250272
_cell_length_b 18.752928
_cell_length_c 5.297924
_cell_angle_alpha 90.000000
_cell_angle_beta 90.000000
_cell_angle_gamma 90.000000
_cell_volume 1217.083968
_symmetry_space_group_name_H-M "P N A 21"
_symmetry_group_IT_number 33
_symmetry_cell_setting 'orthorhombic'
loop_
_space_group_symop_operation_xyz
x,y,z
-x,-y,1/2+z
1/2-x,1/2+y,1/2+z
1/2+x,1/2-y,z
loop_
_atom_site_type_symbol
_atom_site_label
_atom_site_fract_x
_atom_site_fract_y
_atom_site_fract_z
Si Si1 0.445387 0.766945 0.959610
Si Si2 0.924125 0.585508 0.457427
Si Si3 0.307410 0.585607 0.875726
Si Si4 0.067865 0.081400 0.884083
Si Si5 0.318920 0.764848 0.456224
Si Si6 0.363561 0.925256 0.962567
Si Si7 0.364399 0.444080 0.625789
Si Si8 0.124496 0.681721 0.640658
O O1 0.361431 0.748040 0.737498
O O2 0.430828 0.852268 0.973029
O O3 0.564103 0.762421 0.831011
O O4 0.401705 0.740549 0.230752
O O5 0.829984 0.648804 0.443396
O O6 0.891460 0.540213 0.700390
O O7 0.034138 0.632562 0.496706
O O8 0.910057 0.538488 0.210288
O O9 0.395572 0.608752 0.656879
O O10 0.308774 0.501333 0.814293
O O11 0.199091 0.627367 0.800197
O O12 0.344951 0.594659 0.162383
O O13 0.950565 0.102397 0.776892
O O14 0.068651 0.995102 0.932034
O O15 0.201602 0.726900 0.450137
O O16 0.235557 0.909719 0.981205
#
# Coordination Sequence:
#
# PCOD9344950 Si02
#       8
#     4   4   4   4   4   4   4   4
#     4   9  21  39  56  88 113 153 200 243 302 364
#     4   9  21  38  54  88 112 151 195 240 297 356
#     4  10  22  35  56  91 112 160 200 231 310 361
#     4  10  21  36  57  82 120 150 201 240 295 351
#     4   9  19  37  61  82 110 158 197 233 308 364
#     4   9  19  34  61  79 114 153 192 234 300 344
#     4  10  20  38  59  81 120 158 189 256 291 348
#     4  10  21  41  64  81 131 161 186 267 303 354
#
# _framework density 26.292352999999999
#
# number of rings (size 3 to 8) (size 9 to 14) (size 15 to 20)
#    0.750    2.000    1.250    0.000    1.750    9.000 
#    0.000   15.000    0.000    0.000    0.000    0.000 
#    0.000    0.000    0.000    0.000    0.000    0.000 
#
# Total GULP energy -178500.082194 kJ/mol
# GULP energy per Si atom -5578.127569 kJ/mol
# Density = 2.623251 g / cm^3
# Si number density = 26.292353 Si / 1000 Ang^3
#
#
#
# Elastic Constant Matrix: (Units=GPa)
#
#
# Indices 1 2 3 4 5 6 
#
# 1 113.9503 7.2661 12.2250 0.0000 0.0000 0.0000
# 2 7.2661 32.1987 -11.1738 0.0000 0.0000 0.0000
# 3 12.2250 -11.1738 152.0182 0.0000 0.0000 0.0000
# 4 0.0000 0.0000 0.0000 -13.4372 0.0000 0.0000
# 5 0.0000 0.0000 0.0000 0.0000 42.4496 0.0000
# 6 0.0000 0.0000 0.0000 0.0000 0.0000 45.8760
#
#
#
# Elastic Compliance Matrix: (Units=1/GPa)
#
#
# Indices 1 2 3 4 5 6 
#
# 1 0.009022 -0.002348 -0.000898 0.000000 0.000000 0.000000
# 2 -0.002348 0.032481 0.002576 0.000000 0.000000 0.000000
# 3 -0.000898 0.002576 0.006840 0.000000 0.000000 0.000000
# 4 0.000000 0.000000 0.000000 -0.074420 0.000000 0.000000
# 5 0.000000 0.000000 0.000000 0.000000 0.023557 0.000000
# 6 0.000000 0.000000 0.000000 0.000000 0.000000 0.021798
#
#
# Mechanical properties :
#
#
# Convention : Reuss Voigt Hill
#
# Bulk Modulus (GPa) = 21.27494 34.97799 28.12647
# Shear Modulus (GPa) = 137.80239 34.30102 86.05171
#
# Velocity S-wave (km/s) = 7.24744 3.61584 5.72712
# Velocity P-wave (km/s) = 8.83986 5.54660 7.37929
#
# Compressibility (1/GPa) = 0.04700365
#
# Stress axis : x y z
#
# Youngs Moduli (GPa) = 110.84272 30.78734 146.20442
#
# Poissons Ratio (x) = 0.07227 0.13130
# Poissons Ratio (y) = 0.26021 -0.37666
# Poissons Ratio (z) = 0.09954 -0.07932
#
# Static dielectric constant tensor:
#      x y z
#    x 2.014470 0.000000 0.000000 
#    y 0.000000 2.144610 0.000000 
#    z 0.000000 0.000000 2.245230 
# 
# From -- ./inp_files/1051.got.cif
#   From: 2010.05.17/outbox.cif.g08.bks.cpg/sg33_1_cif.got.tgz:1051.got - 2010.06.03 17:15:25.
