data_PCOD9344769
_publ_section_title
;
Structure prediction by ZEFSAII (Michael W. Deem and Ramdas Pophale) SiO2 
 PCOD9344769
Probable space group: P N A 21
;
_chemical_formula_sum "Si O2"
_cell_formula_units_Z 28
_cell_length_a 11.877523
_cell_length_b 17.451096
_cell_length_c 6.307816
_cell_angle_alpha 90.000000
_cell_angle_beta 90.000000
_cell_angle_gamma 90.000000
_cell_volume 1307.457571
_symmetry_space_group_name_H-M "P N A 21"
_symmetry_group_IT_number 33
_symmetry_cell_setting 'orthorhombic'
loop_
_space_group_symop_operation_xyz
x,y,z
-x,-y,1/2+z
1/2-x,1/2+y,1/2+z
1/2+x,1/2-y,z
loop_
_atom_site_type_symbol
_atom_site_label
_atom_site_fract_x
_atom_site_fract_y
_atom_site_fract_z
Si Si1 0.793158 0.235463 0.503490
Si Si2 0.204549 0.037709 0.393095
Si Si3 0.866784 0.680283 0.680126
Si Si4 0.447362 0.645023 0.641271
Si Si5 0.832392 0.137672 0.884227
Si Si6 0.612930 0.860379 0.675999
Si Si7 0.269091 0.627025 0.286932
O O1 0.710695 0.175885 0.387973
O O2 0.863251 0.189015 0.679706
O O3 0.856204 0.286288 0.323405
O O4 0.724323 0.300246 0.631593
O O5 0.097016 0.089911 0.326898
O O6 0.313165 0.071192 0.272307
O O7 0.234227 0.052512 0.638755
O O8 0.179732 0.951380 0.332699
O O9 0.907704 0.768387 0.679379
O O10 0.786585 0.665545 0.480120
O O11 0.979448 0.630464 0.679103
O O12 0.575590 0.643343 0.570514
O O13 0.375463 0.619174 0.437514
O O14 0.662409 0.854554 0.438466
#
# Coordination Sequence:
#
# PCOD9344769 Si02
#       7
#     4   4   4   4   4   4   4
#     4  11  21  41  67 104 133 176 227 285 340 421
#     4  10  25  47  65 100 138 184 232 290 362 404
#     4  12  23  43  67 101 138 177 240 284 341 428
#     4  11  23  42  68  98 138 181 234 284 345 424
#     4  12  28  42  70 108 140 181 238 288 355 417
#     4  10  23  44  69  97 139 181 233 284 350 421
#     4  10  19  43  70  92 132 184 224 283 349 409
#
# _framework density 21.415610000000001
#
# number of rings (size 3 to 8) (size 9 to 14) (size 15 to 20)
#    0.000    1.143    5.714    1.714    4.000    5.714 
#    5.143    0.000    0.000    0.000    0.000    0.000 
#    0.000    0.000    0.000    0.000    0.000    0.000 
#
# Total GULP energy -156366.265400 kJ/mol
# GULP energy per Si atom -5584.509479 kJ/mol
# Density = 2.136687 g / cm^3
# Si number density = 21.415610 Si / 1000 Ang^3
#
#
#
# Elastic Constant Matrix: (Units=GPa)
#
#
# Indices 1 2 3 4 5 6 
#
# 1 106.1700 -2.1414 13.9494 0.0000 0.0000 0.0000
# 2 -2.1414 78.3989 1.6196 0.0000 0.0000 0.0000
# 3 13.9494 1.6196 82.1158 0.0000 0.0000 0.0000
# 4 0.0000 0.0000 0.0000 16.8576 0.0000 0.0000
# 5 0.0000 0.0000 0.0000 0.0000 17.7871 0.0000
# 6 0.0000 0.0000 0.0000 0.0000 0.0000 7.3761
#
#
#
# Elastic Compliance Matrix: (Units=1/GPa)
#
#
# Indices 1 2 3 4 5 6 
#
# 1 0.009641 0.000297 -0.001644 0.000000 0.000000 0.000000
# 2 0.000297 0.012770 -0.000302 0.000000 0.000000 0.000000
# 3 -0.001644 -0.000302 0.012463 0.000000 0.000000 0.000000
# 4 0.000000 0.000000 0.000000 0.059320 0.000000 0.000000
# 5 0.000000 0.000000 0.000000 0.000000 0.056220 0.000000
# 6 0.000000 0.000000 0.000000 0.000000 0.000000 0.135574
#
#
# Mechanical properties :
#
#
# Convention : Reuss Voigt Hill
#
# Bulk Modulus (GPa) = 31.66943 32.61555 32.14249
# Shear Modulus (GPa) = 16.67719 25.28798 20.98258
#
# Velocity S-wave (km/s) = 2.79362 3.44003 3.13354
# Velocity P-wave (km/s) = 5.02253 5.57147 5.30411
#
# Compressibility (1/GPa) = 0.03157619
#
# Stress axis : x y z
#
# Youngs Moduli (GPa) = 103.72587 78.31072 80.23695
#
# Poissons Ratio (x) = -0.02328 0.13188
# Poissons Ratio (y) = -0.03084 0.02426
# Poissons Ratio (z) = 0.17048 0.02368
#
# Static dielectric constant tensor:
#      x y z
#    x 1.786300 0.000000 0.000000 
#    y 0.000000 1.772530 0.000000 
#    z 0.000000 0.000000 1.838650 
# 
# From -- ./inp_files/930.got.cif
#   From: 2010.05.17/outbox.cif.g08.bks.cpg/sg33_1_cif.got.tgz:930.got - 2010.06.03 17:15:25.
