data_PCOD9344733
_publ_section_title
;
Structure prediction by ZEFSAII (Michael W. Deem and Ramdas Pophale) SiO2 
 PCOD9344733
Probable space group: P N A 21
;
_chemical_formula_sum "Si O2"
_cell_formula_units_Z 32
_cell_length_a 16.913736
_cell_length_b 5.272714
_cell_length_c 17.994727
_cell_angle_alpha 90.000000
_cell_angle_beta 90.000000
_cell_angle_gamma 90.000000
_cell_volume 1604.793014
_symmetry_space_group_name_H-M "P N A 21"
_symmetry_group_IT_number 33
_symmetry_cell_setting 'orthorhombic'
loop_
_space_group_symop_operation_xyz
x,y,z
-x,-y,1/2+z
1/2-x,1/2+y,1/2+z
1/2+x,1/2-y,z
loop_
_atom_site_type_symbol
_atom_site_label
_atom_site_fract_x
_atom_site_fract_y
_atom_site_fract_z
Si Si1 0.178386 0.170900 0.717800
Si Si2 0.700572 0.616291 0.857868
Si Si3 0.912364 0.322205 0.177991
Si Si4 0.356931 0.133543 0.898213
Si Si5 0.046438 0.866210 0.946082
Si Si6 0.514119 0.855768 0.519053
Si Si7 0.303299 0.489905 0.776817
Si Si8 0.043966 0.255219 0.301637
O O1 0.130756 0.408263 0.686003
O O2 0.269407 0.271978 0.722776
O O3 0.165988 0.110722 0.806048
O O4 0.147490 0.918900 0.676600
O O5 0.778530 0.537867 0.903189
O O6 0.631509 0.699991 0.911724
O O7 0.733798 0.811810 0.795983
O O8 0.965838 0.325452 0.104779
O O9 0.969632 0.296977 0.249057
O O10 0.324173 0.379455 0.857700
O O11 0.416265 0.003506 0.838420
O O12 0.403666 0.172178 0.973377
O O13 0.988200 0.890203 0.874619
O O14 0.018070 0.632289 0.996573
O O15 0.042141 0.131025 0.989446
O O16 0.385384 0.621694 0.755812
#
# Coordination Sequence:
#
# PCOD9344733 Si02
#       8
#     4   4   4   4   4   4   4   4
#     4  11  22  39  64  95 119 166 206 271 306 387
#     4  10  21  37  69  96 120 156 221 268 317 365
#     4  12  25  41  66  93 135 171 214 259 330 382
#     4   9  21  37  65  92 126 161 212 264 315 376
#     4  11  22  40  66  92 122 165 217 262 313 377
#     4  11  25  43  61  94 132 175 205 261 329 385
#     4  10  19  39  64  98 121 156 213 272 316 366
#     4  10  21  36  65  96 121 164 212 275 306 376
#
# _framework density 19.940266000000001
#
# number of rings (size 3 to 8) (size 9 to 14) (size 15 to 20)
#    0.000    1.500    3.750    0.750    8.750    0.000 
#    0.000    1.250    5.500    0.000    0.000    0.000 
#    0.000    0.000    0.000    0.000    0.000    0.000 
#
# Total GULP energy -178368.008404 kJ/mol
# GULP energy per Si atom -5574.000263 kJ/mol
# Density = 1.989488 g / cm^3
# Si number density = 19.940266 Si / 1000 Ang^3
#
#
#
# Elastic Constant Matrix: (Units=GPa)
#
#
# Indices 1 2 3 4 5 6 
#
# 1 44.6690 21.3891 -12.4335 0.0000 0.0000 0.0000
# 2 21.3891 84.4942 5.3993 0.0000 0.0000 0.0000
# 3 -12.4335 5.3993 40.5598 0.0000 0.0000 0.0000
# 4 0.0000 0.0000 0.0000 19.1586 0.0000 0.0000
# 5 0.0000 0.0000 0.0000 0.0000 19.3860 0.0000
# 6 0.0000 0.0000 0.0000 0.0000 0.0000 14.4437
#
#
#
# Elastic Compliance Matrix: (Units=1/GPa)
#
#
# Indices 1 2 3 4 5 6 
#
# 1 0.028970 -0.007969 0.009941 0.000000 0.000000 0.000000
# 2 -0.007969 0.014129 -0.004324 0.000000 0.000000 0.000000
# 3 0.009941 -0.004324 0.028278 0.000000 0.000000 0.000000
# 4 0.000000 0.000000 0.000000 0.052196 0.000000 0.000000
# 5 0.000000 0.000000 0.000000 0.000000 0.051584 0.000000
# 6 0.000000 0.000000 0.000000 0.000000 0.000000 0.069234
#
#
# Mechanical properties :
#
#
# Convention : Reuss Voigt Hill
#
# Bulk Modulus (GPa) = 14.99823 22.04809 18.52316
# Shear Modulus (GPa) = 18.42863 20.95553 19.69208
#
# Velocity S-wave (km/s) = 3.04335 3.24530 3.14595
# Velocity P-wave (km/s) = 4.45951 5.01235 4.74399
#
# Compressibility (1/GPa) = 0.06667452
#
# Stress axis : x y z
#
# Youngs Moduli (GPa) = 34.51873 70.77814 35.36316
#
# Poissons Ratio (x) = 0.56401 -0.35156
# Poissons Ratio (y) = 0.27507 0.15290
# Poissons Ratio (z) = -0.34316 0.30602
#
# Static dielectric constant tensor:
#      x y z
#    x 1.751450 0.000000 0.000000 
#    y 0.000000 1.777170 0.000000 
#    z 0.000000 0.000000 1.656590 
# 
# From -- ./inp_files/8279.got.cif
#   From: 2010.05.17/outbox.cif.g08.bks.cpg/sg33_5_cif.got.tgz:8279.got - 2010.06.03 17:15:25.
