data_PCOD9344819
_publ_section_title
;
Structure prediction by ZEFSAII (Michael W. Deem and Ramdas Pophale) SiO2 
 PCOD9344819
Probable space group: P N A 21
;
_chemical_formula_sum "Si O2"
_cell_formula_units_Z 32
_cell_length_a 17.114283
_cell_length_b 14.144303
_cell_length_c 4.956813
_cell_angle_alpha 90.000000
_cell_angle_beta 90.000000
_cell_angle_gamma 90.000000
_cell_volume 1199.893762
_symmetry_space_group_name_H-M "P N A 21"
_symmetry_group_IT_number 33
_symmetry_cell_setting 'orthorhombic'
loop_
_space_group_symop_operation_xyz
x,y,z
-x,-y,1/2+z
1/2-x,1/2+y,1/2+z
1/2+x,1/2-y,z
loop_
_atom_site_type_symbol
_atom_site_label
_atom_site_fract_x
_atom_site_fract_y
_atom_site_fract_z
Si Si1 0.583524 0.291765 0.875000
Si Si2 0.691208 0.000717 0.500288
Si Si3 0.572251 0.768506 0.090417
Si Si4 0.327517 0.722732 0.871612
Si Si5 0.052327 0.006048 0.709617
Si Si6 0.205736 0.001065 0.470615
Si Si7 0.019034 0.450130 0.413119
Si Si8 0.668598 0.778040 0.596460
O O1 0.499016 0.277756 0.748854
O O2 0.648622 0.250630 0.672781
O O3 0.591707 0.404950 0.860841
O O4 0.599505 0.257084 0.174303
O O5 0.732675 0.993923 0.212599
O O6 0.672271 0.893821 0.603645
O O7 0.610622 0.056725 0.473693
O O8 0.752142 0.043154 0.713401
O O9 0.537806 0.872826 0.039523
O O10 0.646540 0.761149 0.287369
O O11 0.601143 0.740908 0.795129
O O12 0.250130 0.758079 0.721089
O O13 0.317063 0.608663 0.889125
O O14 0.125760 0.953654 0.573620
O O15 0.999233 0.036409 0.451762
O O16 0.006514 0.459151 0.093984
#
# Coordination Sequence:
#
# PCOD9344819 Si02
#       8
#     4   4   4   4   4   4   4   4
#     4  11  23  40  62  89 118 157 199 248 302 361
#     4  11  19  34  58  86 122 149 199 243 277 342
#     4  12  23  38  60  89 123 159 196 243 301 354
#     4  10  20  38  62  87 114 151 208 250 281 351
#     4  11  21  38  64  87 114 146 198 251 306 351
#     4  10  20  34  59  90 111 149 196 246 294 343
#     4  12  22  37  57  90 125 163 197 238 289 349
#     4  11  20  35  62  90 111 156 203 247 282 339
#
# _framework density 26.669025000000001
#
# number of rings (size 3 to 8) (size 9 to 14) (size 15 to 20)
#    0.000    1.000    2.500    9.000    0.000    0.000 
#    0.000    0.000   16.500    0.000    0.000    0.000 
#    0.000    0.000    0.000    0.000    0.000    0.000 
#
# Total GULP energy -179162.571724 kJ/mol
# GULP energy per Si atom -5598.830366 kJ/mol
# Density = 2.660833 g / cm^3
# Si number density = 26.669025 Si / 1000 Ang^3
#
#
#
# Elastic Constant Matrix: (Units=GPa)
#
#
# Indices 1 2 3 4 5 6 
#
# 1 79.5906 7.1362 26.2523 0.0000 0.0000 0.0000
# 2 7.1362 48.5881 5.7600 0.0000 0.0000 0.0000
# 3 26.2523 5.7600 161.3107 0.0000 0.0000 0.0000
# 4 0.0000 0.0000 0.0000 7.2262 0.0000 0.0000
# 5 0.0000 0.0000 0.0000 0.0000 66.3208 0.0000
# 6 0.0000 0.0000 0.0000 0.0000 0.0000 13.6729
#
#
#
# Elastic Compliance Matrix: (Units=1/GPa)
#
#
# Indices 1 2 3 4 5 6 
#
# 1 0.013418 -0.001719 -0.002122 0.000000 0.000000 0.000000
# 2 -0.001719 0.020889 -0.000466 0.000000 0.000000 0.000000
# 3 -0.002122 -0.000466 0.006561 0.000000 0.000000 0.000000
# 4 0.000000 0.000000 0.000000 0.138386 0.000000 0.000000
# 5 0.000000 0.000000 0.000000 0.000000 0.015078 0.000000
# 6 0.000000 0.000000 0.000000 0.000000 0.000000 0.073137
#
#
# Mechanical properties :
#
#
# Convention : Reuss Voigt Hill
#
# Bulk Modulus (GPa) = 31.00458 40.86517 35.93487
# Shear Modulus (GPa) = 17.43154 34.13339 25.78246
#
# Velocity S-wave (km/s) = 2.55938 3.58143 3.11264
# Velocity P-wave (km/s) = 4.51496 5.69724 5.14021
#
# Compressibility (1/GPa) = 0.03225330
#
# Stress axis : x y z
#
# Youngs Moduli (GPa) = 74.52404 47.87227 152.40967
#
# Poissons Ratio (x) = 0.08230 0.32347
# Poissons Ratio (y) = 0.12812 0.07104
# Poissons Ratio (z) = 0.15817 0.02231
#
# Static dielectric constant tensor:
#      x y z
#    x 2.088310 0.000000 0.000000 
#    y 0.000000 2.166100 0.000000 
#    z 0.000000 0.000000 1.988980 
# 
# From -- ./inp_files/1469.got.cif
#   From: 2010.05.17/outbox.cif.g08.bks.cpg/sg33_1_cif.got.tgz:1469.got - 2010.06.03 17:15:25.
