data_PCOD9344187
_publ_section_title
;
Structure prediction by ZEFSAII (Michael W. Deem and Ramdas Pophale) SiO2 
 PCOD9344187
Probable space group: P B A 2
;
_chemical_formula_sum "Si O2"
_cell_formula_units_Z 26
_cell_length_a 8.496577
_cell_length_b 11.433166
_cell_length_c 11.084848
_cell_angle_alpha 90.000000
_cell_angle_beta 90.000000
_cell_angle_gamma 90.000000
_cell_volume 1076.812898
_symmetry_space_group_name_H-M "P B A 2"
_symmetry_group_IT_number 32
_symmetry_cell_setting 'orthorhombic'
loop_
_space_group_symop_operation_xyz
x,y,z
-x,-y,z
1/2-x,1/2+y,z
1/2+x,1/2-y,z
loop_
_atom_site_type_symbol
_atom_site_label
_atom_site_fract_x
_atom_site_fract_y
_atom_site_fract_z
Si Si1 0.236026 0.331133 0.918110
Si Si2 0.741422 0.332427 0.140197
Si Si3 0.500000 0.000000 0.811866
Si Si4 0.252301 0.152773 0.697709
Si Si5 0.792400 0.666784 0.364419
Si Si6 0.022418 0.807579 0.532303
Si Si7 0.000000 0.500000 0.207496
Si Si8 0.500000 0.500000 0.003585
O O1 0.075384 0.399171 0.891689
O O2 0.232823 0.226418 0.820867
O O3 0.242719 0.275237 0.049161
O O4 0.382765 0.421964 0.920634
O O5 0.730970 0.276128 0.272950
O O6 0.604052 0.416901 0.090692
O O7 0.902951 0.404323 0.134469
O O8 0.356268 0.041479 0.729507
O O9 0.358304 0.236753 0.615869
O O10 0.095957 0.125949 0.621923
O O11 0.631487 0.631359 0.431826
O O12 0.917132 0.712878 0.461564
O O13 0.869860 0.562855 0.289912
#
# Coordination Sequence:
#
# PCOD9344187 Si02
#       8
#     4   4   2   4   4   4   2   2
#     4  12  27  49  75 112 153 193 258 325 381 472
#     4  12  27  49  75 112 153 193 258 325 381 472
#     4  12  26  48  82 110 154 211 253 308 412 452
#     4  11  24  49  75 113 152 201 255 320 376 466
#     4  11  24  49  75 113 152 201 255 320 376 466
#     4  10  24  49  75 106 160 196 252 326 372 442
#     4  12  26  48  82 110 154 211 253 308 412 452
#     4  12  28  42  76 112 152 202 248 312 410 452
#
# _framework density 24.145329
#
# number of rings (size 3 to 8) (size 9 to 14) (size 15 to 20)
#    0.000    0.615    3.077    3.692    4.308    4.923 
#    0.000    1.538    0.000    0.000    0.000    0.000 
#    0.000    0.000    0.000    0.000    0.000    0.000 
#
# Total GULP energy -145700.880445 kJ/mol
# GULP energy per Si atom -5603.880017 kJ/mol
# Density = 2.409037 g / cm^3
# Si number density = 24.145329 Si / 1000 Ang^3
#
#
#
# Elastic Constant Matrix: (Units=GPa)
#
#
# Indices 1 2 3 4 5 6 
#
# 1 156.9773 34.6115 47.6606 0.0000 0.0000 0.0000
# 2 34.6115 51.4502 -2.0139 0.0000 0.0000 0.0000
# 3 47.6606 -2.0139 74.8120 0.0000 0.0000 0.0000
# 4 0.0000 0.0000 0.0000 -1.3209 0.0000 0.0000
# 5 0.0000 0.0000 0.0000 0.0000 60.5727 0.0000
# 6 0.0000 0.0000 0.0000 0.0000 0.0000 56.4489
#
#
#
# Elastic Compliance Matrix: (Units=1/GPa)
#
#
# Indices 1 2 3 4 5 6 
#
# 1 0.009848 -0.006878 -0.006459 0.000000 0.000000 0.000000
# 2 -0.006878 0.024260 0.005035 0.000000 0.000000 0.000000
# 3 -0.006459 0.005035 0.017617 0.000000 0.000000 0.000000
# 4 0.000000 0.000000 0.000000 -0.757046 0.000000 0.000000
# 5 0.000000 0.000000 0.000000 0.000000 0.016509 0.000000
# 6 0.000000 0.000000 0.000000 0.000000 0.000000 0.017715
#
#
# Mechanical properties :
#
#
# Convention : Reuss Voigt Hill
#
# Bulk Modulus (GPa) = 28.47286 49.30620 38.88953
# Shear Modulus (GPa) = -7.77864 36.67221 14.44678
#
# Velocity S-wave (km/s) = -1.79683 3.90142 2.44872
# Velocity P-wave (km/s) = 2.74100 6.38433 4.91288
#
# Compressibility (1/GPa) = 0.03512117
#
# Stress axis : x y z
#
# Youngs Moduli (GPa) = 101.54569 41.22007 56.76291
#
# Poissons Ratio (x) = 0.28350 0.36663
# Poissons Ratio (y) = 0.69839 -0.28578
# Poissons Ratio (z) = 0.65587 -0.20753
#
# Static dielectric constant tensor:
#      x y z
#    x 1.943770 0.000000 0.000000 
#    y 0.000000 1.917080 0.000000 
#    z 0.000000 0.000000 1.915340 
# 
# From -- ./inp_files/3707.got.cif
#   From: 2010.05.17/outbox.cif.g08.bks.cpg/sg32_2_cif.got.tgz:3707.got - 2010.06.03 17:12:27.
