data_PCOD9344952
_publ_section_title
;
Structure prediction by ZEFSAII (Michael W. Deem and Ramdas Pophale) SiO2 
 PCOD9344952
Probable space group: P N A 21
;
_chemical_formula_sum "Si O2"
_cell_formula_units_Z 24
_cell_length_a 7.366478
_cell_length_b 18.747689
_cell_length_c 8.420951
_cell_angle_alpha 90.000000
_cell_angle_beta 90.000000
_cell_angle_gamma 90.000000
_cell_volume 1162.970710
_symmetry_space_group_name_H-M "P N A 21"
_symmetry_group_IT_number 33
_symmetry_cell_setting 'orthorhombic'
loop_
_space_group_symop_operation_xyz
x,y,z
-x,-y,1/2+z
1/2-x,1/2+y,1/2+z
1/2+x,1/2-y,z
loop_
_atom_site_type_symbol
_atom_site_label
_atom_site_fract_x
_atom_site_fract_y
_atom_site_fract_z
Si Si1 0.254619 0.624235 0.555680
Si Si2 0.985747 0.629636 0.828335
Si Si3 0.174987 0.753360 0.357571
Si Si4 0.942758 0.535169 0.391352
Si Si5 0.338245 0.383246 0.102210
Si Si6 0.399797 0.837899 0.169967
O O1 0.127406 0.656263 0.695665
O O2 0.289250 0.686112 0.426559
O O3 0.128119 0.564549 0.472477
O O4 0.449505 0.598640 0.619598
O O5 0.042218 0.547603 0.857352
O O6 0.781996 0.630044 0.758098
O O7 0.983101 0.668016 0.997268
O O8 0.170529 0.811628 0.496488
O O9 0.208517 0.799704 0.196604
O O10 0.999528 0.707343 0.307338
O O11 0.776300 0.556873 0.506309
O O12 0.909704 0.581018 0.230945
#
# Coordination Sequence:
#
# PCOD9344952 Si02
#       6
#     4   4   4   4   4   4
#     4  10  21  39  65  87 119 171 203 248 307 376
#     4  11  23  39  59  97 125 154 208 265 306 345
#     4  10  20  40  60  82 122 166 208 240 312 374
#     4   9  21  41  63  85 123 163 201 251 311 373
#     4  10  21  39  65  87 119 171 203 248 307 376
#     4  10  20  38  60  86 120 155 197 266 301 356
#
# _framework density 20.636806
#
# number of rings (size 3 to 8) (size 9 to 14) (size 15 to 20)
#    0.000    2.000    1.667    3.000    0.000    2.667 
#    3.000    0.000    0.000    0.000    0.000    0.000 
#    0.000    0.000    0.000    0.000    0.000    0.000 
#
# Total GULP energy -133651.518321 kJ/mol
# GULP energy per Si atom -5568.813263 kJ/mol
# Density = 2.058984 g / cm^3
# Si number density = 20.636806 Si / 1000 Ang^3
#
#
#
# Elastic Constant Matrix: (Units=GPa)
#
#
# Indices 1 2 3 4 5 6 
#
# 1 100.0401 -3.2157 13.2441 0.0000 0.0000 0.0000
# 2 -3.2157 69.3395 8.6637 0.0000 0.0000 0.0000
# 3 13.2441 8.6637 70.0601 0.0000 0.0000 0.0000
# 4 0.0000 0.0000 0.0000 18.4679 0.0000 0.0000
# 5 0.0000 0.0000 0.0000 0.0000 11.9133 0.0000
# 6 0.0000 0.0000 0.0000 0.0000 0.0000 16.1071
#
#
#
# Elastic Compliance Matrix: (Units=1/GPa)
#
#
# Indices 1 2 3 4 5 6 
#
# 1 0.010289 0.000731 -0.002035 0.000000 0.000000 0.000000
# 2 0.000731 0.014700 -0.001956 0.000000 0.000000 0.000000
# 3 -0.002035 -0.001956 0.014900 0.000000 0.000000 0.000000
# 4 0.000000 0.000000 0.000000 0.054148 0.000000 0.000000
# 5 0.000000 0.000000 0.000000 0.000000 0.083940 0.000000
# 6 0.000000 0.000000 0.000000 0.000000 0.000000 0.062085
#
#
# Mechanical properties :
#
#
# Convention : Reuss Voigt Hill
#
# Bulk Modulus (GPa) = 29.96790 30.75822 30.36306
# Shear Modulus (GPa) = 19.40205 24.01416 21.70810
#
# Velocity S-wave (km/s) = 3.06954 3.41494 3.24684
# Velocity P-wave (km/s) = 5.20729 5.52141 5.36665
#
# Compressibility (1/GPa) = 0.03336903
#
# Stress axis : x y z
#
# Youngs Moduli (GPa) = 97.19137 68.02660 67.11341
#
# Poissons Ratio (x) = -0.04976 0.13661
# Poissons Ratio (y) = -0.07109 0.13128
# Poissons Ratio (z) = 0.19783 0.13307
#
# Static dielectric constant tensor:
#      x y z
#    x 1.983390 0.000000 0.000000 
#    y 0.000000 1.818540 0.000000 
#    z 0.000000 0.000000 1.760700 
# 
# From -- ./inp_files/3277.got.cif
#   From: 2010.05.17/outbox.cif.g08.bks.cpg/sg33_2_cif.got.tgz:3277.got - 2010.06.03 17:15:25.
