data_PCOD9344064
_publ_section_title
;
Structure prediction by ZEFSAII (Michael W. Deem and Ramdas Pophale) SiO2 
 PCOD9344064
Probable space group: P B A 2
;
_chemical_formula_sum "Si O2"
_cell_formula_units_Z 30
_cell_length_a 18.366678
_cell_length_b 13.274655
_cell_length_c 5.571923
_cell_angle_alpha 90.000000
_cell_angle_beta 90.000000
_cell_angle_gamma 90.000000
_cell_volume 1358.497868
_symmetry_space_group_name_H-M "P B A 2"
_symmetry_group_IT_number 32
_symmetry_cell_setting 'orthorhombic'
loop_
_space_group_symop_operation_xyz
x,y,z
-x,-y,z
1/2-x,1/2+y,z
1/2+x,1/2-y,z
loop_
_atom_site_type_symbol
_atom_site_label
_atom_site_fract_x
_atom_site_fract_y
_atom_site_fract_z
Si Si1 0.116220 0.003754 0.168260
Si Si2 0.731478 0.471924 0.530067
Si Si3 0.680460 0.820025 0.805410
Si Si4 0.004484 0.170686 0.118605
Si Si5 0.755128 0.116211 0.918881
Si Si6 0.000000 0.500000 0.469024
Si Si7 0.143547 0.508598 0.154891
Si Si8 0.968967 0.282344 0.617003
O O1 0.150542 0.021913 0.430552
O O2 0.079256 0.108009 0.093676
O O3 0.057039 0.915558 0.153571
O O4 0.184270 0.961984 0.017437
O O5 0.750524 0.380170 0.703620
O O6 0.750791 0.580263 0.644640
O O7 0.791683 0.455031 0.326944
O O8 0.712006 0.725686 0.948417
O O9 0.619847 0.781102 0.617128
O O10 0.637527 0.903335 0.959694
O O11 0.998687 0.234796 0.366487
O O12 0.990371 0.228398 0.867681
O O13 0.677658 0.091830 0.037006
O O14 0.070931 0.494716 0.301895
O O15 0.004916 0.602190 0.619241
#
# Coordination Sequence:
#
# PCOD9344064 Si02
#       8
#     4   4   4   4   4   2   4   4
#     4  10  23  42  72 104 153 180 241 319 364 454
#     4  10  22  43  66 102 142 187 245 300 379 417
#     4  11  22  44  75  99 145 192 257 291 375 455
#     4  11  26  45  73 111 145 190 249 297 389 435
#     4  10  22  43  72 103 139 196 243 306 374 443
#     4  12  26  50  72  98 158 186 262 306 370 454
#     4  10  24  46  67 105 137 198 237 315 368 435
#     4  12  26  46  74 104 142 203 242 301 371 444
#
# _framework density 22.083214000000002
#
# number of rings (size 3 to 8) (size 9 to 14) (size 15 to 20)
#    0.000    1.333    2.667    1.600    1.867    5.333 
#    9.600    0.000    0.000    0.000    0.000    0.000 
#    0.000    0.000    0.000    0.000    0.000    0.000 
#
# Total GULP energy -167495.384393 kJ/mol
# GULP energy per Si atom -5583.179480 kJ/mol
# Density = 2.203295 g / cm^3
# Si number density = 22.083214 Si / 1000 Ang^3
#
#
#
# Elastic Constant Matrix: (Units=GPa)
#
#
# Indices 1 2 3 4 5 6 
#
# 1 81.7361 50.2826 33.8850 0.0000 0.0000 0.0000
# 2 50.2826 136.7861 59.7125 0.0000 0.0000 0.0000
# 3 33.8850 59.7125 96.9091 0.0000 0.0000 0.0000
# 4 0.0000 0.0000 0.0000 15.2010 0.0000 0.0000
# 5 0.0000 0.0000 0.0000 0.0000 35.5382 0.0000
# 6 0.0000 0.0000 0.0000 0.0000 0.0000 23.8726
#
#
#
# Elastic Compliance Matrix: (Units=1/GPa)
#
#
# Indices 1 2 3 4 5 6 
#
# 1 0.016329 -0.004802 -0.002751 0.000000 0.000000 0.000000
# 2 -0.004802 0.011413 -0.005353 0.000000 0.000000 0.000000
# 3 -0.002751 -0.005353 0.014579 0.000000 0.000000 0.000000
# 4 0.000000 0.000000 0.000000 0.065785 0.000000 0.000000
# 5 0.000000 0.000000 0.000000 0.000000 0.028139 0.000000
# 6 0.000000 0.000000 0.000000 0.000000 0.000000 0.041889
#
#
# Mechanical properties :
#
#
# Convention : Reuss Voigt Hill
#
# Bulk Modulus (GPa) = 60.57176 67.02128 63.79652
# Shear Modulus (GPa) = 23.87223 26.35909 25.11566
#
# Velocity S-wave (km/s) = 3.29144 3.45864 3.37607
# Velocity P-wave (km/s) = 6.47559 6.80918 6.64447
#
# Compressibility (1/GPa) = 0.01650934
#
# Stress axis : x y z
#
# Youngs Moduli (GPa) = 61.24158 87.62216 68.59038
#
# Poissons Ratio (x) = 0.42073 0.18868
# Poissons Ratio (y) = 0.29406 0.36718
# Poissons Ratio (z) = 0.16847 0.46906
#
# Static dielectric constant tensor:
#      x y z
#    x 1.790670 0.000000 0.000000 
#    y 0.000000 1.800880 0.000000 
#    z 0.000000 0.000000 1.939960 
# 
# From -- ./inp_files/1465.got.cif
#   From: 2010.05.17/outbox.cif.g08.bks.cpg/sg32_1_cif.got.tgz:1465.got - 2010.06.03 17:12:27.
