data_PCOD9344543
_publ_section_title
;
Structure prediction by ZEFSAII (Michael W. Deem and Ramdas Pophale) SiO2 
 PCOD9344543
Probable space group: P N A 21
;
_chemical_formula_sum "Si O2"
_cell_formula_units_Z 32
_cell_length_a 18.820846
_cell_length_b 13.073319
_cell_length_c 7.353028
_cell_angle_alpha 90.000000
_cell_angle_beta 90.000000
_cell_angle_gamma 90.000000
_cell_volume 1809.219331
_symmetry_space_group_name_H-M "P N A 21"
_symmetry_group_IT_number 33
_symmetry_cell_setting 'orthorhombic'
loop_
_space_group_symop_operation_xyz
x,y,z
-x,-y,1/2+z
1/2-x,1/2+y,1/2+z
1/2+x,1/2-y,z
loop_
_atom_site_type_symbol
_atom_site_label
_atom_site_fract_x
_atom_site_fract_y
_atom_site_fract_z
Si Si1 0.118632 0.140550 0.314970
Si Si2 0.343959 0.726236 0.419634
Si Si3 0.364128 0.401310 0.752101
Si Si4 0.239989 0.134661 0.599095
Si Si5 0.985383 0.877932 0.340407
Si Si6 0.965914 0.115680 0.259385
Si Si7 0.249684 0.391631 0.052031
Si Si8 0.318932 0.307693 0.402632
O O1 0.171401 0.163506 0.477393
O O2 0.036174 0.161535 0.354674
O O3 0.120032 0.019070 0.286630
O O4 0.145628 0.185142 0.124571
O O5 0.283015 0.668787 0.301770
O O6 0.419800 0.699740 0.328625
O O7 0.317410 0.842073 0.448840
O O8 0.442737 0.353683 0.729362
O O9 0.319294 0.387027 0.570032
O O10 0.317377 0.366789 0.922959
O O11 0.301819 0.201171 0.503781
O O12 0.253263 0.013567 0.581788
O O13 0.014567 0.878793 0.546928
O O14 0.957586 0.993889 0.301812
O O15 0.895842 0.177026 0.311423
O O16 0.263669 0.337795 0.245613
#
# Coordination Sequence:
#
# PCOD9344543 Si02
#       8
#     4   4   4   4   4   4   4   4
#     4   9  20  35  54  83 116 143 184 234 281 336
#     4  11  21  37  55  84 116 150 184 228 286 339
#     4  10  20  35  55  86 115 145 186 236 288 336
#     4  11  23  35  58  82 112 157 188 227 280 338
#     4  10  20  33  57  88 116 143 184 241 296 339
#     4  10  19  32  54  87 114 144 181 239 292 338
#     4  11  22  39  54  82 121 147 194 230 273 348
#     4  12  21  36  57  84 116 153 183 229 292 336
#
# _framework density 17.687186000000001
#
# number of rings (size 3 to 8) (size 9 to 14) (size 15 to 20)
#    0.000    1.500    3.750    3.750    5.250    0.000 
#    0.000    0.000    0.000    3.000    0.000    0.000 
#    0.000    0.000    0.000    0.000    0.000    0.000 
#
# Total GULP energy -178329.604543 kJ/mol
# GULP energy per Si atom -5572.800142 kJ/mol
# Density = 1.764693 g / cm^3
# Si number density = 17.687186 Si / 1000 Ang^3
#
#
#
# Elastic Constant Matrix: (Units=GPa)
#
#
# Indices 1 2 3 4 5 6 
#
# 1 72.4906 40.6358 19.8978 0.0000 0.0000 0.0000
# 2 40.6358 45.9585 14.3778 0.0000 0.0000 0.0000
# 3 19.8978 14.3778 65.3415 0.0000 0.0000 0.0000
# 4 0.0000 0.0000 0.0000 22.2708 0.0000 0.0000
# 5 0.0000 0.0000 0.0000 0.0000 23.8394 0.0000
# 6 0.0000 0.0000 0.0000 0.0000 0.0000 30.2561
#
#
#
# Elastic Compliance Matrix: (Units=1/GPa)
#
#
# Indices 1 2 3 4 5 6 
#
# 1 0.028001 -0.023724 -0.003307 0.000000 0.000000 0.000000
# 2 -0.023724 0.043467 -0.002340 0.000000 0.000000 0.000000
# 3 -0.003307 -0.002340 0.016826 0.000000 0.000000 0.000000
# 4 0.000000 0.000000 0.000000 0.044902 0.000000 0.000000
# 5 0.000000 0.000000 0.000000 0.000000 0.041947 0.000000
# 6 0.000000 0.000000 0.000000 0.000000 0.000000 0.033051
#
#
# Mechanical properties :
#
#
# Convention : Reuss Voigt Hill
#
# Bulk Modulus (GPa) = 33.83745 37.06816 35.45281
# Shear Modulus (GPa) = 18.06438 22.53186 20.29812
#
# Velocity S-wave (km/s) = 3.19929 3.57306 3.39133
# Velocity P-wave (km/s) = 5.72886 6.16648 5.95169
#
# Compressibility (1/GPa) = 0.02955305
#
# Stress axis : x y z
#
# Youngs Moduli (GPa) = 35.71248 23.00588 59.43143
#
# Poissons Ratio (x) = 0.54579 0.19653
# Poissons Ratio (y) = 0.84724 0.13908
# Poissons Ratio (z) = 0.11809 0.05384
#
# Static dielectric constant tensor:
#      x y z
#    x 1.676850 0.000000 0.000000 
#    y 0.000000 1.583630 0.000000 
#    z 0.000000 0.000000 1.659330 
# 
# From -- ./inp_files/4883.got.cif
#   From: 2010.05.17/outbox.cif.g08.bks.cpg/sg33_3_cif.got.tgz:4883.got - 2010.06.03 17:15:25.
