data_PCOD9344561
_publ_section_title
;
Structure prediction by ZEFSAII (Michael W. Deem and Ramdas Pophale) SiO2 
 PCOD9344561
Probable space group: P N A 21
;
_chemical_formula_sum "Si O2"
_cell_formula_units_Z 32
_cell_length_a 7.605540
_cell_length_b 17.797317
_cell_length_c 12.402505
_cell_angle_alpha 90.000000
_cell_angle_beta 90.000000
_cell_angle_gamma 90.000000
_cell_volume 1678.780831
_symmetry_space_group_name_H-M "P N A 21"
_symmetry_group_IT_number 33
_symmetry_cell_setting 'orthorhombic'
loop_
_space_group_symop_operation_xyz
x,y,z
-x,-y,1/2+z
1/2-x,1/2+y,1/2+z
1/2+x,1/2-y,z
loop_
_atom_site_type_symbol
_atom_site_label
_atom_site_fract_x
_atom_site_fract_y
_atom_site_fract_z
Si Si1 0.859871 0.929838 0.745130
Si Si2 0.359873 0.570160 0.999592
Si Si3 0.677501 0.690747 0.372360
Si Si4 0.651189 0.604094 0.576386
Si Si5 0.542120 0.912919 0.604125
Si Si6 0.957878 0.412921 0.640598
Si Si7 0.848808 0.104092 0.668336
Si Si8 0.585089 0.859701 0.372361
O O1 0.686098 0.892675 0.692901
O O2 0.025568 0.898879 0.678911
O O3 0.849053 0.019672 0.719159
O O4 0.870903 0.919457 0.872361
O O5 0.349056 0.480326 0.025562
O O6 0.186100 0.607323 0.051823
O O7 0.525571 0.601119 0.065811
O O8 0.590302 0.659388 0.481241
O O9 0.590303 0.659386 0.263481
O O10 0.679543 0.779863 0.372359
O O11 0.874995 0.657190 0.372361
O O12 0.851085 0.625458 0.608398
O O13 0.620198 0.902358 0.483972
O O14 0.499998 0.999999 0.622362
O O15 0.879802 0.402360 0.760752
O O16 0.148912 0.374544 0.636325
#
# Coordination Sequence:
#
# PCOD9344561 Si02
#       8
#     4   4   4   4   4   4   4   4
#     4  10  19  33  56  82 112 146 190 224 283 332
#     4  10  19  33  56  82 112 146 190 224 283 332
#     4  10  20  36  58  82 124 137 191 233 281 345
#     4   9  19  35  51  83 115 148 178 237 279 327
#     4   9  20  35  54  80 114 144 188 233 278 334
#     4   9  20  35  54  80 114 144 188 233 278 334
#     4   9  19  35  51  83 115 148 178 237 279 327
#     4  10  22  36  58  92 110 153 183 235 297 327
#
# _framework density 19.061451000000002
#
# number of rings (size 3 to 8) (size 9 to 14) (size 15 to 20)
#    0.000    2.500    1.250    0.000    8.750    1.000 
#   11.250    0.000    0.000    1.500    0.000    0.000 
#    0.000    0.000    0.000    0.000    0.000    0.000 
#
# Total GULP energy -178465.220535 kJ/mol
# GULP energy per Si atom -5577.038142 kJ/mol
# Density = 1.901807 g / cm^3
# Si number density = 19.061451 Si / 1000 Ang^3
#
#
#
# Elastic Constant Matrix: (Units=GPa)
#
#
# Indices 1 2 3 4 5 6 
#
# 1 84.1476 -0.2171 78.9217 0.0000 0.0000 0.0000
# 2 -0.2171 46.3865 40.2981 0.0000 0.0000 0.0000
# 3 78.9217 40.2981 216.9303 0.0000 0.0000 0.0000
# 4 0.0000 0.0000 0.0000 17.9321 0.0000 0.0000
# 5 0.0000 0.0000 0.0000 0.0000 26.3311 0.0000
# 6 0.0000 0.0000 0.0000 0.0000 0.0000 11.7285
#
#
#
# Elastic Compliance Matrix: (Units=1/GPa)
#
#
# Indices 1 2 3 4 5 6 
#
# 1 0.020103 0.007688 -0.008742 0.000000 0.000000 0.000000
# 2 0.007688 0.028647 -0.008119 0.000000 0.000000 0.000000
# 3 -0.008742 -0.008119 0.009298 0.000000 0.000000 0.000000
# 4 0.000000 0.000000 0.000000 0.055766 0.000000 0.000000
# 5 0.000000 0.000000 0.000000 0.000000 0.037978 0.000000
# 6 0.000000 0.000000 0.000000 0.000000 0.000000 0.085262
#
#
# Mechanical properties :
#
#
# Convention : Reuss Voigt Hill
#
# Bulk Modulus (GPa) = 25.18647 65.05219 45.11933
# Shear Modulus (GPa) = 18.61275 26.42912 22.52094
#
# Velocity S-wave (km/s) = 3.12823 3.72764 3.44101
# Velocity P-wave (km/s) = 5.12735 7.26146 6.28564
#
# Compressibility (1/GPa) = 0.03970386
#
# Stress axis : x y z
#
# Youngs Moduli (GPa) = 49.74474 34.90751 107.54610
#
# Poissons Ratio (x) = -0.26839 0.94015
# Poissons Ratio (y) = -0.38246 0.87315
# Poissons Ratio (z) = 0.43486 0.28341
#
# Static dielectric constant tensor:
#      x y z
#    x 1.739720 0.000000 0.000000 
#    y 0.000000 1.849990 0.000000 
#    z 0.000000 0.000000 1.648360 
# 
# From -- ./inp_files/3476.got.cif
#   From: 2010.05.17/outbox.cif.g08.bks.cpg/sg33_2_cif.got.tgz:3476.got - 2010.06.03 17:15:25.
