data_PCOD9344234
_publ_section_title
;
Structure prediction by ZEFSAII (Michael W. Deem and Ramdas Pophale) SiO2 
 PCOD9344234
Probable space group: P B A 2
;
_chemical_formula_sum "Si O2"
_cell_formula_units_Z 30
_cell_length_a 21.783768
_cell_length_b 8.262914
_cell_length_c 8.830427
_cell_angle_alpha 90.000000
_cell_angle_beta 90.000000
_cell_angle_gamma 90.000000
_cell_volume 1589.453915
_symmetry_space_group_name_H-M "P B A 2"
_symmetry_group_IT_number 32
_symmetry_cell_setting 'orthorhombic'
loop_
_space_group_symop_operation_xyz
x,y,z
-x,-y,z
1/2-x,1/2+y,z
1/2+x,1/2-y,z
loop_
_atom_site_type_symbol
_atom_site_label
_atom_site_fract_x
_atom_site_fract_y
_atom_site_fract_z
Si Si1 0.321587 0.394707 0.823520
Si Si2 0.000000 0.500000 0.283055
Si Si3 0.271279 0.686531 0.295855
Si Si4 0.045251 0.847248 0.349312
Si Si5 0.119229 0.349460 0.137915
Si Si6 0.177528 0.885106 0.472717
Si Si7 0.789292 0.424529 0.982190
Si Si8 0.430285 0.499605 0.029012
O O1 0.314471 0.429647 0.647177
O O2 0.270080 0.489280 0.916547
O O3 0.311418 0.208023 0.863756
O O4 0.385800 0.444331 0.896938
O O5 0.013014 0.672479 0.363940
O O6 0.062509 0.458759 0.192262
O O7 0.327178 0.810270 0.260943
O O8 0.223501 0.743603 0.422372
O O9 0.303780 0.526000 0.356015
O O10 0.232960 0.656361 0.141093
O O11 0.106348 0.846635 0.447956
O O12 0.067764 0.881079 0.175723
O O13 0.000000 0.000000 0.381717
O O14 0.092070 0.176418 0.085853
O O15 0.157209 0.446471 0.012189
O O16 0.500000 0.500000 0.974392
#
# Coordination Sequence:
#
# PCOD9344234 Si02
#       8
#     4   2   4   4   4   4   4   4
#     4  12  24  41  61  95 139 173 213 279 353 399
#     4  12  22  38  68 102 126 162 222 300 318 382
#     4  12  21  40  65  97 125 171 228 272 332 397
#     4  11  22  43  69  97 130 176 233 281 327 394
#     4  12  22  37  70  99 121 166 227 284 326 376
#     4  12  25  39  64  98 135 173 216 283 346 401
#     4  12  22  41  66  93 128 172 223 272 332 402
#     4  11  21  42  65  96 126 172 231 273 323 398
#
# _framework density 18.874407999999999
#
# number of rings (size 3 to 8) (size 9 to 14) (size 15 to 20)
#    0.000    0.267    8.000    3.200    0.000    0.533 
#    0.000    0.000    2.933    0.000    0.000    0.000 
#    0.000    0.000    0.000    0.000    0.000    0.000 
#
# Total GULP energy -167543.343734 kJ/mol
# GULP energy per Si atom -5584.778124 kJ/mol
# Density = 1.883145 g / cm^3
# Si number density = 18.874408 Si / 1000 Ang^3
#
#
#
# Elastic Constant Matrix: (Units=GPa)
#
#
# Indices 1 2 3 4 5 6 
#
# 1 125.5769 23.6236 20.7690 0.0000 0.0000 0.0000
# 2 23.6236 81.1482 1.4502 0.0000 0.0000 0.0000
# 3 20.7690 1.4502 22.4442 0.0000 0.0000 0.0000
# 4 0.0000 0.0000 0.0000 17.7292 0.0000 0.0000
# 5 0.0000 0.0000 0.0000 0.0000 9.4111 0.0000
# 6 0.0000 0.0000 0.0000 0.0000 0.0000 44.8857
#
#
#
# Elastic Compliance Matrix: (Units=1/GPa)
#
#
# Indices 1 2 3 4 5 6 
#
# 1 0.009977 -0.002743 -0.009055 0.000000 0.000000 0.000000
# 2 -0.002743 0.013091 0.001692 0.000000 0.000000 0.000000
# 3 -0.009055 0.001692 0.052825 0.000000 0.000000 0.000000
# 4 0.000000 0.000000 0.000000 0.056404 0.000000 0.000000
# 5 0.000000 0.000000 0.000000 0.000000 0.106258 0.000000
# 6 0.000000 0.000000 0.000000 0.000000 0.000000 0.022279
#
#
# Mechanical properties :
#
#
# Convention : Reuss Voigt Hill
#
# Bulk Modulus (GPa) = 17.95917 35.65054 26.80486
# Shear Modulus (GPa) = 16.68863 26.62694 21.65779
#
# Velocity S-wave (km/s) = 2.97677 3.76006 3.39111
# Velocity P-wave (km/s) = 4.62067 6.14655 5.43740
#
# Compressibility (1/GPa) = 0.05568186
#
# Stress axis : x y z
#
# Youngs Moduli (GPa) = 100.23285 76.38654 18.93051
#
# Poissons Ratio (x) = 0.20950 0.17141
# Poissons Ratio (y) = 0.27490 -0.03203
# Poissons Ratio (z) = 0.90760 -0.12925
#
# Static dielectric constant tensor:
#      x y z
#    x 1.656590 0.000000 0.000000 
#    y 0.000000 1.704100 0.000000 
#    z 0.000000 0.000000 1.610900 
# 
# From -- ./inp_files/3312.got.cif
#   From: 2010.05.17/outbox.cif.g08.bks.cpg/sg32_2_cif.got.tgz:3312.got - 2010.06.03 17:12:27.
