data_PCOD9344358
_publ_section_title
;
Structure prediction by ZEFSAII (Michael W. Deem and Ramdas Pophale) SiO2 
 PCOD9344358
Probable space group: P N A 21
;
_chemical_formula_sum "Si O2"
_cell_formula_units_Z 20
_cell_length_a 18.839057
_cell_length_b 8.165266
_cell_length_c 5.109140
_cell_angle_alpha 90.000000
_cell_angle_beta 90.000000
_cell_angle_gamma 90.000000
_cell_volume 785.918118
_symmetry_space_group_name_H-M "P N A 21"
_symmetry_group_IT_number 33
_symmetry_cell_setting 'orthorhombic'
loop_
_space_group_symop_operation_xyz
x,y,z
-x,-y,1/2+z
1/2-x,1/2+y,1/2+z
1/2+x,1/2-y,z
loop_
_atom_site_type_symbol
_atom_site_label
_atom_site_fract_x
_atom_site_fract_y
_atom_site_fract_z
Si Si1 0.319571 0.979648 0.756460
Si Si2 0.993448 0.773742 0.491406
Si Si3 0.744087 0.166732 0.768328
Si Si4 0.606544 0.525647 0.210488
Si Si5 0.050143 0.656574 0.998798
O O1 0.289624 0.851631 0.550598
O O2 0.274032 0.149270 0.739104
O O3 0.396411 0.033327 0.643504
O O4 0.308399 0.900593 0.042271
O O5 0.987360 0.695841 0.205170
O O6 0.924071 0.858423 0.601708
O O7 0.053087 0.915476 0.441328
O O8 0.025294 0.647697 0.701516
O O9 0.811922 0.044235 0.774138
O O10 0.593145 0.670394 0.000519
#
# Coordination Sequence:
#
# PCOD9344358 Si02
#       5
#     4   4   4   4   4
#     4  11  23  39  57  86 117 163 192 244 281 361
#     4  10  16  29  50  81 112 142 173 254 297 331
#     4  11  24  37  60  85 124 150 201 233 299 345
#     4   9  19  28  53  81 117 135 187 245 303 317
#     4   9  18  29  50  73 114 136 191 216 300 332
#
# _framework density 25.447944
#
# number of rings (size 3 to 8) (size 9 to 14) (size 15 to 20)
#    1.200    0.800    2.000    2.400    5.600    0.000 
#    0.000    0.000    0.000    0.000    0.000   28.000 
#    0.000    0.000    0.000    0.000    0.000    0.000 
#
# Total GULP energy -111754.034138 kJ/mol
# GULP energy per Si atom -5587.701707 kJ/mol
# Density = 2.539002 g / cm^3
# Si number density = 25.447944 Si / 1000 Ang^3
#
#
#
# Elastic Constant Matrix: (Units=GPa)
#
#
# Indices 1 2 3 4 5 6 
#
# 1 83.9281 15.7456 -6.8614 0.0000 0.0000 0.0000
# 2 15.7456 95.2926 -8.5632 0.0000 0.0000 0.0000
# 3 -6.8614 -8.5632 66.1610 0.0000 0.0000 0.0000
# 4 0.0000 0.0000 0.0000 -89.3597 0.0000 0.0000
# 5 0.0000 0.0000 0.0000 0.0000 9.4222 0.0000
# 6 0.0000 0.0000 0.0000 0.0000 0.0000 36.8793
#
#
#
# Elastic Compliance Matrix: (Units=1/GPa)
#
#
# Indices 1 2 3 4 5 6 
#
# 1 0.012365 -0.001951 0.001030 0.000000 0.000000 0.000000
# 2 -0.001951 0.010925 0.001212 0.000000 0.000000 0.000000
# 3 0.001030 0.001212 0.015378 0.000000 0.000000 0.000000
# 4 0.000000 0.000000 0.000000 -0.011191 0.000000 0.000000
# 5 0.000000 0.000000 0.000000 0.000000 0.106133 0.000000
# 6 0.000000 0.000000 0.000000 0.000000 0.000000 0.027115
#
#
# Mechanical properties :
#
#
# Convention : Reuss Voigt Hill
#
# Bulk Modulus (GPa) = 25.47725 27.33596 26.40661
# Shear Modulus (GPa) = 28.86377 7.72574 18.29476
#
# Velocity S-wave (km/s) = 3.37148 1.74427 2.68416
# Velocity P-wave (km/s) = 5.01888 3.84992 4.47275
#
# Compressibility (1/GPa) = 0.03925070
#
# Stress axis : x y z
#
# Youngs Moduli (GPa) = 80.87278 91.53158 65.02672
#
# Poissons Ratio (x) = 0.17854 -0.06697
# Poissons Ratio (y) = 0.15775 -0.07880
# Poissons Ratio (z) = -0.08329 -0.11091
#
# Static dielectric constant tensor:
#      x y z
#    x 2.040840 0.000000 0.000000 
#    y 0.000000 2.080260 0.000000 
#    z 0.000000 0.000000 1.939870 
# 
# From -- ./inp_files/2167.got.cif
#   From: 2010.05.17/outbox.cif.g08.bks.cpg/sg33_2_cif.got.tgz:2167.got - 2010.06.03 17:15:25.
