data_PCOD9344694
_publ_section_title
;
Structure prediction by ZEFSAII (Michael W. Deem and Ramdas Pophale) SiO2 
 PCOD9344694
Probable space group: P N A 21
;
_chemical_formula_sum "Si O2"
_cell_formula_units_Z 24
_cell_length_a 5.247789
_cell_length_b 24.268574
_cell_length_c 8.123789
_cell_angle_alpha 90.000000
_cell_angle_beta 90.000000
_cell_angle_gamma 90.000000
_cell_volume 1034.616161
_symmetry_space_group_name_H-M "P N A 21"
_symmetry_group_IT_number 33
_symmetry_cell_setting 'orthorhombic'
loop_
_space_group_symop_operation_xyz
x,y,z
-x,-y,1/2+z
1/2-x,1/2+y,1/2+z
1/2+x,1/2-y,z
loop_
_atom_site_type_symbol
_atom_site_label
_atom_site_fract_x
_atom_site_fract_y
_atom_site_fract_z
Si Si1 0.182493 0.052555 0.964970
Si Si2 0.183225 0.266811 0.172977
Si Si3 0.700742 0.278713 0.807606
Si Si4 0.190515 0.395885 0.110110
Si Si5 0.154193 0.606464 0.151102
Si Si6 0.644127 0.575633 0.976141
O O1 0.279834 0.057478 0.777764
O O2 0.141375 0.989439 0.013091
O O3 0.414451 0.079599 0.066819
O O4 0.914560 0.084430 0.986984
O O5 0.435085 0.251217 0.269452
O O6 0.190157 0.229125 0.006636
O O7 0.177771 0.329821 0.118526
O O8 0.418156 0.263838 0.749308
O O9 0.794532 0.338164 0.753453
O O10 0.279895 0.416103 0.287903
O O11 0.367985 0.601371 0.010718
O O12 0.869388 0.602374 0.084329
#
# Coordination Sequence:
#
# PCOD9344694 Si02
#       6
#     4   4   4   4   4   4
#     4  12  23  43  70  96 129 182 226 259 313 401
#     4  10  20  38  63  92 119 159 218 268 308 375
#     4  10  19  37  63  92 119 158 216 268 309 375
#     4  12  25  44  69  98 133 174 219 273 326 388
#     4  12  25  43  68  99 133 173 220 273 325 388
#     4  12  26  43  63 101 141 170 211 275 339 381
#
# _framework density 23.197009999999999
#
# number of rings (size 3 to 8) (size 9 to 14) (size 15 to 20)
#    0.000    0.667    0.000   11.000    0.000    0.000 
#    0.000    5.000    0.000    0.000    0.000    0.000 
#    0.000    0.000    0.000    0.000    0.000    0.000 
#
# Total GULP energy -134378.968406 kJ/mol
# GULP energy per Si atom -5599.123684 kJ/mol
# Density = 2.314421 g / cm^3
# Si number density = 23.197010 Si / 1000 Ang^3
#
#
#
# Elastic Constant Matrix: (Units=GPa)
#
#
# Indices 1 2 3 4 5 6 
#
# 1 116.9824 19.0548 -13.8661 0.0000 0.0000 0.0000
# 2 19.0548 83.8244 -11.0914 0.0000 0.0000 0.0000
# 3 -13.8661 -11.0914 35.3340 0.0000 0.0000 0.0000
# 4 0.0000 0.0000 0.0000 16.8271 0.0000 0.0000
# 5 0.0000 0.0000 0.0000 0.0000 29.3073 0.0000
# 6 0.0000 0.0000 0.0000 0.0000 0.0000 32.3234
#
#
#
# Elastic Compliance Matrix: (Units=1/GPa)
#
#
# Indices 1 2 3 4 5 6 
#
# 1 0.009187 -0.001681 0.003077 0.000000 0.000000 0.000000
# 2 -0.001681 0.012754 0.003344 0.000000 0.000000 0.000000
# 3 0.003077 0.003344 0.030559 0.000000 0.000000 0.000000
# 4 0.000000 0.000000 0.000000 0.059428 0.000000 0.000000
# 5 0.000000 0.000000 0.000000 0.000000 0.034121 0.000000
# 6 0.000000 0.000000 0.000000 0.000000 0.000000 0.030937
#
#
# Mechanical properties :
#
#
# Convention : Reuss Voigt Hill
#
# Bulk Modulus (GPa) = 16.13414 24.92617 20.53015
# Shear Modulus (GPa) = 26.57226 31.82777 29.20002
#
# Velocity S-wave (km/s) = 3.38820 3.70816 3.55178
# Velocity P-wave (km/s) = 4.71984 5.39469 5.06851
#
# Compressibility (1/GPa) = 0.06198038
#
# Stress axis : x y z
#
# Youngs Moduli (GPa) = 108.85054 78.40490 32.72387
#
# Poissons Ratio (x) = 0.13181 -0.10071
# Poissons Ratio (y) = 0.18299 -0.10942
# Poissons Ratio (z) = -0.33499 -0.26218
#
# Static dielectric constant tensor:
#      x y z
#    x 1.954820 0.000000 0.000000 
#    y 0.000000 1.844850 0.000000 
#    z 0.000000 0.000000 1.861360 
# 
# From -- ./inp_files/2705.got.cif
#   From: 2010.05.17/outbox.cif.g08.bks.cpg/sg33_2_cif.got.tgz:2705.got - 2010.06.03 17:15:25.
