data_PCOD9344410
_publ_section_title
;
Structure prediction by ZEFSAII (Michael W. Deem and Ramdas Pophale) SiO2 
 PCOD9344410
Probable space group: P N A 21
;
_chemical_formula_sum "Si O2"
_cell_formula_units_Z 32
_cell_length_a 19.382036
_cell_length_b 11.291305
_cell_length_c 5.355336
_cell_angle_alpha 90.000000
_cell_angle_beta 90.000000
_cell_angle_gamma 90.000000
_cell_volume 1172.007143
_symmetry_space_group_name_H-M "P N A 21"
_symmetry_group_IT_number 33
_symmetry_cell_setting 'orthorhombic'
loop_
_space_group_symop_operation_xyz
x,y,z
-x,-y,1/2+z
1/2-x,1/2+y,1/2+z
1/2+x,1/2-y,z
loop_
_atom_site_type_symbol
_atom_site_label
_atom_site_fract_x
_atom_site_fract_y
_atom_site_fract_z
Si Si1 0.726673 0.576416 0.526550
Si Si2 0.894779 0.787921 0.286647
Si Si3 0.463757 0.341214 0.305087
Si Si4 0.129915 0.570933 0.047644
Si Si5 0.578431 0.157958 0.282059
Si Si6 0.954580 0.084431 0.799160
Si Si7 0.695963 0.489129 0.012953
Si Si8 0.825907 0.324285 0.030709
O O1 0.799388 0.506973 0.530824
O O2 0.709056 0.593943 0.820077
O O3 0.722333 0.713057 0.456003
O O4 0.680907 0.511129 0.307289
O O5 0.886358 0.726971 0.554483
O O6 0.972868 0.840968 0.279499
O O7 0.846962 0.901873 0.327010
O O8 0.887215 0.697256 0.050350
O O9 0.503480 0.218332 0.310779
O O10 0.523527 0.446648 0.298729
O O11 0.420428 0.383616 0.539886
O O12 0.423465 0.366302 0.051996
O O13 0.075587 0.472552 0.157977
O O14 0.128981 0.657562 0.283618
O O15 0.132342 0.647894 0.789998
O O16 0.770871 0.429671 0.034584
#
# Coordination Sequence:
#
# PCOD9344410 Si02
#       8
#     4   4   4   4   4   4   4   4
#     4  10  20  33  46  61  85 113 144 185 222 253
#     4  10  18  28  44  65  91 118 144 178 213 256
#     4   8  14  24  38  58  85 116 141 163 203 255
#     4  10  20  31  46  65  83 112 150 179 214 263
#     4  10  18  28  44  65  91 118 144 178 213 256
#     4   8  14  24  38  58  85 116 141 163 203 255
#     4  10  20  31  46  65  83 112 150 179 214 263
#     4  10  20  33  46  61  85 113 144 185 222 253
#
# _framework density 27.303587
#
# number of rings (size 3 to 8) (size 9 to 14) (size 15 to 20)
#    0.000    2.500    0.000    3.000    0.000    4.000 
#    0.000    0.000    0.000    0.000    0.000    0.000 
#    0.000    4.000    0.000    0.250    0.000    0.000 
#
# Total GULP energy -178387.860034 kJ/mol
# GULP energy per Si atom -5574.620626 kJ/mol
# Density = 2.724144 g / cm^3
# Si number density = 27.303587 Si / 1000 Ang^3
#
#
#
# Elastic Constant Matrix: (Units=GPa)
#
#
# Indices 1 2 3 4 5 6 
#
# 1 59.1256 -0.7670 28.8682 0.0000 0.0000 0.0000
# 2 -0.7670 75.9224 30.5282 0.0000 0.0000 0.0000
# 3 28.8682 30.5282 236.3751 0.0000 0.0000 0.0000
# 4 0.0000 0.0000 0.0000 46.6774 0.0000 0.0000
# 5 0.0000 0.0000 0.0000 0.0000 12.5574 0.0000
# 6 0.0000 0.0000 0.0000 0.0000 0.0000 27.5149
#
#
#
# Elastic Compliance Matrix: (Units=1/GPa)
#
#
# Indices 1 2 3 4 5 6 
#
# 1 0.018077 0.001129 -0.002354 0.000000 0.000000 0.000000
# 2 0.001129 0.013963 -0.001941 0.000000 0.000000 0.000000
# 3 -0.002354 -0.001941 0.004769 0.000000 0.000000 0.000000
# 4 0.000000 0.000000 0.000000 0.021424 0.000000 0.000000
# 5 0.000000 0.000000 0.000000 0.000000 0.079635 0.000000
# 6 0.000000 0.000000 0.000000 0.000000 0.000000 0.036344
#
#
# Mechanical properties :
#
#
# Convention : Reuss Voigt Hill
#
# Bulk Modulus (GPa) = 32.81128 54.29798 43.55463
# Shear Modulus (GPa) = 26.21895 38.20286 32.21090
#
# Velocity S-wave (km/s) = 3.10219 3.74463 3.43845
# Velocity P-wave (km/s) = 4.98746 6.21500 5.63476
#
# Compressibility (1/GPa) = 0.03047733
#
# Stress axis : x y z
#
# Youngs Moduli (GPa) = 55.31915 71.61619 209.70016
#
# Poissons Ratio (x) = -0.08085 0.49353
# Poissons Ratio (y) = -0.06245 0.40708
# Poissons Ratio (z) = 0.13019 0.13903
#
# Static dielectric constant tensor:
#      x y z
#    x 2.204920 0.000000 0.000000 
#    y 0.000000 2.192290 0.000000 
#    z 0.000000 0.000000 2.230340 
# 
# From -- ./inp_files/2458.got.cif
#   From: 2010.05.17/outbox.cif.g08.bks.cpg/sg33_2_cif.got.tgz:2458.got - 2010.06.03 17:15:25.
