data_PCOD9344913
_publ_section_title
;
Structure prediction by ZEFSAII (Michael W. Deem and Ramdas Pophale) SiO2 
 PCOD9344913
Probable space group: P N A 21
;
_chemical_formula_sum "Si O2"
_cell_formula_units_Z 32
_cell_length_a 5.163062
_cell_length_b 15.040773
_cell_length_c 15.162372
_cell_angle_alpha 90.000000
_cell_angle_beta 90.000000
_cell_angle_gamma 90.000000
_cell_volume 1177.455885
_symmetry_space_group_name_H-M "P N A 21"
_symmetry_group_IT_number 33
_symmetry_cell_setting 'orthorhombic'
loop_
_space_group_symop_operation_xyz
x,y,z
-x,-y,1/2+z
1/2-x,1/2+y,1/2+z
1/2+x,1/2-y,z
loop_
_atom_site_type_symbol
_atom_site_label
_atom_site_fract_x
_atom_site_fract_y
_atom_site_fract_z
Si Si1 0.392909 0.791175 0.673170
Si Si2 0.037689 0.459663 0.887878
Si Si3 0.065819 0.855364 0.262345
Si Si4 0.926226 0.284929 0.376142
Si Si5 0.333351 0.891420 0.100786
Si Si6 0.900130 0.278435 0.917302
Si Si7 0.833914 0.512993 0.717309
Si Si8 0.314604 0.588201 0.993927
O O1 0.181310 0.722686 0.635665
O O2 0.485669 0.771848 0.775498
O O3 0.272342 0.890557 0.677459
O O4 0.249801 0.413192 0.825815
O O5 0.835206 0.381731 0.908828
O O6 0.898365 0.527276 0.820916
O O7 0.176046 0.494860 0.974459
O O8 0.000915 0.771911 0.326186
O O9 0.221066 0.825566 0.175070
O O10 0.856727 0.926936 0.224617
O O11 0.717852 0.213879 0.415954
O O12 0.734556 0.367436 0.398061
O O13 0.427143 0.976234 0.159137
O O14 0.094099 0.916152 0.036767
O O15 0.598544 0.861637 0.053380
O O16 0.178407 0.276580 0.963124
#
# Coordination Sequence:
#
# PCOD9344913 Si02
#       8
#     4   4   4   4   4   4   4   4
#     4  10  23  37  65  99 122 155 213 286 337 378
#     4  10  23  37  70 100 127 175 229 285 332 398
#     4  10  22  42  68  97 133 174 231 285 333 406
#     4  10  21  39  59  90 127 162 213 272 323 392
#     4  11  26  41  66  94 138 183 224 266 340 426
#     4  10  20  37  61  98 131 161 221 284 334 384
#     4  11  21  44  68  99 126 174 227 277 336 403
#     4  12  24  43  63  97 136 182 222 273 345 413
#
# _framework density 27.177240000000001
#
# number of rings (size 3 to 8) (size 9 to 14) (size 15 to 20)
#    0.000    1.500    3.750    0.750    5.250    1.000 
#    0.000   11.250    0.000    9.000    0.000    0.000 
#    0.000    0.000    0.000    0.000    0.000    0.000 
#
# Total GULP energy -178210.135518 kJ/mol
# GULP energy per Si atom -5569.066735 kJ/mol
# Density = 2.711538 g / cm^3
# Si number density = 27.177240 Si / 1000 Ang^3
#
#
#
# Elastic Constant Matrix: (Units=GPa)
#
#
# Indices 1 2 3 4 5 6 
#
# 1 128.9618 3.6303 -7.6548 0.0000 0.0000 0.0000
# 2 3.6303 61.2312 8.3310 0.0000 0.0000 0.0000
# 3 -7.6548 8.3310 59.5703 0.0000 0.0000 0.0000
# 4 0.0000 0.0000 0.0000 22.3970 0.0000 0.0000
# 5 0.0000 0.0000 0.0000 0.0000 33.5165 0.0000
# 6 0.0000 0.0000 0.0000 0.0000 0.0000 38.1437
#
#
#
# Elastic Compliance Matrix: (Units=1/GPa)
#
#
# Indices 1 2 3 4 5 6 
#
# 1 0.007836 -0.000613 0.001093 0.000000 0.000000 0.000000
# 2 -0.000613 0.016696 -0.002414 0.000000 0.000000 0.000000
# 3 0.001093 -0.002414 0.017265 0.000000 0.000000 0.000000
# 4 0.000000 0.000000 0.000000 0.044649 0.000000 0.000000
# 5 0.000000 0.000000 0.000000 0.000000 0.029836 0.000000
# 6 0.000000 0.000000 0.000000 0.000000 0.000000 0.026217
#
#
# Mechanical properties :
#
#
# Convention : Reuss Voigt Hill
#
# Bulk Modulus (GPa) = 26.36515 28.70848 27.53681
# Shear Modulus (GPa) = 31.44441 35.17522 33.30982
#
# Velocity S-wave (km/s) = 3.40518 3.60153 3.50473
# Velocity P-wave (km/s) = 5.01822 5.28025 5.15090
#
# Compressibility (1/GPa) = 0.03792886
#
# Stress axis : x y z
#
# Youngs Moduli (GPa) = 127.61022 59.89342 57.92101
#
# Poissons Ratio (x) = 0.03673 -0.06329
# Poissons Ratio (y) = 0.07826 0.13981
# Poissons Ratio (z) = -0.13945 0.14457
#
# Static dielectric constant tensor:
#      x y z
#    x 2.298600 0.000000 0.000000 
#    y 0.000000 2.357310 0.000000 
#    z 0.000000 0.000000 2.347220 
# 
# From -- ./inp_files/8373.got.cif
#   From: 2010.05.17/outbox.cif.g08.bks.cpg/sg33_5_cif.got.tgz:8373.got - 2010.06.03 17:15:25.
