data_PCOD9344693
_publ_section_title
;
Structure prediction by ZEFSAII (Michael W. Deem and Ramdas Pophale) SiO2 
 PCOD9344693
Probable space group: P N A 21
;
_chemical_formula_sum "Si O2"
_cell_formula_units_Z 32
_cell_length_a 9.634444
_cell_length_b 19.563872
_cell_length_c 7.151497
_cell_angle_alpha 90.000000
_cell_angle_beta 90.000000
_cell_angle_gamma 90.000000
_cell_volume 1347.964424
_symmetry_space_group_name_H-M "P N A 21"
_symmetry_group_IT_number 33
_symmetry_cell_setting 'orthorhombic'
loop_
_space_group_symop_operation_xyz
x,y,z
-x,-y,1/2+z
1/2-x,1/2+y,1/2+z
1/2+x,1/2-y,z
loop_
_atom_site_type_symbol
_atom_site_label
_atom_site_fract_x
_atom_site_fract_y
_atom_site_fract_z
Si Si1 0.383228 0.069595 0.149470
Si Si2 0.675931 0.074022 0.698332
Si Si3 0.308936 0.323757 0.177151
Si Si4 0.998110 0.706971 0.623184
Si Si5 0.962016 0.310760 0.570769
Si Si6 0.210626 0.104770 0.515646
Si Si7 0.417427 0.334757 0.577502
Si Si8 0.189502 0.464076 0.125908
O O1 0.415629 0.141640 0.044526
O O2 0.274604 0.090118 0.310732
O O3 0.540027 0.050086 0.218969
O O4 0.328000 0.996076 0.075560
O O5 0.559406 0.128470 0.642290
O O6 0.820273 0.114920 0.693482
O O7 0.653122 0.047369 0.907133
O O8 0.432090 0.279859 0.088792
O O9 0.323044 0.311767 0.400050
O O10 0.300157 0.405344 0.168810
O O11 0.164950 0.298460 0.085482
O O12 0.005350 0.696765 0.849449
O O13 0.803490 0.333802 0.591809
O O14 0.974608 0.236174 0.661152
O O15 0.051100 0.123914 0.508184
O O16 0.246343 0.038622 0.639742
#
# Coordination Sequence:
#
# PCOD9344693 Si02
#       8
#     4   4   4   4   4   4   4   4
#     4   9  20  37  63  85 116 162 209 243 302 371
#     4  11  21  39  63  87 127 161 199 255 311 379
#     4  10  21  38  62  87 122 153 211 257 303 364
#     4   9  19  35  61  89 108 157 210 259 292 354
#     4  10  19  37  63  86 116 158 213 254 291 370
#     4  10  21  38  64  91 120 158 214 257 301 364
#     4  11  23  36  63  94 120 157 203 266 310 355
#     4  10  22  40  61  91 127 162 199 257 314 377
#
# _framework density 23.7395
#
# number of rings (size 3 to 8) (size 9 to 14) (size 15 to 20)
#    0.000    2.000    2.500    0.750    8.750    2.000 
#    4.500    0.000    2.750    0.000    0.000    0.000 
#    0.000    0.000    0.000    0.000    0.000    0.000 
#
# Total GULP energy -178629.437852 kJ/mol
# GULP energy per Si atom -5582.169933 kJ/mol
# Density = 2.368547 g / cm^3
# Si number density = 23.739500 Si / 1000 Ang^3
#
#
#
# Elastic Constant Matrix: (Units=GPa)
#
#
# Indices 1 2 3 4 5 6 
#
# 1 128.6198 51.8223 7.9589 0.0000 0.0000 0.0000
# 2 51.8223 141.2867 -2.4643 0.0000 0.0000 0.0000
# 3 7.9589 -2.4643 44.6864 0.0000 0.0000 0.0000
# 4 0.0000 0.0000 0.0000 21.1437 0.0000 0.0000
# 5 0.0000 0.0000 0.0000 0.0000 18.5985 0.0000
# 6 0.0000 0.0000 0.0000 0.0000 0.0000 32.0578
#
#
#
# Elastic Compliance Matrix: (Units=1/GPa)
#
#
# Indices 1 2 3 4 5 6 
#
# 1 0.009272 -0.003433 -0.001841 0.000000 0.000000 0.000000
# 2 -0.003433 0.008356 0.001072 0.000000 0.000000 0.000000
# 3 -0.001841 0.001072 0.022765 0.000000 0.000000 0.000000
# 4 0.000000 0.000000 0.000000 0.047295 0.000000 0.000000
# 5 0.000000 0.000000 0.000000 0.000000 0.053768 0.000000
# 6 0.000000 0.000000 0.000000 0.000000 0.000000 0.031194
#
#
# Mechanical properties :
#
#
# Convention : Reuss Voigt Hill
#
# Bulk Modulus (GPa) = 31.25987 47.69185 39.47586
# Shear Modulus (GPa) = 26.08028 31.51173 28.79600
#
# Velocity S-wave (km/s) = 3.31811 3.64730 3.48659
# Velocity P-wave (km/s) = 5.27980 6.15389 5.73352
#
# Compressibility (1/GPa) = 0.03198989
#
# Stress axis : x y z
#
# Youngs Moduli (GPa) = 107.85253 119.67924 43.92679
#
# Poissons Ratio (x) = 0.41085 0.08086
# Poissons Ratio (y) = 0.37025 -0.04710
# Poissons Ratio (z) = 0.19852 -0.12832
#
# Static dielectric constant tensor:
#      x y z
#    x 1.847650 0.000000 0.000000 
#    y 0.000000 1.973890 0.000000 
#    z 0.000000 0.000000 2.026560 
# 
# From -- ./inp_files/3519.got.cif
#   From: 2010.05.17/outbox.cif.g08.bks.cpg/sg33_2_cif.got.tgz:3519.got - 2010.06.03 17:15:25.
