data_PCOD9344861
_publ_section_title
;
Structure prediction by ZEFSAII (Michael W. Deem and Ramdas Pophale) SiO2 
 PCOD9344861
Probable space group: P N A 21
;
_chemical_formula_sum "Si O2"
_cell_formula_units_Z 32
_cell_length_a 24.605035
_cell_length_b 5.111046
_cell_length_c 10.775878
_cell_angle_alpha 90.000000
_cell_angle_beta 90.000000
_cell_angle_gamma 90.000000
_cell_volume 1355.147108
_symmetry_space_group_name_H-M "P N A 21"
_symmetry_group_IT_number 33
_symmetry_cell_setting 'orthorhombic'
loop_
_space_group_symop_operation_xyz
x,y,z
-x,-y,1/2+z
1/2-x,1/2+y,1/2+z
1/2+x,1/2-y,z
loop_
_atom_site_type_symbol
_atom_site_label
_atom_site_fract_x
_atom_site_fract_y
_atom_site_fract_z
Si Si1 0.779959 0.509716 0.487010
Si Si2 0.317655 0.705092 0.725406
Si Si3 0.296598 0.891626 0.229000
Si Si4 0.903579 0.051271 0.572006
Si Si5 0.205800 0.488190 0.471788
Si Si6 0.943943 0.501775 0.251371
Si Si7 0.369852 0.494328 0.300643
Si Si8 0.473936 0.951795 0.528247
O O1 0.809512 0.595714 0.611071
O O2 0.815955 0.504533 0.363316
O O3 0.750429 0.235944 0.500161
O O4 0.735045 0.734939 0.458371
O O5 0.263709 0.521415 0.727369
O O6 0.368905 0.526684 0.691744
O O7 0.322671 0.875349 0.850159
O O8 0.311165 0.580634 0.242217
O O9 0.324750 0.989275 0.103004
O O10 0.865976 0.017936 0.449934
O O11 0.951243 0.839588 0.551581
O O12 0.928117 0.338937 0.569457
O O13 0.907953 0.760951 0.263977
O O14 0.980413 0.502744 0.379430
O O15 0.976976 0.498532 0.123168
O O16 0.905575 0.248693 0.257857
#
# Coordination Sequence:
#
# PCOD9344861 Si02
#       8
#     4   4   4   4   4   4   4   4
#     4  10  20  36  56  74 111 160 199 236 288 340
#     4  10  21  39  58  87 123 162 200 248 290 352
#     4  10  21  39  58  87 123 162 200 248 290 352
#     4  10  21  39  64  91 119 162 206 239 300 375
#     4  10  22  34  52  82 111 154 201 240 288 332
#     4  10  22  42  66  92 118 153 199 255 313 366
#     4  10  21  39  64  91 119 162 206 239 300 375
#     4  10  22  42  66  92 118 153 199 255 313 366
#
# _framework density 23.613672999999999
#
# number of rings (size 3 to 8) (size 9 to 14) (size 15 to 20)
#    0.000    2.000    1.250    1.500    0.000    8.000 
#    6.750    0.000    0.000    0.000    0.000    0.000 
#    0.000    0.000    0.000    0.000    0.000    0.000 
#
# Total GULP energy -178874.840048 kJ/mol
# GULP energy per Si atom -5589.838751 kJ/mol
# Density = 2.355993 g / cm^3
# Si number density = 23.613673 Si / 1000 Ang^3
#
#
#
# Elastic Constant Matrix: (Units=GPa)
#
#
# Indices 1 2 3 4 5 6 
#
# 1 50.1487 23.0707 25.8495 0.0000 0.0000 0.0000
# 2 23.0707 119.2878 26.0109 0.0000 0.0000 0.0000
# 3 25.8495 26.0109 166.8580 0.0000 0.0000 0.0000
# 4 0.0000 0.0000 0.0000 31.2134 0.0000 0.0000
# 5 0.0000 0.0000 0.0000 0.0000 46.4603 0.0000
# 6 0.0000 0.0000 0.0000 0.0000 0.0000 34.7393
#
#
#
# Elastic Compliance Matrix: (Units=1/GPa)
#
#
# Indices 1 2 3 4 5 6 
#
# 1 0.023257 -0.003843 -0.003004 0.000000 0.000000 0.000000
# 2 -0.003843 0.009313 -0.000856 0.000000 0.000000 0.000000
# 3 -0.003004 -0.000856 0.006592 0.000000 0.000000 0.000000
# 4 0.000000 0.000000 0.000000 0.032038 0.000000 0.000000
# 5 0.000000 0.000000 0.000000 0.000000 0.021524 0.000000
# 6 0.000000 0.000000 0.000000 0.000000 0.000000 0.028786
#
#
# Mechanical properties :
#
#
# Convention : Reuss Voigt Hill
#
# Bulk Modulus (GPa) = 42.09556 54.01741 48.05648
# Shear Modulus (GPa) = 34.52221 39.90682 37.21452
#
# Velocity S-wave (km/s) = 3.82770 4.11541 3.97416
# Velocity P-wave (km/s) = 6.11560 6.74590 6.43847
#
# Compressibility (1/GPa) = 0.02375548
#
# Stress axis : x y z
#
# Youngs Moduli (GPa) = 42.99778 107.37580 151.69936
#
# Poissons Ratio (x) = 0.41264 0.45569
# Poissons Ratio (y) = 0.16524 0.12992
# Poissons Ratio (z) = 0.12916 0.09196
#
# Static dielectric constant tensor:
#      x y z
#    x 1.950000 0.000000 0.000000 
#    y 0.000000 1.999780 0.000000 
#    z 0.000000 0.000000 1.980730 
# 
# From -- ./inp_files/7344.got.cif
#   From: 2010.05.17/outbox.cif.g08.bks.cpg/sg33_4_cif.got.tgz:7344.got - 2010.06.03 17:15:25.
