data_PCOD9344951
_publ_section_title
;
Structure prediction by ZEFSAII (Michael W. Deem and Ramdas Pophale) SiO2 
 PCOD9344951
Probable space group: P N A 21
;
_chemical_formula_sum "Si O2"
_cell_formula_units_Z 24
_cell_length_a 24.287866
_cell_length_b 6.532356
_cell_length_c 6.875309
_cell_angle_alpha 90.000000
_cell_angle_beta 90.000000
_cell_angle_gamma 90.000000
_cell_volume 1090.815812
_symmetry_space_group_name_H-M "P N A 21"
_symmetry_group_IT_number 33
_symmetry_cell_setting 'orthorhombic'
loop_
_space_group_symop_operation_xyz
x,y,z
-x,-y,1/2+z
1/2-x,1/2+y,1/2+z
1/2+x,1/2-y,z
loop_
_atom_site_type_symbol
_atom_site_label
_atom_site_fract_x
_atom_site_fract_y
_atom_site_fract_z
Si Si1 0.992834 0.202955 0.914380
Si Si2 0.432737 0.033091 0.601796
Si Si3 0.744630 0.673133 0.614085
Si Si4 0.823591 0.020010 0.452484
Si Si5 0.325181 0.161620 0.759751
Si Si6 0.571525 0.633639 0.775755
O O1 0.975865 0.336223 0.728727
O O2 0.939887 0.179239 0.052056
O O3 0.018162 0.988195 0.850831
O O4 0.038622 0.324215 0.038702
O O5 0.378072 0.014673 0.735673
O O6 0.420836 0.161271 0.403609
O O7 0.715530 0.670480 0.824706
O O8 0.697495 0.745632 0.461336
O O9 0.775560 0.454854 0.644739
O O10 0.791966 0.826754 0.539629
O O11 0.843508 0.141363 0.639594
O O12 0.876004 0.988059 0.314955
#
# Coordination Sequence:
#
# PCOD9344951 Si02
#       6
#     4   4   4   4   4   4
#     4  12  22  40  60  86 120 160 198 256 296 362
#     4  11  23  38  60  88 121 157 201 247 304 351
#     4  10  20  38  60  86 116 154 196 238 288 354
#     4  10  21  37  59  86 118 154 192 244 293 353
#     4  10  21  37  59  86 118 154 192 244 293 353
#     4  11  23  38  60  88 121 157 201 247 304 351
#
# _framework density 22.001878000000001
#
# number of rings (size 3 to 8) (size 9 to 14) (size 15 to 20)
#    0.000    1.333    3.333    3.000    0.000    0.000 
#    0.000    0.000    7.333    0.000    0.000    0.000 
#    0.000    0.000    0.000    0.000    0.000    0.000 
#
# Total GULP energy -133644.619555 kJ/mol
# GULP energy per Si atom -5568.525815 kJ/mol
# Density = 2.195180 g / cm^3
# Si number density = 22.001878 Si / 1000 Ang^3
#
#
#
# Elastic Constant Matrix: (Units=GPa)
#
#
# Indices 1 2 3 4 5 6 
#
# 1 55.0185 -6.1451 -4.8316 0.0000 0.0000 0.0000
# 2 -6.1451 34.8702 27.4574 0.0000 0.0000 0.0000
# 3 -4.8316 27.4574 65.3915 0.0000 0.0000 0.0000
# 4 0.0000 0.0000 0.0000 36.0026 0.0000 0.0000
# 5 0.0000 0.0000 0.0000 0.0000 27.4894 0.0000
# 6 0.0000 0.0000 0.0000 0.0000 0.0000 21.1403
#
#
#
# Elastic Compliance Matrix: (Units=1/GPa)
#
#
# Indices 1 2 3 4 5 6 
#
# 1 0.018541 0.003270 -0.000003 0.000000 0.000000 0.000000
# 2 0.003270 0.043420 -0.017990 0.000000 0.000000 0.000000
# 3 -0.000003 -0.017990 0.022846 0.000000 0.000000 0.000000
# 4 0.000000 0.000000 0.000000 0.027776 0.000000 0.000000
# 5 0.000000 0.000000 0.000000 0.000000 0.036378 0.000000
# 6 0.000000 0.000000 0.000000 0.000000 0.000000 0.047303
#
#
# Mechanical properties :
#
#
# Convention : Reuss Voigt Hill
#
# Bulk Modulus (GPa) = 18.06360 20.91573 19.48966
# Shear Modulus (GPa) = 20.47817 26.17978 23.32898
#
# Velocity S-wave (km/s) = 3.05412 3.45322 3.25978
# Velocity P-wave (km/s) = 4.54585 5.04248 4.80059
#
# Compressibility (1/GPa) = 0.05535996
#
# Stress axis : x y z
#
# Youngs Moduli (GPa) = 53.93552 23.03107 43.77110
#
# Poissons Ratio (x) = -0.07531 0.00013
# Poissons Ratio (y) = -0.17636 0.78744
# Poissons Ratio (z) = 0.00016 0.41433
#
# Static dielectric constant tensor:
#      x y z
#    x 1.941810 0.000000 0.000000 
#    y 0.000000 1.804190 0.000000 
#    z 0.000000 0.000000 1.809710 
# 
# From -- ./inp_files/2375.got.cif
#   From: 2010.05.17/outbox.cif.g08.bks.cpg/sg33_2_cif.got.tgz:2375.got - 2010.06.03 17:15:25.
