data_PCOD9344998
_publ_section_title
;
Structure prediction by ZEFSAII (Michael W. Deem and Ramdas Pophale) SiO2 
 PCOD9344998
Probable space group: P N A 21
;
_chemical_formula_sum "Si O2"
_cell_formula_units_Z 28
_cell_length_a 27.835112
_cell_length_b 5.892865
_cell_length_c 7.395508
_cell_angle_alpha 90.000000
_cell_angle_beta 90.000000
_cell_angle_gamma 90.000000
_cell_volume 1213.074508
_symmetry_space_group_name_H-M "P N A 21"
_symmetry_group_IT_number 33
_symmetry_cell_setting 'orthorhombic'
loop_
_space_group_symop_operation_xyz
x,y,z
-x,-y,1/2+z
1/2-x,1/2+y,1/2+z
1/2+x,1/2-y,z
loop_
_atom_site_type_symbol
_atom_site_label
_atom_site_fract_x
_atom_site_fract_y
_atom_site_fract_z
Si Si1 0.813607 0.873244 0.387590
Si Si2 0.740219 0.515443 0.554051
Si Si3 0.090961 0.641392 0.231058
Si Si4 0.496656 0.132458 0.283034
Si Si5 0.405289 0.862154 0.356118
Si Si6 0.462745 0.499730 0.542565
Si Si7 0.814680 0.154924 0.719808
O O1 0.772803 0.727256 0.491317
O O2 0.792848 0.036780 0.232290
O O3 0.851639 0.700026 0.296347
O O4 0.836336 0.013249 0.552825
O O5 0.774417 0.309025 0.619000
O O6 0.707273 0.493494 0.374946
O O7 0.046023 0.503982 0.309612
O O8 0.144109 0.685194 0.307471
O O9 0.100448 0.506632 0.041989
O O10 0.068865 0.891502 0.200703
O O11 0.489611 0.288504 0.457771
O O12 0.447222 0.996833 0.254605
O O13 0.504562 0.301975 0.117497
O O14 0.429612 0.618963 0.394746
#
# Coordination Sequence:
#
# PCOD9344998 Si02
#       7
#     4   4   4   4   4   4   4
#     4  11  21  42  70  98 140 182 225 286 351 410
#     4  10  24  40  67 106 134 178 237 282 338 420
#     4  10  20  38  66  92 128 182 225 277 348 417
#     4  10  22  38  66  94 128 176 236 276 342 420
#     4  10  20  38  66  92 128 182 225 277 348 417
#     4  10  20  40  63  88 132 176 215 284 344 388
#     4  11  21  42  70  98 140 182 225 286 351 410
#
# _framework density 23.081845999999999
#
# number of rings (size 3 to 8) (size 9 to 14) (size 15 to 20)
#    0.000    1.714    2.857    1.714    0.000    0.000 
#    0.000   11.429   12.571    0.000    0.000    0.000 
#    0.000    0.000    0.000    0.000    0.000    0.000 
#
# Total GULP energy -156122.275533 kJ/mol
# GULP energy per Si atom -5575.795555 kJ/mol
# Density = 2.302931 g / cm^3
# Si number density = 23.081846 Si / 1000 Ang^3
#
#
#
# Elastic Constant Matrix: (Units=GPa)
#
#
# Indices 1 2 3 4 5 6 
#
# 1 75.2517 27.9268 21.3001 0.0000 0.0000 0.0000
# 2 27.9268 71.3147 18.8741 0.0000 0.0000 0.0000
# 3 21.3001 18.8741 75.2198 0.0000 0.0000 0.0000
# 4 0.0000 0.0000 0.0000 43.2136 0.0000 0.0000
# 5 0.0000 0.0000 0.0000 0.0000 22.3201 0.0000
# 6 0.0000 0.0000 0.0000 0.0000 0.0000 21.7461
#
#
#
# Elastic Compliance Matrix: (Units=1/GPa)
#
#
# Indices 1 2 3 4 5 6 
#
# 1 0.016244 -0.005510 -0.003217 0.000000 0.000000 0.000000
# 2 -0.005510 0.016889 -0.002677 0.000000 0.000000 0.000000
# 3 -0.003217 -0.002677 0.014877 0.000000 0.000000 0.000000
# 4 0.000000 0.000000 0.000000 0.023141 0.000000 0.000000
# 5 0.000000 0.000000 0.000000 0.000000 0.044803 0.000000
# 6 0.000000 0.000000 0.000000 0.000000 0.000000 0.045985
#
#
# Mechanical properties :
#
#
# Convention : Reuss Voigt Hill
#
# Bulk Modulus (GPa) = 39.68117 39.77646 39.72881
# Shear Modulus (GPa) = 25.88689 27.70165 26.79427
#
# Velocity S-wave (km/s) = 3.35255 3.46807 3.41080
# Velocity P-wave (km/s) = 5.67582 5.77122 5.72372
#
# Compressibility (1/GPa) = 0.02520087
#
# Stress axis : x y z
#
# Youngs Moduli (GPa) = 61.56073 59.21174 67.21659
#
# Poissons Ratio (x) = 0.32624 0.21626
# Poissons Ratio (y) = 0.33918 0.17997
# Poissons Ratio (z) = 0.19806 0.15854
#
# Static dielectric constant tensor:
#      x y z
#    x 1.934600 0.000000 0.000000 
#    y 0.000000 1.877040 0.000000 
#    z 0.000000 0.000000 2.018220 
# 
# From -- ./inp_files/5245.got.cif
#   From: 2010.05.17/outbox.cif.g08.bks.cpg/sg33_3_cif.got.tgz:5245.got - 2010.06.03 17:15:25.
