data_PCOD9344291
_publ_section_title
;
Structure prediction by ZEFSAII (Michael W. Deem and Ramdas Pophale) SiO2 
 PCOD9344291
Probable space group: P B A 2
;
_chemical_formula_sum "Si O2"
_cell_formula_units_Z 16
_cell_length_a 9.562630
_cell_length_b 9.280868
_cell_length_c 7.118388
_cell_angle_alpha 90.000000
_cell_angle_beta 90.000000
_cell_angle_gamma 90.000000
_cell_volume 631.753424
_symmetry_space_group_name_H-M "P B A 2"
_symmetry_group_IT_number 32
_symmetry_cell_setting 'orthorhombic'
loop_
_space_group_symop_operation_xyz
x,y,z
-x,-y,z
1/2-x,1/2+y,z
1/2+x,1/2-y,z
loop_
_atom_site_type_symbol
_atom_site_label
_atom_site_fract_x
_atom_site_fract_y
_atom_site_fract_z
Si Si1 0.147511 0.438171 0.553570
Si Si2 0.396080 0.616740 0.650904
Si Si3 0.619248 0.902906 0.160426
Si Si4 0.564265 0.347941 0.069805
O O1 0.262860 0.514135 0.681759
O O2 0.150543 0.265133 0.553523
O O3 0.161515 0.505530 0.344585
O O4 0.000000 0.500000 0.617621
O O5 0.500000 0.500000 0.556869
O O6 0.464226 0.669355 0.846452
O O7 0.523346 0.763662 0.192748
O O8 0.767754 0.849246 0.083719
O O9 0.500000 0.000000 0.056169
O O10 0.500000 0.500000 0.119531
#
# Coordination Sequence:
#
# PCOD9344291 Si02
#       4
#     4   4   4   4
#     4  11  27  46  75 111 153 206 253 326 388 465
#     4  11  27  48  78 116 152 202 261 324 398 472
#     4  11  27  48  75 110 157 206 262 323 395 478
#     4  11  27  46  80 113 154 206 257 329 397 478
#
# _framework density 25.326333999999999
#
# number of rings (size 3 to 8) (size 9 to 14) (size 15 to 20)
#    0.000    1.000    0.000    3.000   24.500    1.000 
#    0.000    0.000    0.000    0.000    0.000    0.000 
#    0.000    0.000    0.000    0.000    0.000    0.000 
#
# Total GULP energy -89380.624020 kJ/mol
# GULP energy per Si atom -5586.289001 kJ/mol
# Density = 2.526869 g / cm^3
# Si number density = 25.326334 Si / 1000 Ang^3
#
#
#
# Elastic Constant Matrix: (Units=GPa)
#
#
# Indices 1 2 3 4 5 6 
#
# 1 159.7332 42.7989 -22.8353 0.0000 0.0000 0.0000
# 2 42.7989 218.1672 15.5944 0.0000 0.0000 0.0000
# 3 -22.8353 15.5944 86.0031 0.0000 0.0000 0.0000
# 4 0.0000 0.0000 0.0000 97.6642 0.0000 0.0000
# 5 0.0000 0.0000 0.0000 0.0000 56.0519 0.0000
# 6 0.0000 0.0000 0.0000 0.0000 0.0000 45.6435
#
#
#
# Elastic Compliance Matrix: (Units=1/GPa)
#
#
# Indices 1 2 3 4 5 6 
#
# 1 0.006972 -0.001520 0.002127 0.000000 0.000000 0.000000
# 2 -0.001520 0.004975 -0.001306 0.000000 0.000000 0.000000
# 3 0.002127 -0.001306 0.012429 0.000000 0.000000 0.000000
# 4 0.000000 0.000000 0.000000 0.010239 0.000000 0.000000
# 5 0.000000 0.000000 0.000000 0.000000 0.017841 0.000000
# 6 0.000000 0.000000 0.000000 0.000000 0.000000 0.021909
#
#
# Mechanical properties :
#
#
# Convention : Reuss Voigt Hill
#
# Bulk Modulus (GPa) = 43.51922 59.44661 51.48291
# Shear Modulus (GPa) = 59.93694 68.42829 64.18261
#
# Velocity S-wave (km/s) = 4.87003 5.20358 5.03957
# Velocity P-wave (km/s) = 6.98882 7.72180 7.36444
#
# Compressibility (1/GPa) = 0.02297835
#
# Stress axis : x y z
#
# Youngs Moduli (GPa) = 143.43823 201.00160 80.45777
#
# Poissons Ratio (x) = 0.30546 -0.17111
# Poissons Ratio (y) = 0.21798 0.10505
# Poissons Ratio (z) = -0.30504 0.26243
#
# Static dielectric constant tensor:
#      x y z
#    x 2.023310 0.000000 0.000000 
#    y 0.000000 2.048920 0.000000 
#    z 0.000000 0.000000 2.097770 
# 
# From -- ./inp_files/2092.got.cif
#   From: 2010.05.17/outbox.cif.g08.bks.cpg/sg32_2_cif.got.tgz:2092.got - 2010.06.03 17:12:27.
