data_PCOD9344274
_publ_section_title
;
Structure prediction by ZEFSAII (Michael W. Deem and Ramdas Pophale) SiO2 
 PCOD9344274
Probable space group: P B A 2
;
_chemical_formula_sum "Si O2"
_cell_formula_units_Z 16
_cell_length_a 4.817158
_cell_length_b 25.152018
_cell_length_c 5.074375
_cell_angle_alpha 90.000000
_cell_angle_beta 90.000000
_cell_angle_gamma 90.000000
_cell_volume 614.817591
_symmetry_space_group_name_H-M "P B A 2"
_symmetry_group_IT_number 32
_symmetry_cell_setting 'orthorhombic'
loop_
_space_group_symop_operation_xyz
x,y,z
-x,-y,z
1/2-x,1/2+y,z
1/2+x,1/2-y,z
loop_
_atom_site_type_symbol
_atom_site_label
_atom_site_fract_x
_atom_site_fract_y
_atom_site_fract_z
Si Si1 0.238196 0.963604 0.536060
Si Si2 0.037741 0.121376 0.844597
Si Si3 0.859688 0.712864 0.697754
Si Si4 0.938406 0.365742 0.336071
O O1 0.350671 0.915044 0.359139
O O2 0.100641 0.935644 0.790109
O O3 0.500000 0.000000 0.603078
O O4 0.000000 0.000000 0.410507
O O5 0.604279 0.188862 0.400538
O O6 0.231596 0.129564 0.587452
O O7 0.239685 0.129144 0.088575
O O8 0.158225 0.737699 0.749713
O O9 0.714276 0.663622 0.844364
#
# Coordination Sequence:
#
# PCOD9344274 Si02
#       4
#     4   4   4   4
#     4  11  24  51  74 112 146 201 256 321 388 468
#     4  11  26  50  74 109 154 199 251 320 383 458
#     4  11  24  47  76 114 150 203 254 313 380 460
#     4  11  26  50  74 109 154 199 251 320 383 458
#
# _framework density 26.023978
#
# number of rings (size 3 to 8) (size 9 to 14) (size 15 to 20)
#    0.000    1.000    5.000    0.000    0.000   10.000 
#    9.000    0.000    0.000    0.000    0.000    0.000 
#    0.000    0.000    0.000    0.000    0.000    0.000 
#
# Total GULP energy -89617.054440 kJ/mol
# GULP energy per Si atom -5601.065903 kJ/mol
# Density = 2.596475 g / cm^3
# Si number density = 26.023978 Si / 1000 Ang^3
#
#
#
# Elastic Constant Matrix: (Units=GPa)
#
#
# Indices 1 2 3 4 5 6 
#
# 1 180.4390 47.4344 53.2228 0.0000 0.0000 0.0000
# 2 47.4344 131.6429 6.1321 0.0000 0.0000 0.0000
# 3 53.2228 6.1321 151.9188 0.0000 0.0000 0.0000
# 4 0.0000 0.0000 0.0000 12.2923 0.0000 0.0000
# 5 0.0000 0.0000 0.0000 0.0000 57.4970 0.0000
# 6 0.0000 0.0000 0.0000 0.0000 0.0000 70.9101
#
#
#
# Elastic Compliance Matrix: (Units=1/GPa)
#
#
# Indices 1 2 3 4 5 6 
#
# 1 0.006841 -0.002358 -0.002301 0.000000 0.000000 0.000000
# 2 -0.002358 0.008423 0.000486 0.000000 0.000000 0.000000
# 3 -0.002301 0.000486 0.007369 0.000000 0.000000 0.000000
# 4 0.000000 0.000000 0.000000 0.081352 0.000000 0.000000
# 5 0.000000 0.000000 0.000000 0.000000 0.017392 0.000000
# 6 0.000000 0.000000 0.000000 0.000000 0.000000 0.014102
#
#
# Mechanical properties :
#
#
# Convention : Reuss Voigt Hill
#
# Bulk Modulus (GPa) = 69.99449 75.28662 72.64055
# Shear Modulus (GPa) = 33.65016 51.95396 42.80206
#
# Velocity S-wave (km/s) = 3.59979 4.47294 4.05991
# Velocity P-wave (km/s) = 6.65076 7.46115 7.06758
#
# Compressibility (1/GPa) = 0.01428684
#
# Stress axis : x y z
#
# Youngs Moduli (GPa) = 146.18495 118.71978 135.70169
#
# Poissons Ratio (x) = 0.27990 0.31230
# Poissons Ratio (y) = 0.34466 -0.06595
# Poissons Ratio (z) = 0.33643 -0.05770
#
# Static dielectric constant tensor:
#      x y z
#    x 2.031650 0.000000 0.000000 
#    y 0.000000 2.091970 0.000000 
#    z 0.000000 0.000000 2.116440 
# 
# From -- ./inp_files/146.got.cif
#   From: 2010.05.17/outbox.cif.g08.bks.cpg/sg32_1_cif.got.tgz:146.got - 2010.06.03 17:12:27.
