data_PCOD9344943
_publ_section_title
;
Structure prediction by ZEFSAII (Michael W. Deem and Ramdas Pophale) SiO2 
 PCOD9344943
Probable space group: P N A 21
;
_chemical_formula_sum "Si O2"
_cell_formula_units_Z 32
_cell_length_a 17.934823
_cell_length_b 15.130895
_cell_length_c 5.655752
_cell_angle_alpha 90.000000
_cell_angle_beta 90.000000
_cell_angle_gamma 90.000000
_cell_volume 1534.800988
_symmetry_space_group_name_H-M "P N A 21"
_symmetry_group_IT_number 33
_symmetry_cell_setting 'orthorhombic'
loop_
_space_group_symop_operation_xyz
x,y,z
-x,-y,1/2+z
1/2-x,1/2+y,1/2+z
1/2+x,1/2-y,z
loop_
_atom_site_type_symbol
_atom_site_label
_atom_site_fract_x
_atom_site_fract_y
_atom_site_fract_z
Si Si1 0.111708 0.009432 0.603630
Si Si2 0.289256 0.890899 0.210508
Si Si3 0.222657 0.497616 0.216175
Si Si4 0.410843 0.087029 0.485753
Si Si5 0.053035 0.393311 0.802117
Si Si6 0.370655 0.336823 0.770355
Si Si7 0.050856 0.716242 0.612904
Si Si8 0.009015 0.884945 0.880337
O O1 0.123947 0.924795 0.433326
O O2 0.049412 0.973579 0.785355
O O3 0.191806 0.030678 0.715118
O O4 0.072377 0.089164 0.468269
O O5 0.370619 0.846498 0.224206
O O6 0.214011 0.834603 0.180023
O O7 0.282041 0.936290 0.474939
O O8 0.290781 0.952030 0.972308
O O9 0.156976 0.567328 0.163364
O O10 0.488543 0.108924 0.610338
O O11 0.399322 0.166938 0.306829
O O12 0.425269 0.994998 0.348175
O O13 0.013280 0.350347 0.027598
O O14 0.434097 0.350385 0.577249
O O15 0.393613 0.250320 0.912171
O O16 0.009976 0.805636 0.695013
#
# Coordination Sequence:
#
# PCOD9344943 Si02
#       8
#     4   4   4   4   4   4   4   4
#     4  10  20  37  69  99 129 177 229 278 350 416
#     4  10  22  40  70 102 131 175 227 282 349 414
#     4  10  22  39  68 105 131 170 233 288 339 417
#     4  11  22  41  69  93 133 180 232 285 348 408
#     4  11  22  41  70  96 128 180 235 284 342 419
#     4  10  21  41  64  96 138 175 222 286 348 422
#     4  11  25  40  63 100 135 184 231 293 351 407
#     4  11  20  39  67  95 137 177 229 282 347 421
#
# _framework density 20.849608
#
# number of rings (size 3 to 8) (size 9 to 14) (size 15 to 20)
#    0.000    1.500    3.750    1.500    3.500    0.000 
#    2.250    0.000    8.250    0.000    0.000    0.000 
#    0.000    0.000    0.000    0.000    0.000    0.000 
#
# Total GULP energy -178438.506946 kJ/mol
# GULP energy per Si atom -5576.203342 kJ/mol
# Density = 2.080215 g / cm^3
# Si number density = 20.849608 Si / 1000 Ang^3
#
#
#
# Elastic Constant Matrix: (Units=GPa)
#
#
# Indices 1 2 3 4 5 6 
#
# 1 121.8112 15.4653 16.3527 0.0000 0.0000 0.0000
# 2 15.4653 61.2952 11.2586 0.0000 0.0000 0.0000
# 3 16.3527 11.2586 69.0794 0.0000 0.0000 0.0000
# 4 0.0000 0.0000 0.0000 3.8348 0.0000 0.0000
# 5 0.0000 0.0000 0.0000 0.0000 22.2422 0.0000
# 6 0.0000 0.0000 0.0000 0.0000 0.0000 -6.8975
#
#
#
# Elastic Compliance Matrix: (Units=1/GPa)
#
#
# Indices 1 2 3 4 5 6 
#
# 1 0.008682 -0.001869 -0.001751 0.000000 0.000000 0.000000
# 2 -0.001869 0.017220 -0.002364 0.000000 0.000000 0.000000
# 3 -0.001751 -0.002364 0.015276 0.000000 0.000000 0.000000
# 4 0.000000 0.000000 0.000000 0.260770 0.000000 0.000000
# 5 0.000000 0.000000 0.000000 0.000000 0.044960 0.000000
# 6 0.000000 0.000000 0.000000 0.000000 0.000000 -0.144980
#
#
# Mechanical properties :
#
#
# Convention : Reuss Voigt Hill
#
# Bulk Modulus (GPa) = 34.23427 37.59325 35.91376
# Shear Modulus (GPa) = 22.35821 17.77651 20.06736
#
# Velocity S-wave (km/s) = 3.27824 2.92311 3.10575
# Velocity P-wave (km/s) = 5.54837 5.42794 5.48849
#
# Compressibility (1/GPa) = 0.02921050
#
# Stress axis : x y z
#
# Youngs Moduli (GPa) = 115.18464 58.07106 65.46298
#
# Poissons Ratio (x) = 0.10853 0.11460
# Poissons Ratio (y) = 0.21527 0.15476
# Poissons Ratio (z) = 0.20164 0.13729
#
# Static dielectric constant tensor:
#      x y z
#    x 1.756730 0.000000 0.000000 
#    y 0.000000 1.750090 0.000000 
#    z 0.000000 0.000000 1.845930 
# 
# From -- ./inp_files/1811.got.cif
#   From: 2010.05.17/outbox.cif.g08.bks.cpg/sg33_1_cif.got.tgz:1811.got - 2010.06.03 17:15:25.
