data_PCOD9344534
_publ_section_title
;
Structure prediction by ZEFSAII (Michael W. Deem and Ramdas Pophale) SiO2 
 PCOD9344534
Probable space group: P N A 21
;
_chemical_formula_sum "Si O2"
_cell_formula_units_Z 32
_cell_length_a 8.362733
_cell_length_b 21.784998
_cell_length_c 6.696689
_cell_angle_alpha 90.000000
_cell_angle_beta 90.000000
_cell_angle_gamma 90.000000
_cell_volume 1220.017010
_symmetry_space_group_name_H-M "P N A 21"
_symmetry_group_IT_number 33
_symmetry_cell_setting 'orthorhombic'
loop_
_space_group_symop_operation_xyz
x,y,z
-x,-y,1/2+z
1/2-x,1/2+y,1/2+z
1/2+x,1/2-y,z
loop_
_atom_site_type_symbol
_atom_site_label
_atom_site_fract_x
_atom_site_fract_y
_atom_site_fract_z
Si Si1 0.542539 0.199475 0.242870
Si Si2 0.162283 0.798363 0.272680
Si Si3 0.909714 0.173778 0.305532
Si Si4 0.599102 0.054385 0.585625
Si Si5 0.526742 0.826509 0.208222
Si Si6 0.939363 0.075986 0.804912
Si Si7 0.897730 0.940547 0.923260
Si Si8 0.560217 0.921961 0.703762
O O1 0.730146 0.186396 0.233908
O O2 0.514382 0.271301 0.211460
O O3 0.472813 0.187312 0.467012
O O4 0.452989 0.146160 0.116189
O O5 0.102307 0.812651 0.046318
O O6 0.350098 0.808173 0.278248
O O7 0.136122 0.726177 0.302012
O O8 0.083479 0.855719 0.393130
O O9 0.986283 0.106001 0.303301
O O10 0.478465 0.099303 0.705598
O O11 0.774228 0.064569 0.677919
O O12 0.588564 0.074660 0.356880
O O13 0.549311 0.983767 0.579510
O O14 0.088192 0.078355 0.654068
O O15 0.950201 0.012099 0.922896
O O16 0.724162 0.930983 0.827577
#
# Coordination Sequence:
#
# PCOD9344534 Si02
#       8
#     4   4   4   4   4   4   4   4
#     4   9  16  27  44  67  94 121 153 195 237 278
#     4   8  14  25  41  62  88 115 145 186 229 268
#     4   9  16  27  44  67  94 121 153 195 237 278
#     4   9  19  33  47  68  98 126 156 196 238 285
#     4   8  14  25  41  62  88 115 145 186 229 268
#     4   9  19  33  47  68  98 126 156 196 238 285
#     4  10  19  31  49  71  95 126 161 197 239 283
#     4  10  19  31  49  71  95 126 161 197 239 283
#
# _framework density 26.229144000000002
#
# number of rings (size 3 to 8) (size 9 to 14) (size 15 to 20)
#    0.000    3.000    0.000    3.000    0.000    8.000 
#    0.000    0.000    0.000    1.500    0.000    7.000 
#    0.000    0.000    0.000    0.000    0.000    0.000 
#
# Total GULP energy -178713.150037 kJ/mol
# GULP energy per Si atom -5584.785939 kJ/mol
# Density = 2.616944 g / cm^3
# Si number density = 26.229144 Si / 1000 Ang^3
#
#
#
# Elastic Constant Matrix: (Units=GPa)
#
#
# Indices 1 2 3 4 5 6 
#
# 1 58.3757 64.7696 -3.2498 0.0000 0.0000 0.0000
# 2 64.7696 244.1103 29.6746 0.0000 0.0000 0.0000
# 3 -3.2498 29.6746 38.2099 0.0000 0.0000 0.0000
# 4 0.0000 0.0000 0.0000 54.8844 0.0000 0.0000
# 5 0.0000 0.0000 0.0000 0.0000 18.4768 0.0000
# 6 0.0000 0.0000 0.0000 0.0000 0.0000 38.1662
#
#
#
# Elastic Compliance Matrix: (Units=1/GPa)
#
#
# Indices 1 2 3 4 5 6 
#
# 1 0.026585 -0.008093 0.008546 0.000000 0.000000 0.000000
# 2 -0.008093 0.006987 -0.006115 0.000000 0.000000 0.000000
# 3 0.008546 -0.006115 0.031647 0.000000 0.000000 0.000000
# 4 0.000000 0.000000 0.000000 0.018220 0.000000 0.000000
# 5 0.000000 0.000000 0.000000 0.000000 0.054122 0.000000
# 6 0.000000 0.000000 0.000000 0.000000 0.000000 0.026201
#
#
# Mechanical properties :
#
#
# Convention : Reuss Voigt Hill
#
# Bulk Modulus (GPa) = 18.55397 58.12052 38.33724
# Shear Modulus (GPa) = 25.89996 38.93890 32.41943
#
# Velocity S-wave (km/s) = 3.14578 3.85719 3.51950
# Velocity P-wave (km/s) = 4.50375 6.48414 5.58246
#
# Compressibility (1/GPa) = 0.05389683
#
# Stress axis : x y z
#
# Youngs Moduli (GPa) = 37.61472 143.12160 31.59871
#
# Poissons Ratio (x) = 1.15825 -0.27005
# Poissons Ratio (y) = 0.30441 0.19321
# Poissons Ratio (z) = -0.32146 0.87513
#
# Static dielectric constant tensor:
#      x y z
#    x 1.963990 0.000000 0.000000 
#    y 0.000000 2.111750 0.000000 
#    z 0.000000 0.000000 2.289730 
# 
# From -- ./inp_files/3486.got.cif
#   From: 2010.05.17/outbox.cif.g08.bks.cpg/sg33_2_cif.got.tgz:3486.got - 2010.06.03 17:15:25.
