data_PCOD9344665
_publ_section_title
;
Structure prediction by ZEFSAII (Michael W. Deem and Ramdas Pophale) SiO2 
 PCOD9344665
Probable space group: P N A 21
;
_chemical_formula_sum "Si O2"
_cell_formula_units_Z 32
_cell_length_a 9.185572
_cell_length_b 8.304531
_cell_length_c 19.404207
_cell_angle_alpha 90.000000
_cell_angle_beta 90.000000
_cell_angle_gamma 90.000000
_cell_volume 1480.189146
_symmetry_space_group_name_H-M "P N A 21"
_symmetry_group_IT_number 33
_symmetry_cell_setting 'orthorhombic'
loop_
_space_group_symop_operation_xyz
x,y,z
-x,-y,1/2+z
1/2-x,1/2+y,1/2+z
1/2+x,1/2-y,z
loop_
_atom_site_type_symbol
_atom_site_label
_atom_site_fract_x
_atom_site_fract_y
_atom_site_fract_z
Si Si1 0.637680 0.149537 0.376730
Si Si2 0.824825 0.549984 0.499064
Si Si3 0.917684 0.941563 0.392799
Si Si4 0.593259 0.457011 0.118451
Si Si5 0.434774 0.630533 0.008323
Si Si6 0.866313 0.939789 0.779432
Si Si7 0.117467 0.424759 0.851028
Si Si8 0.619287 0.817351 0.556083
O O1 0.575760 0.235264 0.447197
O O2 0.686305 0.274067 0.316585
O O3 0.765618 0.031753 0.400075
O O4 0.520882 0.034749 0.339700
O O5 0.728073 0.411957 0.534506
O O6 0.812919 0.500250 0.419884
O O7 0.733991 0.714801 0.510047
O O8 0.992031 0.577265 0.520240
O O9 0.915464 0.754412 0.375552
O O10 0.002738 0.981184 0.462608
O O11 0.998869 0.018241 0.327966
O O12 0.589975 0.451050 0.200760
O O13 0.479577 0.313526 0.096987
O O14 0.762228 0.420603 0.098589
O O15 0.536547 0.614685 0.076042
O O16 0.735741 0.065438 0.792062
#
# Coordination Sequence:
#
# PCOD9344665 Si02
#       8
#     4   4   4   4   4   4   4   4
#     4  11  25  40  69 101 135 181 231 294 350 406
#     4  10  19  36  62  97 124 160 221 277 336 388
#     4  11  23  42  69  95 134 181 230 286 345 412
#     4  10  22  39  66  92 145 176 231 278 343 418
#     4  10  22  43  63 103 134 167 232 289 346 407
#     4  11  24  42  64  98 139 177 229 283 346 420
#     4  12  23  40  67  98 134 173 231 284 346 413
#     4   9  20  36  64  96 125 179 223 273 332 408
#
# _framework density 21.618859
#
# number of rings (size 3 to 8) (size 9 to 14) (size 15 to 20)
#    0.000    1.500    2.500    4.500    7.000    0.000 
#    0.000    1.250    0.000    0.000    0.000    0.000 
#    0.000    0.000    0.000    0.000    0.000    0.000 
#
# Total GULP energy -178340.348929 kJ/mol
# GULP energy per Si atom -5573.135904 kJ/mol
# Density = 2.156965 g / cm^3
# Si number density = 21.618859 Si / 1000 Ang^3
#
#
#
# Elastic Constant Matrix: (Units=GPa)
#
#
# Indices 1 2 3 4 5 6 
#
# 1 117.4313 15.2544 32.6608 0.0000 0.0000 0.0000
# 2 15.2544 65.5183 11.1379 0.0000 0.0000 0.0000
# 3 32.6608 11.1379 115.3580 0.0000 0.0000 0.0000
# 4 0.0000 0.0000 0.0000 14.0893 0.0000 0.0000
# 5 0.0000 0.0000 0.0000 0.0000 28.1447 0.0000
# 6 0.0000 0.0000 0.0000 0.0000 0.0000 35.2190
#
#
#
# Elastic Compliance Matrix: (Units=1/GPa)
#
#
# Indices 1 2 3 4 5 6 
#
# 1 0.009442 -0.001773 -0.002502 0.000000 0.000000 0.000000
# 2 -0.001773 0.015851 -0.001028 0.000000 0.000000 0.000000
# 3 -0.002502 -0.001028 0.009476 0.000000 0.000000 0.000000
# 4 0.000000 0.000000 0.000000 0.070976 0.000000 0.000000
# 5 0.000000 0.000000 0.000000 0.000000 0.035531 0.000000
# 6 0.000000 0.000000 0.000000 0.000000 0.000000 0.028394
#
#
# Mechanical properties :
#
#
# Convention : Reuss Voigt Hill
#
# Bulk Modulus (GPa) = 41.38753 46.26819 43.82786
# Shear Modulus (GPa) = 26.54919 31.44090 28.99505
#
# Velocity S-wave (km/s) = 3.50817 3.81770 3.66620
# Velocity P-wave (km/s) = 5.96619 6.39385 6.18372
#
# Compressibility (1/GPa) = 0.02416187
#
# Stress axis : x y z
#
# Youngs Moduli (GPa) = 105.91186 63.08940 105.52584
#
# Poissons Ratio (x) = 0.11186 0.26403
# Poissons Ratio (y) = 0.18778 0.10852
# Poissons Ratio (z) = 0.26500 0.06488
#
# Static dielectric constant tensor:
#      x y z
#    x 1.852380 0.000000 0.000000 
#    y 0.000000 1.951470 0.000000 
#    z 0.000000 0.000000 1.768080 
# 
# From -- ./inp_files/8942.got.cif
#   From: 2010.05.17/outbox.cif.g08.bks.cpg/sg33_5_cif.got.tgz:8942.got - 2010.06.03 17:15:25.
