data_PCOD9344306
_publ_section_title
;
Structure prediction by ZEFSAII (Michael W. Deem and Ramdas Pophale) SiO2 
 PCOD9344306
Probable space group: P B A 2
;
_chemical_formula_sum "Si O2"
_cell_formula_units_Z 26
_cell_length_a 8.901693
_cell_length_b 16.635336
_cell_length_c 7.980561
_cell_angle_alpha 90.000000
_cell_angle_beta 90.000000
_cell_angle_gamma 90.000000
_cell_volume 1181.782653
_symmetry_space_group_name_H-M "P B A 2"
_symmetry_group_IT_number 32
_symmetry_cell_setting 'orthorhombic'
loop_
_space_group_symop_operation_xyz
x,y,z
-x,-y,z
1/2-x,1/2+y,z
1/2+x,1/2-y,z
loop_
_atom_site_type_symbol
_atom_site_label
_atom_site_fract_x
_atom_site_fract_y
_atom_site_fract_z
Si Si1 0.268134 0.440676 0.461140
Si Si2 0.500000 0.000000 0.885799
Si Si3 0.760624 0.779189 0.768262
Si Si4 0.215148 0.941549 0.074194
Si Si5 0.396055 0.618824 0.467687
Si Si6 0.096496 0.124818 0.073651
Si Si7 0.462345 0.855342 0.701273
O O1 0.249410 0.423186 0.265822
O O2 0.296723 0.536691 0.480097
O O3 0.430877 0.403612 0.507277
O O4 0.126507 0.400818 0.552584
O O5 0.562451 0.928089 0.775443
O O6 0.371741 0.952541 0.981555
O O7 0.838857 0.818926 0.604486
O O8 0.587280 0.785844 0.714357
O O9 0.822087 0.689295 0.787363
O O10 0.809402 0.823911 0.940327
O O11 0.079863 0.881940 0.024707
O O12 0.151101 0.032540 0.066825
O O13 0.389274 0.647508 0.271863
#
# Coordination Sequence:
#
# PCOD9344306 Si02
#       7
#     4   2   4   4   4   4   4
#     4   9  20  41  68  99 133 173 231 285 342 424
#     4  12  24  40  64 102 130 176 234 282 342 406
#     4  12  25  44  65  95 145 182 225 294 352 431
#     4   9  20  39  69  98 132 174 229 290 339 412
#     4   9  20  41  73  99 131 178 226 287 352 411
#     4   9  20  42  68 102 129 177 233 278 352 422
#     4  12  27  43  64 102 137 185 236 282 359 426
#
# _framework density 22.000661000000001
#
# number of rings (size 3 to 8) (size 9 to 14) (size 15 to 20)
#    0.000    1.846    1.538    3.692    4.308    4.308 
#    2.769    0.000    0.000    0.000    0.000    0.000 
#    0.000    0.000    0.000    0.000    0.000    0.000 
#
# Total GULP energy -144775.713929 kJ/mol
# GULP energy per Si atom -5568.296690 kJ/mol
# Density = 2.195059 g / cm^3
# Si number density = 22.000661 Si / 1000 Ang^3
#
#
#
# Elastic Constant Matrix: (Units=GPa)
#
#
# Indices 1 2 3 4 5 6 
#
# 1 137.2040 27.4944 67.0164 0.0000 0.0000 0.0000
# 2 27.4944 48.2880 24.5609 0.0000 0.0000 0.0000
# 3 67.0164 24.5609 81.9906 0.0000 0.0000 0.0000
# 4 0.0000 0.0000 0.0000 7.6434 0.0000 0.0000
# 5 0.0000 0.0000 0.0000 0.0000 17.4121 0.0000
# 6 0.0000 0.0000 0.0000 0.0000 0.0000 33.8160
#
#
#
# Elastic Compliance Matrix: (Units=1/GPa)
#
#
# Indices 1 2 3 4 5 6 
#
# 1 0.012333 -0.002236 -0.009411 0.000000 0.000000 0.000000
# 2 -0.002236 0.024837 -0.005613 0.000000 0.000000 0.000000
# 3 -0.009411 -0.005613 0.021570 0.000000 0.000000 0.000000
# 4 0.000000 0.000000 0.000000 0.130833 0.000000 0.000000
# 5 0.000000 0.000000 0.000000 0.000000 0.057431 0.000000
# 6 0.000000 0.000000 0.000000 0.000000 0.000000 0.029572
#
#
# Mechanical properties :
#
#
# Convention : Reuss Voigt Hill
#
# Bulk Modulus (GPa) = 41.28588 56.18068 48.73328
# Shear Modulus (GPa) = 15.66571 21.66835 18.66703
#
# Velocity S-wave (km/s) = 2.67133 3.14171 2.91602
# Velocity P-wave (km/s) = 5.32176 6.22509 5.79107
#
# Compressibility (1/GPa) = 0.02422136
#
# Stress axis : x y z
#
# Youngs Moduli (GPa) = 81.08214 40.26285 46.36031
#
# Poissons Ratio (x) = 0.09001 0.43630
# Poissons Ratio (y) = 0.18126 0.26021
# Poissons Ratio (z) = 0.76307 0.22599
#
# Static dielectric constant tensor:
#      x y z
#    x 2.033440 0.000000 0.000000 
#    y 0.000000 1.585380 0.000000 
#    z 0.000000 0.000000 1.844610 
# 
# From -- ./inp_files/2454.got.cif
#   From: 2010.05.17/outbox.cif.g08.bks.cpg/sg32_2_cif.got.tgz:2454.got - 2010.06.03 17:12:27.
