data_PCOD9344876
_publ_section_title
;
Structure prediction by ZEFSAII (Michael W. Deem and Ramdas Pophale) SiO2 
 PCOD9344876
Probable space group: P N A 21
;
_chemical_formula_sum "Si O2"
_cell_formula_units_Z 24
_cell_length_a 9.551113
_cell_length_b 12.527902
_cell_length_c 6.916660
_cell_angle_alpha 90.000000
_cell_angle_beta 90.000000
_cell_angle_gamma 90.000000
_cell_volume 827.615772
_symmetry_space_group_name_H-M "P N A 21"
_symmetry_group_IT_number 33
_symmetry_cell_setting 'orthorhombic'
loop_
_space_group_symop_operation_xyz
x,y,z
-x,-y,1/2+z
1/2-x,1/2+y,1/2+z
1/2+x,1/2-y,z
loop_
_atom_site_type_symbol
_atom_site_label
_atom_site_fract_x
_atom_site_fract_y
_atom_site_fract_z
Si Si1 0.678589 0.360376 0.750000
Si Si2 0.326747 0.942378 0.747407
Si Si3 0.576775 0.693644 0.754366
Si Si4 0.092300 0.784123 0.212134
Si Si5 0.768334 0.891765 0.787048
Si Si6 0.421327 0.925780 0.144906
O O1 0.759153 0.454512 0.852167
O O2 0.756279 0.248293 0.784425
O O3 0.516322 0.366748 0.799080
O O4 0.709295 0.381599 0.520668
O O5 0.194389 0.882919 0.661206
O O6 0.454675 0.985419 0.621960
O O7 0.386907 0.879959 0.931570
O O8 0.644873 0.810358 0.719832
O O9 0.418126 0.655218 0.709991
O O10 0.594324 0.684631 0.987226
O O11 0.005076 0.673095 0.237679
O O12 0.708785 0.010734 0.740597
#
# Coordination Sequence:
#
# PCOD9344876 Si02
#       6
#     4   4   4   4   4   4
#     4   9  19  36  56  82 109 149 193 241 290 350
#     4  11  22  36  59  85 118 155 201 243 297 353
#     4  10  20  38  62  87 116 160 200 239 294 373
#     4   9  18  34  58  79 109 149 192 230 288 354
#     4  10  20  36  60  86 114 150 199 243 297 355
#     4  11  21  38  59  85 116 159 199 248 298 353
#
# _framework density 28.998963
#
# number of rings (size 3 to 8) (size 9 to 14) (size 15 to 20)
#    0.000    2.000    0.000    7.000    0.000    4.000 
#    0.000    8.333    0.000    0.000    0.000    0.000 
#    0.000    0.000    0.000    0.000    0.000    0.000 
#
# Total GULP energy -134129.963624 kJ/mol
# GULP energy per Si atom -5588.748484 kJ/mol
# Density = 2.893296 g / cm^3
# Si number density = 28.998963 Si / 1000 Ang^3
#
#
#
# Elastic Constant Matrix: (Units=GPa)
#
#
# Indices 1 2 3 4 5 6 
#
# 1 217.9286 36.5338 10.1850 0.0000 0.0000 0.0000
# 2 36.5338 58.2795 -3.3431 0.0000 0.0000 0.0000
# 3 10.1850 -3.3431 109.8874 0.0000 0.0000 0.0000
# 4 0.0000 0.0000 0.0000 31.4101 0.0000 0.0000
# 5 0.0000 0.0000 0.0000 0.0000 25.2908 0.0000
# 6 0.0000 0.0000 0.0000 0.0000 0.0000 53.1324
#
#
#
# Elastic Compliance Matrix: (Units=1/GPa)
#
#
# Indices 1 2 3 4 5 6 
#
# 1 0.005164 -0.003270 -0.000578 0.000000 0.000000 0.000000
# 2 -0.003270 0.019260 0.000889 0.000000 0.000000 0.000000
# 3 -0.000578 0.000889 0.009181 0.000000 0.000000 0.000000
# 4 0.000000 0.000000 0.000000 0.031837 0.000000 0.000000
# 5 0.000000 0.000000 0.000000 0.000000 0.039540 0.000000
# 6 0.000000 0.000000 0.000000 0.000000 0.000000 0.018821
#
#
# Mechanical properties :
#
#
# Convention : Reuss Voigt Hill
#
# Bulk Modulus (GPa) = 36.11959 52.53854 44.32906
# Shear Modulus (GPa) = 35.98424 44.81463 40.39944
#
# Velocity S-wave (km/s) = 3.52643 3.93541 3.73652
# Velocity P-wave (km/s) = 5.39106 6.22950 5.82538
#
# Compressibility (1/GPa) = 0.02768581
#
# Stress axis : x y z
#
# Youngs Moduli (GPa) = 193.65182 51.92185 108.92231
#
# Poissons Ratio (x) = 0.16980 0.06297
# Poissons Ratio (y) = 0.63329 -0.09684
# Poissons Ratio (z) = 0.11195 -0.04616
#
# Static dielectric constant tensor:
#      x y z
#    x 2.291150 0.000000 0.000000 
#    y 0.000000 2.340480 0.000000 
#    z 0.000000 0.000000 2.337630 
# 
# From -- ./inp_files/3164.got.cif
#   From: 2010.05.17/outbox.cif.g08.bks.cpg/sg33_2_cif.got.tgz:3164.got - 2010.06.03 17:15:25.
