data_PCOD9344853
_publ_section_title
;
Structure prediction by ZEFSAII (Michael W. Deem and Ramdas Pophale) SiO2 
 PCOD9344853
Probable space group: P N A 21
;
_chemical_formula_sum "Si O2"
_cell_formula_units_Z 32
_cell_length_a 5.436837
_cell_length_b 29.686549
_cell_length_c 8.453983
_cell_angle_alpha 90.000000
_cell_angle_beta 90.000000
_cell_angle_gamma 90.000000
_cell_volume 1364.480702
_symmetry_space_group_name_H-M "P N A 21"
_symmetry_group_IT_number 33
_symmetry_cell_setting 'orthorhombic'
loop_
_space_group_symop_operation_xyz
x,y,z
-x,-y,1/2+z
1/2-x,1/2+y,1/2+z
1/2+x,1/2-y,z
loop_
_atom_site_type_symbol
_atom_site_label
_atom_site_fract_x
_atom_site_fract_y
_atom_site_fract_z
Si Si1 0.813269 0.259787 0.556470
Si Si2 0.703119 0.916926 0.786979
Si Si3 0.442606 0.468016 0.519740
Si Si4 0.091162 0.874367 0.594945
Si Si5 0.795002 0.225175 0.203599
Si Si6 0.693646 0.030863 0.208051
Si Si7 0.926425 0.113668 0.722816
Si Si8 0.059375 0.640046 0.062726
O O1 0.058757 0.245857 0.646677
O O2 0.801531 0.230528 0.395567
O O3 0.846481 0.311418 0.507688
O O4 0.817254 0.882241 0.664170
O O5 0.600065 0.962290 0.705541
O O6 0.917184 0.933359 0.903322
O O7 0.528082 0.892493 0.912803
O O8 0.648010 0.501145 0.589422
O O9 0.251078 0.485640 0.388140
O O10 0.354345 0.436880 0.664576
O O11 0.191426 0.826695 0.653801
O O12 0.088020 0.878597 0.407842
O O13 0.238436 0.917679 0.659538
O O14 0.043510 0.250801 0.149243
O O15 0.209281 0.122815 0.668891
O O16 0.706416 0.143021 0.645120
#
# Coordination Sequence:
#
# PCOD9344853 Si02
#       8
#     4   4   4   4   4   4   4   4
#     4  10  20  35  64  97 124 172 225 286 332 409
#     4  10  23  41  68  99 132 185 236 293 342 434
#     4  10  23  42  62 103 135 183 234 288 353 413
#     4  11  26  43  69 104 136 187 240 287 366 417
#     4  10  23  40  67  99 136 176 231 294 340 414
#     4  11  23  42  71  95 144 180 239 290 349 429
#     4  11  25  45  68 100 145 184 227 293 348 428
#     4  11  23  44  69  95 138 181 234 281 356 412
#
# _framework density 23.452143
#
# number of rings (size 3 to 8) (size 9 to 14) (size 15 to 20)
#    0.000    1.500    1.250    3.000    7.000    3.000 
#    2.250    3.750    0.000    0.000    0.000    0.000 
#    0.000    0.000    0.000    0.000    0.000    0.000 
#
# Total GULP energy -178590.704006 kJ/mol
# GULP energy per Si atom -5580.959500 kJ/mol
# Density = 2.339877 g / cm^3
# Si number density = 23.452143 Si / 1000 Ang^3
#
#
#
# Elastic Constant Matrix: (Units=GPa)
#
#
# Indices 1 2 3 4 5 6 
#
# 1 87.6740 -10.5863 20.4643 0.0000 0.0000 0.0000
# 2 -10.5863 62.9399 19.7124 0.0000 0.0000 0.0000
# 3 20.4643 19.7124 102.2893 0.0000 0.0000 0.0000
# 4 0.0000 0.0000 0.0000 20.0172 0.0000 0.0000
# 5 0.0000 0.0000 0.0000 0.0000 17.6560 0.0000
# 6 0.0000 0.0000 0.0000 0.0000 0.0000 33.5949
#
#
#
# Elastic Compliance Matrix: (Units=1/GPa)
#
#
# Indices 1 2 3 4 5 6 
#
# 1 0.012498 0.003071 -0.003092 0.000000 0.000000 0.000000
# 2 0.003071 0.017663 -0.004018 0.000000 0.000000 0.000000
# 3 -0.003092 -0.004018 0.011169 0.000000 0.000000 0.000000
# 4 0.000000 0.000000 0.000000 0.049957 0.000000 0.000000
# 5 0.000000 0.000000 0.000000 0.000000 0.056638 0.000000
# 6 0.000000 0.000000 0.000000 0.000000 0.000000 0.029766
#
#
# Mechanical properties :
#
#
# Convention : Reuss Voigt Hill
#
# Bulk Modulus (GPa) = 30.07411 34.67599 32.37505
# Shear Modulus (GPa) = 25.39936 29.14115 27.27026
#
# Velocity S-wave (km/s) = 3.29451 3.52885 3.41369
# Velocity P-wave (km/s) = 5.22716 5.60550 5.41963
#
# Compressibility (1/GPa) = 0.03325119
#
# Stress axis : x y z
#
# Youngs Moduli (GPa) = 80.01001 56.61512 89.53194
#
# Poissons Ratio (x) = -0.17385 0.27685
# Poissons Ratio (y) = -0.24568 0.35976
# Poissons Ratio (z) = 0.24741 0.22749
#
# Static dielectric constant tensor:
#      x y z
#    x 2.241970 0.000000 0.000000 
#    y 0.000000 1.939340 0.000000 
#    z 0.000000 0.000000 1.867870 
# 
# From -- ./inp_files/2838.got.cif
#   From: 2010.05.17/outbox.cif.g08.bks.cpg/sg33_2_cif.got.tgz:2838.got - 2010.06.03 17:15:25.
