data_PCOD9344437
_publ_section_title
;
Structure prediction by ZEFSAII (Michael W. Deem and Ramdas Pophale) SiO2 
 PCOD9344437
Probable space group: P N A 21
;
_chemical_formula_sum "Si O2"
_cell_formula_units_Z 24
_cell_length_a 13.905305
_cell_length_b 11.623649
_cell_length_c 5.570193
_cell_angle_alpha 90.000000
_cell_angle_beta 90.000000
_cell_angle_gamma 90.000000
_cell_volume 900.312437
_symmetry_space_group_name_H-M "P N A 21"
_symmetry_group_IT_number 33
_symmetry_cell_setting 'orthorhombic'
loop_
_space_group_symop_operation_xyz
x,y,z
-x,-y,1/2+z
1/2-x,1/2+y,1/2+z
1/2+x,1/2-y,z
loop_
_atom_site_type_symbol
_atom_site_label
_atom_site_fract_x
_atom_site_fract_y
_atom_site_fract_z
Si Si1 0.619381 0.829605 0.213250
Si Si2 0.799011 0.583673 0.713315
Si Si3 0.113246 0.038298 0.712050
Si Si4 0.407248 0.195676 0.213258
Si Si5 0.601124 0.087727 0.713305
Si Si6 0.069998 0.120026 0.212069
O O1 0.670391 0.950211 0.213300
O O2 0.642548 0.772755 0.464105
O O3 0.504184 0.854685 0.213217
O O4 0.642529 0.772731 0.962410
O O5 0.685085 0.568411 0.713055
O O6 0.842915 0.621896 0.456955
O O7 0.842861 0.621911 0.969725
O O8 0.126267 0.106290 0.462114
O O9 0.125937 0.106796 0.961466
O O10 0.005006 0.987650 0.711751
O O11 0.415702 0.053781 0.213281
O O12 0.506876 0.264891 0.213083
#
# Coordination Sequence:
#
# PCOD9344437 Si02
#       6
#     4   4   4   4   4   4
#     4  10  19  33  58  79 111 144 175 203 283 324
#     4  10  18  32  56  78 108 136 178 223 258 321
#     4  10  21  37  57  79 101 149 183 227 260 311
#     4  10  18  32  56  77 105 142 176 226 251 328
#     4  10  19  33  58  83 107 146 173 205 281 326
#     4  10  21  37  57  76 104 145 193 214 269 308
#
# _framework density 26.657413999999999
#
# number of rings (size 3 to 8) (size 9 to 14) (size 15 to 20)
#    0.000    2.000    0.000    7.000    0.000    0.000 
#    0.000    0.000   58.667    0.000    0.000    0.000 
#    0.000    0.000    0.000    0.000    0.000    0.000 
#
# Total GULP energy -134239.556452 kJ/mol
# GULP energy per Si atom -5593.314852 kJ/mol
# Density = 2.659674 g / cm^3
# Si number density = 26.657414 Si / 1000 Ang^3
#
#
#
# Elastic Constant Matrix: (Units=GPa)
#
#
# Indices 1 2 3 4 5 6 
#
# 1 41.9626 14.3515 29.2243 0.0000 0.0000 0.0000
# 2 14.3515 88.7477 58.6644 0.0000 0.0000 0.0000
# 3 29.2243 58.6644 311.6271 0.0000 0.0000 0.0000
# 4 0.0000 0.0000 0.0000 10.7754 0.0000 0.0000
# 5 0.0000 0.0000 0.0000 0.0000 7.9344 0.0000
# 6 0.0000 0.0000 0.0000 0.0000 0.0000 16.7586
#
#
#
# Elastic Compliance Matrix: (Units=1/GPa)
#
#
# Indices 1 2 3 4 5 6 
#
# 1 0.026168 -0.002980 -0.001893 0.000000 0.000000 0.000000
# 2 -0.002980 0.013209 -0.002207 0.000000 0.000000 0.000000
# 3 -0.001893 -0.002207 0.003802 0.000000 0.000000 0.000000
# 4 0.000000 0.000000 0.000000 0.092804 0.000000 0.000000
# 5 0.000000 0.000000 0.000000 0.000000 0.126034 0.000000
# 6 0.000000 0.000000 0.000000 0.000000 0.000000 0.059671
#
#
# Mechanical properties :
#
#
# Convention : Reuss Voigt Hill
#
# Bulk Modulus (GPa) = 34.46109 71.86865 53.16487
# Shear Modulus (GPa) = 14.47086 29.76681 22.11884
#
# Velocity S-wave (km/s) = 2.33243 3.34525 2.88365
# Velocity P-wave (km/s) = 4.49546 6.47607 5.57443
#
# Compressibility (1/GPa) = 0.02901823
#
# Stress axis : x y z
#
# Youngs Moduli (GPa) = 38.21395 75.70706 263.02109
#
# Poissons Ratio (x) = 0.22564 0.49790
# Poissons Ratio (y) = 0.11389 0.58051
# Poissons Ratio (z) = 0.07234 0.16709
#
# Static dielectric constant tensor:
#      x y z
#    x 2.097080 0.000000 0.000000 
#    y 0.000000 2.046020 0.000000 
#    z 0.000000 0.000000 2.126620 
# 
# From -- ./inp_files/1348.got.cif
#   From: 2010.05.17/outbox.cif.g08.bks.cpg/sg33_1_cif.got.tgz:1348.got - 2010.06.03 17:15:25.
