data_PCOD9344122
_publ_section_title
;
Structure prediction by ZEFSAII (Michael W. Deem and Ramdas Pophale) SiO2 
 PCOD9344122
Probable space group: P B A 2
;
_chemical_formula_sum "Si O2"
_cell_formula_units_Z 20
_cell_length_a 19.128965
_cell_length_b 8.072383
_cell_length_c 5.280458
_cell_angle_alpha 90.000000
_cell_angle_beta 90.000000
_cell_angle_gamma 90.000000
_cell_volume 815.388955
_symmetry_space_group_name_H-M "P B A 2"
_symmetry_group_IT_number 32
_symmetry_cell_setting 'orthorhombic'
loop_
_space_group_symop_operation_xyz
x,y,z
-x,-y,z
1/2-x,1/2+y,z
1/2+x,1/2-y,z
loop_
_atom_site_type_symbol
_atom_site_label
_atom_site_fract_x
_atom_site_fract_y
_atom_site_fract_z
Si Si1 0.935519 0.130911 0.630420
Si Si2 0.020194 0.693967 0.125772
Si Si3 0.199131 0.097713 0.630734
Si Si4 0.624272 0.170096 0.973459
Si Si5 0.339111 0.930847 0.467405
O O1 0.861358 0.038216 0.611250
O O2 0.947673 0.248204 0.389043
O O3 0.000000 0.000000 0.630795
O O4 0.938180 0.235023 0.888353
O O5 0.000000 0.500000 0.119525
O O6 0.941507 0.768429 0.086393
O O7 0.275808 0.029535 0.589591
O O8 0.184776 0.203440 0.885517
O O9 0.185839 0.241185 0.426859
O O10 0.605095 0.092035 0.694872
O O11 0.642862 0.028986 0.178882
#
# Coordination Sequence:
#
# PCOD9344122 Si02
#       5
#     4   4   4   4   4
#     4  12  24  44  74 101 139 183 231 285 355 417
#     4  12  26  44  70 104 139 179 231 291 348 409
#     4  10  25  42  67 101 131 183 227 288 334 423
#     4  10  23  44  64  95 137 172 227 283 336 412
#     4  10  24  39  68  89 137 171 231 274 350 386
#
# _framework density 24.528172000000001
#
# number of rings (size 3 to 8) (size 9 to 14) (size 15 to 20)
#    1.200    0.000    2.000    3.600    5.600    3.200 
#    0.000    0.000    0.000    0.000    0.000    0.000 
#    0.000    0.000    0.000    0.000    0.000    0.000 
#
# Total GULP energy -111639.973837 kJ/mol
# GULP energy per Si atom -5581.998692 kJ/mol
# Density = 2.447234 g / cm^3
# Si number density = 24.528172 Si / 1000 Ang^3
#
#
#
# Elastic Constant Matrix: (Units=GPa)
#
#
# Indices 1 2 3 4 5 6 
#
# 1 34.6200 -11.8377 3.5674 0.0000 0.0000 0.0000
# 2 -11.8377 93.2433 36.8439 0.0000 0.0000 0.0000
# 3 3.5674 36.8439 197.6281 0.0000 0.0000 0.0000
# 4 0.0000 0.0000 0.0000 42.1100 0.0000 0.0000
# 5 0.0000 0.0000 0.0000 0.0000 13.2367 0.0000
# 6 0.0000 0.0000 0.0000 0.0000 0.0000 38.4123
#
#
#
# Elastic Compliance Matrix: (Units=1/GPa)
#
#
# Indices 1 2 3 4 5 6 
#
# 1 0.030538 0.004420 -0.001375 0.000000 0.000000 0.000000
# 2 0.004420 0.012217 -0.002357 0.000000 0.000000 0.000000
# 3 -0.001375 -0.002357 0.005524 0.000000 0.000000 0.000000
# 4 0.000000 0.000000 0.000000 0.023747 0.000000 0.000000
# 5 0.000000 0.000000 0.000000 0.000000 0.075547 0.000000
# 6 0.000000 0.000000 0.000000 0.000000 0.000000 0.026033
#
#
# Mechanical properties :
#
#
# Convention : Reuss Voigt Hill
#
# Bulk Modulus (GPa) = 20.13889 42.51540 31.32715
# Shear Modulus (GPa) = 26.48521 38.54631 32.51576
#
# Velocity S-wave (km/s) = 3.28958 3.96853 3.64490
# Velocity P-wave (km/s) = 4.75991 6.19434 5.52389
#
# Compressibility (1/GPa) = 0.04965516
#
# Stress axis : x y z
#
# Youngs Moduli (GPa) = 32.74582 81.85077 181.01703
#
# Poissons Ratio (x) = -0.36182 0.24896
# Poissons Ratio (y) = -0.14475 0.42674
# Poissons Ratio (z) = 0.04504 0.19296
#
# Static dielectric constant tensor:
#      x y z
#    x 2.089760 0.000000 0.000000 
#    y 0.000000 2.023360 0.000000 
#    z 0.000000 0.000000 2.021830 
# 
# From -- ./inp_files/1391.got.cif
#   From: 2010.05.17/outbox.cif.g08.bks.cpg/sg32_1_cif.got.tgz:1391.got - 2010.06.03 17:12:27.
