data_PCOD9344321
_publ_section_title
;
Structure prediction by ZEFSAII (Michael W. Deem and Ramdas Pophale) SiO2 
 PCOD9344321
Probable space group: P B A 2
;
_chemical_formula_sum "Si O2"
_cell_formula_units_Z 14
_cell_length_a 5.317976
_cell_length_b 18.937455
_cell_length_c 4.905784
_cell_angle_alpha 90.000000
_cell_angle_beta 90.000000
_cell_angle_gamma 90.000000
_cell_volume 494.056263
_symmetry_space_group_name_H-M "P B A 2"
_symmetry_group_IT_number 32
_symmetry_cell_setting 'orthorhombic'
loop_
_space_group_symop_operation_xyz
x,y,z
-x,-y,z
1/2-x,1/2+y,z
1/2+x,1/2-y,z
loop_
_atom_site_type_symbol
_atom_site_label
_atom_site_fract_x
_atom_site_fract_y
_atom_site_fract_z
Si Si1 0.352290 0.599680 0.548860
Si Si2 0.143228 0.369389 0.203460
Si Si3 0.866336 0.767448 0.817479
Si Si4 0.000000 0.500000 0.817224
O O1 0.606822 0.611829 0.378293
O O2 0.372147 0.648133 0.823743
O O3 0.239532 0.525053 0.641697
O O4 0.110636 0.626983 0.379732
O O5 0.150013 0.291598 0.056709
O O6 0.099773 0.433386 0.989488
O O7 0.616423 0.749439 0.658111
#
# Coordination Sequence:
#
# PCOD9344321 Si02
#       4
#     4   4   4   2
#     4  12  30  55  86 122 168 225 277 348 432 490
#     4  12  30  55  86 122 168 225 277 348 432 490
#     4  12  26  54  82 126 162 210 286 356 400 518
#     4  12  30  62  76 132 172 228 282 358 400 556
#
# _framework density 28.336853000000001
#
# number of rings (size 3 to 8) (size 9 to 14) (size 15 to 20)
#    0.000    0.000    2.857    4.286    0.000   13.714 
#    0.000    0.000    0.000    0.000    0.000    0.000 
#    0.000    0.000    0.000    0.000    0.000    0.000 
#
# Total GULP energy -78276.539630 kJ/mol
# GULP energy per Si atom -5591.181402 kJ/mol
# Density = 2.827236 g / cm^3
# Si number density = 28.336853 Si / 1000 Ang^3
#
#
#
# Elastic Constant Matrix: (Units=GPa)
#
#
# Indices 1 2 3 4 5 6 
#
# 1 287.8386 53.2519 74.6835 0.0000 0.0000 0.0000
# 2 53.2519 187.5753 106.5545 0.0000 0.0000 0.0000
# 3 74.6835 106.5545 144.9598 0.0000 0.0000 0.0000
# 4 0.0000 0.0000 0.0000 89.9941 0.0000 0.0000
# 5 0.0000 0.0000 0.0000 0.0000 -0.2225 0.0000
# 6 0.0000 0.0000 0.0000 0.0000 0.0000 44.2674
#
#
#
# Elastic Compliance Matrix: (Units=1/GPa)
#
#
# Indices 1 2 3 4 5 6 
#
# 1 0.004011 0.000060 -0.002111 0.000000 0.000000 0.000000
# 2 0.000060 0.009154 -0.006760 0.000000 0.000000 0.000000
# 3 -0.002111 -0.006760 0.012955 0.000000 0.000000 0.000000
# 4 0.000000 0.000000 0.000000 0.011112 0.000000 0.000000
# 5 0.000000 0.000000 0.000000 0.000000 -4.494235 0.000000
# 6 0.000000 0.000000 0.000000 0.000000 0.000000 0.022590
#
#
# Mechanical properties :
#
#
# Convention : Reuss Voigt Hill
#
# Bulk Modulus (GPa) = 117.65891 121.03928 119.34909
# Shear Modulus (GPa) = -1.13277 52.53337 25.70030
#
# Velocity S-wave (km/s) = -0.63294 4.31035 3.01484
# Velocity P-wave (km/s) = 6.40917 8.22067 7.37078
#
# Compressibility (1/GPa) = 0.00849914
#
# Stress axis : x y z
#
# Youngs Moduli (GPa) = 249.33673 109.24023 77.19091
#
# Poissons Ratio (x) = -0.00660 0.16293
# Poissons Ratio (y) = -0.01506 0.52181
# Poissons Ratio (z) = 0.52627 0.73846
#
# Static dielectric constant tensor:
#      x y z
#    x 2.251040 0.000000 0.000000 
#    y 0.000000 2.349120 0.000000 
#    z 0.000000 0.000000 2.190040 
# 
# From -- ./inp_files/100.got.cif
#   From: 2010.05.17/outbox.cif.g08.bks.cpg/sg32_1_cif.got.tgz:100.got - 2010.06.03 17:12:27.
