data_PCOD9344777
_publ_section_title
;
Structure prediction by ZEFSAII (Michael W. Deem and Ramdas Pophale) SiO2 
 PCOD9344777
Probable space group: P N A 21
;
_chemical_formula_sum "Si O2"
_cell_formula_units_Z 20
_cell_length_a 22.129873
_cell_length_b 6.837513
_cell_length_c 5.161370
_cell_angle_alpha 90.000000
_cell_angle_beta 90.000000
_cell_angle_gamma 90.000000
_cell_volume 780.983898
_symmetry_space_group_name_H-M "P N A 21"
_symmetry_group_IT_number 33
_symmetry_cell_setting 'orthorhombic'
loop_
_space_group_symop_operation_xyz
x,y,z
-x,-y,1/2+z
1/2-x,1/2+y,1/2+z
1/2+x,1/2-y,z
loop_
_atom_site_type_symbol
_atom_site_label
_atom_site_fract_x
_atom_site_fract_y
_atom_site_fract_z
Si Si1 0.528109 0.245314 0.430510
Si Si2 0.811862 0.713780 0.217115
Si Si3 0.383072 0.455175 0.971338
Si Si4 0.578058 0.020236 0.926534
Si Si5 0.684740 0.605929 0.978824
O O1 0.547601 0.474018 0.446234
O O2 0.458110 0.183835 0.401642
O O3 0.546524 0.151155 0.704138
O O4 0.561668 0.128743 0.195727
O O5 0.852539 0.830170 0.008810
O O6 0.851052 0.543229 0.352224
O O7 0.749188 0.680000 0.073843
O O8 0.803622 0.873328 0.442718
O O9 0.348761 0.349903 0.207890
O O10 0.361130 0.355400 0.711838
#
# Coordination Sequence:
#
# PCOD9344777 Si02
#       5
#     4   4   4   4   4
#     4   9  14  27  41  66  89 119 146 198 250 292
#     4   9  20  31  44  70  95 133 157 201 242 310
#     4   9  18  30  44  67  93 126 154 198 243 300
#     4   9  16  24  45  62  94 117 148 197 249 291
#     4  10  20  28  48  61 101 125 163 190 246 295
#
# _framework density 25.608723000000001
#
# number of rings (size 3 to 8) (size 9 to 14) (size 15 to 20)
#    1.200    1.600    2.000    0.000    2.800    0.000 
#    0.000    0.000    0.000    0.000    0.000    0.000 
#    6.000    0.000    0.000    0.000    0.000    0.000 
#
# Total GULP energy -111435.216836 kJ/mol
# GULP energy per Si atom -5571.760842 kJ/mol
# Density = 2.555044 g / cm^3
# Si number density = 25.608723 Si / 1000 Ang^3
#
#
#
# Elastic Constant Matrix: (Units=GPa)
#
#
# Indices 1 2 3 4 5 6 
#
# 1 118.9761 22.0901 32.5070 0.0000 0.0000 0.0000
# 2 22.0901 46.4773 9.3671 0.0000 0.0000 0.0000
# 3 32.5070 9.3671 167.2436 0.0000 0.0000 0.0000
# 4 0.0000 0.0000 0.0000 21.5985 0.0000 0.0000
# 5 0.0000 0.0000 0.0000 0.0000 24.6557 0.0000
# 6 0.0000 0.0000 0.0000 0.0000 0.0000 36.1115
#
#
#
# Elastic Compliance Matrix: (Units=1/GPa)
#
#
# Indices 1 2 3 4 5 6 
#
# 1 0.009642 -0.004253 -0.001636 0.000000 0.000000 0.000000
# 2 -0.004253 0.023637 -0.000497 0.000000 0.000000 0.000000
# 3 -0.001636 -0.000497 0.006325 0.000000 0.000000 0.000000
# 4 0.000000 0.000000 0.000000 0.046300 0.000000 0.000000
# 5 0.000000 0.000000 0.000000 0.000000 0.040559 0.000000
# 6 0.000000 0.000000 0.000000 0.000000 0.000000 0.027692
#
#
# Mechanical properties :
#
#
# Convention : Reuss Voigt Hill
#
# Bulk Modulus (GPa) = 37.26861 51.18059 44.22460
# Shear Modulus (GPa) = 28.43003 34.38865 31.40934
#
# Velocity S-wave (km/s) = 3.33554 3.66847 3.50595
# Velocity P-wave (km/s) = 5.42394 6.16218 5.80481
#
# Compressibility (1/GPa) = 0.02683223
#
# Stress axis : x y z
#
# Youngs Moduli (GPa) = 103.71697 42.30576 158.09998
#
# Poissons Ratio (x) = 0.17992 0.25863
# Poissons Ratio (y) = 0.44109 0.07862
# Poissons Ratio (z) = 0.16966 0.02104
#
# Static dielectric constant tensor:
#      x y z
#    x 2.124880 0.000000 0.000000 
#    y 0.000000 2.103110 0.000000 
#    z 0.000000 0.000000 1.954410 
# 
# From -- ./inp_files/1952.got.cif
#   From: 2010.05.17/outbox.cif.g08.bks.cpg/sg33_1_cif.got.tgz:1952.got - 2010.06.03 17:15:25.
