data_PCOD9344073
_publ_section_title
;
Structure prediction by ZEFSAII (Michael W. Deem and Ramdas Pophale) SiO2 
 PCOD9344073
Probable space group: P B A 2
;
_chemical_formula_sum "Si O2"
_cell_formula_units_Z 30
_cell_length_a 11.052959
_cell_length_b 21.078255
_cell_length_c 5.167935
_cell_angle_alpha 90.000000
_cell_angle_beta 90.000000
_cell_angle_gamma 90.000000
_cell_volume 1204.010449
_symmetry_space_group_name_H-M "P B A 2"
_symmetry_group_IT_number 32
_symmetry_cell_setting 'orthorhombic'
loop_
_space_group_symop_operation_xyz
x,y,z
-x,-y,z
1/2-x,1/2+y,z
1/2+x,1/2-y,z
loop_
_atom_site_type_symbol
_atom_site_label
_atom_site_fract_x
_atom_site_fract_y
_atom_site_fract_z
Si Si1 0.175182 0.541799 0.431850
Si Si2 0.462647 0.149056 0.651075
Si Si3 0.597515 0.382736 0.289391
Si Si4 0.760689 0.532266 0.915848
Si Si5 0.500000 0.500000 0.976818
Si Si6 0.052241 0.238273 0.436285
Si Si7 0.253721 0.701050 0.880615
Si Si8 0.187772 0.327527 0.017904
O O1 0.936861 0.410084 0.468112
O O2 0.296155 0.586127 0.461994
O O3 0.168971 0.488759 0.656520
O O4 0.190842 0.511919 0.149162
O O5 0.441951 0.217934 0.525788
O O6 0.355107 0.151507 0.857346
O O7 0.590815 0.157308 0.787699
O O8 0.534565 0.440425 0.151073
O O9 0.501061 0.332726 0.396286
O O10 0.662433 0.333521 0.092869
O O11 0.622309 0.517959 0.833622
O O12 0.761870 0.602132 0.042728
O O13 0.158561 0.217569 0.638477
O O14 0.110894 0.290321 0.237583
O O15 0.215095 0.772350 0.960697
#
# Coordination Sequence:
#
# PCOD9344073 Si02
#       8
#     4   4   4   4   2   4   4   4
#     4  11  25  46  72  99 146 189 237 290 355 443
#     4  11  23  42  70 101 131 192 229 289 368 418
#     4  10  22  45  67 105 139 184 235 294 357 443
#     4  11  27  48  69 105 146 189 239 302 353 440
#     4  10  24  44  74 100 142 188 234 290 374 418
#     4  10  23  40  70 101 135 179 242 294 351 422
#     4  10  22  44  68  98 143 182 235 298 355 434
#     4  10  26  44  66 106 143 179 244 301 351 430
#
# _framework density 24.916729
#
# number of rings (size 3 to 8) (size 9 to 14) (size 15 to 20)
#    0.000    1.600    1.333    1.600    7.467    6.933 
#    2.400    0.000    0.000    0.000    0.000    0.000 
#    0.000    0.000    0.000    0.000    0.000    0.000 
#
# Total GULP energy -167124.243225 kJ/mol
# GULP energy per Si atom -5570.808107 kJ/mol
# Density = 2.486002 g / cm^3
# Si number density = 24.916729 Si / 1000 Ang^3
#
#
#
# Elastic Constant Matrix: (Units=GPa)
#
#
# Indices 1 2 3 4 5 6 
#
# 1 37.2908 17.8742 -5.7453 0.0000 0.0000 0.0000
# 2 17.8742 171.4673 28.2575 0.0000 0.0000 0.0000
# 3 -5.7453 28.2575 56.2471 0.0000 0.0000 0.0000
# 4 0.0000 0.0000 0.0000 27.3915 0.0000 0.0000
# 5 0.0000 0.0000 0.0000 0.0000 36.2831 0.0000
# 6 0.0000 0.0000 0.0000 0.0000 0.0000 38.4100
#
#
#
# Elastic Compliance Matrix: (Units=1/GPa)
#
#
# Indices 1 2 3 4 5 6 
#
# 1 0.029443 -0.003887 0.004960 0.000000 0.000000 0.000000
# 2 -0.003887 0.006871 -0.003849 0.000000 0.000000 0.000000
# 3 0.004960 -0.003849 0.020219 0.000000 0.000000 0.000000
# 4 0.000000 0.000000 0.000000 0.036508 0.000000 0.000000
# 5 0.000000 0.000000 0.000000 0.000000 0.027561 0.000000
# 6 0.000000 0.000000 0.000000 0.000000 0.000000 0.026035
#
#
# Mechanical properties :
#
#
# Convention : Reuss Voigt Hill
#
# Bulk Modulus (GPa) = 19.61457 38.41977 29.01717
# Shear Modulus (GPa) = 29.55376 35.39151 32.47264
#
# Velocity S-wave (km/s) = 3.44772 3.77290 3.61397
# Velocity P-wave (km/s) = 4.87218 5.86791 5.39308
#
# Compressibility (1/GPa) = 0.05098252
#
# Stress axis : x y z
#
# Youngs Moduli (GPa) = 33.96345 145.52877 49.45828
#
# Poissons Ratio (x) = 0.56562 -0.24531
# Poissons Ratio (y) = 0.13200 0.19037
# Poissons Ratio (z) = -0.16846 0.56016
#
# Static dielectric constant tensor:
#      x y z
#    x 1.836100 0.000000 0.000000 
#    y 0.000000 2.172010 0.000000 
#    z 0.000000 0.000000 2.227990 
# 
# From -- ./inp_files/1010.got.cif
#   From: 2010.05.17/outbox.cif.g08.bks.cpg/sg32_1_cif.got.tgz:1010.got - 2010.06.03 17:12:27.
