data_PCOD9344813
_publ_section_title
;
Structure prediction by ZEFSAII (Michael W. Deem and Ramdas Pophale) SiO2 
 PCOD9344813
Probable space group: P N A 21
;
_chemical_formula_sum "Si O2"
_cell_formula_units_Z 20
_cell_length_a 9.473641
_cell_length_b 13.434472
_cell_length_c 5.583130
_cell_angle_alpha 90.000000
_cell_angle_beta 90.000000
_cell_angle_gamma 90.000000
_cell_volume 710.583741
_symmetry_space_group_name_H-M "P N A 21"
_symmetry_group_IT_number 33
_symmetry_cell_setting 'orthorhombic'
loop_
_space_group_symop_operation_xyz
x,y,z
-x,-y,1/2+z
1/2-x,1/2+y,1/2+z
1/2+x,1/2-y,z
loop_
_atom_site_type_symbol
_atom_site_label
_atom_site_fract_x
_atom_site_fract_y
_atom_site_fract_z
Si Si1 0.721709 0.681926 0.155220
Si Si2 0.552196 0.114953 0.206464
Si Si3 0.330411 0.480385 0.025077
Si Si4 0.540077 0.852718 0.207808
Si Si5 0.530046 0.341261 0.295004
O O1 0.707461 0.576222 0.281183
O O2 0.655344 0.774215 0.292136
O O3 0.887678 0.697391 0.152494
O O4 0.616590 0.683910 0.931164
O O5 0.699424 0.051239 0.201101
O O6 0.448658 0.104071 0.436751
O O7 0.583328 0.235711 0.189374
O O8 0.480896 0.088097 0.953685
O O9 0.473974 0.423582 0.106404
O O10 0.367420 0.594886 0.969892
#
# Coordination Sequence:
#
# PCOD9344813 Si02
#       5
#     4   4   4   4   4
#     4  10  20  34  54  88 122 166 212 276 322 390
#     4  10  22  36  54  88 124 164 202 274 336 386
#     4  11  20  35  57  91 126 165 224 281 326 392
#     4  10  20  34  56  84 128 160 212 262 328 396
#     4  11  20  35  57  91 126 165 224 281 326 392
#
# _framework density 28.145873999999999
#
# number of rings (size 3 to 8) (size 9 to 14) (size 15 to 20)
#    0.000    1.600    6.000    0.000    0.000    0.000 
#    0.000    0.000    0.000    0.000   20.800    2.800 
#    0.000    0.000    0.000    0.000    0.000    0.000 
#
# Total GULP energy -111556.052871 kJ/mol
# GULP energy per Si atom -5577.802644 kJ/mol
# Density = 2.808181 g / cm^3
# Si number density = 28.145874 Si / 1000 Ang^3
#
#
#
# Elastic Constant Matrix: (Units=GPa)
#
#
# Indices 1 2 3 4 5 6 
#
# 1 133.9739 32.9002 21.1150 0.0000 0.0000 0.0000
# 2 32.9002 194.8234 12.8966 0.0000 0.0000 0.0000
# 3 21.1150 12.8966 132.4936 0.0000 0.0000 0.0000
# 4 0.0000 0.0000 0.0000 -30.3225 0.0000 0.0000
# 5 0.0000 0.0000 0.0000 0.0000 82.5781 0.0000
# 6 0.0000 0.0000 0.0000 0.0000 0.0000 43.8811
#
#
#
# Elastic Compliance Matrix: (Units=1/GPa)
#
#
# Indices 1 2 3 4 5 6 
#
# 1 0.007956 -0.001268 -0.001144 0.000000 0.000000 0.000000
# 2 -0.001268 0.005368 -0.000320 0.000000 0.000000 0.000000
# 3 -0.001144 -0.000320 0.007761 0.000000 0.000000 0.000000
# 4 0.000000 0.000000 0.000000 -0.032979 0.000000 0.000000
# 5 0.000000 0.000000 0.000000 0.000000 0.012110 0.000000
# 6 0.000000 0.000000 0.000000 0.000000 0.000000 0.022789
#
#
# Mechanical properties :
#
#
# Convention : Reuss Voigt Hill
#
# Bulk Modulus (GPa) = 64.02190 66.12383 65.07286
# Shear Modulus (GPa) = 148.46970 45.51928 96.99449
#
# Velocity S-wave (km/s) = 7.27080 4.02588 5.87675
# Velocity P-wave (km/s) = 9.65826 6.71972 8.31975
#
# Compressibility (1/GPa) = 0.01561966
#
# Stress axis : x y z
#
# Youngs Moduli (GPa) = 125.69375 186.28369 128.84731
#
# Poissons Ratio (x) = 0.23616 0.14746
# Poissons Ratio (y) = 0.15935 0.04129
# Poissons Ratio (z) = 0.14386 0.05970
#
# Static dielectric constant tensor:
#      x y z
#    x 2.177920 0.000000 0.000000 
#    y 0.000000 2.257340 0.000000 
#    z 0.000000 0.000000 2.377000 
# 
# From -- ./inp_files/777.got.cif
#   From: 2010.05.17/outbox.cif.g08.bks.cpg/sg33_1_cif.got.tgz:777.got - 2010.06.03 17:15:25.
