data_PCOD9344313
_publ_section_title
;
Structure prediction by ZEFSAII (Michael W. Deem and Ramdas Pophale) SiO2 
 PCOD9344313
Probable space group: P B A 2
;
_chemical_formula_sum "Si O2"
_cell_formula_units_Z 26
_cell_length_a 22.351874
_cell_length_b 9.182364
_cell_length_c 5.224596
_cell_angle_alpha 90.000000
_cell_angle_beta 90.000000
_cell_angle_gamma 90.000000
_cell_volume 1072.311982
_symmetry_space_group_name_H-M "P B A 2"
_symmetry_group_IT_number 32
_symmetry_cell_setting 'orthorhombic'
loop_
_space_group_symop_operation_xyz
x,y,z
-x,-y,z
1/2-x,1/2+y,z
1/2+x,1/2-y,z
loop_
_atom_site_type_symbol
_atom_site_label
_atom_site_fract_x
_atom_site_fract_y
_atom_site_fract_z
Si Si1 0.769247 0.841727 0.220600
Si Si2 0.500000 0.500000 0.237682
Si Si3 0.920708 0.186878 0.597977
Si Si4 0.902116 0.528289 0.629377
Si Si5 0.829220 0.544975 0.139537
Si Si6 0.836909 0.951644 0.719969
Si Si7 0.042213 0.205245 0.857579
O O1 0.780874 0.671297 0.183968
O O2 0.797319 0.895789 0.485896
O O3 0.700824 0.891856 0.208081
O O4 0.803258 0.917966 0.982990
O O5 0.552973 0.601537 0.356155
O O6 0.457478 0.634281 0.135871
O O7 0.917203 0.359753 0.589068
O O8 0.975849 0.150916 0.787369
O O9 0.858287 0.117364 0.684228
O O10 0.880980 0.578271 0.347293
O O11 0.952171 0.629119 0.764267
O O12 0.850569 0.542566 0.846710
O O13 0.900132 0.865661 0.723933
#
# Coordination Sequence:
#
# PCOD9344313 Si02
#       7
#     4   2   4   4   4   4   4
#     4  12  27  48  78 106 147 192 253 322 377 450
#     4  12  24  46  82 108 160 204 276 292 382 452
#     4  12  28  45  76 116 151 209 254 308 367 480
#     4  12  30  49  76 113 161 195 249 319 393 449
#     4  12  28  51  76 111 146 197 258 317 387 453
#     4  12  24  46  78 106 147 197 246 308 380 440
#     4  12  24  48  72 114 153 203 245 318 372 462
#
# _framework density 24.246673999999999
#
# number of rings (size 3 to 8) (size 9 to 14) (size 15 to 20)
#    0.000    0.000    6.154    2.308    8.615    0.000 
#    0.000    0.000    0.000    0.000    0.000    0.000 
#    0.000    0.000    0.000    0.000    0.000    0.000 
#
# Total GULP energy -145152.140336 kJ/mol
# GULP energy per Si atom -5582.774628 kJ/mol
# Density = 2.419149 g / cm^3
# Si number density = 24.246674 Si / 1000 Ang^3
#
#
#
# Elastic Constant Matrix: (Units=GPa)
#
#
# Indices 1 2 3 4 5 6 
#
# 1 22.5895 -2.0429 13.6213 0.0000 0.0000 0.0000
# 2 -2.0429 149.3325 -0.5877 0.0000 0.0000 0.0000
# 3 13.6213 -0.5877 61.7805 0.0000 0.0000 0.0000
# 4 0.0000 0.0000 0.0000 33.8591 0.0000 0.0000
# 5 0.0000 0.0000 0.0000 0.0000 11.0905 0.0000
# 6 0.0000 0.0000 0.0000 0.0000 0.0000 52.4163
#
#
#
# Elastic Compliance Matrix: (Units=1/GPa)
#
#
# Indices 1 2 3 4 5 6 
#
# 1 0.051120 0.000655 -0.011265 0.000000 0.000000 0.000000
# 2 0.000655 0.006705 -0.000081 0.000000 0.000000 0.000000
# 3 -0.011265 -0.000081 0.018669 0.000000 0.000000 0.000000
# 4 0.000000 0.000000 0.000000 0.029534 0.000000 0.000000
# 5 0.000000 0.000000 0.000000 0.000000 0.090167 0.000000
# 6 0.000000 0.000000 0.000000 0.000000 0.000000 0.019078
#
#
# Mechanical properties :
#
#
# Convention : Reuss Voigt Hill
#
# Bulk Modulus (GPa) = 18.14431 28.40935 23.27683
# Shear Modulus (GPa) = 19.60587 34.32062 26.96325
#
# Velocity S-wave (km/s) = 2.84668 3.76636 3.33834
# Velocity P-wave (km/s) = 4.27834 5.53681 4.94775
#
# Compressibility (1/GPa) = 0.05511370
#
# Stress axis : x y z
#
# Youngs Moduli (GPa) = 19.56180 149.14000 53.56418
#
# Poissons Ratio (x) = -0.09769 0.60338
# Poissons Ratio (y) = -0.01281 0.00432
# Poissons Ratio (z) = 0.22036 0.01203
#
# Static dielectric constant tensor:
#      x y z
#    x 1.936330 0.000000 0.000000 
#    y 0.000000 2.116370 0.000000 
#    z 0.000000 0.000000 2.168210 
# 
# From -- ./inp_files/1659.got.cif
#   From: 2010.05.17/outbox.cif.g08.bks.cpg/sg32_1_cif.got.tgz:1659.got - 2010.06.03 17:12:27.
