data_PCOD9344196
_publ_section_title
;
Structure prediction by ZEFSAII (Michael W. Deem and Ramdas Pophale) SiO2 
 PCOD9344196
Probable space group: P B A 2
;
_chemical_formula_sum "Si O2"
_cell_formula_units_Z 32
_cell_length_a 14.708697
_cell_length_b 8.247512
_cell_length_c 10.866518
_cell_angle_alpha 90.000000
_cell_angle_beta 90.000000
_cell_angle_gamma 90.000000
_cell_volume 1318.218983
_symmetry_space_group_name_H-M "P B A 2"
_symmetry_group_IT_number 32
_symmetry_cell_setting 'orthorhombic'
loop_
_space_group_symop_operation_xyz
x,y,z
-x,-y,z
1/2-x,1/2+y,z
1/2+x,1/2-y,z
loop_
_atom_site_type_symbol
_atom_site_label
_atom_site_fract_x
_atom_site_fract_y
_atom_site_fract_z
Si Si1 0.127779 0.206375 0.058370
Si Si2 0.787527 0.344349 0.415664
Si Si3 0.218297 0.520297 0.145045
Si Si4 0.123587 0.348263 0.530130
Si Si5 0.547319 0.670902 0.482923
Si Si6 0.170134 0.213397 0.780236
Si Si7 0.626736 0.666356 0.756236
Si Si8 0.947847 0.327475 0.999779
O O1 0.177468 0.340638 0.141385
O O2 0.183497 0.042229 0.081263
O O3 0.019929 0.215574 0.073690
O O4 0.147350 0.263410 0.918588
O O5 0.774450 0.423369 0.284228
O O6 0.835093 0.477954 0.502012
O O7 0.696295 0.280044 0.476813
O O8 0.861613 0.201051 0.406778
O O9 0.145394 0.630431 0.070287
O O10 0.117958 0.313571 0.675449
O O11 0.028280 0.309543 0.466300
O O12 0.500000 0.500000 0.458187
O O13 0.577437 0.677568 0.625673
O O14 0.276250 0.243922 0.754945
O O15 0.145417 0.024572 0.773161
O O16 0.572056 0.741728 0.870064
O O17 0.000000 0.500000 0.985597
#
# Coordination Sequence:
#
# PCOD9344196 Si02
#       8
#     4   4   4   4   4   4   4   4
#     4  11  24  44  72 100 143 186 238 298 367 424
#     4  12  27  47  75 102 146 196 248 302 359 430
#     4  11  25  48  68 104 140 191 247 298 350 436
#     4  12  25  46  72 106 143 192 238 299 374 429
#     4  12  26  46  70 107 146 185 242 303 364 443
#     4  12  24  44  77 104 146 191 230 304 369 440
#     4  12  25  45  73 111 153 182 242 300 372 442
#     4  10  25  43  71 105 147 188 239 295 367 437
#
# _framework density 24.275179999999999
#
# number of rings (size 3 to 8) (size 9 to 14) (size 15 to 20)
#    0.000    0.500    3.750    4.125    1.750    5.000 
#    0.000    0.000    0.000    0.000    0.000    0.000 
#    0.000    0.000    0.000    0.000    0.000    0.000 
#
# Total GULP energy -179469.521088 kJ/mol
# GULP energy per Si atom -5608.422534 kJ/mol
# Density = 2.421993 g / cm^3
# Si number density = 24.275180 Si / 1000 Ang^3
#
#
#
# Elastic Constant Matrix: (Units=GPa)
#
#
# Indices 1 2 3 4 5 6 
#
# 1 93.6841 11.1475 -15.7519 0.0000 0.0000 0.0000
# 2 11.1475 79.6038 15.6303 0.0000 0.0000 0.0000
# 3 -15.7519 15.6303 77.2740 0.0000 0.0000 0.0000
# 4 0.0000 0.0000 0.0000 26.7744 0.0000 0.0000
# 5 0.0000 0.0000 0.0000 0.0000 1.8976 0.0000
# 6 0.0000 0.0000 0.0000 0.0000 0.0000 41.1827
#
#
#
# Elastic Compliance Matrix: (Units=1/GPa)
#
#
# Indices 1 2 3 4 5 6 
#
# 1 0.011391 -0.002136 0.002754 0.000000 0.000000 0.000000
# 2 -0.002136 0.013482 -0.003162 0.000000 0.000000 0.000000
# 3 0.002754 -0.003162 0.014142 0.000000 0.000000 0.000000
# 4 0.000000 0.000000 0.000000 0.037349 0.000000 0.000000
# 5 0.000000 0.000000 0.000000 0.000000 0.526972 0.000000
# 6 0.000000 0.000000 0.000000 0.000000 0.000000 0.024282
#
#
# Mechanical properties :
#
#
# Convention : Reuss Voigt Hill
#
# Bulk Modulus (GPa) = 29.47502 30.29042 29.88272
# Shear Modulus (GPa) = 7.76378 29.94003 18.85190
#
# Velocity S-wave (km/s) = 1.79030 3.51573 2.78976
# Velocity P-wave (km/s) = 4.05487 5.38382 4.76589
#
# Compressibility (1/GPa) = 0.03392703
#
# Stress axis : x y z
#
# Youngs Moduli (GPa) = 87.78548 74.17137 70.71110
#
# Poissons Ratio (x) = 0.15843 -0.19475
# Poissons Ratio (y) = 0.18751 0.22362
# Poissons Ratio (z) = -0.24177 0.23457
#
# Static dielectric constant tensor:
#      x y z
#    x 1.940840 0.000000 0.000000 
#    y 0.000000 1.969680 0.000000 
#    z 0.000000 0.000000 1.890840 
# 
# From -- ./inp_files/3946.got.cif
#   From: 2010.05.17/outbox.cif.g08.bks.cpg/sg32_2_cif.got.tgz:3946.got - 2010.06.03 17:12:27.
