data_PCOD9344062
_publ_section_title
;
Structure prediction by ZEFSAII (Michael W. Deem and Ramdas Pophale) SiO2 
 PCOD9344062
Probable space group: P B A 2
;
_chemical_formula_sum "Si O2"
_cell_formula_units_Z 18
_cell_length_a 9.723337
_cell_length_b 13.817948
_cell_length_c 5.909403
_cell_angle_alpha 90.000000
_cell_angle_beta 90.000000
_cell_angle_gamma 90.000000
_cell_volume 793.967089
_symmetry_space_group_name_H-M "P B A 2"
_symmetry_group_IT_number 32
_symmetry_cell_setting 'orthorhombic'
loop_
_space_group_symop_operation_xyz
x,y,z
-x,-y,z
1/2-x,1/2+y,z
1/2+x,1/2-y,z
loop_
_atom_site_type_symbol
_atom_site_label
_atom_site_fract_x
_atom_site_fract_y
_atom_site_fract_z
Si Si1 0.842828 0.359366 0.465420
Si Si2 0.500000 0.000000 0.792363
Si Si3 0.138159 0.177012 0.842008
Si Si4 0.374335 0.288450 0.097914
Si Si5 0.262101 0.493519 0.090232
O O1 0.944062 0.412125 0.640576
O O2 0.710097 0.317919 0.598521
O O3 0.913845 0.277734 0.311425
O O4 0.788332 0.443909 0.301573
O O5 0.374075 0.966073 0.948462
O O6 0.236925 0.239395 0.003676
O O7 0.985206 0.210612 0.896050
O O8 0.153166 0.066195 0.928712
O O9 0.343928 0.398755 0.161455
#
# Coordination Sequence:
#
# PCOD9344062 Si02
#       5
#     4   2   4   4   4
#     4  10  24  44  73 107 139 192 246 287 383 436
#     4  10  22  42  72 104 142 186 242 300 364 446
#     4  10  25  44  66 105 140 183 240 294 364 433
#     4  11  25  45  72 101 146 183 239 305 355 440
#     4  10  23  45  69  98 145 184 234 303 358 434
#
# _framework density 22.670967000000001
#
# number of rings (size 3 to 8) (size 9 to 14) (size 15 to 20)
#    0.000    1.778    0.000    1.333   12.444    7.111 
#    0.000    8.889    0.000    0.000    0.000    0.000 
#    0.000    0.000    0.000    0.000    0.000    0.000 
#
# Total GULP energy -100716.821311 kJ/mol
# GULP energy per Si atom -5595.378962 kJ/mol
# Density = 2.261937 g / cm^3
# Si number density = 22.670967 Si / 1000 Ang^3
#
#
#
# Elastic Constant Matrix: (Units=GPa)
#
#
# Indices 1 2 3 4 5 6 
#
# 1 66.9759 33.0765 6.2179 0.0000 0.0000 0.0000
# 2 33.0765 115.6566 31.8367 0.0000 0.0000 0.0000
# 3 6.2179 31.8367 91.5724 0.0000 0.0000 0.0000
# 4 0.0000 0.0000 0.0000 26.3492 0.0000 0.0000
# 5 0.0000 0.0000 0.0000 0.0000 29.8281 0.0000
# 6 0.0000 0.0000 0.0000 0.0000 0.0000 16.8056
#
#
#
# Elastic Compliance Matrix: (Units=1/GPa)
#
#
# Indices 1 2 3 4 5 6 
#
# 1 0.017417 -0.005148 0.000607 0.000000 0.000000 0.000000
# 2 -0.005148 0.011083 -0.003504 0.000000 0.000000 0.000000
# 3 0.000607 -0.003504 0.012097 0.000000 0.000000 0.000000
# 4 0.000000 0.000000 0.000000 0.037952 0.000000 0.000000
# 5 0.000000 0.000000 0.000000 0.000000 0.033525 0.000000
# 6 0.000000 0.000000 0.000000 0.000000 0.000000 0.059504
#
#
# Mechanical properties :
#
#
# Convention : Reuss Voigt Hill
#
# Bulk Modulus (GPa) = 40.80320 46.27411 43.53865
# Shear Modulus (GPa) = 25.53148 28.13483 26.83316
#
# Velocity S-wave (km/s) = 3.35949 3.52661 3.44407
# Velocity P-wave (km/s) = 5.75199 6.08590 5.92130
#
# Compressibility (1/GPa) = 0.02450788
#
# Stress axis : x y z
#
# Youngs Moduli (GPa) = 57.41579 90.22794 82.66383
#
# Poissons Ratio (x) = 0.46451 -0.05019
# Poissons Ratio (y) = 0.29559 0.28962
# Poissons Ratio (z) = -0.03486 0.31613
#
# Static dielectric constant tensor:
#      x y z
#    x 1.834250 0.000000 0.000000 
#    y 0.000000 1.837780 0.000000 
#    z 0.000000 0.000000 1.838320 
# 
# From -- ./inp_files/385.got.cif
#   From: 2010.05.17/outbox.cif.g08.bks.cpg/sg32_1_cif.got.tgz:385.got - 2010.06.03 17:12:27.
