data_PCOD9344221
_publ_section_title
;
Structure prediction by ZEFSAII (Michael W. Deem and Ramdas Pophale) SiO2 
 PCOD9344221
Probable space group: P B A 2
;
_chemical_formula_sum "Si O2"
_cell_formula_units_Z 26
_cell_length_a 13.625769
_cell_length_b 12.144206
_cell_length_c 5.538269
_cell_angle_alpha 90.000000
_cell_angle_beta 90.000000
_cell_angle_gamma 90.000000
_cell_volume 916.440331
_symmetry_space_group_name_H-M "P B A 2"
_symmetry_group_IT_number 32
_symmetry_cell_setting 'orthorhombic'
loop_
_space_group_symop_operation_xyz
x,y,z
-x,-y,z
1/2-x,1/2+y,z
1/2+x,1/2-y,z
loop_
_atom_site_type_symbol
_atom_site_label
_atom_site_fract_x
_atom_site_fract_y
_atom_site_fract_z
Si Si1 0.000000 0.500000 0.208810
Si Si2 0.665067 0.125495 0.035891
Si Si3 0.658676 0.402450 0.615208
Si Si4 0.413874 0.618061 0.121943
Si Si5 0.568374 0.165211 0.607361
Si Si6 0.137740 0.829780 0.239745
Si Si7 0.362878 0.197502 0.746452
O O1 0.023001 0.396661 0.381030
O O2 0.898786 0.513943 0.072552
O O3 0.625761 0.253580 0.083856
O O4 0.665463 0.122791 0.743858
O O5 0.756390 0.113799 0.208303
O O6 0.614931 0.442756 0.869678
O O7 0.596911 0.289861 0.573032
O O8 0.772679 0.378353 0.662084
O O9 0.634140 0.446378 0.349723
O O10 0.529957 0.626580 0.166416
O O11 0.474160 0.154794 0.778746
O O12 0.158035 0.746040 0.010380
O O13 0.129852 0.780882 0.512822
#
# Coordination Sequence:
#
# PCOD9344221 Si02
#       7
#     2   4   4   4   4   4   4
#     4  12  22  40  52  78 122 160 202 226 282 360
#     4  11  22  35  55  80 119 154 189 237 291 345
#     4  11  19  34  53  82 113 140 179 236 296 340
#     4  11  19  34  53  82 113 140 179 236 296 340
#     4  11  22  35  55  80 119 154 189 237 291 345
#     4  12  20  33  56  82 114 148 186 234 294 352
#     4  12  20  33  56  82 114 148 186 234 294 352
#
# _framework density 28.370642
#
# number of rings (size 3 to 8) (size 9 to 14) (size 15 to 20)
#    0.000    0.615   10.769    0.462    0.000    0.000 
#    0.000    0.000    0.000    0.000    0.000    1.077 
#    0.000    0.000    0.000    0.000    0.000    0.000 
#
# Total GULP energy -144985.479541 kJ/mol
# GULP energy per Si atom -5576.364598 kJ/mol
# Density = 2.830607 g / cm^3
# Si number density = 28.370642 Si / 1000 Ang^3
#
#
#
# Elastic Constant Matrix: (Units=GPa)
#
#
# Indices 1 2 3 4 5 6 
#
# 1 118.7850 34.4803 26.7176 0.0000 0.0000 0.0000
# 2 34.4803 50.0565 12.2607 0.0000 0.0000 0.0000
# 3 26.7176 12.2607 177.8176 0.0000 0.0000 0.0000
# 4 0.0000 0.0000 0.0000 32.6841 0.0000 0.0000
# 5 0.0000 0.0000 0.0000 0.0000 37.8130 0.0000
# 6 0.0000 0.0000 0.0000 0.0000 0.0000 47.0088
#
#
#
# Elastic Compliance Matrix: (Units=1/GPa)
#
#
# Indices 1 2 3 4 5 6 
#
# 1 0.010738 -0.007122 -0.001122 0.000000 0.000000 0.000000
# 2 -0.007122 0.025044 -0.000657 0.000000 0.000000 0.000000
# 3 -0.001122 -0.000657 0.005838 0.000000 0.000000 0.000000
# 4 0.000000 0.000000 0.000000 0.030596 0.000000 0.000000
# 5 0.000000 0.000000 0.000000 0.000000 0.026446 0.000000
# 6 0.000000 0.000000 0.000000 0.000000 0.000000 0.021273
#
#
# Mechanical properties :
#
#
# Convention : Reuss Voigt Hill
#
# Bulk Modulus (GPa) = 41.98515 54.84182 48.41349
# Shear Modulus (GPa) = 34.32275 41.71455 38.01865
#
# Velocity S-wave (km/s) = 3.48199 3.83866 3.66467
# Velocity P-wave (km/s) = 5.56746 6.24656 5.91676
#
# Compressibility (1/GPa) = 0.02381794
#
# Stress axis : x y z
#
# Youngs Moduli (GPa) = 93.12419 39.92961 171.30136
#
# Poissons Ratio (x) = 0.28438 0.19227
# Poissons Ratio (y) = 0.66323 0.11250
# Poissons Ratio (z) = 0.10452 0.02622
#
# Static dielectric constant tensor:
#      x y z
#    x 3.544620 0.000000 0.000000 
#    y 0.000000 2.395200 0.000000 
#    z 0.000000 0.000000 2.617790 
# 
# From -- ./inp_files/1256.got.cif
#   From: 2010.05.17/outbox.cif.g08.bks.cpg/sg32_1_cif.got.tgz:1256.got - 2010.06.03 17:12:27.
