data_PCOD9344810
_publ_section_title
;
Structure prediction by ZEFSAII (Michael W. Deem and Ramdas Pophale) SiO2 
 PCOD9344810
Probable space group: P N A 21
;
_chemical_formula_sum "Si O2"
_cell_formula_units_Z 32
_cell_length_a 7.784493
_cell_length_b 24.186577
_cell_length_c 8.825344
_cell_angle_alpha 90.000000
_cell_angle_beta 90.000000
_cell_angle_gamma 90.000000
_cell_volume 1661.637881
_symmetry_space_group_name_H-M "P N A 21"
_symmetry_group_IT_number 33
_symmetry_cell_setting 'orthorhombic'
loop_
_space_group_symop_operation_xyz
x,y,z
-x,-y,1/2+z
1/2-x,1/2+y,1/2+z
1/2+x,1/2-y,z
loop_
_atom_site_type_symbol
_atom_site_label
_atom_site_fract_x
_atom_site_fract_y
_atom_site_fract_z
Si Si1 0.679354 0.107856 0.137810
Si Si2 0.533982 0.432641 0.273310
Si Si3 0.161370 0.970203 0.061420
Si Si4 0.919108 0.821834 0.922818
Si Si5 0.505563 0.965492 0.864328
Si Si6 0.639014 0.087043 0.800419
Si Si7 0.889601 0.367513 0.569463
Si Si8 0.682576 0.197710 0.385390
O O1 0.534994 0.067274 0.209007
O O2 0.666760 0.165249 0.227386
O O3 0.854190 0.079057 0.190829
O O4 0.681888 0.114102 0.959279
O O5 0.489116 0.456897 0.441027
O O6 0.626801 0.476448 0.165261
O O7 0.609133 0.371397 0.301982
O O8 0.209819 0.919732 0.175573
O O9 0.329087 0.975635 0.955906
O O10 0.848414 0.762655 0.870641
O O11 0.124395 0.815599 0.945300
O O12 0.796999 0.840012 0.062250
O O13 0.590214 0.023749 0.835618
O O14 0.611131 0.924290 0.972088
O O15 0.473672 0.116277 0.727794
O O16 0.032214 0.328202 0.489457
#
# Coordination Sequence:
#
# PCOD9344810 Si02
#       8
#     4   4   4   4   4   4   4   4
#     4   9  19  34  54  81 119 156 196 245 300 348
#     4  10  21  35  58  88 118 160 199 241 299 362
#     4  10  20  34  53  86 124 157 193 240 292 361
#     4  11  20  37  63  86 106 154 210 247 293 351
#     4   9  19  34  53  85 118 160 193 230 289 361
#     4  11  19  33  56  83 124 157 189 244 298 363
#     4  10  21  36  60  87 115 155 197 242 298 345
#     4  10  21  39  61  82 110 151 209 261 287 349
#
# _framework density 19.258109000000001
#
# number of rings (size 3 to 8) (size 9 to 14) (size 15 to 20)
#    0.000    2.000    1.250    5.250    0.000    3.000 
#    0.000    1.250    5.500    1.500    0.000    0.000 
#    0.000    0.000    0.000    0.000    0.000    0.000 
#
# Total GULP energy -178490.098404 kJ/mol
# GULP energy per Si atom -5577.815575 kJ/mol
# Density = 1.921428 g / cm^3
# Si number density = 19.258109 Si / 1000 Ang^3
#
#
#
# Elastic Constant Matrix: (Units=GPa)
#
#
# Indices 1 2 3 4 5 6 
#
# 1 82.9601 38.8117 30.7152 0.0000 0.0000 0.0000
# 2 38.8117 116.8113 34.7763 0.0000 0.0000 0.0000
# 3 30.7152 34.7763 105.4065 0.0000 0.0000 0.0000
# 4 0.0000 0.0000 0.0000 -3.3408 0.0000 0.0000
# 5 0.0000 0.0000 0.0000 0.0000 26.5784 0.0000
# 6 0.0000 0.0000 0.0000 0.0000 0.0000 26.2255
#
#
#
# Elastic Compliance Matrix: (Units=1/GPa)
#
#
# Indices 1 2 3 4 5 6 
#
# 1 0.015105 -0.004112 -0.003045 0.000000 0.000000 0.000000
# 2 -0.004112 0.010613 -0.002303 0.000000 0.000000 0.000000
# 3 -0.003045 -0.002303 0.011134 0.000000 0.000000 0.000000
# 4 0.000000 0.000000 0.000000 -0.299327 0.000000 0.000000
# 5 0.000000 0.000000 0.000000 0.000000 0.037625 0.000000
# 6 0.000000 0.000000 0.000000 0.000000 0.000000 0.038131
#
#
# Mechanical properties :
#
#
# Convention : Reuss Voigt Hill
#
# Bulk Modulus (GPa) = 55.76744 57.08715 56.42729
# Shear Modulus (GPa) = -30.89816 23.28426 -3.80695
#
# Velocity S-wave (km/s) = -4.00987 3.48093 -1.40751
# Velocity P-wave (km/s) = 2.75354 6.77225 5.16940
#
# Compressibility (1/GPa) = 0.01793161
#
# Stress axis : x y z
#
# Youngs Moduli (GPa) = 66.20218 94.22527 89.81333
#
# Poissons Ratio (x) = 0.38749 0.27347
# Poissons Ratio (y) = 0.27225 0.20685
# Poissons Ratio (z) = 0.20158 0.21701
#
# Static dielectric constant tensor:
#      x y z
#    x 1.724460 0.000000 0.000000 
#    y 0.000000 1.666660 0.000000 
#    z 0.000000 0.000000 1.668480 
# 
# From -- ./inp_files/3574.got.cif
#   From: 2010.05.17/outbox.cif.g08.bks.cpg/sg33_2_cif.got.tgz:3574.got - 2010.06.03 17:15:25.
