data_PCOD9344216
_publ_section_title
;
Structure prediction by ZEFSAII (Michael W. Deem and Ramdas Pophale) SiO2 
 PCOD9344216
Probable space group: P B A 2
;
_chemical_formula_sum "Si O2"
_cell_formula_units_Z 18
_cell_length_a 9.479484
_cell_length_b 14.653620
_cell_length_c 5.057602
_cell_angle_alpha 90.000000
_cell_angle_beta 90.000000
_cell_angle_gamma 90.000000
_cell_volume 702.545204
_symmetry_space_group_name_H-M "P B A 2"
_symmetry_group_IT_number 32
_symmetry_cell_setting 'orthorhombic'
loop_
_space_group_symop_operation_xyz
x,y,z
-x,-y,z
1/2-x,1/2+y,z
1/2+x,1/2-y,z
loop_
_atom_site_type_symbol
_atom_site_label
_atom_site_fract_x
_atom_site_fract_y
_atom_site_fract_z
Si Si1 0.644990 0.168132 0.756740
Si Si2 0.000000 0.000000 0.479535
Si Si3 0.588965 0.855778 0.115423
Si Si4 0.427142 0.302809 0.467897
Si Si5 0.688736 0.964574 0.616011
O O1 0.554320 0.245843 0.604255
O O2 0.348979 0.108143 0.841423
O O3 0.577036 0.159474 0.048704
O O4 0.307381 0.314870 0.690304
O O5 0.968613 0.098486 0.349001
O O6 0.143169 0.021631 0.633835
O O7 0.635607 0.760588 0.239247
O O8 0.640277 0.927800 0.332515
O O9 0.623140 0.064386 0.654628
#
# Coordination Sequence:
#
# PCOD9344216 Si02
#       5
#     4   2   4   4   4
#     4  11  27  48  82 119 158 218 271 339 411 493
#     4  10  26  58  74 124 168 222 270 350 404 500
#     4  12  26  50  82 116 161 212 273 340 404 497
#     4  11  26  51  78 118 165 215 278 337 417 487
#     4  11  27  50  85 121 164 218 276 340 420 491
#
# _framework density 25.621127999999999
#
# number of rings (size 3 to 8) (size 9 to 14) (size 15 to 20)
#    0.000    0.889    2.222    2.000    6.222    4.444 
#   12.000    0.000    0.000    0.000    0.000    0.000 
#    0.000    0.000    0.000    0.000    0.000    0.000 
#
# Total GULP energy -100684.771508 kJ/mol
# GULP energy per Si atom -5593.598417 kJ/mol
# Density = 2.556281 g / cm^3
# Si number density = 25.621128 Si / 1000 Ang^3
#
#
#
# Elastic Constant Matrix: (Units=GPa)
#
#
# Indices 1 2 3 4 5 6 
#
# 1 132.8606 31.5216 22.4639 0.0000 0.0000 0.0000
# 2 31.5216 208.4800 27.1239 0.0000 0.0000 0.0000
# 3 22.4639 27.1239 105.4372 0.0000 0.0000 0.0000
# 4 0.0000 0.0000 0.0000 13.3871 0.0000 0.0000
# 5 0.0000 0.0000 0.0000 0.0000 2.3855 0.0000
# 6 0.0000 0.0000 0.0000 0.0000 0.0000 43.0595
#
#
#
# Elastic Compliance Matrix: (Units=1/GPa)
#
#
# Indices 1 2 3 4 5 6 
#
# 1 0.008014 -0.001024 -0.001444 0.000000 0.000000 0.000000
# 2 -0.001024 0.005094 -0.001092 0.000000 0.000000 0.000000
# 3 -0.001444 -0.001092 0.010073 0.000000 0.000000 0.000000
# 4 0.000000 0.000000 0.000000 0.074699 0.000000 0.000000
# 5 0.000000 0.000000 0.000000 0.000000 0.419195 0.000000
# 6 0.000000 0.000000 0.000000 0.000000 0.000000 0.023224
#
#
# Mechanical properties :
#
#
# Convention : Reuss Voigt Hill
#
# Bulk Modulus (GPa) = 62.26557 67.66628 64.96592
# Shear Modulus (GPa) = 9.04534 36.14432 22.59483
#
# Velocity S-wave (km/s) = 1.88098 3.76003 2.97287
# Velocity P-wave (km/s) = 5.39190 6.73188 6.09880
#
# Compressibility (1/GPa) = 0.01606024
#
# Stress axis : x y z
#
# Youngs Moduli (GPa) = 124.78582 196.32805 99.27596
#
# Poissons Ratio (x) = 0.20100 0.14335
# Poissons Ratio (y) = 0.12775 0.10843
# Poissons Ratio (z) = 0.18019 0.21443
#
# Static dielectric constant tensor:
#      x y z
#    x 2.108280 0.000000 0.000000 
#    y 0.000000 2.018020 0.000000 
#    z 0.000000 0.000000 1.989850 
# 
# From -- ./inp_files/866.got.cif
#   From: 2010.05.17/outbox.cif.g08.bks.cpg/sg32_1_cif.got.tgz:866.got - 2010.06.03 17:12:27.
