data_PCOD9344352
_publ_section_title
;
Structure prediction by ZEFSAII (Michael W. Deem and Ramdas Pophale) SiO2 
 PCOD9344352
Probable space group: P N A 21
;
_chemical_formula_sum "Si O2"
_cell_formula_units_Z 20
_cell_length_a 7.007305
_cell_length_b 21.954468
_cell_length_c 5.103509
_cell_angle_alpha 90.000000
_cell_angle_beta 90.000000
_cell_angle_gamma 90.000000
_cell_volume 785.132263
_symmetry_space_group_name_H-M "P N A 21"
_symmetry_group_IT_number 33
_symmetry_cell_setting 'orthorhombic'
loop_
_space_group_symop_operation_xyz
x,y,z
-x,-y,1/2+z
1/2-x,1/2+y,1/2+z
1/2+x,1/2-y,z
loop_
_atom_site_type_symbol
_atom_site_label
_atom_site_fract_x
_atom_site_fract_y
_atom_site_fract_z
Si Si1 0.015368 0.795944 0.252220
Si Si2 0.418542 0.157228 0.731038
Si Si3 0.589176 0.637055 0.744275
Si Si4 0.850649 0.410936 0.240978
Si Si5 0.625158 0.513755 0.476417
O O1 0.990918 0.723877 0.234651
O O2 0.111338 0.811225 0.527440
O O3 0.805265 0.824614 0.240911
O O4 0.124571 0.831649 0.021434
O O5 0.465752 0.124077 0.462464
O O6 0.435766 0.108670 0.964470
O O7 0.365840 0.616291 0.744065
O O8 0.679183 0.575674 0.625471
O O9 0.803481 0.478361 0.348195
O O10 0.482504 0.522050 0.221233
#
# Coordination Sequence:
#
# PCOD9344352 Si02
#       5
#     4   4   4   4   4
#     4  10  19  31  46  67  95 124 155 190 228 276
#     4  10  19  31  46  67  95 124 155 190 228 276
#     4   9  17  28  44  67  94 120 149 190 237 279
#     4   9  17  28  44  67  94 120 149 190 237 279
#     4  10  16  26  44  68  96 122 148 192 248 288
#
# _framework density 25.473414999999999
#
# number of rings (size 3 to 8) (size 9 to 14) (size 15 to 20)
#    0.000    2.400    0.000    7.200    0.000    0.000 
#    0.000    0.000    0.000    0.000    0.000    5.600 
#    0.000   12.800    0.000    0.000    0.000    0.000 
#
# Total GULP energy -111713.196148 kJ/mol
# GULP energy per Si atom -5585.659807 kJ/mol
# Density = 2.541544 g / cm^3
# Si number density = 25.473415 Si / 1000 Ang^3
#
#
#
# Elastic Constant Matrix: (Units=GPa)
#
#
# Indices 1 2 3 4 5 6 
#
# 1 67.4866 43.6029 17.7892 0.0000 0.0000 0.0000
# 2 43.6029 90.7179 35.1530 0.0000 0.0000 0.0000
# 3 17.7892 35.1530 133.9569 0.0000 0.0000 0.0000
# 4 0.0000 0.0000 0.0000 44.4208 0.0000 0.0000
# 5 0.0000 0.0000 0.0000 0.0000 3.6247 0.0000
# 6 0.0000 0.0000 0.0000 0.0000 0.0000 20.3741
#
#
#
# Elastic Compliance Matrix: (Units=1/GPa)
#
#
# Indices 1 2 3 4 5 6 
#
# 1 0.021495 -0.010270 -0.000160 0.000000 0.000000 0.000000
# 2 -0.010270 0.017177 -0.003144 0.000000 0.000000 0.000000
# 3 -0.000160 -0.003144 0.008311 0.000000 0.000000 0.000000
# 4 0.000000 0.000000 0.000000 0.022512 0.000000 0.000000
# 5 0.000000 0.000000 0.000000 0.000000 0.275885 0.000000
# 6 0.000000 0.000000 0.000000 0.000000 0.000000 0.049082
#
#
# Mechanical properties :
#
#
# Convention : Reuss Voigt Hill
#
# Bulk Modulus (GPa) = 50.40927 53.91684 52.16306
# Shear Modulus (GPa) = 11.67620 26.72502 19.20061
#
# Velocity S-wave (km/s) = 2.14328 3.24255 2.74843
# Velocity P-wave (km/s) = 5.09478 5.93554 5.53116
#
# Compressibility (1/GPa) = 0.01983762
#
# Stress axis : x y z
#
# Youngs Moduli (GPa) = 46.52255 58.21591 120.31805
#
# Poissons Ratio (x) = 0.59785 0.01920
# Poissons Ratio (y) = 0.47777 0.37827
# Poissons Ratio (z) = 0.00742 0.18303
#
# Static dielectric constant tensor:
#      x y z
#    x 2.143470 0.000000 0.000000 
#    y 0.000000 2.034860 0.000000 
#    z 0.000000 0.000000 1.973640 
# 
# From -- ./inp_files/420.got.cif
#   From: 2010.05.17/outbox.cif.g08.bks.cpg/sg33_1_cif.got.tgz:420.got - 2010.06.03 17:15:25.
