data_PCOD9344944
_publ_section_title
;
Structure prediction by ZEFSAII (Michael W. Deem and Ramdas Pophale) SiO2 
 PCOD9344944
Probable space group: P N A 21
;
_chemical_formula_sum "Si O2"
_cell_formula_units_Z 32
_cell_length_a 13.828946
_cell_length_b 8.156061
_cell_length_c 11.927415
_cell_angle_alpha 90.000000
_cell_angle_beta 90.000000
_cell_angle_gamma 90.000000
_cell_volume 1345.289883
_symmetry_space_group_name_H-M "P N A 21"
_symmetry_group_IT_number 33
_symmetry_cell_setting 'orthorhombic'
loop_
_space_group_symop_operation_xyz
x,y,z
-x,-y,1/2+z
1/2-x,1/2+y,1/2+z
1/2+x,1/2-y,z
loop_
_atom_site_type_symbol
_atom_site_label
_atom_site_fract_x
_atom_site_fract_y
_atom_site_fract_z
Si Si1 0.700493 0.312128 0.318230
Si Si2 0.087829 0.812189 0.853799
Si Si3 0.802992 0.023510 0.022486
Si Si4 0.458033 0.949295 0.764721
Si Si5 0.655909 0.384840 0.767489
Si Si6 0.116018 0.649901 0.067469
Si Si7 0.724196 0.091725 0.654929
Si Si8 0.836954 0.385671 0.940770
O O1 0.797281 0.217224 0.352402
O O2 0.657524 0.396534 0.429618
O O3 0.629692 0.181993 0.264081
O O4 0.728960 0.453021 0.231807
O O5 0.047279 0.673875 0.771157
O O6 0.074054 0.003321 0.826532
O O7 0.057064 0.751194 0.975904
O O8 0.828999 0.981174 0.149976
O O9 0.686705 0.990265 0.014638
O O10 0.836582 0.204091 0.991604
O O11 0.449474 0.062503 0.657725
O O12 0.432848 0.059192 0.873864
O O13 0.647072 0.197125 0.727392
O O14 0.748905 0.382701 0.850048
O O15 0.191275 0.778270 0.123301
O O16 0.684530 0.011635 0.541472
#
# Coordination Sequence:
#
# PCOD9344944 Si02
#       8
#     4   4   4   4   4   4   4   4
#     4  11  21  42  65  96 127 172 211 266 318 381
#     4  11  24  40  62  90 133 167 213 263 320 378
#     4  10  20  37  70  92 125 168 211 256 321 377
#     4  12  23  41  64  94 131 168 217 263 317 383
#     4  11  20  40  60  93 124 162 210 258 312 375
#     4  10  20  40  61  95 126 169 215 263 316 384
#     4  11  20  37  73  92 124 173 213 262 328 377
#     4  12  20  37  67  94 120 169 210 255 320 375
#
# _framework density 23.786693
#
# number of rings (size 3 to 8) (size 9 to 14) (size 15 to 20)
#    0.000    1.000    6.250    3.000    0.000    2.000 
#    0.000    5.000    0.000    0.000    0.000    0.000 
#    0.000    0.000    0.000    0.000    0.000    0.000 
#
# Total GULP energy -178952.951567 kJ/mol
# GULP energy per Si atom -5592.279736 kJ/mol
# Density = 2.373255 g / cm^3
# Si number density = 23.786693 Si / 1000 Ang^3
#
#
#
# Elastic Constant Matrix: (Units=GPa)
#
#
# Indices 1 2 3 4 5 6 
#
# 1 48.8885 11.2957 4.4321 0.0000 0.0000 0.0000
# 2 11.2957 119.5690 36.6076 0.0000 0.0000 0.0000
# 3 4.4321 36.6076 124.0797 0.0000 0.0000 0.0000
# 4 0.0000 0.0000 0.0000 49.1805 0.0000 0.0000
# 5 0.0000 0.0000 0.0000 0.0000 9.0810 0.0000
# 6 0.0000 0.0000 0.0000 0.0000 0.0000 26.2495
#
#
#
# Elastic Compliance Matrix: (Units=1/GPa)
#
#
# Indices 1 2 3 4 5 6 
#
# 1 0.020915 -0.001921 -0.000180 0.000000 0.000000 0.000000
# 2 -0.001921 0.009370 -0.002696 0.000000 0.000000 0.000000
# 3 -0.000180 -0.002696 0.008861 0.000000 0.000000 0.000000
# 4 0.000000 0.000000 0.000000 0.020333 0.000000 0.000000
# 5 0.000000 0.000000 0.000000 0.000000 0.110119 0.000000
# 6 0.000000 0.000000 0.000000 0.000000 0.000000 0.038096
#
#
# Mechanical properties :
#
#
# Convention : Reuss Voigt Hill
#
# Bulk Modulus (GPa) = 33.83828 44.13422 38.98625
# Shear Modulus (GPa) = 22.01290 32.91567 27.46429
#
# Velocity S-wave (km/s) = 3.04539 3.72396 3.40164
# Velocity P-wave (km/s) = 5.15969 6.08974 5.64391
#
# Compressibility (1/GPa) = 0.02955233
#
# Stress axis : x y z
#
# Youngs Moduli (GPa) = 47.81296 106.72135 112.85201
#
# Poissons Ratio (x) = 0.20497 0.02036
# Poissons Ratio (y) = 0.09183 0.30424
# Poissons Ratio (z) = 0.00863 0.28771
#
# Static dielectric constant tensor:
#      x y z
#    x 1.923560 0.000000 0.000000 
#    y 0.000000 1.928570 0.000000 
#    z 0.000000 0.000000 1.934320 
# 
# From -- ./inp_files/6830.got.cif
#   From: 2010.05.17/outbox.cif.g08.bks.cpg/sg33_4_cif.got.tgz:6830.got - 2010.06.03 17:15:25.
