data_PCOD9344308
_publ_section_title
;
Structure prediction by ZEFSAII (Michael W. Deem and Ramdas Pophale) SiO2 
 PCOD9344308
Probable space group: P B A 2
;
_chemical_formula_sum "Si O2"
_cell_formula_units_Z 20
_cell_length_a 27.713618
_cell_length_b 5.248317
_cell_length_c 5.407510
_cell_angle_alpha 90.000000
_cell_angle_beta 90.000000
_cell_angle_gamma 90.000000
_cell_volume 786.521532
_symmetry_space_group_name_H-M "P B A 2"
_symmetry_group_IT_number 32
_symmetry_cell_setting 'orthorhombic'
loop_
_space_group_symop_operation_xyz
x,y,z
-x,-y,z
1/2-x,1/2+y,z
1/2+x,1/2-y,z
loop_
_atom_site_type_symbol
_atom_site_label
_atom_site_fract_x
_atom_site_fract_y
_atom_site_fract_z
Si Si1 0.445891 0.095301 0.358850
Si Si2 0.944834 0.093301 0.853449
Si Si3 0.658608 0.370938 0.868041
Si Si4 0.845367 0.585016 0.354916
Si Si5 0.783503 0.201731 0.543573
O O1 0.434535 0.252204 0.604463
O O2 0.403138 0.894065 0.338074
O O3 0.500000 0.000000 0.389166
O O4 0.444295 0.246482 0.103961
O O5 0.898893 0.910773 0.877757
O O6 0.000000 0.000000 0.828608
O O7 0.688724 0.626787 0.799127
O O8 0.666043 0.198199 0.624510
O O9 0.675261 0.232287 0.117826
O O10 0.827551 0.290119 0.364270
O O11 0.749725 0.451870 0.510296
#
# Coordination Sequence:
#
# PCOD9344308 Si02
#       5
#     4   4   4   4   4
#     4  12  24  43  72 111 158 206 261 323 398 488
#     4  12  24  43  72 111 158 206 261 323 398 488
#     4  12  27  50  79 113 158 206 265 335 406 486
#     4  12  27  50  79 113 158 206 265 335 406 486
#     4  12  28  54  82 118 158 212 274 342 410 480
#
# _framework density 25.428422000000001
#
# number of rings (size 3 to 8) (size 9 to 14) (size 15 to 20)
#    0.000    0.000    4.000    6.000    0.000    1.600 
#    0.000    0.000    0.000    0.000    0.000    0.000 
#    0.000    0.000    0.000    0.000    0.000    0.000 
#
# Total GULP energy -111827.502935 kJ/mol
# GULP energy per Si atom -5591.375147 kJ/mol
# Density = 2.537055 g / cm^3
# Si number density = 25.428422 Si / 1000 Ang^3
#
#
#
# Elastic Constant Matrix: (Units=GPa)
#
#
# Indices 1 2 3 4 5 6 
#
# 1 123.3011 31.2463 7.7923 0.0000 0.0000 0.0000
# 2 31.2463 119.9166 78.7651 0.0000 0.0000 0.0000
# 3 7.7923 78.7651 222.4349 0.0000 0.0000 0.0000
# 4 0.0000 0.0000 0.0000 72.5154 0.0000 0.0000
# 5 0.0000 0.0000 0.0000 0.0000 14.8027 0.0000
# 6 0.0000 0.0000 0.0000 0.0000 0.0000 56.9758
#
#
#
# Elastic Compliance Matrix: (Units=1/GPa)
#
#
# Indices 1 2 3 4 5 6 
#
# 1 0.008756 -0.002710 0.000653 0.000000 0.000000 0.000000
# 2 -0.002710 0.011706 -0.004050 0.000000 0.000000 0.000000
# 3 0.000653 -0.004050 0.005907 0.000000 0.000000 0.000000
# 4 0.000000 0.000000 0.000000 0.013790 0.000000 0.000000
# 5 0.000000 0.000000 0.000000 0.000000 0.067555 0.000000
# 6 0.000000 0.000000 0.000000 0.000000 0.000000 0.017551
#
#
# Mechanical properties :
#
#
# Convention : Reuss Voigt Hill
#
# Bulk Modulus (GPa) = 70.65386 77.91780 74.28583
# Shear Modulus (GPa) = 35.16234 52.04871 43.60553
#
# Velocity S-wave (km/s) = 3.72263 4.52914 4.14555
# Velocity P-wave (km/s) = 6.80610 7.61967 7.22435
#
# Compressibility (1/GPa) = 0.01415351
#
# Stress axis : x y z
#
# Youngs Moduli (GPa) = 114.20974 85.42942 169.29195
#
# Poissons Ratio (x) = 0.23155 -0.11055
# Poissons Ratio (y) = 0.30956 0.68564
# Poissons Ratio (z) = -0.07458 0.34599
#
# Static dielectric constant tensor:
#      x y z
#    x 2.207490 0.000000 0.000000 
#    y 0.000000 2.153950 0.000000 
#    z 0.000000 0.000000 1.914190 
# 
# From -- ./inp_files/1780.got.cif
#   From: 2010.05.17/outbox.cif.g08.bks.cpg/sg32_1_cif.got.tgz:1780.got - 2010.06.03 17:12:27.
