data_PCOD9344402
_publ_section_title
;
Structure prediction by ZEFSAII (Michael W. Deem and Ramdas Pophale) SiO2 
 PCOD9344402
Probable space group: P N A 21
;
_chemical_formula_sum "Si O2"
_cell_formula_units_Z 32
_cell_length_a 14.149264
_cell_length_b 12.234191
_cell_length_c 7.546802
_cell_angle_alpha 90.000000
_cell_angle_beta 90.000000
_cell_angle_gamma 90.000000
_cell_volume 1306.387638
_symmetry_space_group_name_H-M "P N A 21"
_symmetry_group_IT_number 33
_symmetry_cell_setting 'orthorhombic'
loop_
_space_group_symop_operation_xyz
x,y,z
-x,-y,1/2+z
1/2-x,1/2+y,1/2+z
1/2+x,1/2-y,z
loop_
_atom_site_type_symbol
_atom_site_label
_atom_site_fract_x
_atom_site_fract_y
_atom_site_fract_z
Si Si1 0.593771 0.646343 0.208750
Si Si2 0.027706 0.977703 0.855316
Si Si3 0.700331 0.564404 0.617278
Si Si4 0.963945 0.344753 0.534344
Si Si5 0.593445 0.080871 0.051125
Si Si6 0.591493 0.271788 0.284639
Si Si7 0.190053 0.692755 0.718728
Si Si8 0.721673 0.040869 0.748568
O O1 0.533267 0.587733 0.362566
O O2 0.570528 0.773386 0.198378
O O3 0.705706 0.628519 0.174955
O O4 0.551614 0.579560 0.040650
O O5 0.125049 0.990086 0.745956
O O6 0.961143 0.886000 0.767615
O O7 0.811357 0.559336 0.670472
O O8 0.713700 0.509517 0.424394
O O9 0.674160 0.694848 0.608897
O O10 0.968534 0.473224 0.562752
O O11 0.884917 0.319808 0.379445
O O12 0.058946 0.291736 0.460399
O O13 0.556290 0.192790 0.126567
O O14 0.631773 0.089980 0.850285
O O15 0.702755 0.287478 0.281062
O O16 0.196441 0.568496 0.642253
#
# Coordination Sequence:
#
# PCOD9344402 Si02
#       8
#     4   4   4   4   4   4   4   4
#     4  11  21  35  57  94 124 154 202 261 310 370
#     4  11  21  34  60  93 121 157 206 257 321 368
#     4   9  18  35  62  86 111 164 206 252 306 378
#     4  10  21  37  61  86 124 163 202 255 315 372
#     4   8  20  38  61  82 117 163 212 245 303 375
#     4  10  19  36  63  83 118 165 204 247 311 380
#     4  10  17  37  60  87 112 165 201 248 315 371
#     4   9  19  34  60  83 121 149 207 253 303 366
#
# _framework density 24.495024000000001
#
# number of rings (size 3 to 8) (size 9 to 14) (size 15 to 20)
#    0.750    1.500    3.750    0.750    1.750    0.000 
#    0.000    7.500    0.000    0.000    0.000    0.000 
#    0.000    0.000    0.000    0.000    0.000    0.000 
#
# Total GULP energy -178348.366994 kJ/mol
# GULP energy per Si atom -5573.386469 kJ/mol
# Density = 2.443927 g / cm^3
# Si number density = 24.495024 Si / 1000 Ang^3
#
#
#
# Elastic Constant Matrix: (Units=GPa)
#
#
# Indices 1 2 3 4 5 6 
#
# 1 69.7556 16.4572 6.1207 0.0000 0.0000 0.0000
# 2 16.4572 100.3658 14.0547 0.0000 0.0000 0.0000
# 3 6.1207 14.0547 28.2582 0.0000 0.0000 0.0000
# 4 0.0000 0.0000 0.0000 36.9551 0.0000 0.0000
# 5 0.0000 0.0000 0.0000 0.0000 31.3095 0.0000
# 6 0.0000 0.0000 0.0000 0.0000 0.0000 26.0550
#
#
#
# Elastic Compliance Matrix: (Units=1/GPa)
#
#
# Indices 1 2 3 4 5 6 
#
# 1 0.015037 -0.002160 -0.002183 0.000000 0.000000 0.000000
# 2 -0.002160 0.011020 -0.005013 0.000000 0.000000 0.000000
# 3 -0.002183 -0.005013 0.038354 0.000000 0.000000 0.000000
# 4 0.000000 0.000000 0.000000 0.027060 0.000000 0.000000
# 5 0.000000 0.000000 0.000000 0.000000 0.031939 0.000000
# 6 0.000000 0.000000 0.000000 0.000000 0.000000 0.038380
#
#
# Mechanical properties :
#
#
# Convention : Reuss Voigt Hill
#
# Bulk Modulus (GPa) = 21.88217 30.18277 26.03247
# Shear Modulus (GPa) = 25.54482 29.64706 27.59594
#
# Velocity S-wave (km/s) = 3.23283 3.48275 3.36012
# Velocity P-wave (km/s) = 4.78410 5.34055 5.06997
#
# Compressibility (1/GPa) = 0.04569931
#
# Stress axis : x y z
#
# Youngs Moduli (GPa) = 66.50310 90.74642 26.07288
#
# Poissons Ratio (x) = 0.19601 0.05691
# Poissons Ratio (y) = 0.14365 0.13070
# Poissons Ratio (z) = 0.14516 0.45491
#
# Static dielectric constant tensor:
#      x y z
#    x 2.030620 0.000000 0.000000 
#    y 0.000000 1.954720 0.000000 
#    z 0.000000 0.000000 2.080070 
# 
# From -- ./inp_files/4441.got.cif
#   From: 2010.05.17/outbox.cif.g08.bks.cpg/sg33_3_cif.got.tgz:4441.got - 2010.06.03 17:15:25.
