data_PCOD9344662
_publ_section_title
;
Structure prediction by ZEFSAII (Michael W. Deem and Ramdas Pophale) SiO2 
 PCOD9344662
Probable space group: P N A 21
;
_chemical_formula_sum "Si O2"
_cell_formula_units_Z 28
_cell_length_a 17.447812
_cell_length_b 9.613056
_cell_length_c 7.610689
_cell_angle_alpha 90.000000
_cell_angle_beta 90.000000
_cell_angle_gamma 90.000000
_cell_volume 1276.516465
_symmetry_space_group_name_H-M "P N A 21"
_symmetry_group_IT_number 33
_symmetry_cell_setting 'orthorhombic'
loop_
_space_group_symop_operation_xyz
x,y,z
-x,-y,1/2+z
1/2-x,1/2+y,1/2+z
1/2+x,1/2-y,z
loop_
_atom_site_type_symbol
_atom_site_label
_atom_site_fract_x
_atom_site_fract_y
_atom_site_fract_z
Si Si1 0.745377 0.042557 0.662580
Si Si2 0.144327 0.910431 0.479401
Si Si3 0.918553 0.475708 0.327614
Si Si4 0.793141 0.746925 0.542382
Si Si5 0.040789 0.661385 0.473367
Si Si6 0.638756 0.976448 0.185074
Si Si7 0.299513 0.679413 0.141899
O O1 0.813234 0.090945 0.792116
O O2 0.719461 0.174343 0.544398
O O3 0.669100 0.992119 0.765292
O O4 0.783328 0.906722 0.585597
O O5 0.208736 0.819010 0.580810
O O6 0.067239 0.821183 0.471795
O O7 0.143527 0.067642 0.554653
O O8 0.912952 0.415555 0.525087
O O9 0.966667 0.616564 0.362635
O O10 0.960545 0.389165 0.175505
O O11 0.849606 0.640608 0.642823
O O12 0.816263 0.762446 0.336709
O O13 0.105834 0.569741 0.371773
O O14 0.721040 0.905949 0.160103
#
# Coordination Sequence:
#
# PCOD9344662 Si02
#       7
#     4   4   4   4   4   4   4
#     4  11  20  37  62  95 118 169 209 262 330 380
#     4  10  21  37  58  92 130 155 212 268 311 386
#     4  12  23  38  67  90 128 172 219 262 327 384
#     4  10  20  35  63  98 122 156 211 269 321 379
#     4  12  24  41  63  97 129 175 217 270 326 399
#     4  11  21  42  61  97 130 158 216 273 318 384
#     4  10  19  36  62  89 129 157 202 274 317 376
#
# _framework density 21.934697
#
# number of rings (size 3 to 8) (size 9 to 14) (size 15 to 20)
#    0.000    1.143   10.000    0.000    0.000    4.571 
#    0.000    0.000    3.143    0.000    0.000    0.000 
#    0.000    0.000    0.000    0.000    0.000    0.000 
#
# Total GULP energy -155892.901568 kJ/mol
# GULP energy per Si atom -5567.603627 kJ/mol
# Density = 2.188477 g / cm^3
# Si number density = 21.934697 Si / 1000 Ang^3
#
#
#
# Elastic Constant Matrix: (Units=GPa)
#
#
# Indices 1 2 3 4 5 6 
#
# 1 40.6329 0.7009 7.3955 0.0000 0.0000 0.0000
# 2 0.7009 154.2646 36.0343 0.0000 0.0000 0.0000
# 3 7.3955 36.0343 79.2093 0.0000 0.0000 0.0000
# 4 0.0000 0.0000 0.0000 37.5596 0.0000 0.0000
# 5 0.0000 0.0000 0.0000 0.0000 20.4577 0.0000
# 6 0.0000 0.0000 0.0000 0.0000 0.0000 34.4587
#
#
#
# Elastic Compliance Matrix: (Units=1/GPa)
#
#
# Indices 1 2 3 4 5 6 
#
# 1 0.025068 0.000484 -0.002561 0.000000 0.000000 0.000000
# 2 0.000484 0.007262 -0.003349 0.000000 0.000000 0.000000
# 3 -0.002561 -0.003349 0.014387 0.000000 0.000000 0.000000
# 4 0.000000 0.000000 0.000000 0.026624 0.000000 0.000000
# 5 0.000000 0.000000 0.000000 0.000000 0.048881 0.000000
# 6 0.000000 0.000000 0.000000 0.000000 0.000000 0.029020
#
#
# Mechanical properties :
#
#
# Convention : Reuss Voigt Hill
#
# Bulk Modulus (GPa) = 27.88082 40.26312 34.07197
# Shear Modulus (GPa) = 28.72720 33.82695 31.27708
#
# Velocity S-wave (km/s) = 3.62286 3.93130 3.78023
# Velocity P-wave (km/s) = 5.49896 6.24521 5.88393
#
# Compressibility (1/GPa) = 0.03586696
#
# Stress axis : x y z
#
# Youngs Moduli (GPa) = 39.89095 137.69412 69.50498
#
# Poissons Ratio (x) = -0.06668 0.17799
# Poissons Ratio (y) = -0.01932 0.23278
# Poissons Ratio (z) = 0.10215 0.46115
#
# Static dielectric constant tensor:
#      x y z
#    x 1.856400 0.000000 0.000000 
#    y 0.000000 1.907920 0.000000 
#    z 0.000000 0.000000 1.934310 
# 
# From -- ./inp_files/4962.got.cif
#   From: 2010.05.17/outbox.cif.g08.bks.cpg/sg33_3_cif.got.tgz:4962.got - 2010.06.03 17:15:25.
