data_PCOD9344724
_publ_section_title
;
Structure prediction by ZEFSAII (Michael W. Deem and Ramdas Pophale) SiO2 
 PCOD9344724
Probable space group: P N A 21
;
_chemical_formula_sum "Si O2"
_cell_formula_units_Z 28
_cell_length_a 8.206123
_cell_length_b 17.152107
_cell_length_c 9.675657
_cell_angle_alpha 90.000000
_cell_angle_beta 90.000000
_cell_angle_gamma 90.000000
_cell_volume 1361.870974
_symmetry_space_group_name_H-M "P N A 21"
_symmetry_group_IT_number 33
_symmetry_cell_setting 'orthorhombic'
loop_
_space_group_symop_operation_xyz
x,y,z
-x,-y,1/2+z
1/2-x,1/2+y,1/2+z
1/2+x,1/2-y,z
loop_
_atom_site_type_symbol
_atom_site_label
_atom_site_fract_x
_atom_site_fract_y
_atom_site_fract_z
Si Si1 0.813844 0.945118 0.400720
Si Si2 0.789758 0.841998 0.650575
Si Si3 0.965431 0.709529 0.787805
Si Si4 0.196032 0.790412 0.997276
Si Si5 0.844031 0.973582 0.849953
Si Si6 0.809549 0.383405 0.608318
Si Si7 0.815586 0.569451 0.116360
O O1 0.798006 0.868358 0.494607
O O2 0.758459 0.921080 0.248382
O O3 0.710736 0.008230 0.490711
O O4 0.996276 0.979163 0.393259
O O5 0.868420 0.758214 0.674425
O O6 0.608225 0.839910 0.717725
O O7 0.888244 0.905173 0.741056
O O8 0.830658 0.675158 0.889653
O O9 0.051487 0.768692 0.894959
O O10 0.231151 0.708010 0.074904
O O11 0.181517 0.861513 0.101593
O O12 0.720893 0.026254 0.760434
O O13 0.760362 0.932889 0.980348
O O14 0.004685 0.394052 0.616017
#
# Coordination Sequence:
#
# PCOD9344724 Si02
#       7
#     4   4   4   4   4   4   4
#     4  11  26  42  66  95 139 168 226 276 339 396
#     4  10  21  42  63  97 124 173 217 275 324 403
#     4  10  19  38  68  90 128 166 222 265 332 395
#     4  11  21  38  69  98 123 171 224 274 327 397
#     4  11  22  42  69  93 133 177 224 263 341 403
#     4  12  23  43  66  97 135 173 224 278 331 398
#     4  11  24  41  67  98 130 176 221 275 332 396
#
# _framework density 20.559950000000001
#
# number of rings (size 3 to 8) (size 9 to 14) (size 15 to 20)
#    0.000    1.143    4.286    3.429    2.000    1.143 
#    5.143    4.286    0.000    0.000    0.000    0.000 
#    0.000    0.000    0.000    0.000    0.000    0.000 
#
# Total GULP energy -156198.794617 kJ/mol
# GULP energy per Si atom -5578.528379 kJ/mol
# Density = 2.051315 g / cm^3
# Si number density = 20.559950 Si / 1000 Ang^3
#
#
#
# Elastic Constant Matrix: (Units=GPa)
#
#
# Indices 1 2 3 4 5 6 
#
# 1 23.1204 -9.7985 1.1324 0.0000 0.0000 0.0000
# 2 -9.7985 81.5279 42.3592 0.0000 0.0000 0.0000
# 3 1.1324 42.3592 132.1338 0.0000 0.0000 0.0000
# 4 0.0000 0.0000 0.0000 40.8500 0.0000 0.0000
# 5 0.0000 0.0000 0.0000 0.0000 18.7867 0.0000
# 6 0.0000 0.0000 0.0000 0.0000 0.0000 19.8803
#
#
#
# Elastic Compliance Matrix: (Units=1/GPa)
#
#
# Indices 1 2 3 4 5 6 
#
# 1 0.046316 0.006926 -0.002617 0.000000 0.000000 0.000000
# 2 0.006926 0.015753 -0.005109 0.000000 0.000000 0.000000
# 3 -0.002617 -0.005109 0.009228 0.000000 0.000000 0.000000
# 4 0.000000 0.000000 0.000000 0.024480 0.000000 0.000000
# 5 0.000000 0.000000 0.000000 0.000000 0.053229 0.000000
# 6 0.000000 0.000000 0.000000 0.000000 0.000000 0.050301
#
#
# Mechanical properties :
#
#
# Convention : Reuss Voigt Hill
#
# Bulk Modulus (GPa) = 14.34800 33.79648 24.07224
# Shear Modulus (GPa) = 22.30751 29.44265 25.87508
#
# Velocity S-wave (km/s) = 3.29750 3.78833 3.55141
# Velocity P-wave (km/s) = 4.63593 5.96733 5.34326
#
# Compressibility (1/GPa) = 0.06969614
#
# Stress axis : x y z
#
# Youngs Moduli (GPa) = 21.59102 63.48053 108.36029
#
# Poissons Ratio (x) = -0.43969 0.28362
# Poissons Ratio (y) = -0.14955 0.55365
# Poissons Ratio (z) = 0.05651 0.32435
#
# Static dielectric constant tensor:
#      x y z
#    x 1.774530 0.000000 0.000000 
#    y 0.000000 1.781300 0.000000 
#    z 0.000000 0.000000 1.721970 
# 
# From -- ./inp_files/3355.got.cif
#   From: 2010.05.17/outbox.cif.g08.bks.cpg/sg33_2_cif.got.tgz:3355.got - 2010.06.03 17:15:25.
