data_PCOD9344423
_publ_section_title
;
Structure prediction by ZEFSAII (Michael W. Deem and Ramdas Pophale) SiO2 
 PCOD9344423
Probable space group: P N A 21
;
_chemical_formula_sum "Si O2"
_cell_formula_units_Z 28
_cell_length_a 7.471984
_cell_length_b 8.010078
_cell_length_c 17.793218
_cell_angle_alpha 90.000000
_cell_angle_beta 90.000000
_cell_angle_gamma 90.000000
_cell_volume 1064.944998
_symmetry_space_group_name_H-M "P N A 21"
_symmetry_group_IT_number 33
_symmetry_cell_setting 'orthorhombic'
loop_
_space_group_symop_operation_xyz
x,y,z
-x,-y,1/2+z
1/2-x,1/2+y,1/2+z
1/2+x,1/2-y,z
loop_
_atom_site_type_symbol
_atom_site_label
_atom_site_fract_x
_atom_site_fract_y
_atom_site_fract_z
Si Si1 0.089934 0.853922 0.031920
Si Si2 0.819714 0.018058 0.679520
Si Si3 0.025849 0.654867 0.252877
Si Si4 0.216987 0.273548 0.377455
Si Si5 0.180678 0.897708 0.717988
Si Si6 0.299531 0.988719 0.557828
Si Si7 0.895949 0.538767 0.399435
O O1 0.203109 0.962571 0.090683
O O2 0.089029 0.662455 0.062530
O O3 0.895521 0.934329 0.038461
O O4 0.169392 0.841763 0.948916
O O5 0.935726 0.176343 0.709173
O O6 0.626498 0.037131 0.716201
O O7 0.968348 0.883103 0.701571
O O8 0.216762 0.564845 0.246426
O O9 0.953963 0.673163 0.337974
O O10 0.291069 0.294658 0.293771
O O11 0.215849 0.070710 0.384671
O O12 0.043476 0.391661 0.386732
O O13 0.268930 0.886661 0.634214
O O14 0.379437 0.897883 0.484566
#
# Coordination Sequence:
#
# PCOD9344423 Si02
#       7
#     4   4   4   4   4   4   4
#     4  10  18  30  56  81 110 142 189 245 290 321
#     4  11  20  34  58  83 114 144 190 241 292 335
#     4  11  21  35  57  85 112 152 186 240 295 342
#     4  10  21  36  54  87 117 147 191 242 288 347
#     4  10  22  35  55  85 119 148 186 242 295 341
#     4  10  18  32  53  83 110 148 190 246 284 338
#     4  10  22  34  57  82 114 155 192 232 292 342
#
# _framework density 26.292435999999999
#
# number of rings (size 3 to 8) (size 9 to 14) (size 15 to 20)
#    0.000    1.714    2.857    4.286    6.000    0.000 
#    0.000    0.000    0.000    5.143    0.000    0.000 
#    0.000    0.000    0.000    0.000    0.000    0.000 
#
# Total GULP energy -156245.976657 kJ/mol
# GULP energy per Si atom -5580.213452 kJ/mol
# Density = 2.623259 g / cm^3
# Si number density = 26.292436 Si / 1000 Ang^3
#
#
#
# Elastic Constant Matrix: (Units=GPa)
#
#
# Indices 1 2 3 4 5 6 
#
# 1 117.6224 29.4494 38.9407 0.0000 0.0000 0.0000
# 2 29.4494 31.6309 49.7785 0.0000 0.0000 0.0000
# 3 38.9407 49.7785 211.4804 0.0000 0.0000 0.0000
# 4 0.0000 0.0000 0.0000 34.1122 0.0000 0.0000
# 5 0.0000 0.0000 0.0000 0.0000 43.6808 0.0000
# 6 0.0000 0.0000 0.0000 0.0000 0.0000 13.4709
#
#
#
# Elastic Compliance Matrix: (Units=1/GPa)
#
#
# Indices 1 2 3 4 5 6 
#
# 1 0.011137 -0.011343 0.000619 0.000000 0.000000 0.000000
# 2 -0.011343 0.061770 -0.012451 0.000000 0.000000 0.000000
# 3 0.000619 -0.012451 0.007545 0.000000 0.000000 0.000000
# 4 0.000000 0.000000 0.000000 0.029315 0.000000 0.000000
# 5 0.000000 0.000000 0.000000 0.000000 0.022893 0.000000
# 6 0.000000 0.000000 0.000000 0.000000 0.000000 0.074234
#
#
# Mechanical properties :
#
#
# Convention : Reuss Voigt Hill
#
# Bulk Modulus (GPa) = 29.32355 66.34121 47.83238
# Shear Modulus (GPa) = 18.89560 34.42380 26.65970
#
# Velocity S-wave (km/s) = 2.68371 3.62230 3.18774
# Velocity P-wave (km/s) = 4.55852 6.54076 5.63745
#
# Compressibility (1/GPa) = 0.03410229
#
# Stress axis : x y z
#
# Youngs Moduli (GPa) = 89.79231 16.18908 132.53444
#
# Poissons Ratio (x) = 0.18364 -0.08209
# Poissons Ratio (y) = 1.01856 1.65016
# Poissons Ratio (z) = -0.05562 0.20157
#
# Static dielectric constant tensor:
#      x y z
#    x 2.173970 0.000000 0.000000 
#    y 0.000000 2.162450 0.000000 
#    z 0.000000 0.000000 2.082620 
# 
# From -- ./inp_files/8462.got.cif
#   From: 2010.05.17/outbox.cif.g08.bks.cpg/sg33_5_cif.got.tgz:8462.got - 2010.06.03 17:15:25.
