data_PCOD9344522
_publ_section_title
;
Structure prediction by ZEFSAII (Michael W. Deem and Ramdas Pophale) SiO2 
 PCOD9344522
Probable space group: P N A 21
;
_chemical_formula_sum "Si O2"
_cell_formula_units_Z 24
_cell_length_a 15.684401
_cell_length_b 7.967837
_cell_length_c 9.146074
_cell_angle_alpha 90.000000
_cell_angle_beta 90.000000
_cell_angle_gamma 90.000000
_cell_volume 1142.991733
_symmetry_space_group_name_H-M "P N A 21"
_symmetry_group_IT_number 33
_symmetry_cell_setting 'orthorhombic'
loop_
_space_group_symop_operation_xyz
x,y,z
-x,-y,1/2+z
1/2-x,1/2+y,1/2+z
1/2+x,1/2-y,z
loop_
_atom_site_type_symbol
_atom_site_label
_atom_site_fract_x
_atom_site_fract_y
_atom_site_fract_z
Si Si1 0.424822 0.407280 0.825830
Si Si2 0.511552 0.227633 0.390774
Si Si3 0.104440 0.741696 0.629278
Si Si4 0.664635 0.103705 0.571729
Si Si5 0.884898 0.900169 0.270427
Si Si6 0.348313 0.388537 0.524668
O O1 0.439310 0.593997 0.887701
O O2 0.514841 0.369717 0.748179
O O3 0.355660 0.401894 0.698835
O O4 0.411730 0.284523 0.960555
O O5 0.479774 0.193736 0.224901
O O6 0.578809 0.110767 0.472728
O O7 0.420544 0.257093 0.471719
O O8 0.166996 0.583859 0.636043
O O9 0.135894 0.919390 0.696975
O O10 0.659572 0.243786 0.697554
O O11 0.750688 0.145399 0.484587
O O12 0.871805 0.937961 0.441714
#
# Coordination Sequence:
#
# PCOD9344522 Si02
#       6
#     4   4   4   4   4   4
#     4  10  18  42  70  88 126 178 211 277 335 404
#     4  10  21  45  65  93 132 179 217 278 349 402
#     4  10  23  39  66  97 126 170 236 268 338 413
#     4  12  24  39  70  99 132 179 224 289 337 403
#     4  10  21  46  61  92 132 176 213 279 346 402
#     4  10  23  39  70  97 130 176 231 273 345 414
#
# _framework density 20.997526000000001
#
# number of rings (size 3 to 8) (size 9 to 14) (size 15 to 20)
#    0.000    2.000    3.333    3.000    4.667    2.667 
#    0.000    0.000    0.000    0.000    0.000    0.000 
#    0.000    0.000    0.000    0.000    0.000    0.000 
#
# Total GULP energy -133750.321116 kJ/mol
# GULP energy per Si atom -5572.930046 kJ/mol
# Density = 2.094973 g / cm^3
# Si number density = 20.997526 Si / 1000 Ang^3
#
#
#
# Elastic Constant Matrix: (Units=GPa)
#
#
# Indices 1 2 3 4 5 6 
#
# 1 87.3168 33.8612 30.9400 0.0000 0.0000 0.0000
# 2 33.8612 78.4448 34.0885 0.0000 0.0000 0.0000
# 3 30.9400 34.0885 114.0149 0.0000 0.0000 0.0000
# 4 0.0000 0.0000 0.0000 23.5999 0.0000 0.0000
# 5 0.0000 0.0000 0.0000 0.0000 23.5551 0.0000
# 6 0.0000 0.0000 0.0000 0.0000 0.0000 14.1772
#
#
#
# Elastic Compliance Matrix: (Units=1/GPa)
#
#
# Indices 1 2 3 4 5 6 
#
# 1 0.014276 -0.005148 -0.002335 0.000000 0.000000 0.000000
# 2 -0.005148 0.016508 -0.003539 0.000000 0.000000 0.000000
# 3 -0.002335 -0.003539 0.010462 0.000000 0.000000 0.000000
# 4 0.000000 0.000000 0.000000 0.042373 0.000000 0.000000
# 5 0.000000 0.000000 0.000000 0.000000 0.042454 0.000000
# 6 0.000000 0.000000 0.000000 0.000000 0.000000 0.070536
#
#
# Mechanical properties :
#
#
# Convention : Reuss Voigt Hill
#
# Bulk Modulus (GPa) = 52.07366 53.06178 52.56772
# Shear Modulus (GPa) = 22.21706 24.32556 23.27131
#
# Velocity S-wave (km/s) = 3.25634 3.40736 3.33271
# Velocity P-wave (km/s) = 6.24437 6.38792 6.31655
#
# Compressibility (1/GPa) = 0.01920357
#
# Stress axis : x y z
#
# Youngs Moduli (GPa) = 70.04655 60.57824 95.58029
#
# Poissons Ratio (x) = 0.31184 0.22318
# Poissons Ratio (y) = 0.36058 0.33822
# Poissons Ratio (z) = 0.16356 0.21436
#
# Static dielectric constant tensor:
#      x y z
#    x 1.773020 0.000000 0.000000 
#    y 0.000000 1.763340 0.000000 
#    z 0.000000 0.000000 1.860170 
# 
# From -- ./inp_files/4284.got.cif
#   From: 2010.05.17/outbox.cif.g08.bks.cpg/sg33_3_cif.got.tgz:4284.got - 2010.06.03 17:15:25.
