data_PCOD9344961
_publ_section_title
;
Structure prediction by ZEFSAII (Michael W. Deem and Ramdas Pophale) SiO2 
 PCOD9344961
Probable space group: P N A 21
;
_chemical_formula_sum "Si O2"
_cell_formula_units_Z 20
_cell_length_a 17.496112
_cell_length_b 5.402274
_cell_length_c 7.848404
_cell_angle_alpha 90.000000
_cell_angle_beta 90.000000
_cell_angle_gamma 90.000000
_cell_volume 741.821657
_symmetry_space_group_name_H-M "P N A 21"
_symmetry_group_IT_number 33
_symmetry_cell_setting 'orthorhombic'
loop_
_space_group_symop_operation_xyz
x,y,z
-x,-y,1/2+z
1/2-x,1/2+y,1/2+z
1/2+x,1/2-y,z
loop_
_atom_site_type_symbol
_atom_site_label
_atom_site_fract_x
_atom_site_fract_y
_atom_site_fract_z
Si Si1 0.289217 0.608879 0.016520
Si Si2 0.408867 0.459505 0.744499
Si Si3 0.769134 0.882365 0.532806
Si Si4 0.522428 0.043711 0.361822
Si Si5 0.626727 0.046618 0.708504
O O1 0.222207 0.410356 0.005767
O O2 0.327348 0.690630 0.196570
O O3 0.269228 0.880436 0.939246
O O4 0.353839 0.479690 0.907110
O O5 0.349403 0.508891 0.594280
O O6 0.445722 0.191972 0.756692
O O7 0.464930 0.692097 0.768613
O O8 0.697868 0.867529 0.671215
O O9 0.431509 0.000425 0.360621
O O10 0.570078 0.045591 0.539420
#
# Coordination Sequence:
#
# PCOD9344961 Si02
#       5
#     4   4   4   4   4
#     4   9  19  38  59  78 122 152 194 244 301 343
#     4  11  21  39  61  85 121 160 199 249 309 345
#     4  10  20  38  61  84 116 160 194 249 299 356
#     4  11  23  40  64  88 126 160 199 252 297 365
#     4   9  23  41  61  89 123 162 198 246 304 353
#
# _framework density 26.960660000000001
#
# number of rings (size 3 to 8) (size 9 to 14) (size 15 to 20)
#    1.200    0.800    2.000    1.200    2.800    0.000 
#    7.200    0.000    0.000    0.000    0.000    0.000 
#    0.000    0.000    0.000    0.000    0.000    0.000 
#
# Total GULP energy -111429.453021 kJ/mol
# GULP energy per Si atom -5571.472651 kJ/mol
# Density = 2.689930 g / cm^3
# Si number density = 26.960660 Si / 1000 Ang^3
#
#
#
# Elastic Constant Matrix: (Units=GPa)
#
#
# Indices 1 2 3 4 5 6 
#
# 1 112.9892 40.8699 8.1178 0.0000 0.0000 0.0000
# 2 40.8699 184.0847 22.6548 0.0000 0.0000 0.0000
# 3 8.1178 22.6548 36.8083 0.0000 0.0000 0.0000
# 4 0.0000 0.0000 0.0000 34.4162 0.0000 0.0000
# 5 0.0000 0.0000 0.0000 0.0000 49.9200 0.0000
# 6 0.0000 0.0000 0.0000 0.0000 0.0000 44.9078
#
#
#
# Elastic Compliance Matrix: (Units=1/GPa)
#
#
# Indices 1 2 3 4 5 6 
#
# 1 0.009649 -0.002035 -0.000876 0.000000 0.000000 0.000000
# 2 -0.002035 0.006306 -0.003433 0.000000 0.000000 0.000000
# 3 -0.000876 -0.003433 0.029474 0.000000 0.000000 0.000000
# 4 0.000000 0.000000 0.000000 0.029056 0.000000 0.000000
# 5 0.000000 0.000000 0.000000 0.000000 0.020032 0.000000
# 6 0.000000 0.000000 0.000000 0.000000 0.000000 0.022268
#
#
# Mechanical properties :
#
#
# Convention : Reuss Voigt Hill
#
# Bulk Modulus (GPa) = 30.54077 53.01858 41.77968
# Shear Modulus (GPa) = 35.61603 43.33145 39.47374
#
# Velocity S-wave (km/s) = 3.63855 4.01335 3.83054
# Velocity P-wave (km/s) = 5.38559 6.41746 5.92404
#
# Compressibility (1/GPa) = 0.03274312
#
# Stress axis : x y z
#
# Youngs Moduli (GPa) = 103.63507 158.56805 33.92843
#
# Poissons Ratio (x) = 0.32261 0.02972
# Poissons Ratio (y) = 0.21085 0.11647
# Poissons Ratio (z) = 0.09077 0.54433
#
# Static dielectric constant tensor:
#      x y z
#    x 2.108400 0.000000 0.000000 
#    y 0.000000 2.220440 0.000000 
#    z 0.000000 0.000000 2.409440 
# 
# From -- ./inp_files/4902.got.cif
#   From: 2010.05.17/outbox.cif.g08.bks.cpg/sg33_3_cif.got.tgz:4902.got - 2010.06.03 17:15:25.
