data_PCOD9344109
_publ_section_title
;
Structure prediction by ZEFSAII (Michael W. Deem and Ramdas Pophale) SiO2 
 PCOD9344109
Probable space group: P B A 2
;
_chemical_formula_sum "Si O2"
_cell_formula_units_Z 30
_cell_length_a 18.869158
_cell_length_b 7.112447
_cell_length_c 8.655602
_cell_angle_alpha 90.000000
_cell_angle_beta 90.000000
_cell_angle_gamma 90.000000
_cell_volume 1161.632737
_symmetry_space_group_name_H-M "P B A 2"
_symmetry_group_IT_number 32
_symmetry_cell_setting 'orthorhombic'
loop_
_space_group_symop_operation_xyz
x,y,z
-x,-y,z
1/2-x,1/2+y,z
1/2+x,1/2-y,z
loop_
_atom_site_type_symbol
_atom_site_label
_atom_site_fract_x
_atom_site_fract_y
_atom_site_fract_z
Si Si1 0.601999 0.208707 0.546140
Si Si2 0.292468 0.785696 0.006687
Si Si3 0.324537 0.504372 0.737831
Si Si4 0.831846 0.149897 0.235603
Si Si5 0.372600 0.081728 0.801936
Si Si6 0.000000 0.500000 0.024063
Si Si7 0.421037 0.697942 0.217408
Si Si8 0.721755 0.964552 0.446930
O O1 0.610013 0.386431 0.657407
O O2 0.558809 0.258561 0.394805
O O3 0.594186 0.025903 0.653288
O O4 0.677491 0.154601 0.469407
O O5 0.349174 0.791179 0.144789
O O6 0.214859 0.783711 0.087455
O O7 0.312002 0.607094 0.900422
O O8 0.314245 0.948167 0.884799
O O9 0.157125 0.786188 0.759011
O O10 0.261291 0.542501 0.613730
O O11 0.902243 0.025976 0.203637
O O12 0.780816 0.000374 0.319474
O O13 0.831191 0.311962 0.368295
O O14 0.436180 0.079773 0.922132
O O15 0.023382 0.317756 0.120085
#
# Coordination Sequence:
#
# PCOD9344109 Si02
#       8
#     4   4   4   4   4   2   4   4
#     4  11  23  43  71 111 147 198 255 318 399 478
#     4  10  23  42  63 109 154 198 249 316 397 487
#     4  11  23  43  68 112 158 204 247 308 406 487
#     4  12  21  41  69 111 162 199 250 322 404 494
#     4  10  25  47  75 102 152 207 260 328 395 459
#     4  10  26  56  76 104 152 210 288 350 370 474
#     4  11  23  47  75 104 151 210 257 336 399 456
#     4  12  21  40  66 112 168 192 242 318 400 512
#
# _framework density 25.82572
#
# number of rings (size 3 to 8) (size 9 to 14) (size 15 to 20)
#    0.000    1.067    5.333    0.800    0.000    3.733 
#    7.200    6.000    0.000    1.600    0.000    0.000 
#    0.000    0.000    0.000    0.000    0.000    0.000 
#
# Total GULP energy -167552.166969 kJ/mol
# GULP energy per Si atom -5585.072232 kJ/mol
# Density = 2.576694 g / cm^3
# Si number density = 25.825720 Si / 1000 Ang^3
#
#
#
# Elastic Constant Matrix: (Units=GPa)
#
#
# Indices 1 2 3 4 5 6 
#
# 1 45.9552 40.8427 27.1341 0.0000 0.0000 0.0000
# 2 40.8427 210.7429 67.7993 0.0000 0.0000 0.0000
# 3 27.1341 67.7993 174.0346 0.0000 0.0000 0.0000
# 4 0.0000 0.0000 0.0000 51.3845 0.0000 0.0000
# 5 0.0000 0.0000 0.0000 0.0000 30.9810 0.0000
# 6 0.0000 0.0000 0.0000 0.0000 0.0000 21.9002
#
#
#
# Elastic Compliance Matrix: (Units=1/GPa)
#
#
# Indices 1 2 3 4 5 6 
#
# 1 0.027208 -0.004468 -0.002501 0.000000 0.000000 0.000000
# 2 -0.004468 0.006159 -0.001703 0.000000 0.000000 0.000000
# 3 -0.002501 -0.001703 0.006799 0.000000 0.000000 0.000000
# 4 0.000000 0.000000 0.000000 0.019461 0.000000 0.000000
# 5 0.000000 0.000000 0.000000 0.000000 0.032278 0.000000
# 6 0.000000 0.000000 0.000000 0.000000 0.000000 0.045662
#
#
# Mechanical properties :
#
#
# Convention : Reuss Voigt Hill
#
# Bulk Modulus (GPa) = 43.81766 78.03165 60.92466
# Shear Modulus (GPa) = 30.76556 40.51693 35.64124
#
# Velocity S-wave (km/s) = 3.45523 3.96518 3.71896
# Velocity P-wave (km/s) = 5.73774 7.15848 6.48712
#
# Compressibility (1/GPa) = 0.02282185
#
# Stress axis : x y z
#
# Youngs Moduli (GPa) = 36.75325 162.36728 147.07418
#
# Poissons Ratio (x) = 0.72552 0.36789
# Poissons Ratio (y) = 0.16423 0.25042
# Poissons Ratio (z) = 0.09193 0.27646
#
# Static dielectric constant tensor:
#      x y z
#    x 2.100730 0.000000 0.000000 
#    y 0.000000 2.130550 0.000000 
#    z 0.000000 0.000000 2.072720 
# 
# From -- ./inp_files/3318.got.cif
#   From: 2010.05.17/outbox.cif.g08.bks.cpg/sg32_2_cif.got.tgz:3318.got - 2010.06.03 17:12:27.
