data_PCOD9344106
_publ_section_title
;
Structure prediction by ZEFSAII (Michael W. Deem and Ramdas Pophale) SiO2 
 PCOD9344106
Probable space group: P B A 2
;
_chemical_formula_sum "Si O2"
_cell_formula_units_Z 32
_cell_length_a 7.726413
_cell_length_b 13.992178
_cell_length_c 11.438729
_cell_angle_alpha 90.000000
_cell_angle_beta 90.000000
_cell_angle_gamma 90.000000
_cell_volume 1236.633511
_symmetry_space_group_name_H-M "P B A 2"
_symmetry_group_IT_number 32
_symmetry_cell_setting 'orthorhombic'
loop_
_space_group_symop_operation_xyz
x,y,z
-x,-y,z
1/2-x,1/2+y,z
1/2+x,1/2-y,z
loop_
_atom_site_type_symbol
_atom_site_label
_atom_site_fract_x
_atom_site_fract_y
_atom_site_fract_z
Si Si1 0.315252 0.867044 0.121460
Si Si2 0.566250 0.406431 0.689277
Si Si3 0.128277 0.629368 0.828114
Si Si4 0.778872 0.154309 0.863886
Si Si5 0.335544 0.569725 0.321621
Si Si6 0.174804 0.378785 0.384342
Si Si7 0.190305 0.594577 0.087765
Si Si8 0.496020 0.281711 0.488176
O O1 0.273082 0.842036 0.253970
O O2 0.516993 0.843210 0.103310
O O3 0.322233 0.982215 0.115954
O O4 0.210181 0.840456 0.005726
O O5 0.500000 0.500000 0.619335
O O6 0.765842 0.420141 0.724972
O O7 0.432007 0.401801 0.798713
O O8 0.548605 0.306741 0.619978
O O9 0.187989 0.738606 0.821895
O O10 0.919676 0.620697 0.836371
O O11 0.216576 0.595712 0.949892
O O12 0.500000 0.500000 0.308370
O O13 0.807770 0.506787 0.368832
O O14 0.311452 0.621076 0.195484
O O15 0.378348 0.651734 0.411759
O O16 0.312736 0.333347 0.472352
O O17 0.006293 0.324043 0.433412
#
# Coordination Sequence:
#
# PCOD9344106 Si02
#       8
#     4   4   4   4   4   4   4   4
#     4   9  20  38  63  97 135 176 219 288 345 424
#     4  12  27  48  74  97 138 193 239 297 360 414
#     4  11  24  42  69 105 137 185 230 295 350 429
#     4  11  24  43  68 105 144 177 241 288 353 434
#     4   9  20  42  63  96 138 177 223 284 342 421
#     4  10  23  41  68  93 133 177 220 282 353 405
#     4   9  19  37  63  95 137 172 225 277 349 420
#     4  11  26  43  67  98 133 178 234 288 338 422
#
# _framework density 25.876704
#
# number of rings (size 3 to 8) (size 9 to 14) (size 15 to 20)
#    0.000    1.750    1.250    1.875    5.250    6.000 
#    0.000    0.000    2.750    0.000    0.000    0.000 
#    0.000    0.000    0.000    0.000    0.000    0.000 
#
# Total GULP energy -178635.353634 kJ/mol
# GULP energy per Si atom -5582.354801 kJ/mol
# Density = 2.581781 g / cm^3
# Si number density = 25.876704 Si / 1000 Ang^3
#
#
#
# Elastic Constant Matrix: (Units=GPa)
#
#
# Indices 1 2 3 4 5 6 
#
# 1 90.5525 5.2082 29.1117 0.0000 0.0000 0.0000
# 2 5.2082 95.2568 0.9965 0.0000 0.0000 0.0000
# 3 29.1117 0.9965 101.4527 0.0000 0.0000 0.0000
# 4 0.0000 0.0000 0.0000 23.7522 0.0000 0.0000
# 5 0.0000 0.0000 0.0000 0.0000 31.4374 0.0000
# 6 0.0000 0.0000 0.0000 0.0000 0.0000 30.5389
#
#
#
# Elastic Compliance Matrix: (Units=1/GPa)
#
#
# Indices 1 2 3 4 5 6 
#
# 1 0.012203 -0.000631 -0.003496 0.000000 0.000000 0.000000
# 2 -0.000631 0.010532 0.000078 0.000000 0.000000 0.000000
# 3 -0.003496 0.000078 0.010859 0.000000 0.000000 0.000000
# 4 0.000000 0.000000 0.000000 0.042101 0.000000 0.000000
# 5 0.000000 0.000000 0.000000 0.000000 0.031809 0.000000
# 6 0.000000 0.000000 0.000000 0.000000 0.000000 0.032745
#
#
# Mechanical properties :
#
#
# Convention : Reuss Voigt Hill
#
# Bulk Modulus (GPa) = 39.22074 39.76608 39.49341
# Shear Modulus (GPa) = 31.87839 33.94208 32.91024
#
# Velocity S-wave (km/s) = 3.51370 3.62565 3.57011
# Velocity P-wave (km/s) = 5.62593 5.73829 5.68239
#
# Compressibility (1/GPa) = 0.02549672
#
# Stress axis : x y z
#
# Youngs Moduli (GPa) = 81.94459 94.95222 92.08873
#
# Poissons Ratio (x) = 0.05988 0.32190
# Poissons Ratio (y) = 0.05168 -0.00714
# Poissons Ratio (z) = 0.28644 -0.00736
#
# Static dielectric constant tensor:
#      x y z
#    x 2.163290 0.000000 0.000000 
#    y 0.000000 2.090650 0.000000 
#    z 0.000000 0.000000 2.085460 
# 
# From -- ./inp_files/3787.got.cif
#   From: 2010.05.17/outbox.cif.g08.bks.cpg/sg32_2_cif.got.tgz:3787.got - 2010.06.03 17:12:27.
