data_PCOD9344005
_publ_section_title
;
Structure prediction by ZEFSAII (Michael W. Deem and Ramdas Pophale) SiO2 
 PCOD9344005
Probable space group: P B A 2
;
_chemical_formula_sum "Si O2"
_cell_formula_units_Z 30
_cell_length_a 15.141262
_cell_length_b 8.682152
_cell_length_c 11.322078
_cell_angle_alpha 90.000000
_cell_angle_beta 90.000000
_cell_angle_gamma 90.000000
_cell_volume 1488.386087
_symmetry_space_group_name_H-M "P B A 2"
_symmetry_group_IT_number 32
_symmetry_cell_setting 'orthorhombic'
loop_
_space_group_symop_operation_xyz
x,y,z
-x,-y,z
1/2-x,1/2+y,z
1/2+x,1/2-y,z
loop_
_atom_site_type_symbol
_atom_site_label
_atom_site_fract_x
_atom_site_fract_y
_atom_site_fract_z
Si Si1 0.653779 0.306656 0.935740
Si Si2 0.036376 0.671834 0.976828
Si Si3 0.730704 0.567530 0.783921
Si Si4 0.037681 0.339342 0.323217
Si Si5 0.127687 0.665374 0.721893
Si Si6 0.873545 0.202234 0.215733
Si Si7 0.500000 0.000000 0.548398
Si Si8 0.806429 0.850419 0.204377
O O1 0.550547 0.271068 0.947179
O O2 0.673541 0.469080 0.875513
O O3 0.704319 0.180342 0.856777
O O4 0.693678 0.307434 0.066153
O O5 0.095038 0.660308 0.858413
O O6 0.000000 0.500000 0.002640
O O7 0.087938 0.746301 0.087198
O O8 0.792069 0.453287 0.711963
O O9 0.666259 0.666381 0.703349
O O10 0.054704 0.393036 0.457367
O O11 0.122155 0.262522 0.264406
O O12 0.000000 0.500000 0.267755
O O13 0.955193 0.224561 0.305148
O O14 0.053989 0.611304 0.632958
O O15 0.792186 0.314421 0.248378
O O16 0.837639 0.027413 0.214657
#
# Coordination Sequence:
#
# PCOD9344005 Si02
#       8
#     4   4   4   4   4   4   2   4
#     4  11  21  37  59 102 140 172 211 268 335 424
#     4  12  23  36  69  96 141 181 214 268 353 408
#     4  10  22  37  65  99 134 168 219 268 339 414
#     4  10  24  45  67  91 130 174 228 282 329 395
#     4  11  21  44  65  93 130 172 215 277 334 399
#     4  12  25  41  65 102 131 174 219 277 343 421
#     4  10  24  48  70  88 128 178 232 282 332 388
#     4  12  24  40  67  95 139 176 217 278 346 402
#
# _framework density 20.15606
#
# number of rings (size 3 to 8) (size 9 to 14) (size 15 to 20)
#    0.400    0.533    3.333    4.800    1.867    1.600 
#    2.400    0.000   14.667    0.000    0.000    0.000 
#    0.000    0.000    0.000    0.000    0.000    0.000 
#
# Total GULP energy -167610.315726 kJ/mol
# GULP energy per Si atom -5587.010524 kJ/mol
# Density = 2.011018 g / cm^3
# Si number density = 20.156060 Si / 1000 Ang^3
#
#
#
# Elastic Constant Matrix: (Units=GPa)
#
#
# Indices 1 2 3 4 5 6 
#
# 1 94.6389 34.0061 -5.2609 0.0000 0.0000 0.0000
# 2 34.0061 95.1740 18.3184 0.0000 0.0000 0.0000
# 3 -5.2609 18.3184 38.5557 0.0000 0.0000 0.0000
# 4 0.0000 0.0000 0.0000 4.5957 0.0000 0.0000
# 5 0.0000 0.0000 0.0000 0.0000 -2.8332 0.0000
# 6 0.0000 0.0000 0.0000 0.0000 0.0000 36.3802
#
#
#
# Elastic Compliance Matrix: (Units=1/GPa)
#
#
# Indices 1 2 3 4 5 6 
#
# 1 0.012737 -0.005377 0.004293 0.000000 0.000000 0.000000
# 2 -0.005377 0.013835 -0.007307 0.000000 0.000000 0.000000
# 3 0.004293 -0.007307 0.029994 0.000000 0.000000 0.000000
# 4 0.000000 0.000000 0.000000 0.217596 0.000000 0.000000
# 5 0.000000 0.000000 0.000000 0.000000 -0.352961 0.000000
# 6 0.000000 0.000000 0.000000 0.000000 0.000000 0.027487
#
#
# Mechanical properties :
#
#
# Convention : Reuss Voigt Hill
#
# Bulk Modulus (GPa) = 25.13620 35.83287 30.48453
# Shear Modulus (GPa) = -235.09476 19.71554 -107.68961
#
# Velocity S-wave (km/s) = -10.81159 3.13092 -7.31737
# Velocity P-wave (km/s) = 11.97314 5.55757 7.49898
#
# Compressibility (1/GPa) = 0.03978326
#
# Stress axis : x y z
#
# Youngs Moduli (GPa) = 78.50939 72.28144 33.34014
#
# Poissons Ratio (x) = 0.38868 -0.14312
# Poissons Ratio (y) = 0.42217 0.24361
# Poissons Ratio (z) = -0.33703 0.52815
#
# Static dielectric constant tensor:
#      x y z
#    x 1.724370 0.000000 0.000000 
#    y 0.000000 1.734050 0.000000 
#    z 0.000000 0.000000 1.707390 
# 
# From -- ./inp_files/3933.got.cif
#   From: 2010.05.17/outbox.cif.g08.bks.cpg/sg32_2_cif.got.tgz:3933.got - 2010.06.03 17:12:27.
