data_PCOD9344555
_publ_section_title
;
Structure prediction by ZEFSAII (Michael W. Deem and Ramdas Pophale) SiO2 
 PCOD9344555
Probable space group: P N A 21
;
_chemical_formula_sum "Si O2"
_cell_formula_units_Z 28
_cell_length_a 5.319579
_cell_length_b 8.248394
_cell_length_c 27.509258
_cell_angle_alpha 90.000000
_cell_angle_beta 90.000000
_cell_angle_gamma 90.000000
_cell_volume 1207.050769
_symmetry_space_group_name_H-M "P N A 21"
_symmetry_group_IT_number 33
_symmetry_cell_setting 'orthorhombic'
loop_
_space_group_symop_operation_xyz
x,y,z
-x,-y,1/2+z
1/2-x,1/2+y,1/2+z
1/2+x,1/2-y,z
loop_
_atom_site_type_symbol
_atom_site_label
_atom_site_fract_x
_atom_site_fract_y
_atom_site_fract_z
Si Si1 0.775166 0.684716 0.828590
Si Si2 0.746625 0.678556 0.941254
Si Si3 0.244890 0.698085 0.418932
Si Si4 0.273828 0.832357 0.525671
Si Si5 0.338010 0.147776 0.684543
Si Si6 0.069134 0.645885 0.078523
Si Si7 0.067927 0.645400 0.290169
O O1 0.499452 0.708469 0.806542
O O2 0.738477 0.737393 0.884892
O O3 0.869033 0.500538 0.826619
O O4 0.487231 0.736142 0.964261
O O5 0.766793 0.485618 0.937203
O O6 0.502448 0.735202 0.391718
O O7 0.261682 0.810334 0.467297
O O8 0.493069 0.709235 0.543015
O O9 0.370197 0.006625 0.540499
O O10 0.548258 0.292851 0.684570
O O11 0.393395 0.068219 0.632584
O O12 0.394974 0.066039 0.736090
O O13 0.288934 0.781634 0.074996
O O14 0.289083 0.780184 0.292464
#
# Coordination Sequence:
#
# PCOD9344555 Si02
#       7
#     4   4   4   4   4   4   4
#     4  10  21  36  53  78 112 140 172 220 266 309
#     4  10  21  38  58  78 103 142 182 214 258 320
#     4  10  21  38  56  78 108 135 167 222 273 309
#     4  10  21  38  53  77 111 136 166 221 274 310
#     4   8  16  30  50  76 105 135 175 219 251 299
#     4  10  19  35  58  79 102 141 183 215 257 315
#     4  10  19  33  54  80 107 141 181 215 255 310
#
# _framework density 23.197037999999999
#
# number of rings (size 3 to 8) (size 9 to 14) (size 15 to 20)
#    0.000    2.286    0.000    2.571    0.000    1.143 
#    0.000   18.571    0.000    0.000    0.000    0.000 
#    0.000    0.000    0.000    0.000    0.000    0.000 
#
# Total GULP energy -156397.612440 kJ/mol
# GULP energy per Si atom -5585.629016 kJ/mol
# Density = 2.314424 g / cm^3
# Si number density = 23.197038 Si / 1000 Ang^3
#
#
#
# Elastic Constant Matrix: (Units=GPa)
#
#
# Indices 1 2 3 4 5 6 
#
# 1 159.3241 18.1007 -0.3281 0.0000 0.0000 0.0000
# 2 18.1007 46.0282 -0.6122 0.0000 0.0000 0.0000
# 3 -0.3281 -0.6122 61.2625 0.0000 0.0000 0.0000
# 4 0.0000 0.0000 0.0000 15.9623 0.0000 0.0000
# 5 0.0000 0.0000 0.0000 0.0000 21.6673 0.0000
# 6 0.0000 0.0000 0.0000 0.0000 0.0000 36.2207
#
#
#
# Elastic Compliance Matrix: (Units=1/GPa)
#
#
# Indices 1 2 3 4 5 6 
#
# 1 0.006570 -0.002584 0.000009 0.000000 0.000000 0.000000
# 2 -0.002584 0.022745 0.000213 0.000000 0.000000 0.000000
# 3 0.000009 0.000213 0.016325 0.000000 0.000000 0.000000
# 4 0.000000 0.000000 0.000000 0.062648 0.000000 0.000000
# 5 0.000000 0.000000 0.000000 0.000000 0.046153 0.000000
# 6 0.000000 0.000000 0.000000 0.000000 0.000000 0.027609
#
#
# Mechanical properties :
#
#
# Convention : Reuss Voigt Hill
#
# Bulk Modulus (GPa) = 24.43876 33.43729 28.93803
# Shear Modulus (GPa) = 24.94889 31.40035 28.17462
#
# Velocity S-wave (km/s) = 3.28307 3.68317 3.48886
# Velocity P-wave (km/s) = 4.99295 5.70381 5.36018
#
# Compressibility (1/GPa) = 0.04091860
#
# Stress axis : x y z
#
# Youngs Moduli (GPa) = 152.20589 43.96636 61.25433
#
# Poissons Ratio (x) = 0.11359 -0.00057
# Poissons Ratio (y) = 0.39323 -0.01307
# Poissons Ratio (z) = -0.00143 -0.00938
#
# Static dielectric constant tensor:
#      x y z
#    x 1.998600 0.000000 0.000000 
#    y 0.000000 1.830160 0.000000 
#    z 0.000000 0.000000 1.964330 
# 
# From -- ./inp_files/9318.got.cif
#   From: 2010.05.17/outbox.cif.g08.bks.cpg/sg33_5_cif.got.tgz:9318.got - 2010.06.03 17:15:25.
