data_PCOD9344429
_publ_section_title
;
Structure prediction by ZEFSAII (Michael W. Deem and Ramdas Pophale) SiO2 
 PCOD9344429
Probable space group: P N A 21
;
_chemical_formula_sum "Si O2"
_cell_formula_units_Z 32
_cell_length_a 17.915354
_cell_length_b 5.204396
_cell_length_c 12.999430
_cell_angle_alpha 90.000000
_cell_angle_beta 90.000000
_cell_angle_gamma 90.000000
_cell_volume 1212.048611
_symmetry_space_group_name_H-M "P N A 21"
_symmetry_group_IT_number 33
_symmetry_cell_setting 'orthorhombic'
loop_
_space_group_symop_operation_xyz
x,y,z
-x,-y,1/2+z
1/2-x,1/2+y,1/2+z
1/2+x,1/2-y,z
loop_
_atom_site_type_symbol
_atom_site_label
_atom_site_fract_x
_atom_site_fract_y
_atom_site_fract_z
Si Si1 0.193548 0.361319 0.920550
Si Si2 0.977682 0.642766 0.430913
Si Si3 0.708870 0.906023 0.572366
Si Si4 0.546586 0.359534 0.450218
Si Si5 0.597519 0.285120 0.219371
Si Si6 0.727469 0.109123 0.356506
Si Si7 0.858281 0.913846 0.128244
Si Si8 0.477636 0.216539 0.696908
O O1 0.107535 0.426254 0.916677
O O2 0.236405 0.623376 0.893574
O O3 0.212417 0.121596 0.843871
O O4 0.216615 0.241515 0.032438
O O5 0.019969 0.415697 0.488294
O O6 0.016302 0.668659 0.319561
O O7 0.985897 0.926092 0.474926
O O8 0.668209 0.703412 0.647906
O O9 0.682103 0.981837 0.454218
O O10 0.701111 0.181132 0.627924
O O11 0.558165 0.333357 0.330059
O O12 0.620038 0.452753 0.507162
O O13 0.676757 0.176304 0.259013
O O14 0.585184 0.567595 0.172650
O O15 0.553185 0.061286 0.161481
O O16 0.938557 0.823890 0.172509
#
# Coordination Sequence:
#
# PCOD9344429 Si02
#       8
#     4   4   4   4   4   4   4   4
#     4  10  18  33  53  83  97 134 179 234 260 306
#     4  10  21  35  53  80 111 141 183 218 277 319
#     4  10  19  31  56  81  98 137 179 237 256 306
#     4  10  19  31  55  75 102 143 172 225 260 334
#     4  10  18  35  51  80 103 137 180 214 277 312
#     4  10  18  31  57  83  99 132 180 238 250 299
#     4  12  20  35  54  83 111 138 184 222 288 319
#     4  10  23  33  53  79 117 142 165 230 282 335
#
# _framework density 26.401579000000002
#
# number of rings (size 3 to 8) (size 9 to 14) (size 15 to 20)
#    0.750    1.000    2.500    3.000    3.500    0.000 
#    0.000    0.000    0.000    9.000    0.000    0.000 
#    0.000    0.000    0.000    0.000    0.000    0.000 
#
# Total GULP energy -178514.025171 kJ/mol
# GULP energy per Si atom -5578.563287 kJ/mol
# Density = 2.634149 g / cm^3
# Si number density = 26.401579 Si / 1000 Ang^3
#
#
#
# Elastic Constant Matrix: (Units=GPa)
#
#
# Indices 1 2 3 4 5 6 
#
# 1 85.4364 34.4661 -7.8629 0.0000 0.0000 0.0000
# 2 34.4661 137.7771 30.5610 0.0000 0.0000 0.0000
# 3 -7.8629 30.5610 50.0040 0.0000 0.0000 0.0000
# 4 0.0000 0.0000 0.0000 14.6886 0.0000 0.0000
# 5 0.0000 0.0000 0.0000 0.0000 24.1474 0.0000
# 6 0.0000 0.0000 0.0000 0.0000 0.0000 36.9922
#
#
#
# Elastic Compliance Matrix: (Units=1/GPa)
#
#
# Indices 1 2 3 4 5 6 
#
# 1 0.014035 -0.004628 0.005035 0.000000 0.000000 0.000000
# 2 -0.004628 0.009922 -0.006792 0.000000 0.000000 0.000000
# 3 0.005035 -0.006792 0.024941 0.000000 0.000000 0.000000
# 4 0.000000 0.000000 0.000000 0.068080 0.000000 0.000000
# 5 0.000000 0.000000 0.000000 0.000000 0.041412 0.000000
# 6 0.000000 0.000000 0.000000 0.000000 0.000000 0.027033
#
#
# Mechanical properties :
#
#
# Convention : Reuss Voigt Hill
#
# Bulk Modulus (GPa) = 27.67813 43.06065 35.36939
# Shear Modulus (GPa) = 23.78281 29.56920 26.67601
#
# Velocity S-wave (km/s) = 3.00461 3.35024 3.18212
# Velocity P-wave (km/s) = 4.74796 5.59560 5.18912
#
# Compressibility (1/GPa) = 0.03612961
#
# Stress axis : x y z
#
# Youngs Moduli (GPa) = 71.25057 100.78233 40.09419
#
# Poissons Ratio (x) = 0.46641 -0.20189
# Poissons Ratio (y) = 0.32974 0.27232
# Poissons Ratio (z) = -0.35877 0.68451
#
# Static dielectric constant tensor:
#      x y z
#    x 2.102700 0.000000 0.000000 
#    y 0.000000 2.096840 0.000000 
#    z 0.000000 0.000000 2.242900 
# 
# From -- ./inp_files/8859.got.cif
#   From: 2010.05.17/outbox.cif.g08.bks.cpg/sg33_5_cif.got.tgz:8859.got - 2010.06.03 17:15:25.
