data_PCOD9344378
_publ_section_title
;
Structure prediction by ZEFSAII (Michael W. Deem and Ramdas Pophale) SiO2 
 PCOD9344378
Probable space group: P N A 21
;
_chemical_formula_sum "Si O2"
_cell_formula_units_Z 28
_cell_length_a 9.071901
_cell_length_b 11.162942
_cell_length_c 11.441012
_cell_angle_alpha 90.000000
_cell_angle_beta 90.000000
_cell_angle_gamma 90.000000
_cell_volume 1158.621042
_symmetry_space_group_name_H-M "P N A 21"
_symmetry_group_IT_number 33
_symmetry_cell_setting 'orthorhombic'
loop_
_space_group_symop_operation_xyz
x,y,z
-x,-y,1/2+z
1/2-x,1/2+y,1/2+z
1/2+x,1/2-y,z
loop_
_atom_site_type_symbol
_atom_site_label
_atom_site_fract_x
_atom_site_fract_y
_atom_site_fract_z
Si Si1 0.442973 0.729255 0.487340
Si Si2 0.238416 0.250410 0.283676
Si Si3 0.322025 0.370435 0.520161
Si Si4 0.824373 0.047561 0.115875
Si Si5 0.388946 0.548822 0.893867
Si Si6 0.519946 0.649128 0.242284
Si Si7 0.651830 0.897819 0.586769
O O1 0.558790 0.641908 0.556565
O O2 0.456382 0.726976 0.347055
O O3 0.499321 0.858862 0.528340
O O4 0.283680 0.680558 0.524946
O O5 0.269011 0.287710 0.416180
O O6 0.232253 0.368289 0.204048
O O7 0.101353 0.162698 0.307456
O O8 0.344912 0.154394 0.218705
O O9 0.453150 0.445696 0.458409
O O10 0.397314 0.301591 0.628897
O O11 0.201810 0.465606 0.566967
O O12 0.899988 0.945845 0.195582
O O13 0.776362 0.971367 0.001296
O O14 0.366622 0.436110 0.810930
#
# Coordination Sequence:
#
# PCOD9344378 Si02
#       7
#     4   4   4   4   4   4   4
#     4  10  20  35  63  93 115 169 208 263 325 379
#     4  11  21  34  64  93 124 164 216 270 318 384
#     4  11  21  38  62  92 121 171 221 261 327 402
#     4   9  17  32  59  90 115 158 217 250 307 388
#     4  10  18  34  64  88 116 164 215 259 318 391
#     4  10  16  37  60  86 119 155 223 263 300 398
#     4  11  21  38  68  90 128 167 220 260 329 390
#
# _framework density 24.166658999999999
#
# number of rings (size 3 to 8) (size 9 to 14) (size 15 to 20)
#    0.000    1.714    7.143    0.000    2.000    0.000 
#    7.714    0.000   12.571    0.000    0.000    0.000 
#    0.000    0.000    0.000    0.000    0.000    0.000 
#
# Total GULP energy -155904.291332 kJ/mol
# GULP energy per Si atom -5568.010405 kJ/mol
# Density = 2.411165 g / cm^3
# Si number density = 24.166659 Si / 1000 Ang^3
#
#
#
# Elastic Constant Matrix: (Units=GPa)
#
#
# Indices 1 2 3 4 5 6 
#
# 1 29.5383 12.0437 12.4395 0.0000 0.0000 0.0000
# 2 12.0437 46.3457 28.7245 0.0000 0.0000 0.0000
# 3 12.4395 28.7245 167.4010 0.0000 0.0000 0.0000
# 4 0.0000 0.0000 0.0000 51.8199 0.0000 0.0000
# 5 0.0000 0.0000 0.0000 0.0000 24.6769 0.0000
# 6 0.0000 0.0000 0.0000 0.0000 0.0000 17.3938
#
#
#
# Elastic Compliance Matrix: (Units=1/GPa)
#
#
# Indices 1 2 3 4 5 6 
#
# 1 0.038105 -0.009117 -0.001267 0.000000 0.000000 0.000000
# 2 -0.009117 0.026326 -0.003840 0.000000 0.000000 0.000000
# 3 -0.001267 -0.003840 0.006727 0.000000 0.000000 0.000000
# 4 0.000000 0.000000 0.000000 0.019298 0.000000 0.000000
# 5 0.000000 0.000000 0.000000 0.000000 0.040524 0.000000
# 6 0.000000 0.000000 0.000000 0.000000 0.000000 0.057492
#
#
# Mechanical properties :
#
#
# Convention : Reuss Voigt Hill
#
# Bulk Modulus (GPa) = 23.41365 38.85561 31.13463
# Shear Modulus (GPa) = 21.63042 31.44992 26.54017
#
# Velocity S-wave (km/s) = 2.99499 3.61137 3.31753
# Velocity P-wave (km/s) = 4.65504 5.78813 5.25223
#
# Compressibility (1/GPa) = 0.04271013
#
# Stress axis : x y z
#
# Youngs Moduli (GPa) = 26.24306 37.98514 148.66064
#
# Poissons Ratio (x) = 0.34631 0.18838
# Poissons Ratio (y) = 0.23926 0.57083
# Poissons Ratio (z) = 0.03326 0.14586
#
# Static dielectric constant tensor:
#      x y z
#    x 2.025930 0.000000 0.000000 
#    y 0.000000 2.057940 0.000000 
#    z 0.000000 0.000000 2.000240 
# 
# From -- ./inp_files/6390.got.cif
#   From: 2010.05.17/outbox.cif.g08.bks.cpg/sg33_4_cif.got.tgz:6390.got - 2010.06.03 17:15:25.
