data_PCOD9344760
_publ_section_title
;
Structure prediction by ZEFSAII (Michael W. Deem and Ramdas Pophale) SiO2 
 PCOD9344760
Probable space group: P N A 21
;
_chemical_formula_sum "Si O2"
_cell_formula_units_Z 32
_cell_length_a 13.328289
_cell_length_b 7.884567
_cell_length_c 14.777169
_cell_angle_alpha 90.000000
_cell_angle_beta 90.000000
_cell_angle_gamma 90.000000
_cell_volume 1552.899997
_symmetry_space_group_name_H-M "P N A 21"
_symmetry_group_IT_number 33
_symmetry_cell_setting 'orthorhombic'
loop_
_space_group_symop_operation_xyz
x,y,z
-x,-y,1/2+z
1/2-x,1/2+y,1/2+z
1/2+x,1/2-y,z
loop_
_atom_site_type_symbol
_atom_site_label
_atom_site_fract_x
_atom_site_fract_y
_atom_site_fract_z
Si Si1 0.206363 0.292607 0.980720
Si Si2 0.529549 0.165031 0.834713
Si Si3 0.634921 0.997225 0.454885
Si Si4 0.140046 0.289732 0.177470
Si Si5 0.534675 0.462181 0.315632
Si Si6 0.557919 0.979708 0.656427
Si Si7 0.284119 0.638414 0.929629
Si Si8 0.333591 0.280866 0.274078
O O1 0.114783 0.294634 0.909458
O O2 0.295807 0.169815 0.949028
O O3 0.244855 0.487174 0.992102
O O4 0.172311 0.228761 0.078779
O O5 0.453273 0.025978 0.879567
O O6 0.468865 0.336424 0.813521
O O7 0.575523 0.110332 0.738169
O O8 0.585135 0.015122 0.553756
O O9 0.705428 0.162905 0.450594
O O10 0.090161 0.135028 0.233261
O O11 0.232349 0.362767 0.235838
O O12 0.058290 0.433341 0.162853
O O13 0.603176 0.409983 0.400163
O O14 0.420549 0.394600 0.316541
O O15 0.618396 0.813932 0.688562
O O16 0.206109 0.642754 0.845799
#
# Coordination Sequence:
#
# PCOD9344760 Si02
#       8
#     4   4   4   4   4   4   4   4
#     4  12  24  44  72 101 142 187 231 292 360 428
#     4  12  24  45  71 103 142 186 238 294 357 422
#     4  12  25  46  69 104 142 182 238 298 351 427
#     4  10  22  41  66 100 138 183 229 287 354 417
#     4  10  23  42  70 102 137 186 233 285 351 427
#     4  11  23  42  68  96 141 182 230 297 348 416
#     4  11  24  43  69 102 138 183 233 289 355 422
#     4  10  19  41  67  92 136 183 226 286 348 407
#
# _framework density 20.606607
#
# number of rings (size 3 to 8) (size 9 to 14) (size 15 to 20)
#    0.000    1.000    5.000    3.000    0.000    1.000 
#    4.500    0.000    0.000    0.000    0.000    0.000 
#    0.000    0.000    0.000    0.000    0.000    0.000 
#
# Total GULP energy -178499.652871 kJ/mol
# GULP energy per Si atom -5578.114152 kJ/mol
# Density = 2.055971 g / cm^3
# Si number density = 20.606607 Si / 1000 Ang^3
#
#
#
# Elastic Constant Matrix: (Units=GPa)
#
#
# Indices 1 2 3 4 5 6 
#
# 1 97.8536 12.8084 20.5863 0.0000 0.0000 0.0000
# 2 12.8084 69.5794 -0.4188 0.0000 0.0000 0.0000
# 3 20.5863 -0.4188 54.5717 0.0000 0.0000 0.0000
# 4 0.0000 0.0000 0.0000 17.8474 0.0000 0.0000
# 5 0.0000 0.0000 0.0000 0.0000 26.8970 0.0000
# 6 0.0000 0.0000 0.0000 0.0000 0.0000 21.9001
#
#
#
# Elastic Compliance Matrix: (Units=1/GPa)
#
#
# Indices 1 2 3 4 5 6 
#
# 1 0.011406 -0.002126 -0.004319 0.000000 0.000000 0.000000
# 2 -0.002126 0.014769 0.000915 0.000000 0.000000 0.000000
# 3 -0.004319 0.000915 0.019961 0.000000 0.000000 0.000000
# 4 0.000000 0.000000 0.000000 0.056031 0.000000 0.000000
# 5 0.000000 0.000000 0.000000 0.000000 0.037179 0.000000
# 6 0.000000 0.000000 0.000000 0.000000 0.000000 0.045662
#
#
# Mechanical properties :
#
#
# Convention : Reuss Voigt Hill
#
# Bulk Modulus (GPa) = 28.50890 31.99517 30.25204
# Shear Modulus (GPa) = 24.06637 25.93082 24.99859
#
# Velocity S-wave (km/s) = 3.42116 3.55121 3.48679
# Velocity P-wave (km/s) = 5.42869 5.68991 5.56083
#
# Compressibility (1/GPa) = 0.03507676
#
# Stress axis : x y z
#
# Youngs Moduli (GPa) = 87.67129 67.70991 50.09808
#
# Poissons Ratio (x) = 0.14393 0.21638
# Poissons Ratio (y) = 0.18636 -0.04585
# Poissons Ratio (z) = 0.37866 -0.06197
#
# Static dielectric constant tensor:
#      x y z
#    x 1.779420 0.000000 0.000000 
#    y 0.000000 1.742890 0.000000 
#    z 0.000000 0.000000 1.759640 
# 
# From -- ./inp_files/7937.got.cif
#   From: 2010.05.17/outbox.cif.g08.bks.cpg/sg33_4_cif.got.tgz:7937.got - 2010.06.03 17:15:25.
