data_PCOD9344008
_publ_section_title
;
Structure prediction by ZEFSAII (Michael W. Deem and Ramdas Pophale) SiO2 
 PCOD9344008
Probable space group: P B A 2
;
_chemical_formula_sum "Si O2"
_cell_formula_units_Z 30
_cell_length_a 5.011613
_cell_length_b 16.812995
_cell_length_c 17.070281
_cell_angle_alpha 90.000000
_cell_angle_beta 90.000000
_cell_angle_gamma 90.000000
_cell_volume 1438.345706
_symmetry_space_group_name_H-M "P B A 2"
_symmetry_group_IT_number 32
_symmetry_cell_setting 'orthorhombic'
loop_
_space_group_symop_operation_xyz
x,y,z
-x,-y,z
1/2-x,1/2+y,z
1/2+x,1/2-y,z
loop_
_atom_site_type_symbol
_atom_site_label
_atom_site_fract_x
_atom_site_fract_y
_atom_site_fract_z
Si Si1 0.833508 0.195129 0.405740
Si Si2 0.500000 0.000000 0.979833
Si Si3 0.849041 0.691373 0.242357
Si Si4 0.063493 0.808905 0.742208
Si Si5 0.882723 0.911410 0.883733
Si Si6 0.134923 0.199889 0.022706
Si Si7 0.851240 0.073189 0.119247
Si Si8 0.224296 0.804402 0.576186
O O1 0.635539 0.272443 0.404089
O O2 0.730103 0.153484 0.327104
O O3 0.805344 0.156054 0.491199
O O4 0.590069 0.930318 0.920100
O O5 0.289918 0.963486 0.041924
O O6 0.624540 0.760815 0.235539
O O7 0.829396 0.623468 0.177494
O O8 0.337998 0.759597 0.753266
O O9 0.117306 0.844894 0.655150
O O10 0.966740 0.878138 0.799952
O O11 0.959222 0.840286 0.941910
O O12 0.000000 0.000000 0.893096
O O13 0.439269 0.225332 0.030397
O O14 0.066835 0.135592 0.087782
O O15 0.000000 0.000000 0.159680
O O16 0.529018 0.773661 0.578410
#
# Coordination Sequence:
#
# PCOD9344008 Si02
#       8
#     4   2   4   4   4   4   4   4
#     4   8  14  28  52  82 116 146 178 227 285 342
#     4  12  24  44  60  76 116 164 214 242 302 374
#     4  10  22  38  59  90 118 148 195 245 292 344
#     4  10  22  38  59  90 118 148 195 245 292 344
#     4  12  25  41  59  82 115 157 197 244 302 367
#     4  12  24  40  61  83 106 142 194 250 298 338
#     4  12  25  41  59  82 115 157 197 244 302 367
#     4   8  14  28  52  82 116 146 178 227 285 342
#
# _framework density 20.857295000000001
#
# number of rings (size 3 to 8) (size 9 to 14) (size 15 to 20)
#    0.000    1.600    2.667    2.400    3.733    0.000 
#    0.000    0.000    0.000    0.800    0.000    0.000 
#    0.000    0.000    0.000    0.000    0.000    0.000 
#
# Total GULP energy -167041.775878 kJ/mol
# GULP energy per Si atom -5568.059196 kJ/mol
# Density = 2.080982 g / cm^3
# Si number density = 20.857295 Si / 1000 Ang^3
#
#
#
# Elastic Constant Matrix: (Units=GPa)
#
#
# Indices 1 2 3 4 5 6 
#
# 1 72.9170 0.8726 -10.4916 0.0000 0.0000 0.0000
# 2 0.8726 50.2045 18.0760 0.0000 0.0000 0.0000
# 3 -10.4916 18.0760 112.0991 0.0000 0.0000 0.0000
# 4 0.0000 0.0000 0.0000 8.0754 0.0000 0.0000
# 5 0.0000 0.0000 0.0000 0.0000 22.3875 0.0000
# 6 0.0000 0.0000 0.0000 0.0000 0.0000 7.1296
#
#
#
# Elastic Compliance Matrix: (Units=1/GPa)
#
#
# Indices 1 2 3 4 5 6 
#
# 1 0.013928 -0.000755 0.001425 0.000000 0.000000 0.000000
# 2 -0.000755 0.021187 -0.003487 0.000000 0.000000 0.000000
# 3 0.001425 -0.003487 0.009616 0.000000 0.000000 0.000000
# 4 0.000000 0.000000 0.000000 0.123833 0.000000 0.000000
# 5 0.000000 0.000000 0.000000 0.000000 0.044668 0.000000
# 6 0.000000 0.000000 0.000000 0.000000 0.000000 0.140259
#
#
# Mechanical properties :
#
#
# Convention : Reuss Voigt Hill
#
# Bulk Modulus (GPa) = 25.57688 28.01498 26.79593
# Shear Modulus (GPa) = 13.43514 22.63608 18.03561
#
# Velocity S-wave (km/s) = 2.54076 3.29794 2.94379
# Velocity P-wave (km/s) = 4.57129 5.28798 4.94264
#
# Compressibility (1/GPa) = 0.03909781
#
# Stress axis : x y z
#
# Youngs Moduli (GPa) = 71.79604 47.19829 103.98925
#
# Poissons Ratio (x) = 0.03565 -0.14822
# Poissons Ratio (y) = 0.05423 0.36262
# Poissons Ratio (z) = -0.10234 0.16459
#
# Static dielectric constant tensor:
#      x y z
#    x 1.855130 0.000000 0.000000 
#    y 0.000000 1.735740 0.000000 
#    z 0.000000 0.000000 1.868270 
# 
# From -- ./inp_files/4215.got.cif
#   From: 2010.05.17/outbox.cif.g08.bks.cpg/sg32_3_cif.got.tgz:4215.got - 2010.06.03 17:12:27.
