data_PCOD9344763
_publ_section_title
;
Structure prediction by ZEFSAII (Michael W. Deem and Ramdas Pophale) SiO2 
 PCOD9344763
Probable space group: P N A 21
;
_chemical_formula_sum "Si O2"
_cell_formula_units_Z 32
_cell_length_a 19.216909
_cell_length_b 5.204300
_cell_length_c 12.809623
_cell_angle_alpha 90.000000
_cell_angle_beta 90.000000
_cell_angle_gamma 90.000000
_cell_volume 1281.097563
_symmetry_space_group_name_H-M "P N A 21"
_symmetry_group_IT_number 33
_symmetry_cell_setting 'orthorhombic'
loop_
_space_group_symop_operation_xyz
x,y,z
-x,-y,1/2+z
1/2-x,1/2+y,1/2+z
1/2+x,1/2-y,z
loop_
_atom_site_type_symbol
_atom_site_label
_atom_site_fract_x
_atom_site_fract_y
_atom_site_fract_z
Si Si1 0.314390 0.767848 0.064920
Si Si2 0.671464 0.021280 0.121178
Si Si3 0.547406 0.349819 0.497265
Si Si4 0.489611 0.536549 0.232572
Si Si5 0.779614 0.897346 0.451249
Si Si6 0.862230 0.668125 0.284834
Si Si7 0.595170 0.756499 0.939642
Si Si8 0.930749 0.530784 0.799436
O O1 0.244145 0.631387 0.106535
O O2 0.345413 0.908716 0.166975
O O3 0.371460 0.572045 0.016127
O O4 0.292399 0.977074 0.979801
O O5 0.643178 0.047839 0.238304
O O6 0.688533 0.280383 0.057877
O O7 0.609736 0.892801 0.052006
O O8 0.520225 0.364878 0.614659
O O9 0.473049 0.423559 0.444412
O O10 0.562362 0.104683 0.421714
O O11 0.410051 0.578076 0.270901
O O12 0.523812 0.255392 0.240872
O O13 0.541537 0.742837 0.284625
O O14 0.793060 0.706407 0.355211
O O15 0.831352 0.124465 0.422322
O O16 0.908988 0.476080 0.352381
#
# Coordination Sequence:
#
# PCOD9344763 Si02
#       8
#     4   4   4   4   4   4   4   4
#     4  10  25  44  62 103 143 188 246 307 371 452
#     4  10  23  43  64  96 139 190 241 297 368 451
#     4  11  23  45  72 110 145 186 253 313 373 452
#     4  11  25  45  71 115 143 190 239 314 372 447
#     4  10  22  43  68  94 134 199 234 298 366 459
#     4  10  22  41  68  99 142 188 242 301 379 442
#     4  10  19  41  72  97 136 182 245 295 376 437
#     4  12  25  44  77 106 148 191 244 309 377 438
#
# _framework density 24.978580000000001
#
# number of rings (size 3 to 8) (size 9 to 14) (size 15 to 20)
#    0.000    1.500    2.500    1.500    3.500    3.000 
#   13.500    0.000    0.000    0.000    0.000    0.000 
#    0.000    0.000    0.000    0.000    0.000    0.000 
#
# Total GULP energy -178145.087927 kJ/mol
# GULP energy per Si atom -5567.033998 kJ/mol
# Density = 2.492173 g / cm^3
# Si number density = 24.978580 Si / 1000 Ang^3
#
#
#
# Elastic Constant Matrix: (Units=GPa)
#
#
# Indices 1 2 3 4 5 6 
#
# 1 130.9030 20.4409 34.0617 0.0000 0.0000 0.0000
# 2 20.4409 55.8373 12.0988 0.0000 0.0000 0.0000
# 3 34.0617 12.0988 96.0868 0.0000 0.0000 0.0000
# 4 0.0000 0.0000 0.0000 13.8807 0.0000 0.0000
# 5 0.0000 0.0000 0.0000 0.0000 43.4842 0.0000
# 6 0.0000 0.0000 0.0000 0.0000 0.0000 13.7355
#
#
#
# Elastic Compliance Matrix: (Units=1/GPa)
#
#
# Indices 1 2 3 4 5 6 
#
# 1 0.008770 -0.002608 -0.002780 0.000000 0.000000 0.000000
# 2 -0.002608 0.019187 -0.001491 0.000000 0.000000 0.000000
# 3 -0.002780 -0.001491 0.011581 0.000000 0.000000 0.000000
# 4 0.000000 0.000000 0.000000 0.072043 0.000000 0.000000
# 5 0.000000 0.000000 0.000000 0.000000 0.022997 0.000000
# 6 0.000000 0.000000 0.000000 0.000000 0.000000 0.072804
#
#
# Mechanical properties :
#
#
# Convention : Reuss Voigt Hill
#
# Bulk Modulus (GPa) = 38.79292 46.22554 42.50923
# Shear Modulus (GPa) = 21.76431 28.63511 25.19971
#
# Velocity S-wave (km/s) = 2.95501 3.38951 3.17969
# Velocity P-wave (km/s) = 5.21603 5.81933 5.52592
#
# Compressibility (1/GPa) = 0.02577790
#
# Stress axis : x y z
#
# Youngs Moduli (GPa) = 114.02515 52.11839 86.35053
#
# Poissons Ratio (x) = 0.13593 0.24010
# Poissons Ratio (y) = 0.29738 0.12879
# Poissons Ratio (z) = 0.31704 0.07773
#
# Static dielectric constant tensor:
#      x y z
#    x 2.042320 0.000000 0.000000 
#    y 0.000000 2.016990 0.000000 
#    z 0.000000 0.000000 2.110010 
# 
# From -- ./inp_files/7178.got.cif
#   From: 2010.05.17/outbox.cif.g08.bks.cpg/sg33_4_cif.got.tgz:7178.got - 2010.06.03 17:15:25.
