data_PCOD9344280
_publ_section_title
;
Structure prediction by ZEFSAII (Michael W. Deem and Ramdas Pophale) SiO2 
 PCOD9344280
Probable space group: P B A 2
;
_chemical_formula_sum "Si O2"
_cell_formula_units_Z 22
_cell_length_a 11.792626
_cell_length_b 13.371469
_cell_length_c 6.280333
_cell_angle_alpha 90.000000
_cell_angle_beta 90.000000
_cell_angle_gamma 90.000000
_cell_volume 990.312632
_symmetry_space_group_name_H-M "P B A 2"
_symmetry_group_IT_number 32
_symmetry_cell_setting 'orthorhombic'
loop_
_space_group_symop_operation_xyz
x,y,z
-x,-y,z
1/2-x,1/2+y,z
1/2+x,1/2-y,z
loop_
_atom_site_type_symbol
_atom_site_label
_atom_site_fract_x
_atom_site_fract_y
_atom_site_fract_z
Si Si1 0.116064 0.641125 0.628120
Si Si2 0.318205 0.638972 0.974866
Si Si3 0.819213 0.500000 0.261700
Si Si4 0.500000 0.500000 0.761701
Si Si5 0.318204 0.361029 0.548534
Si Si6 0.883936 0.641124 0.895281
O O1 0.115804 0.551796 0.457320
O O2 0.136677 0.748949 0.519358
O O3 0.223301 0.632586 0.787830
O O4 0.000000 0.643035 0.761701
O O5 0.258920 0.589619 0.176250
O O6 0.421567 0.570050 0.904081
O O7 0.363323 0.751052 0.004043
O O8 0.741080 0.589619 0.347151
O O9 0.884197 0.551796 0.066081
O O10 0.421567 0.429951 0.619321
O O11 0.223300 0.367414 0.735570
#
# Coordination Sequence:
#
# PCOD9344280 Si02
#       6
#     4   4   4   2   4   4
#     4  11  25  46  71 103 150 188 235 301 363 431
#     4  11  25  45  71 104 142 190 241 298 359 423
#     4  12  24  46  72 110 136 191 249 284 358 440
#     4  12  20  50  70  96 144 188 240 296 352 414
#     4  11  25  45  71 104 142 190 241 298 359 423
#     4  11  25  46  71 103 150 188 235 301 363 431
#
# _framework density 22.215208000000001
#
# number of rings (size 3 to 8) (size 9 to 14) (size 15 to 20)
#    0.000    0.727    5.455    1.091    0.000    6.545 
#    0.000    3.636    0.000    0.000    0.000    0.000 
#    0.000    0.000    0.000    0.000    0.000    0.000 
#
# Total GULP energy -123204.696492 kJ/mol
# GULP energy per Si atom -5600.213477 kJ/mol
# Density = 2.216465 g / cm^3
# Si number density = 22.215208 Si / 1000 Ang^3
#
#
#
# Elastic Constant Matrix: (Units=GPa)
#
#
# Indices 1 2 3 4 5 6 
#
# 1 146.5380 68.9780 42.8005 0.0000 0.0000 0.0000
# 2 68.9780 149.9548 41.2105 0.0000 0.0000 0.0000
# 3 42.8005 41.2105 64.7753 0.0000 0.0000 0.0000
# 4 0.0000 0.0000 0.0000 22.8184 0.0000 0.0000
# 5 0.0000 0.0000 0.0000 0.0000 25.1629 0.0000
# 6 0.0000 0.0000 0.0000 0.0000 0.0000 34.6160
#
#
#
# Elastic Compliance Matrix: (Units=1/GPa)
#
#
# Indices 1 2 3 4 5 6 
#
# 1 0.009600 -0.003239 -0.004282 0.000000 0.000000 0.000000
# 2 -0.003239 0.009174 -0.003697 0.000000 0.000000 0.000000
# 3 -0.004282 -0.003697 0.020619 0.000000 0.000000 0.000000
# 4 0.000000 0.000000 0.000000 0.043824 0.000000 0.000000
# 5 0.000000 0.000000 0.000000 0.000000 0.039741 0.000000
# 6 0.000000 0.000000 0.000000 0.000000 0.000000 0.028888
#
#
# Mechanical properties :
#
#
# Convention : Reuss Voigt Hill
#
# Bulk Modulus (GPa) = 58.97087 74.13844 66.55465
# Shear Modulus (GPa) = 27.78772 30.40473 29.09623
#
# Velocity S-wave (km/s) = 3.54056 3.70353 3.62296
# Velocity P-wave (km/s) = 6.58157 7.19260 6.89386
#
# Compressibility (1/GPa) = 0.01695753
#
# Stress axis : x y z
#
# Youngs Moduli (GPa) = 104.17185 108.99823 48.49787
#
# Poissons Ratio (x) = 0.35303 0.20768
# Poissons Ratio (y) = 0.33739 0.17929
# Poissons Ratio (z) = 0.44610 0.40294
#
# Static dielectric constant tensor:
#      x y z
#    x 1.802310 0.000000 0.000000 
#    y 0.000000 1.812460 0.000000 
#    z 0.000000 0.000000 1.881590 
# 
# From -- ./inp_files/1139.got.cif
#   From: 2010.05.17/outbox.cif.g08.bks.cpg/sg32_1_cif.got.tgz:1139.got - 2010.06.03 17:12:27.
