data_PCOD9344946
_publ_section_title
;
Structure prediction by ZEFSAII (Michael W. Deem and Ramdas Pophale) SiO2 
 PCOD9344946
Probable space group: P N A 21
;
_chemical_formula_sum "Si O2"
_cell_formula_units_Z 24
_cell_length_a 4.921389
_cell_length_b 10.730687
_cell_length_c 16.222185
_cell_angle_alpha 90.000000
_cell_angle_beta 90.000000
_cell_angle_gamma 90.000000
_cell_volume 856.691724
_symmetry_space_group_name_H-M "P N A 21"
_symmetry_group_IT_number 33
_symmetry_cell_setting 'orthorhombic'
loop_
_space_group_symop_operation_xyz
x,y,z
-x,-y,1/2+z
1/2-x,1/2+y,1/2+z
1/2+x,1/2-y,z
loop_
_atom_site_type_symbol
_atom_site_label
_atom_site_fract_x
_atom_site_fract_y
_atom_site_fract_z
Si Si1 0.963177 0.590321 0.381590
Si Si2 0.669909 0.319273 0.257315
Si Si3 0.182308 0.406797 0.705593
Si Si4 0.202986 0.079624 0.597314
Si Si5 0.484756 0.815892 0.554966
Si Si6 0.475191 0.422731 0.419145
O O1 0.943078 0.647118 0.290381
O O2 0.024840 0.680481 0.456683
O O3 0.660791 0.542084 0.399153
O O4 0.174692 0.473892 0.396424
O O5 0.362797 0.293522 0.231399
O O6 0.818729 0.445387 0.230858
O O7 0.609465 0.325794 0.355700
O O8 0.488385 0.403470 0.671260
O O9 0.983093 0.363059 0.632310
O O10 0.325937 0.940990 0.578594
O O11 0.045516 0.114427 0.512914
O O12 0.795170 0.798956 0.582091
#
# Coordination Sequence:
#
# PCOD9344946 Si02
#       6
#     4   4   4   4   4   4
#     4  10  20  38  58  79 112 157 204 236 275 354
#     4  11  22  36  57  84 115 151 189 238 295 349
#     4  11  22  36  57  84 115 151 189 238 295 349
#     4  11  22  36  57  84 115 151 189 238 295 349
#     4  11  22  36  57  84 115 151 189 238 295 349
#     4  10  20  38  58  79 112 157 204 236 275 354
#
# _framework density 28.014742999999999
#
# number of rings (size 3 to 8) (size 9 to 14) (size 15 to 20)
#    0.000    1.333    0.000   10.000    0.000    4.000 
#    0.000    0.000    0.000    6.000    0.000    0.000 
#    0.000    0.000    0.000    0.000    0.000    0.000 
#
# Total GULP energy -134072.452543 kJ/mol
# GULP energy per Si atom -5586.352189 kJ/mol
# Density = 2.795098 g / cm^3
# Si number density = 28.014743 Si / 1000 Ang^3
#
#
#
# Elastic Constant Matrix: (Units=GPa)
#
#
# Indices 1 2 3 4 5 6 
#
# 1 177.1422 41.2270 31.0467 0.0000 0.0000 0.0000
# 2 41.2270 74.2429 23.9765 0.0000 0.0000 0.0000
# 3 31.0467 23.9765 190.6976 0.0000 0.0000 0.0000
# 4 0.0000 0.0000 0.0000 35.6130 0.0000 0.0000
# 5 0.0000 0.0000 0.0000 0.0000 52.4957 0.0000
# 6 0.0000 0.0000 0.0000 0.0000 0.0000 24.3659
#
#
#
# Elastic Compliance Matrix: (Units=1/GPa)
#
#
# Indices 1 2 3 4 5 6 
#
# 1 0.006556 -0.003435 -0.000635 0.000000 0.000000 0.000000
# 2 -0.003435 0.015839 -0.001432 0.000000 0.000000 0.000000
# 3 -0.000635 -0.001432 0.005527 0.000000 0.000000 0.000000
# 4 0.000000 0.000000 0.000000 0.028080 0.000000 0.000000
# 5 0.000000 0.000000 0.000000 0.000000 0.019049 0.000000
# 6 0.000000 0.000000 0.000000 0.000000 0.000000 0.041041
#
#
# Mechanical properties :
#
#
# Convention : Reuss Voigt Hill
#
# Bulk Modulus (GPa) = 59.11226 70.50923 64.81074
# Shear Modulus (GPa) = 37.66824 45.55041 41.60932
#
# Velocity S-wave (km/s) = 3.67084 4.03667 3.85809
# Velocity P-wave (km/s) = 6.25404 6.85198 6.55982
#
# Compressibility (1/GPa) = 0.01691697
#
# Stress axis : x y z
#
# Youngs Moduli (GPa) = 152.53016 63.13337 180.91589
#
# Poissons Ratio (x) = 0.21689 0.11496
# Poissons Ratio (y) = 0.52400 0.25911
# Poissons Ratio (z) = 0.09692 0.09042
#
# Static dielectric constant tensor:
#      x y z
#    x 2.029880 0.000000 0.000000 
#    y 0.000000 2.233040 0.000000 
#    z 0.000000 0.000000 2.345760 
# 
# From -- ./inp_files/7395.got.cif
#   From: 2010.05.17/outbox.cif.g08.bks.cpg/sg33_4_cif.got.tgz:7395.got - 2010.06.03 17:15:25.
