data_PCOD9344528
_publ_section_title
;
Structure prediction by ZEFSAII (Michael W. Deem and Ramdas Pophale) SiO2 
 PCOD9344528
Probable space group: P N A 21
;
_chemical_formula_sum "Si O2"
_cell_formula_units_Z 24
_cell_length_a 5.289626
_cell_length_b 18.626137
_cell_length_c 12.164812
_cell_angle_alpha 90.000000
_cell_angle_beta 90.000000
_cell_angle_gamma 90.000000
_cell_volume 1198.541734
_symmetry_space_group_name_H-M "P N A 21"
_symmetry_group_IT_number 33
_symmetry_cell_setting 'orthorhombic'
loop_
_space_group_symop_operation_xyz
x,y,z
-x,-y,1/2+z
1/2-x,1/2+y,1/2+z
1/2+x,1/2-y,z
loop_
_atom_site_type_symbol
_atom_site_label
_atom_site_fract_x
_atom_site_fract_y
_atom_site_fract_z
Si Si1 0.188359 0.573651 0.758410
Si Si2 0.004373 0.058796 0.456601
Si Si3 0.012496 0.455130 0.596870
Si Si4 0.203719 0.221476 0.167241
Si Si5 0.530081 0.209013 0.624480
Si Si6 0.816568 0.682111 0.884144
O O1 0.989015 0.619218 0.830904
O O2 0.389812 0.534725 0.837981
O O3 0.039493 0.517216 0.685552
O O4 0.320197 0.636803 0.686939
O O5 0.239084 0.047917 0.538713
O O6 0.745260 0.031136 0.511251
O O7 0.931955 0.141823 0.430613
O O8 0.052916 0.375730 0.648124
O O9 0.465646 0.242124 0.110626
O O10 0.236286 0.262856 0.285714
O O11 0.271600 0.245509 0.662094
O O12 0.536867 0.210071 0.490509
#
# Coordination Sequence:
#
# PCOD9344528 Si02
#       6
#     4   4   4   4   4   4
#     4  11  22  38  55  83 123 153 183 228 281 344
#     4  11  21  40  52  84 118 153 182 228 281 336
#     4  11  26  34  56  86 117 151 193 221 283 346
#     4  10  19  29  53  84 108 148 169 216 290 351
#     4  11  20  34  54  81 114 140 181 232 290 342
#     4  10  20  33  58  86 112 147 174 233 301 345
#
# _framework density 20.024332999999999
#
# number of rings (size 3 to 8) (size 9 to 14) (size 15 to 20)
#    0.000    1.333    5.000    4.000    4.667    0.000 
#    0.000    0.000    0.000    0.000    0.000   14.000 
#    0.000    0.000    0.000    0.000    0.000    0.000 
#
# Total GULP energy -133862.285150 kJ/mol
# GULP energy per Si atom -5577.595215 kJ/mol
# Density = 1.997876 g / cm^3
# Si number density = 20.024333 Si / 1000 Ang^3
#
#
#
# Elastic Constant Matrix: (Units=GPa)
#
#
# Indices 1 2 3 4 5 6 
#
# 1 135.8326 8.0626 12.6287 0.0000 0.0000 0.0000
# 2 8.0626 58.0235 13.3060 0.0000 0.0000 0.0000
# 3 12.6287 13.3060 9.8315 0.0000 0.0000 0.0000
# 4 0.0000 0.0000 0.0000 35.8366 0.0000 0.0000
# 5 0.0000 0.0000 0.0000 0.0000 11.9312 0.0000
# 6 0.0000 0.0000 0.0000 0.0000 0.0000 26.2651
#
#
#
# Elastic Compliance Matrix: (Units=1/GPa)
#
#
# Indices 1 2 3 4 5 6 
#
# 1 0.008505 0.001919 -0.013522 0.000000 0.000000 0.000000
# 2 0.001919 0.025423 -0.036873 0.000000 0.000000 0.000000
# 3 -0.013522 -0.036873 0.168987 0.000000 0.000000 0.000000
# 4 0.000000 0.000000 0.000000 0.027904 0.000000 0.000000
# 5 0.000000 0.000000 0.000000 0.000000 0.083814 0.000000
# 6 0.000000 0.000000 0.000000 0.000000 0.000000 0.038073
#
#
# Mechanical properties :
#
#
# Convention : Reuss Voigt Hill
#
# Bulk Modulus (GPa) = 9.43724 30.18691 19.81208
# Shear Modulus (GPa) = 10.30966 26.11926 18.21446
#
# Velocity S-wave (km/s) = 2.27151 3.61553 3.01926
# Velocity P-wave (km/s) = 3.40628 5.70415 4.69787
#
# Compressibility (1/GPa) = 0.10596315
#
# Stress axis : x y z
#
# Youngs Moduli (GPa) = 117.57367 39.33372 5.91760
#
# Poissons Ratio (x) = -0.07549 0.08002
# Poissons Ratio (y) = -0.22564 0.21820
# Poissons Ratio (z) = 1.58989 1.45036
#
# Static dielectric constant tensor:
#      x y z
#    x 1.864880 0.000000 0.000000 
#    y 0.000000 1.722860 0.000000 
#    z 0.000000 0.000000 1.715320 
# 
# From -- ./inp_files/5512.got.cif
#   From: 2010.05.17/outbox.cif.g08.bks.cpg/sg33_3_cif.got.tgz:5512.got - 2010.06.03 17:15:25.
