data_PCOD9344376
_publ_section_title
;
Structure prediction by ZEFSAII (Michael W. Deem and Ramdas Pophale) SiO2 
 PCOD9344376
Probable space group: P N A 21
;
_chemical_formula_sum "Si O2"
_cell_formula_units_Z 32
_cell_length_a 14.961316
_cell_length_b 11.473879
_cell_length_c 9.111203
_cell_angle_alpha 90.000000
_cell_angle_beta 90.000000
_cell_angle_gamma 90.000000
_cell_volume 1564.068554
_symmetry_space_group_name_H-M "P N A 21"
_symmetry_group_IT_number 33
_symmetry_cell_setting 'orthorhombic'
loop_
_space_group_symop_operation_xyz
x,y,z
-x,-y,1/2+z
1/2-x,1/2+y,1/2+z
1/2+x,1/2-y,z
loop_
_atom_site_type_symbol
_atom_site_label
_atom_site_fract_x
_atom_site_fract_y
_atom_site_fract_z
Si Si1 0.376848 0.489617 0.602270
Si Si2 0.672240 0.262636 0.144944
Si Si3 0.465638 0.263130 0.197478
Si Si4 0.993121 0.998027 0.335519
Si Si5 0.332439 0.866685 0.355381
Si Si6 0.305296 0.245346 0.656090
Si Si7 0.686887 0.866347 0.855273
Si Si8 0.478988 0.236339 0.854220
O O1 0.331624 0.611239 0.562071
O O2 0.405879 0.503369 0.772931
O O3 0.466562 0.480535 0.503708
O O4 0.325082 0.371078 0.580714
O O5 0.572630 0.244253 0.208656
O O6 0.744952 0.282969 0.268427
O O7 0.690603 0.165599 0.023668
O O8 0.446433 0.395904 0.249099
O O9 0.409830 0.177594 0.300109
O O10 0.447765 0.246029 0.024123
O O11 0.976211 0.861084 0.312099
O O12 0.279964 0.773685 0.255517
O O13 0.439650 0.853668 0.340838
O O14 0.303812 0.997711 0.317400
O O15 0.297653 0.152664 0.527339
O O16 0.392656 0.217276 0.754086
#
# Coordination Sequence:
#
# PCOD9344376 Si02
#       8
#     4   4   4   4   4   4   4   4
#     4  10  18  37  64  90 126 159 214 273 313 378
#     4  10  22  45  63  92 129 173 210 264 324 381
#     4  10  21  39  66  90 127 170 215 263 324 373
#     4  10  16  34  63  91 118 162 209 262 320 363
#     4  11  24  46  65  94 134 170 213 265 324 389
#     4  11  24  42  62 100 127 166 219 269 314 387
#     4  12  25  42  67  96 130 171 214 265 324 386
#     4  10  22  41  66  91 129 173 214 265 325 377
#
# _framework density 20.45946
#
# number of rings (size 3 to 8) (size 9 to 14) (size 15 to 20)
#    0.000    1.500    6.250    0.750    0.000    3.000 
#    9.000    0.000    0.000    0.000    0.000    0.000 
#    0.000    0.000    0.000    0.000    0.000    0.000 
#
# Total GULP energy -178298.318139 kJ/mol
# GULP energy per Si atom -5571.822442 kJ/mol
# Density = 2.041289 g / cm^3
# Si number density = 20.459460 Si / 1000 Ang^3
#
#
#
# Elastic Constant Matrix: (Units=GPa)
#
#
# Indices 1 2 3 4 5 6 
#
# 1 24.5841 10.1103 21.1774 0.0000 0.0000 0.0000
# 2 10.1103 46.1792 9.7930 0.0000 0.0000 0.0000
# 3 21.1774 9.7930 73.3665 0.0000 0.0000 0.0000
# 4 0.0000 0.0000 0.0000 29.3275 0.0000 0.0000
# 5 0.0000 0.0000 0.0000 0.0000 16.5748 0.0000
# 6 0.0000 0.0000 0.0000 0.0000 0.0000 19.4632
#
#
#
# Elastic Compliance Matrix: (Units=1/GPa)
#
#
# Indices 1 2 3 4 5 6 
#
# 1 0.057840 -0.009388 -0.015443 0.000000 0.000000 0.000000
# 2 -0.009388 0.023810 -0.000468 0.000000 0.000000 0.000000
# 3 -0.015443 -0.000468 0.018150 0.000000 0.000000 0.000000
# 4 0.000000 0.000000 0.000000 0.034098 0.000000 0.000000
# 5 0.000000 0.000000 0.000000 0.000000 0.060333 0.000000
# 6 0.000000 0.000000 0.000000 0.000000 0.000000 0.051379
#
#
# Mechanical properties :
#
#
# Convention : Reuss Voigt Hill
#
# Bulk Modulus (GPa) = 20.32445 25.14344 22.73395
# Shear Modulus (GPa) = 15.99447 19.94305 17.96876
#
# Velocity S-wave (km/s) = 2.79904 3.12550 2.96676
# Velocity P-wave (km/s) = 4.51683 5.03399 4.78241
#
# Compressibility (1/GPa) = 0.04920183
#
# Stress axis : x y z
#
# Youngs Moduli (GPa) = 17.28898 41.99999 55.09581
#
# Poissons Ratio (x) = 0.39432 0.85082
# Poissons Ratio (y) = 0.16232 0.02579
# Poissons Ratio (z) = 0.26699 0.01966
#
# Static dielectric constant tensor:
#      x y z
#    x 1.749710 0.000000 0.000000 
#    y 0.000000 1.735630 0.000000 
#    z 0.000000 0.000000 1.731020 
# 
# From -- ./inp_files/4376.got.cif
#   From: 2010.05.17/outbox.cif.g08.bks.cpg/sg33_3_cif.got.tgz:4376.got - 2010.06.03 17:15:25.
