data_PCOD9344655
_publ_section_title
;
Structure prediction by ZEFSAII (Michael W. Deem and Ramdas Pophale) SiO2 
 PCOD9344655
Probable space group: P N A 21
;
_chemical_formula_sum "Si O2"
_cell_formula_units_Z 24
_cell_length_a 9.177198
_cell_length_b 16.772534
_cell_length_c 8.137978
_cell_angle_alpha 90.000000
_cell_angle_beta 90.000000
_cell_angle_gamma 90.000000
_cell_volume 1252.637169
_symmetry_space_group_name_H-M "P N A 21"
_symmetry_group_IT_number 33
_symmetry_cell_setting 'orthorhombic'
loop_
_space_group_symop_operation_xyz
x,y,z
-x,-y,1/2+z
1/2-x,1/2+y,1/2+z
1/2+x,1/2-y,z
loop_
_atom_site_type_symbol
_atom_site_label
_atom_site_fract_x
_atom_site_fract_y
_atom_site_fract_z
Si Si1 0.830740 0.816049 0.295450
Si Si2 0.858322 0.067871 0.369900
Si Si3 0.183018 0.489157 0.806739
Si Si4 0.396611 0.583361 0.598035
Si Si5 0.863888 0.464032 0.680906
Si Si6 0.342852 0.338848 0.690007
O O1 0.865576 0.840760 0.483658
O O2 0.723766 0.884456 0.227038
O O3 0.753868 0.732884 0.258220
O O4 0.987255 0.820304 0.209283
O O5 0.820982 0.136633 0.499896
O O6 0.972978 0.090746 0.228527
O O7 0.922487 0.993525 0.478131
O O8 0.713663 0.033573 0.285776
O O9 0.252042 0.559740 0.698912
O O10 0.297907 0.417026 0.793401
O O11 0.032308 0.459465 0.728444
O O12 0.156201 0.516444 0.990761
#
# Coordination Sequence:
#
# PCOD9344655 Si02
#       6
#     4   4   4   4   4   4
#     4  11  23  39  58  83 118 156 192 239 293 343
#     4  10  19  36  61  86 113 153 197 240 287 343
#     4  11  21  37  61  89 117 151 194 239 285 344
#     4  10  19  36  61  86 113 153 197 240 287 343
#     4  11  21  37  61  89 117 151 194 239 285 344
#     4  11  23  39  58  83 118 156 192 239 293 343
#
# _framework density 19.159576999999999
#
# number of rings (size 3 to 8) (size 9 to 14) (size 15 to 20)
#    0.000    1.333    0.000   11.000    0.000    0.000 
#    0.000    8.333    0.000    0.000    0.000    0.000 
#    0.000    0.000    0.000    0.000    0.000    0.000 
#
# Total GULP energy -134118.923203 kJ/mol
# GULP energy per Si atom -5588.288467 kJ/mol
# Density = 1.911597 g / cm^3
# Si number density = 19.159577 Si / 1000 Ang^3
#
#
#
# Elastic Constant Matrix: (Units=GPa)
#
#
# Indices 1 2 3 4 5 6 
#
# 1 70.6921 11.8192 -1.7720 0.0000 0.0000 0.0000
# 2 11.8192 57.6810 36.5277 0.0000 0.0000 0.0000
# 3 -1.7720 36.5277 100.3946 0.0000 0.0000 0.0000
# 4 0.0000 0.0000 0.0000 20.8726 0.0000 0.0000
# 5 0.0000 0.0000 0.0000 0.0000 36.4893 0.0000
# 6 0.0000 0.0000 0.0000 0.0000 0.0000 6.7227
#
#
#
# Elastic Compliance Matrix: (Units=1/GPa)
#
#
# Indices 1 2 3 4 5 6 
#
# 1 0.014890 -0.004181 0.001784 0.000000 0.000000 0.000000
# 2 -0.004181 0.023701 -0.008697 0.000000 0.000000 0.000000
# 3 0.001784 -0.008697 0.013157 0.000000 0.000000 0.000000
# 4 0.000000 0.000000 0.000000 0.047910 0.000000 0.000000
# 5 0.000000 0.000000 0.000000 0.000000 0.027405 0.000000
# 6 0.000000 0.000000 0.000000 0.000000 0.000000 0.148751
#
#
# Mechanical properties :
#
#
# Convention : Reuss Voigt Hill
#
# Bulk Modulus (GPa) = 33.83033 35.76860 34.79947
# Shear Modulus (GPa) = 16.24147 24.96310 20.60229
#
# Velocity S-wave (km/s) = 2.91468 3.61349 3.28273
# Velocity P-wave (km/s) = 5.38726 6.00992 5.70709
#
# Compressibility (1/GPa) = 0.02955927
#
# Stress axis : x y z
#
# Youngs Moduli (GPa) = 67.16129 42.19218 76.00751
#
# Poissons Ratio (x) = 0.17639 -0.13559
# Poissons Ratio (y) = 0.28078 0.66105
# Poissons Ratio (z) = -0.11981 0.36695
#
# Static dielectric constant tensor:
#      x y z
#    x 1.654880 0.000000 0.000000 
#    y 0.000000 1.664390 0.000000 
#    z 0.000000 0.000000 1.677430 
# 
# From -- ./inp_files/3145.got.cif
#   From: 2010.05.17/outbox.cif.g08.bks.cpg/sg33_2_cif.got.tgz:3145.got - 2010.06.03 17:15:25.
