data_PCOD9344579
_publ_section_title
;
Structure prediction by ZEFSAII (Michael W. Deem and Ramdas Pophale) SiO2 
 PCOD9344579
Probable space group: P N A 21
;
_chemical_formula_sum "Si O2"
_cell_formula_units_Z 32
_cell_length_a 18.017726
_cell_length_b 5.994177
_cell_length_c 15.295312
_cell_angle_alpha 90.000000
_cell_angle_beta 90.000000
_cell_angle_gamma 90.000000
_cell_volume 1651.915703
_symmetry_space_group_name_H-M "P N A 21"
_symmetry_group_IT_number 33
_symmetry_cell_setting 'orthorhombic'
loop_
_space_group_symop_operation_xyz
x,y,z
-x,-y,1/2+z
1/2-x,1/2+y,1/2+z
1/2+x,1/2-y,z
loop_
_atom_site_type_symbol
_atom_site_label
_atom_site_fract_x
_atom_site_fract_y
_atom_site_fract_z
Si Si1 0.000000 0.107695 0.423170
Si Si2 0.718906 0.662294 0.795913
Si Si3 0.639365 0.089529 0.390383
Si Si4 0.858029 0.500000 0.173170
Si Si5 0.397386 0.283573 0.015597
Si Si6 0.860635 0.410471 0.455957
Si Si7 0.718906 0.337706 0.550427
Si Si8 0.102614 0.216427 0.830743
O O1 0.065713 0.261928 0.386075
O O2 0.934287 0.261928 0.460265
O O3 0.035427 0.951657 0.497883
O O4 0.964573 0.951657 0.348457
O O5 0.805651 0.612120 0.808648
O O6 0.693260 0.803857 0.712609
O O7 0.688375 0.815153 0.875392
O O8 0.673289 0.434514 0.806689
O O9 0.688375 0.184847 0.470948
O O10 0.617315 0.845041 0.424396
O O11 0.905826 0.393757 0.094051
O O12 0.806740 0.696143 0.133731
O O13 0.905826 0.606243 0.252289
O O14 0.326711 0.434514 0.039651
O O15 0.805651 0.387880 0.537692
O O16 0.882685 0.654959 0.421944
#
# Coordination Sequence:
#
# PCOD9344579 Si02
#       8
#     4   4   4   4   4   4   4   4
#     4  10  20  34  56  82 116 148 186 238 288 346
#     4   9  18  33  56  81 107 141 190 238 281 331
#     4   9  18  33  55  82 107 142 190 234 281 339
#     4  10  20  34  56  84 114 148 196 238 288 344
#     4  10  19  34  57  85 112 152 192 238 288 346
#     4   9  18  33  55  82 107 142 190 234 281 339
#     4   9  18  33  56  81 107 141 190 238 281 331
#     4  10  19  34  57  85 112 152 192 238 288 346
#
# _framework density 19.371448000000001
#
# number of rings (size 3 to 8) (size 9 to 14) (size 15 to 20)
#    0.000    2.500    0.000    2.250    0.000    2.000 
#    0.000    0.000   22.000    0.000    0.000    0.000 
#    0.000    0.000    0.000    0.000    0.000    0.000 
#
# Total GULP energy -178327.149585 kJ/mol
# GULP energy per Si atom -5572.723425 kJ/mol
# Density = 1.932736 g / cm^3
# Si number density = 19.371448 Si / 1000 Ang^3
#
#
#
# Elastic Constant Matrix: (Units=GPa)
#
#
# Indices 1 2 3 4 5 6 
#
# 1 130.7762 48.2556 33.9859 0.0000 0.0000 0.0000
# 2 48.2556 101.3047 24.0791 0.0000 0.0000 0.0000
# 3 33.9859 24.0791 51.4929 0.0000 0.0000 0.0000
# 4 0.0000 0.0000 0.0000 31.2171 0.0000 0.0000
# 5 0.0000 0.0000 0.0000 0.0000 7.2385 0.0000
# 6 0.0000 0.0000 0.0000 0.0000 0.0000 2.0321
#
#
#
# Elastic Compliance Matrix: (Units=1/GPa)
#
#
# Indices 1 2 3 4 5 6 
#
# 1 0.010340 -0.003716 -0.005087 0.000000 0.000000 0.000000
# 2 -0.003716 0.012441 -0.003365 0.000000 0.000000 0.000000
# 3 -0.005087 -0.003365 0.024351 0.000000 0.000000 0.000000
# 4 0.000000 0.000000 0.000000 0.032034 0.000000 0.000000
# 5 0.000000 0.000000 0.000000 0.000000 0.138151 0.000000
# 6 0.000000 0.000000 0.000000 0.000000 0.000000 0.492090
#
#
# Mechanical properties :
#
#
# Convention : Reuss Voigt Hill
#
# Bulk Modulus (GPa) = 43.86685 55.13500 49.50092
# Shear Modulus (GPa) = 6.74454 19.91444 13.32949
#
# Velocity S-wave (km/s) = 1.86795 3.20977 2.62601
# Velocity P-wave (km/s) = 5.22940 6.50082 5.89946
#
# Compressibility (1/GPa) = 0.02279626
#
# Stress axis : x y z
#
# Youngs Moduli (GPa) = 96.71347 80.37789 41.06622
#
# Poissons Ratio (x) = 0.29870 0.20889
# Poissons Ratio (y) = 0.35941 0.13819
# Poissons Ratio (z) = 0.49194 0.27047
#
# Static dielectric constant tensor:
#      x y z
#    x 1.670410 0.000000 0.000000 
#    y 0.000000 1.714270 0.000000 
#    z 0.000000 0.000000 1.730480 
# 
# From -- ./inp_files/8837.got.cif
#   From: 2010.05.17/outbox.cif.g08.bks.cpg/sg33_5_cif.got.tgz:8837.got - 2010.06.03 17:15:25.
