data_PCOD9344770
_publ_section_title
;
Structure prediction by ZEFSAII (Michael W. Deem and Ramdas Pophale) SiO2 
 PCOD9344770
Probable space group: P N A 21
;
_chemical_formula_sum "Si O2"
_cell_formula_units_Z 32
_cell_length_a 33.261757
_cell_length_b 5.154497
_cell_length_c 7.816551
_cell_angle_alpha 90.000000
_cell_angle_beta 90.000000
_cell_angle_gamma 90.000000
_cell_volume 1340.129118
_symmetry_space_group_name_H-M "P N A 21"
_symmetry_group_IT_number 33
_symmetry_cell_setting 'orthorhombic'
loop_
_space_group_symop_operation_xyz
x,y,z
-x,-y,1/2+z
1/2-x,1/2+y,1/2+z
1/2+x,1/2-y,z
loop_
_atom_site_type_symbol
_atom_site_label
_atom_site_fract_x
_atom_site_fract_y
_atom_site_fract_z
Si Si1 0.792488 0.626982 0.660270
Si Si2 0.539064 0.476056 0.207473
Si Si3 0.778493 0.120607 0.899429
Si Si4 0.531875 0.737850 0.865697
Si Si5 0.120112 0.302587 0.206925
Si Si6 0.642260 0.473978 0.565404
Si Si7 0.422487 0.149261 0.939199
Si Si8 0.924576 0.720829 0.233614
O O1 0.780788 0.881639 0.768376
O O2 0.763631 0.617088 0.497323
O O3 0.839217 0.652667 0.605518
O O4 0.787415 0.379839 0.788412
O O5 0.523534 0.660626 0.059258
O O6 0.508760 0.244359 0.253894
O O7 0.582890 0.372289 0.149665
O O8 0.544571 0.647333 0.379159
O O9 0.812480 0.073472 0.047250
O O10 0.552955 0.482961 0.784147
O O11 0.560184 0.988208 0.853327
O O12 0.135310 0.178659 0.386739
O O13 0.099752 0.568512 0.265222
O O14 0.611699 0.714234 0.552431
O O15 0.622754 0.295396 0.712953
O O16 0.435735 0.900856 0.047064
#
# Coordination Sequence:
#
# PCOD9344770 Si02
#       8
#     4   4   4   4   4   4   4   4
#     4  11  23  45  69 105 143 183 230 284 344 423
#     4  11  27  44  68  99 135 185 230 292 348 413
#     4  11  23  43  70 105 142 183 230 281 345 416
#     4  12  28  44  66  99 139 174 233 288 350 406
#     4   9  21  40  71  95 136 182 234 271 355 419
#     4   9  19  41  72  97 129 185 231 271 341 426
#     4  10  19  43  71  94 125 181 231 273 340 414
#     4  11  24  44  67  98 131 173 225 288 335 407
#
# _framework density 23.878295999999999
#
# number of rings (size 3 to 8) (size 9 to 14) (size 15 to 20)
#    0.000    1.500    2.500    1.500    7.000    0.000 
#    2.250    0.000    0.000    0.000    0.000    0.000 
#    0.000    0.000    0.000    0.000    0.000    0.000 
#
# Total GULP energy -178821.925001 kJ/mol
# GULP energy per Si atom -5588.185156 kJ/mol
# Density = 2.382395 g / cm^3
# Si number density = 23.878296 Si / 1000 Ang^3
#
#
#
# Elastic Constant Matrix: (Units=GPa)
#
#
# Indices 1 2 3 4 5 6 
#
# 1 74.9521 18.8692 34.8429 0.0000 0.0000 0.0000
# 2 18.8692 137.0168 17.6663 0.0000 0.0000 0.0000
# 3 34.8429 17.6663 54.0809 0.0000 0.0000 0.0000
# 4 0.0000 0.0000 0.0000 31.1158 0.0000 0.0000
# 5 0.0000 0.0000 0.0000 0.0000 36.8661 0.0000
# 6 0.0000 0.0000 0.0000 0.0000 0.0000 29.5382
#
#
#
# Elastic Compliance Matrix: (Units=1/GPa)
#
#
# Indices 1 2 3 4 5 6 
#
# 1 0.019202 -0.001095 -0.012014 0.000000 0.000000 0.000000
# 2 -0.001095 0.007682 -0.001804 0.000000 0.000000 0.000000
# 3 -0.012014 -0.001804 0.026820 0.000000 0.000000 0.000000
# 4 0.000000 0.000000 0.000000 0.032138 0.000000 0.000000
# 5 0.000000 0.000000 0.000000 0.000000 0.027125 0.000000
# 6 0.000000 0.000000 0.000000 0.000000 0.000000 0.033854
#
#
# Mechanical properties :
#
#
# Convention : Reuss Voigt Hill
#
# Bulk Modulus (GPa) = 41.87828 45.42296 43.65062
# Shear Modulus (GPa) = 27.08449 32.48210 29.78329
#
# Velocity S-wave (km/s) = 3.37155 3.69225 3.53554
# Velocity P-wave (km/s) = 5.72126 6.10254 5.91497
#
# Compressibility (1/GPa) = 0.02387872
#
# Stress axis : x y z
#
# Youngs Moduli (GPa) = 52.07658 130.17815 37.28537
#
# Poissons Ratio (x) = 0.14261 0.44794
# Poissons Ratio (y) = 0.05705 0.06725
# Poissons Ratio (z) = 0.62564 0.23479
#
# Static dielectric constant tensor:
#      x y z
#    x 1.967210 0.000000 0.000000 
#    y 0.000000 1.957080 0.000000 
#    z 0.000000 0.000000 1.959570 
# 
# From -- ./inp_files/5313.got.cif
#   From: 2010.05.17/outbox.cif.g08.bks.cpg/sg33_3_cif.got.tgz:5313.got - 2010.06.03 17:15:25.
