data_PCOD9344032
_publ_section_title
;
Structure prediction by ZEFSAII (Michael W. Deem and Ramdas Pophale) SiO2 
 PCOD9344032
Probable space group: P B A 2
;
_chemical_formula_sum "Si O2"
_cell_formula_units_Z 26
_cell_length_a 23.311288
_cell_length_b 5.052680
_cell_length_c 9.621336
_cell_angle_alpha 90.000000
_cell_angle_beta 90.000000
_cell_angle_gamma 90.000000
_cell_volume 1133.244045
_symmetry_space_group_name_H-M "P B A 2"
_symmetry_group_IT_number 32
_symmetry_cell_setting 'orthorhombic'
loop_
_space_group_symop_operation_xyz
x,y,z
-x,-y,z
1/2-x,1/2+y,z
1/2+x,1/2-y,z
loop_
_atom_site_type_symbol
_atom_site_label
_atom_site_fract_x
_atom_site_fract_y
_atom_site_fract_z
Si Si1 0.292275 0.757497 0.658560
Si Si2 0.430738 0.222127 0.220442
Si Si3 0.097845 0.168580 0.846110
Si Si4 0.718519 0.405485 0.367130
Si Si5 0.500000 0.000000 0.473704
Si Si6 0.366772 0.705805 0.148570
Si Si7 0.500000 0.000000 0.984932
Si Si8 0.500000 0.500000 0.668327
O O1 0.246402 0.518591 0.678129
O O2 0.348096 0.753429 0.754332
O O3 0.314681 0.709232 0.500510
O O4 0.407679 0.515665 0.239387
O O5 0.452533 0.106842 0.365671
O O6 0.384825 0.009517 0.163010
O O7 0.477892 0.216261 0.096979
O O8 0.051298 0.389600 0.892258
O O9 0.056625 0.964186 0.764759
O O10 0.125374 0.093487 0.994318
O O11 0.725000 0.719756 0.379748
O O12 0.694010 0.332685 0.218428
O O13 0.486592 0.752759 0.572876
#
# Coordination Sequence:
#
# PCOD9344032 Si02
#       8
#     4   4   4   4   2   4   2   2
#     4  10  25  45  68  99 139 184 230 289 347 409
#     4  10  22  40  64  95 133 171 229 272 331 403
#     4  11  25  44  70 103 147 184 230 281 356 426
#     4  10  22  43  65  96 129 171 233 292 338 394
#     4  11  25  40  62  96 130 174 226 270 324 410
#     4  11  23  40  69  95 127 179 221 283 337 400
#     4   9  21  44  66 100 140 186 220 282 344 412
#     4  12  26  42  62 104 140 182 214 282 342 414
#
# _framework density 22.942983000000002
#
# number of rings (size 3 to 8) (size 9 to 14) (size 15 to 20)
#    0.000    1.538    0.000    3.231    4.308   11.692 
#    0.000    0.000    0.000    0.000    0.000    0.000 
#    0.000    0.000    0.000    0.000    0.000    0.000 
#
# Total GULP energy -145133.725629 kJ/mol
# GULP energy per Si atom -5582.066370 kJ/mol
# Density = 2.289076 g / cm^3
# Si number density = 22.942983 Si / 1000 Ang^3
#
#
#
# Elastic Constant Matrix: (Units=GPa)
#
#
# Indices 1 2 3 4 5 6 
#
# 1 70.7404 23.9363 47.3563 0.0000 0.0000 0.0000
# 2 23.9363 113.9217 22.8318 0.0000 0.0000 0.0000
# 3 47.3563 22.8318 140.8279 0.0000 0.0000 0.0000
# 4 0.0000 0.0000 0.0000 14.0009 0.0000 0.0000
# 5 0.0000 0.0000 0.0000 0.0000 40.7508 0.0000
# 6 0.0000 0.0000 0.0000 0.0000 0.0000 23.3036
#
#
#
# Elastic Compliance Matrix: (Units=1/GPa)
#
#
# Indices 1 2 3 4 5 6 
#
# 1 0.019078 -0.002814 -0.005959 0.000000 0.000000 0.000000
# 2 -0.002814 0.009488 -0.000592 0.000000 0.000000 0.000000
# 3 -0.005959 -0.000592 0.009201 0.000000 0.000000 0.000000
# 4 0.000000 0.000000 0.000000 0.071424 0.000000 0.000000
# 5 0.000000 0.000000 0.000000 0.000000 0.024539 0.000000
# 6 0.000000 0.000000 0.000000 0.000000 0.000000 0.042912
#
#
# Mechanical properties :
#
#
# Convention : Reuss Voigt Hill
#
# Bulk Modulus (GPa) = 52.53197 57.08210 54.80704
# Shear Modulus (GPa) = 24.78724 31.03543 27.91134
#
# Velocity S-wave (km/s) = 3.29049 3.68192 3.49169
# Velocity P-wave (km/s) = 6.11415 6.55816 6.34004
#
# Compressibility (1/GPa) = 0.01903603
#
# Stress axis : x y z
#
# Youngs Moduli (GPa) = 52.41757 105.39767 108.68785
#
# Poissons Ratio (x) = 0.29660 0.64767
# Poissons Ratio (y) = 0.14751 0.06433
# Poissons Ratio (z) = 0.31236 0.06239
#
# Static dielectric constant tensor:
#      x y z
#    x 1.919270 0.000000 0.000000 
#    y 0.000000 1.877890 0.000000 
#    z 0.000000 0.000000 1.897270 
# 
# From -- ./inp_files/1989.got.cif
#   From: 2010.05.17/outbox.cif.g08.bks.cpg/sg32_1_cif.got.tgz:1989.got - 2010.06.03 17:12:27.
