data_PCOD9344399
_publ_section_title
;
Structure prediction by ZEFSAII (Michael W. Deem and Ramdas Pophale) SiO2 
 PCOD9344399
Probable space group: P N A 21
;
_chemical_formula_sum "Si O2"
_cell_formula_units_Z 32
_cell_length_a 18.452832
_cell_length_b 14.784768
_cell_length_c 5.481073
_cell_angle_alpha 90.000000
_cell_angle_beta 90.000000
_cell_angle_gamma 90.000000
_cell_volume 1495.350940
_symmetry_space_group_name_H-M "P N A 21"
_symmetry_group_IT_number 33
_symmetry_cell_setting 'orthorhombic'
loop_
_space_group_symop_operation_xyz
x,y,z
-x,-y,1/2+z
1/2-x,1/2+y,1/2+z
1/2+x,1/2-y,z
loop_
_atom_site_type_symbol
_atom_site_label
_atom_site_fract_x
_atom_site_fract_y
_atom_site_fract_z
Si Si1 0.695069 0.744176 0.025620
Si Si2 0.527958 0.539033 0.029390
Si Si3 0.592272 0.809269 0.653988
Si Si4 0.467389 0.274766 0.750723
Si Si5 0.298532 0.465215 0.565659
Si Si6 0.524197 0.112106 0.533865
Si Si7 0.756965 0.441147 0.565910
Si Si8 0.099292 0.523862 0.287187
O O1 0.615210 0.745968 0.155830
O O2 0.722957 0.642136 0.062121
O O3 0.744281 0.831276 0.089553
O O4 0.667173 0.769516 0.754395
O O5 0.495634 0.480835 0.253690
O O6 0.505815 0.639176 0.111318
O O7 0.614477 0.533463 0.052082
O O8 0.550290 0.724219 0.534668
O O9 0.609094 0.892745 0.472738
O O10 0.533164 0.849462 0.838725
O O11 0.525732 0.195403 0.717882
O O12 0.271787 0.513515 0.316523
O O13 0.274700 0.516829 0.815412
O O14 0.480755 0.034079 0.675737
O O15 0.596699 0.071111 0.425572
O O16 0.842342 0.466181 0.576342
#
# Coordination Sequence:
#
# PCOD9344399 Si02
#       8
#     4   4   4   4   4   4   4   4
#     4  10  22  40  68  89 133 178 234 270 319 402
#     4  11  25  47  75  96 126 165 227 293 342 389
#     4  10  17  34  62  90 123 171 227 267 308 378
#     4   9  21  36  65  97 121 175 226 270 323 398
#     4  11  28  44  70 103 131 174 232 283 336 408
#     4  10  19  32  55  96 133 169 218 262 312 381
#     4  12  24  43  68 100 138 181 228 269 342 404
#     4  11  20  32  59  95 135 177 210 268 322 390
#
# _framework density 21.399659
#
# number of rings (size 3 to 8) (size 9 to 14) (size 15 to 20)
#    0.000    1.500    5.000    1.500    8.750    0.000 
#    0.000    3.750    0.000    0.000    0.000    0.000 
#    0.000    0.000    0.000    0.000    0.000    0.000 
#
# Total GULP energy -178175.869596 kJ/mol
# GULP energy per Si atom -5567.995925 kJ/mol
# Density = 2.135095 g / cm^3
# Si number density = 21.399659 Si / 1000 Ang^3
#
#
#
# Elastic Constant Matrix: (Units=GPa)
#
#
# Indices 1 2 3 4 5 6 
#
# 1 31.2844 28.7006 7.8730 0.0000 0.0000 0.0000
# 2 28.7006 129.2149 39.4402 0.0000 0.0000 0.0000
# 3 7.8730 39.4402 82.3343 0.0000 0.0000 0.0000
# 4 0.0000 0.0000 0.0000 26.5037 0.0000 0.0000
# 5 0.0000 0.0000 0.0000 0.0000 43.7659 0.0000
# 6 0.0000 0.0000 0.0000 0.0000 0.0000 28.4031
#
#
#
# Elastic Compliance Matrix: (Units=1/GPa)
#
#
# Indices 1 2 3 4 5 6 
#
# 1 0.040163 -0.009076 0.000507 0.000000 0.000000 0.000000
# 2 -0.009076 0.011115 -0.004457 0.000000 0.000000 0.000000
# 3 0.000507 -0.004457 0.014232 0.000000 0.000000 0.000000
# 4 0.000000 0.000000 0.000000 0.037731 0.000000 0.000000
# 5 0.000000 0.000000 0.000000 0.000000 0.022849 0.000000
# 6 0.000000 0.000000 0.000000 0.000000 0.000000 0.035207
#
#
# Mechanical properties :
#
#
# Convention : Reuss Voigt Hill
#
# Bulk Modulus (GPa) = 25.34222 43.87346 34.60784
# Shear Modulus (GPa) = 24.93753 30.85587 27.89670
#
# Velocity S-wave (km/s) = 3.41739 3.80134 3.61446
# Velocity P-wave (km/s) = 5.23827 6.30978 5.79883
#
# Compressibility (1/GPa) = 0.03945984
#
# Stress axis : x y z
#
# Youngs Moduli (GPa) = 24.89839 89.96717 70.26437
#
# Poissons Ratio (x) = 0.81651 -0.03562
# Poissons Ratio (y) = 0.22597 0.31314
# Poissons Ratio (z) = -0.01262 0.40095
#
# Static dielectric constant tensor:
#      x y z
#    x 1.770980 0.000000 0.000000 
#    y 0.000000 1.887750 0.000000 
#    z 0.000000 0.000000 1.968490 
# 
# From -- ./inp_files/1822.got.cif
#   From: 2010.05.17/outbox.cif.g08.bks.cpg/sg33_1_cif.got.tgz:1822.got - 2010.06.03 17:15:25.
