data_PCOD9344537
_publ_section_title
;
Structure prediction by ZEFSAII (Michael W. Deem and Ramdas Pophale) SiO2 
 PCOD9344537
Probable space group: P N A 21
;
_chemical_formula_sum "Si O2"
_cell_formula_units_Z 32
_cell_length_a 11.623213
_cell_length_b 11.854078
_cell_length_c 8.764297
_cell_angle_alpha 90.000000
_cell_angle_beta 90.000000
_cell_angle_gamma 90.000000
_cell_volume 1207.566519
_symmetry_space_group_name_H-M "P N A 21"
_symmetry_group_IT_number 33
_symmetry_cell_setting 'orthorhombic'
loop_
_space_group_symop_operation_xyz
x,y,z
-x,-y,1/2+z
1/2-x,1/2+y,1/2+z
1/2+x,1/2-y,z
loop_
_atom_site_type_symbol
_atom_site_label
_atom_site_fract_x
_atom_site_fract_y
_atom_site_fract_z
Si Si1 0.032001 0.651691 0.441960
Si Si2 0.240564 0.745641 0.060468
Si Si3 0.722597 0.124636 0.011099
Si Si4 0.871149 0.916660 0.656584
Si Si5 0.775876 0.872184 0.353151
Si Si6 0.081494 0.878872 0.297594
Si Si7 0.380108 0.833740 0.807753
Si Si8 0.126077 0.629910 0.768065
O O1 0.141630 0.591526 0.365155
O O2 0.011676 0.769878 0.353389
O O3 0.087629 0.685098 0.606027
O O4 0.908766 0.590802 0.463844
O O5 0.293241 0.651978 0.174784
O O6 0.161152 0.823474 0.165130
O O7 0.339652 0.815996 0.978851
O O8 0.169853 0.695615 0.917606
O O9 0.725265 0.249850 0.938356
O O10 0.837885 0.078113 0.937393
O O11 0.717291 0.119184 0.193460
O O12 0.858402 0.933922 0.473646
O O13 0.895817 0.792600 0.728867
O O14 0.738889 0.939199 0.716182
O O15 0.960734 0.006345 0.721962
O O16 0.496670 0.903902 0.808402
#
# Coordination Sequence:
#
# PCOD9344537 Si02
#       8
#     4   4   4   4   4   4   4   4
#     4   8  15  30  52  72  97 136 171 196 248 318
#     4   9  17  29  48  74 102 137 173 207 248 308
#     4   8  15  30  52  72  97 136 171 196 248 318
#     4   9  18  35  52  74 104 129 168 217 256 296
#     4   8  16  29  48  71  98 135 166 196 246 306
#     4  10  19  31  52  79 102 129 169 222 256 286
#     4   9  17  33  54  73  98 138 174 203 251 319
#     4   9  17  33  54  73  98 138 174 203 251 319
#
# _framework density 26.499576000000001
#
# number of rings (size 3 to 8) (size 9 to 14) (size 15 to 20)
#    0.000    3.500    0.000    2.250    0.000    4.000 
#    0.000   12.500    0.000    0.000    0.000    0.000 
#    0.000    0.000    0.000    0.000    0.000    0.000 
#
# Total GULP energy -178186.091773 kJ/mol
# GULP energy per Si atom -5568.315368 kJ/mol
# Density = 2.643926 g / cm^3
# Si number density = 26.499576 Si / 1000 Ang^3
#
#
#
# Elastic Constant Matrix: (Units=GPa)
#
#
# Indices 1 2 3 4 5 6 
#
# 1 77.7828 -0.2367 31.5474 0.0000 0.0000 0.0000
# 2 -0.2367 53.3551 18.5624 0.0000 0.0000 0.0000
# 3 31.5474 18.5624 134.5394 0.0000 0.0000 0.0000
# 4 0.0000 0.0000 0.0000 24.9138 0.0000 0.0000
# 5 0.0000 0.0000 0.0000 0.0000 30.5234 0.0000
# 6 0.0000 0.0000 0.0000 0.0000 0.0000 18.1176
#
#
#
# Elastic Compliance Matrix: (Units=1/GPa)
#
#
# Indices 1 2 3 4 5 6 
#
# 1 0.014292 0.001291 -0.003529 0.000000 0.000000 0.000000
# 2 0.001291 0.019804 -0.003035 0.000000 0.000000 0.000000
# 3 -0.003529 -0.003035 0.008679 0.000000 0.000000 0.000000
# 4 0.000000 0.000000 0.000000 0.040138 0.000000 0.000000
# 5 0.000000 0.000000 0.000000 0.000000 0.032762 0.000000
# 6 0.000000 0.000000 0.000000 0.000000 0.000000 0.055195
#
#
# Mechanical properties :
#
#
# Convention : Reuss Voigt Hill
#
# Bulk Modulus (GPa) = 31.02854 40.60260 35.81557
# Shear Modulus (GPa) = 26.02013 29.09792 27.55903
#
# Velocity S-wave (km/s) = 3.13694 3.31728 3.22837
# Velocity P-wave (km/s) = 4.98548 5.47976 5.23845
#
# Compressibility (1/GPa) = 0.03222839
#
# Stress axis : x y z
#
# Youngs Moduli (GPa) = 69.97077 50.49480 115.21930
#
# Poissons Ratio (x) = -0.06520 0.40665
# Poissons Ratio (y) = -0.09035 0.34971
# Poissons Ratio (z) = 0.24695 0.15326
#
# Static dielectric constant tensor:
#      x y z
#    x 2.210230 0.000000 0.000000 
#    y 0.000000 2.201180 0.000000 
#    z 0.000000 0.000000 2.148550 
# 
# From -- ./inp_files/4526.got.cif
#   From: 2010.05.17/outbox.cif.g08.bks.cpg/sg33_3_cif.got.tgz:4526.got - 2010.06.03 17:15:25.
