data_PCOD9344159
_publ_section_title
;
Structure prediction by ZEFSAII (Michael W. Deem and Ramdas Pophale) SiO2 
 PCOD9344159
Probable space group: P B A 2
;
_chemical_formula_sum "Si O2"
_cell_formula_units_Z 26
_cell_length_a 7.950297
_cell_length_b 22.661927
_cell_length_c 5.525445
_cell_angle_alpha 90.000000
_cell_angle_beta 90.000000
_cell_angle_gamma 90.000000
_cell_volume 995.514178
_symmetry_space_group_name_H-M "P B A 2"
_symmetry_group_IT_number 32
_symmetry_cell_setting 'orthorhombic'
loop_
_space_group_symop_operation_xyz
x,y,z
-x,-y,z
1/2-x,1/2+y,z
1/2+x,1/2-y,z
loop_
_atom_site_type_symbol
_atom_site_label
_atom_site_fract_x
_atom_site_fract_y
_atom_site_fract_z
Si Si1 0.027906 0.209655 0.592280
Si Si2 0.372424 0.925970 0.072082
Si Si3 0.736980 0.757628 0.944268
Si Si4 0.777878 0.449371 0.939587
Si Si5 0.486699 0.814959 0.269154
Si Si6 0.000000 0.000000 0.575643
Si Si7 0.974720 0.107566 0.215053
O O1 0.054054 0.276357 0.499854
O O2 0.980981 0.167705 0.370516
O O3 0.194676 0.196075 0.744096
O O4 0.889661 0.216107 0.798811
O O5 0.534170 0.923746 0.888235
O O6 0.447362 0.883681 0.282143
O O7 0.185334 0.898839 0.036722
O O8 0.327856 0.994420 0.106814
O O9 0.666730 0.794394 0.171011
O O10 0.873337 0.713930 0.057492
O O11 0.661535 0.478091 0.730944
O O12 0.648045 0.407635 0.080653
O O13 0.951867 0.055694 0.411789
#
# Coordination Sequence:
#
# PCOD9344159 Si02
#       7
#     4   4   4   4   4   2   4
#     4  11  25  43  70 104 143 191 235 306 359 435
#     4  11  24  48  70 101 143 184 235 296 358 438
#     4  10  24  43  64 109 135 185 250 275 366 446
#     4  11  26  48  70 103 143 186 240 293 370 429
#     4  11  24  44  71  99 147 185 232 304 365 419
#     4  12  24  48  74 102 140 190 242 308 354 432
#     4  12  25  48  73 103 147 185 247 298 365 434
#
# _framework density 26.117156999999999
#
# number of rings (size 3 to 8) (size 9 to 14) (size 15 to 20)
#    0.000    0.923    3.077    2.769    8.615    1.231 
#    5.538    0.000    0.000    0.000    0.000    0.000 
#    0.000    0.000    0.000    0.000    0.000    0.000 
#
# Total GULP energy -145215.175564 kJ/mol
# GULP energy per Si atom -5585.199060 kJ/mol
# Density = 2.605771 g / cm^3
# Si number density = 26.117157 Si / 1000 Ang^3
#
#
#
# Elastic Constant Matrix: (Units=GPa)
#
#
# Indices 1 2 3 4 5 6 
#
# 1 170.2406 36.8186 27.7708 0.0000 0.0000 0.0000
# 2 36.8186 110.7025 31.8868 0.0000 0.0000 0.0000
# 3 27.7708 31.8868 76.7844 0.0000 0.0000 0.0000
# 4 0.0000 0.0000 0.0000 48.7968 0.0000 0.0000
# 5 0.0000 0.0000 0.0000 0.0000 20.8531 0.0000
# 6 0.0000 0.0000 0.0000 0.0000 0.0000 38.1843
#
#
#
# Elastic Compliance Matrix: (Units=1/GPa)
#
#
# Indices 1 2 3 4 5 6 
#
# 1 0.006509 -0.001689 -0.001653 0.000000 0.000000 0.000000
# 2 -0.001689 0.010699 -0.003832 0.000000 0.000000 0.000000
# 3 -0.001653 -0.003832 0.015213 0.000000 0.000000 0.000000
# 4 0.000000 0.000000 0.000000 0.020493 0.000000 0.000000
# 5 0.000000 0.000000 0.000000 0.000000 0.047955 0.000000
# 6 0.000000 0.000000 0.000000 0.000000 0.000000 0.026189
#
#
# Mechanical properties :
#
#
# Convention : Reuss Voigt Hill
#
# Bulk Modulus (GPa) = 55.33152 61.18666 58.25909
# Shear Modulus (GPa) = 33.91477 38.98358 36.44917
#
# Velocity S-wave (km/s) = 3.60747 3.86766 3.73983
# Velocity P-wave (km/s) = 6.21157 6.58967 6.40341
#
# Compressibility (1/GPa) = 0.01807288
#
# Stress axis : x y z
#
# Youngs Moduli (GPa) = 153.63619 93.46943 65.73475
#
# Poissons Ratio (x) = 0.15784 0.10865
# Poissons Ratio (y) = 0.25945 0.25191
# Poissons Ratio (z) = 0.25393 0.35819
#
# Static dielectric constant tensor:
#      x y z
#    x 2.183990 0.000000 0.000000 
#    y 0.000000 2.042050 0.000000 
#    z 0.000000 0.000000 1.979840 
# 
# From -- ./inp_files/524.got.cif
#   From: 2010.05.17/outbox.cif.g08.bks.cpg/sg32_1_cif.got.tgz:524.got - 2010.06.03 17:12:27.
