data_PCOD9344898
_publ_section_title
;
Structure prediction by ZEFSAII (Michael W. Deem and Ramdas Pophale) SiO2 
 PCOD9344898
Probable space group: P N A 21
;
_chemical_formula_sum "Si O2"
_cell_formula_units_Z 28
_cell_length_a 5.382567
_cell_length_b 9.342560
_cell_length_c 22.693932
_cell_angle_alpha 90.000000
_cell_angle_beta 90.000000
_cell_angle_gamma 90.000000
_cell_volume 1141.208741
_symmetry_space_group_name_H-M "P N A 21"
_symmetry_group_IT_number 33
_symmetry_cell_setting 'orthorhombic'
loop_
_space_group_symop_operation_xyz
x,y,z
-x,-y,1/2+z
1/2-x,1/2+y,1/2+z
1/2+x,1/2-y,z
loop_
_atom_site_type_symbol
_atom_site_label
_atom_site_fract_x
_atom_site_fract_y
_atom_site_fract_z
Si Si1 0.034894 0.207830 0.169120
Si Si2 0.075094 0.099787 0.643664
Si Si3 0.194174 0.823025 0.034988
Si Si4 0.254104 0.106166 0.771722
Si Si5 0.256733 0.837979 0.440222
Si Si6 0.960673 0.573001 0.563229
Si Si7 0.245073 0.929415 0.318237
O O1 0.268229 0.279931 0.199334
O O2 0.085496 0.041711 0.160230
O O3 0.985583 0.294117 0.106955
O O4 0.289650 0.030287 0.602788
O O5 0.882903 0.191167 0.604704
O O6 0.187218 0.150002 0.705172
O O7 0.424937 0.727769 0.010717
O O8 0.304119 0.984758 0.036312
O O9 0.516385 0.029041 0.780177
O O10 0.277333 0.256256 0.807236
O O11 0.021875 0.018233 0.797073
O O12 0.481911 0.725325 0.432643
O O13 0.297603 0.887950 0.506650
O O14 0.289952 0.950852 0.387433
#
# Coordination Sequence:
#
# PCOD9344898 Si02
#       7
#     4   4   4   4   4   4   4
#     4  10  20  37  56  86 129 158 215 251 324 393
#     4  11  24  39  61  95 131 186 211 270 339 398
#     4  12  26  41  57  88 132 169 223 255 331 399
#     4  10  21  34  56  82 132 163 217 258 333 392
#     4  12  22  39  67  97 135 169 222 281 344 396
#     4  11  25  41  64  97 131 180 214 277 343 400
#     4  10  20  39  55  93 126 171 214 278 332 380
#
# _framework density 24.535388000000001
#
# number of rings (size 3 to 8) (size 9 to 14) (size 15 to 20)
#    0.000    1.143    5.714    1.714    8.000    0.000 
#    0.000    0.000    0.000    0.000    0.000   12.000 
#    0.000    0.000    0.000    0.000    0.000    0.000 
#
# Total GULP energy -156268.733304 kJ/mol
# GULP energy per Si atom -5581.026189 kJ/mol
# Density = 2.447954 g / cm^3
# Si number density = 24.535388 Si / 1000 Ang^3
#
#
#
# Elastic Constant Matrix: (Units=GPa)
#
#
# Indices 1 2 3 4 5 6 
#
# 1 172.3797 0.9017 7.4209 0.0000 0.0000 0.0000
# 2 0.9017 33.4247 7.2284 0.0000 0.0000 0.0000
# 3 7.4209 7.2284 88.0166 0.0000 0.0000 0.0000
# 4 0.0000 0.0000 0.0000 13.5839 0.0000 0.0000
# 5 0.0000 0.0000 0.0000 0.0000 34.8481 0.0000
# 6 0.0000 0.0000 0.0000 0.0000 0.0000 26.8620
#
#
#
# Elastic Compliance Matrix: (Units=1/GPa)
#
#
# Indices 1 2 3 4 5 6 
#
# 1 0.005822 -0.000052 -0.000487 0.000000 0.000000 0.000000
# 2 -0.000052 0.030459 -0.002497 0.000000 0.000000 0.000000
# 3 -0.000487 -0.002497 0.011608 0.000000 0.000000 0.000000
# 4 0.000000 0.000000 0.000000 0.073616 0.000000 0.000000
# 5 0.000000 0.000000 0.000000 0.000000 0.028696 0.000000
# 6 0.000000 0.000000 0.000000 0.000000 0.000000 0.037227
#
#
# Mechanical properties :
#
#
# Convention : Reuss Voigt Hill
#
# Bulk Modulus (GPa) = 23.91305 36.10258 30.00781
# Shear Modulus (GPa) = 24.10339 33.61013 28.85676
#
# Velocity S-wave (km/s) = 3.13771 3.70518 3.43319
# Velocity P-wave (km/s) = 4.78482 5.74899 5.28892
#
# Compressibility (1/GPa) = 0.04181817
#
# Stress axis : x y z
#
# Youngs Moduli (GPa) = 171.75146 32.83057 86.15047
#
# Poissons Ratio (x) = 0.00170 0.04192
# Poissons Ratio (y) = 0.00890 0.21513
# Poissons Ratio (z) = 0.08358 0.08198
#
# Static dielectric constant tensor:
#      x y z
#    x 2.068740 0.000000 0.000000 
#    y 0.000000 2.038650 0.000000 
#    z 0.000000 0.000000 1.968620 
# 
# From -- ./inp_files/8877.got.cif
#   From: 2010.05.17/outbox.cif.g08.bks.cpg/sg33_5_cif.got.tgz:8877.got - 2010.06.03 17:15:25.
