data_PCOD9344583
_publ_section_title
;
Structure prediction by ZEFSAII (Michael W. Deem and Ramdas Pophale) SiO2 
 PCOD9344583
Probable space group: P N A 21
;
_chemical_formula_sum "Si O2"
_cell_formula_units_Z 32
_cell_length_a 21.343510
_cell_length_b 12.795719
_cell_length_c 5.013273
_cell_angle_alpha 90.000000
_cell_angle_beta 90.000000
_cell_angle_gamma 90.000000
_cell_volume 1369.152712
_symmetry_space_group_name_H-M "P N A 21"
_symmetry_group_IT_number 33
_symmetry_cell_setting 'orthorhombic'
loop_
_space_group_symop_operation_xyz
x,y,z
-x,-y,1/2+z
1/2-x,1/2+y,1/2+z
1/2+x,1/2-y,z
loop_
_atom_site_type_symbol
_atom_site_label
_atom_site_fract_x
_atom_site_fract_y
_atom_site_fract_z
Si Si1 0.787091 0.685234 0.720590
Si Si2 0.249104 0.085698 0.113318
Si Si3 0.005571 0.763763 0.842016
Si Si4 0.083961 0.818160 0.345551
Si Si5 0.211922 0.862671 0.220354
Si Si6 0.462414 0.526306 0.730038
Si Si7 0.335732 0.034704 0.617984
Si Si8 0.519798 0.947711 0.044559
O O1 0.789911 0.807276 0.641746
O O2 0.730893 0.643308 0.529793
O O3 0.836655 0.592640 0.662470
O O4 0.766155 0.681290 0.028592
O O5 0.298921 0.067253 0.351690
O O6 0.206439 0.982061 0.122273
O O7 0.292460 0.079987 0.852842
O O8 0.062280 0.773703 0.627733
O O9 0.987222 0.645223 0.878206
O O10 0.954819 0.849875 0.756625
O O11 0.029991 0.792174 0.136177
O O12 0.149693 0.793856 0.210292
O O13 0.085473 0.944894 0.357223
O O14 0.477434 0.498071 0.424024
O O15 0.407317 0.072194 0.607411
O O16 0.514595 0.038230 0.824353
#
# Coordination Sequence:
#
# PCOD9344583 Si02
#       8
#     4   4   4   4   4   4   4   4
#     4  10  21  38  60  88 127 156 195 246 309 371
#     4  10  21  39  62  90 122 160 196 244 316 371
#     4  10  21  36  60  84 113 160 201 248 305 351
#     4  10  19  34  58  90 115 146 192 246 310 365
#     4  10  21  34  56  93 118 146 198 249 286 378
#     4   8  16  32  52  78 116 145 183 238 295 354
#     4  10  23  41  64  90 123 164 203 261 309 357
#     4  12  26  44  62  89 122 163 222 262 294 365
#
# _framework density 23.372116999999999
#
# number of rings (size 3 to 8) (size 9 to 14) (size 15 to 20)
#    0.000    2.000    0.000    3.000    5.250    0.000 
#    2.250    0.000    5.500    0.000    0.000    0.000 
#    0.000    0.000    0.000    0.000    0.000    0.000 
#
# Total GULP energy -178457.585099 kJ/mol
# GULP energy per Si atom -5576.799534 kJ/mol
# Density = 2.331892 g / cm^3
# Si number density = 23.372117 Si / 1000 Ang^3
#
#
#
# Elastic Constant Matrix: (Units=GPa)
#
#
# Indices 1 2 3 4 5 6 
#
# 1 22.0006 9.8313 -1.2606 0.0000 0.0000 0.0000
# 2 9.8313 104.6833 9.9695 0.0000 0.0000 0.0000
# 3 -1.2606 9.9695 120.2319 0.0000 0.0000 0.0000
# 4 0.0000 0.0000 0.0000 27.6394 0.0000 0.0000
# 5 0.0000 0.0000 0.0000 0.0000 16.0608 0.0000
# 6 0.0000 0.0000 0.0000 0.0000 0.0000 11.8425
#
#
#
# Elastic Compliance Matrix: (Units=1/GPa)
#
#
# Indices 1 2 3 4 5 6 
#
# 1 0.047536 -0.004548 0.000876 0.000000 0.000000 0.000000
# 2 -0.004548 0.010064 -0.000882 0.000000 0.000000 0.000000
# 3 0.000876 -0.000882 0.008400 0.000000 0.000000 0.000000
# 4 0.000000 0.000000 0.000000 0.036180 0.000000 0.000000
# 5 0.000000 0.000000 0.000000 0.000000 0.062263 0.000000
# 6 0.000000 0.000000 0.000000 0.000000 0.000000 0.084441
#
#
# Mechanical properties :
#
#
# Convention : Reuss Voigt Hill
#
# Bulk Modulus (GPa) = 17.57766 31.55511 24.56639
# Shear Modulus (GPa) = 18.05341 26.33360 22.19351
#
# Velocity S-wave (km/s) = 2.78228 3.36029 3.08486
# Velocity P-wave (km/s) = 4.22594 5.34658 4.81895
#
# Compressibility (1/GPa) = 0.05689038
#
# Stress axis : x y z
#
# Youngs Moduli (GPa) = 21.03681 99.36678 119.05343
#
# Poissons Ratio (x) = 0.45189 -0.10423
# Poissons Ratio (y) = 0.09567 0.10502
# Poissons Ratio (z) = -0.01842 0.08766
#
# Static dielectric constant tensor:
#      x y z
#    x 1.875760 0.000000 0.000000 
#    y 0.000000 2.098910 0.000000 
#    z 0.000000 0.000000 1.809740 
# 
# From -- ./inp_files/2300.got.cif
#   From: 2010.05.17/outbox.cif.g08.bks.cpg/sg33_2_cif.got.tgz:2300.got - 2010.06.03 17:15:25.
