data_PCOD9344103
_publ_section_title
;
Structure prediction by ZEFSAII (Michael W. Deem and Ramdas Pophale) SiO2 
 PCOD9344103
Probable space group: P B A 2
;
_chemical_formula_sum "Si O2"
_cell_formula_units_Z 30
_cell_length_a 5.203780
_cell_length_b 33.199887
_cell_length_c 7.536362
_cell_angle_alpha 90.000000
_cell_angle_beta 90.000000
_cell_angle_gamma 90.000000
_cell_volume 1302.018887
_symmetry_space_group_name_H-M "P B A 2"
_symmetry_group_IT_number 32
_symmetry_cell_setting 'orthorhombic'
loop_
_space_group_symop_operation_xyz
x,y,z
-x,-y,z
1/2-x,1/2+y,z
1/2+x,1/2-y,z
loop_
_atom_site_type_symbol
_atom_site_label
_atom_site_fract_x
_atom_site_fract_y
_atom_site_fract_z
Si Si1 0.248777 0.486192 0.650330
Si Si2 0.918241 0.771250 0.658814
Si Si3 0.125523 0.415693 0.164956
Si Si4 0.213154 0.642721 0.650799
Si Si5 0.126373 0.132961 0.060960
Si Si6 0.921815 0.774487 0.091690
Si Si7 0.500000 0.000000 0.985934
Si Si8 0.709595 0.599124 0.559618
O O1 0.500000 0.500000 0.553087
O O2 0.251429 0.439132 0.686406
O O3 0.000000 0.500000 0.545667
O O4 0.221443 0.509572 0.838315
O O5 0.709515 0.737661 0.605231
O O6 0.799659 0.812962 0.594790
O O7 0.921742 0.772882 0.874889
O O8 0.213798 0.416636 0.367566
O O9 0.358798 0.391501 0.068940
O O10 0.860047 0.390729 0.152292
O O11 0.074998 0.460397 0.091764
O O12 0.276956 0.638267 0.858963
O O13 0.415829 0.612710 0.560130
O O14 0.916927 0.632738 0.614515
O O15 0.084546 0.178159 0.137192
O O16 0.672897 0.749671 0.152050
#
# Coordination Sequence:
#
# PCOD9344103 Si02
#       8
#     4   4   4   4   4   4   2   4
#     4  10  23  41  67  92 119 158 204 269 300 380
#     4   9  17  31  56  93 123 153 206 269 308 350
#     4  12  27  42  64  94 135 168 209 266 321 378
#     4  11  22  40  68  92 126 171 215 257 314 379
#     4  11  23  42  66  97 128 169 216 267 314 375
#     4   9  17  32  60  93 124 156 207 265 316 362
#     4  10  26  42  70  92 126 160 222 260 324 364
#     4  12  25  43  63  94 129 169 207 258 322 382
#
# _framework density 23.041139000000001
#
# number of rings (size 3 to 8) (size 9 to 14) (size 15 to 20)
#    0.400    1.067    0.000    5.600    4.667    4.267 
#    0.000    0.000    0.000   16.000    0.000    0.000 
#    0.000    0.000    0.000    0.000    0.000    0.000 
#
# Total GULP energy -167665.503498 kJ/mol
# GULP energy per Si atom -5588.850117 kJ/mol
# Density = 2.298870 g / cm^3
# Si number density = 23.041139 Si / 1000 Ang^3
#
#
#
# Elastic Constant Matrix: (Units=GPa)
#
#
# Indices 1 2 3 4 5 6 
#
# 1 115.3199 10.9667 -11.9636 0.0000 0.0000 0.0000
# 2 10.9667 86.9437 -0.8027 0.0000 0.0000 0.0000
# 3 -11.9636 -0.8027 58.3029 0.0000 0.0000 0.0000
# 4 0.0000 0.0000 0.0000 -10.0558 0.0000 0.0000
# 5 0.0000 0.0000 0.0000 0.0000 18.6954 0.0000
# 6 0.0000 0.0000 0.0000 0.0000 0.0000 36.5304
#
#
#
# Elastic Compliance Matrix: (Units=1/GPa)
#
#
# Indices 1 2 3 4 5 6 
#
# 1 0.008967 -0.001114 0.001825 0.000000 0.000000 0.000000
# 2 -0.001114 0.011642 -0.000068 0.000000 0.000000 0.000000
# 3 0.001825 -0.000068 0.017525 0.000000 0.000000 0.000000
# 4 0.000000 0.000000 0.000000 -0.099445 0.000000 0.000000
# 5 0.000000 0.000000 0.000000 0.000000 0.053489 0.000000
# 6 0.000000 0.000000 0.000000 0.000000 0.000000 0.027374
#
#
# Mechanical properties :
#
#
# Convention : Reuss Voigt Hill
#
# Bulk Modulus (GPa) = 25.36921 28.55191 26.96056
# Shear Modulus (GPa) = 159.20068 26.52508 92.86288
#
# Velocity S-wave (km/s) = 8.32130 3.39662 6.35536
# Velocity P-wave (km/s) = 10.16660 5.27270 8.09818
#
# Compressibility (1/GPa) = 0.03941786
#
# Stress axis : x y z
#
# Youngs Moduli (GPa) = 111.52272 85.89886 57.06040
#
# Poissons Ratio (x) = 0.09571 -0.10411
# Poissons Ratio (y) = 0.12426 0.00390
# Poissons Ratio (z) = -0.20349 0.00587
#
# Static dielectric constant tensor:
#      x y z
#    x 1.869870 0.000000 0.000000 
#    y 0.000000 1.868720 0.000000 
#    z 0.000000 0.000000 1.891560 
# 
# From -- ./inp_files/2056.got.cif
#   From: 2010.05.17/outbox.cif.g08.bks.cpg/sg32_2_cif.got.tgz:2056.got - 2010.06.03 17:12:27.
