data_PCOD9344359
_publ_section_title
;
Structure prediction by ZEFSAII (Michael W. Deem and Ramdas Pophale) SiO2 
 PCOD9344359
Probable space group: P N A 21
;
_chemical_formula_sum "Si O2"
_cell_formula_units_Z 32
_cell_length_a 16.711588
_cell_length_b 11.401571
_cell_length_c 8.886516
_cell_angle_alpha 90.000000
_cell_angle_beta 90.000000
_cell_angle_gamma 90.000000
_cell_volume 1693.222159
_symmetry_space_group_name_H-M "P N A 21"
_symmetry_group_IT_number 33
_symmetry_cell_setting 'orthorhombic'
loop_
_space_group_symop_operation_xyz
x,y,z
-x,-y,1/2+z
1/2-x,1/2+y,1/2+z
1/2+x,1/2-y,z
loop_
_atom_site_type_symbol
_atom_site_label
_atom_site_fract_x
_atom_site_fract_y
_atom_site_fract_z
Si Si1 0.342864 0.435114 0.059310
Si Si2 0.094953 0.779419 0.120939
Si Si3 0.702250 0.777027 0.388030
Si Si4 0.645977 0.356505 0.766343
Si Si5 0.442765 0.292957 0.283657
Si Si6 0.024689 0.972306 0.310026
Si Si7 0.451916 0.099652 0.043199
Si Si8 0.050836 0.373706 0.747143
O O1 0.326994 0.565120 0.122145
O O2 0.370405 0.359780 0.201659
O O3 0.283993 0.349067 0.968821
O O4 0.420346 0.441576 0.951155
O O5 0.173533 0.750107 0.217091
O O6 0.066884 0.911357 0.166294
O O7 0.025510 0.698158 0.187769
O O8 0.091412 0.757707 0.944865
O O9 0.781259 0.854698 0.382487
O O10 0.628239 0.845177 0.466794
O O11 0.563240 0.415005 0.822250
O O12 0.622492 0.220623 0.741727
O O13 0.512025 0.389642 0.301665
O O14 0.473425 0.191259 0.175164
O O15 0.435249 0.979887 0.132379
O O16 0.521144 0.089485 0.915536
#
# Coordination Sequence:
#
# PCOD9344359 Si02
#       8
#     4   4   4   4   4   4   4   4
#     4   9  19  35  58  83 114 146 189 245 286 334
#     4   9  18  32  55  80 112 144 187 233 292 333
#     4   9  20  39  54  79 119 157 185 241 296 343
#     4  10  19  36  60  83 116 151 194 239 295 347
#     4  10  16  29  55  81 109 138 184 237 284 336
#     4   9  17  32  58  86 106 144 193 242 282 338
#     4  10  21  37  57  80 119 149 195 239 292 344
#     4  10  20  36  57  82 107 155 189 238 279 359
#
# _framework density 18.898878
#
# number of rings (size 3 to 8) (size 9 to 14) (size 15 to 20)
#    0.000    2.500    0.000    5.250    0.000    1.000 
#   11.250    0.000    0.000    3.000    0.000    0.000 
#    0.000    0.000    0.000    0.000    0.000    0.000 
#
# Total GULP energy -178162.030130 kJ/mol
# GULP energy per Si atom -5567.563442 kJ/mol
# Density = 1.885586 g / cm^3
# Si number density = 18.898878 Si / 1000 Ang^3
#
#
#
# Elastic Constant Matrix: (Units=GPa)
#
#
# Indices 1 2 3 4 5 6 
#
# 1 39.6800 6.5656 9.0593 0.0000 0.0000 0.0000
# 2 6.5656 89.0151 28.0483 0.0000 0.0000 0.0000
# 3 9.0593 28.0483 114.2994 0.0000 0.0000 0.0000
# 4 0.0000 0.0000 0.0000 31.6615 0.0000 0.0000
# 5 0.0000 0.0000 0.0000 0.0000 8.2106 0.0000
# 6 0.0000 0.0000 0.0000 0.0000 0.0000 10.4929
#
#
#
# Elastic Compliance Matrix: (Units=1/GPa)
#
#
# Indices 1 2 3 4 5 6 
#
# 1 0.025818 -0.001365 -0.001711 0.000000 0.000000 0.000000
# 2 -0.001365 0.012248 -0.002897 0.000000 0.000000 0.000000
# 3 -0.001711 -0.002897 0.009596 0.000000 0.000000 0.000000
# 4 0.000000 0.000000 0.000000 0.031584 0.000000 0.000000
# 5 0.000000 0.000000 0.000000 0.000000 0.121794 0.000000
# 6 0.000000 0.000000 0.000000 0.000000 0.000000 0.095303
#
#
# Mechanical properties :
#
#
# Convention : Reuss Voigt Hill
#
# Bulk Modulus (GPa) = 28.00023 36.70454 32.35239
# Shear Modulus (GPa) = 15.61554 23.36110 19.48832
#
# Velocity S-wave (km/s) = 2.87761 3.51965 3.21470
# Velocity P-wave (km/s) = 5.08810 5.99841 5.56191
#
# Compressibility (1/GPa) = 0.03571399
#
# Stress axis : x y z
#
# Youngs Moduli (GPa) = 38.73241 81.64828 104.21479
#
# Poissons Ratio (x) = 0.11145 0.17835
# Poissons Ratio (y) = 0.05287 0.30194
# Poissons Ratio (z) = 0.06628 0.23656
#
# Static dielectric constant tensor:
#      x y z
#    x 1.661690 0.000000 0.000000 
#    y 0.000000 1.727700 0.000000 
#    z 0.000000 0.000000 1.688150 
# 
# From -- ./inp_files/4839.got.cif
#   From: 2010.05.17/outbox.cif.g08.bks.cpg/sg33_3_cif.got.tgz:4839.got - 2010.06.03 17:15:25.
