data_PCOD9344749
_publ_section_title
;
Structure prediction by ZEFSAII (Michael W. Deem and Ramdas Pophale) SiO2 
 PCOD9344749
Probable space group: P N A 21
;
_chemical_formula_sum "Si O2"
_cell_formula_units_Z 32
_cell_length_a 5.304904
_cell_length_b 14.506107
_cell_length_c 15.604264
_cell_angle_alpha 90.000000
_cell_angle_beta 90.000000
_cell_angle_gamma 90.000000
_cell_volume 1200.802809
_symmetry_space_group_name_H-M "P N A 21"
_symmetry_group_IT_number 33
_symmetry_cell_setting 'orthorhombic'
loop_
_space_group_symop_operation_xyz
x,y,z
-x,-y,1/2+z
1/2-x,1/2+y,1/2+z
1/2+x,1/2-y,z
loop_
_atom_site_type_symbol
_atom_site_label
_atom_site_fract_x
_atom_site_fract_y
_atom_site_fract_z
Si Si1 0.849714 0.975499 0.097770
Si Si2 0.987162 0.417667 0.764267
Si Si3 0.392739 0.635685 0.686562
Si Si4 0.401856 0.796531 0.944016
Si Si5 0.150918 0.812317 0.162232
Si Si6 0.533968 0.998684 0.446054
Si Si7 0.272714 0.192147 0.911724
Si Si8 0.613981 0.166956 0.250219
O O1 0.991385 0.071877 0.114839
O O2 0.385077 0.107499 0.214128
O O3 0.659423 0.948285 0.177529
O O4 0.697356 0.989162 0.010655
O O5 0.260998 0.374034 0.744423
O O6 0.026130 0.486408 0.844989
O O7 0.814585 0.339624 0.812442
O O8 0.361838 0.746623 0.683932
O O9 0.945646 0.710362 0.841543
O O10 0.614152 0.620591 0.756476
O O11 0.175860 0.733351 0.977602
O O12 0.334053 0.903098 0.953660
O O13 0.555497 0.605005 0.101631
O O14 0.418544 0.758834 0.153636
O O15 0.677342 0.902792 0.463196
O O16 0.504875 0.261697 0.928990
#
# Coordination Sequence:
#
# PCOD9344749 Si02
#       8
#     4   4   4   4   4   4   4   4
#     4  12  27  49  76 122 157 210 269 334 406 489
#     4  10  25  47  82 110 165 208 271 338 407 477
#     4  10  21  37  67  99 143 184 240 304 367 458
#     4  12  23  44  71 104 154 198 250 310 390 479
#     4  12  26  48  81 114 152 211 277 340 407 476
#     4  10  29  50  76 123 161 216 267 342 409 491
#     4  10  24  49  79 113 153 212 271 336 401 472
#     4  10  19  40  66 103 139 187 247 294 377 470
#
# _framework density 26.648837
#
# number of rings (size 3 to 8) (size 9 to 14) (size 15 to 20)
#    0.750    0.500    3.750    1.500    5.250    2.000 
#    9.000    0.000    0.000    0.000    0.000    0.000 
#    0.000    0.000    0.000    0.000    0.000    0.000 
#
# Total GULP energy -178629.590536 kJ/mol
# GULP energy per Si atom -5582.174704 kJ/mol
# Density = 2.658818 g / cm^3
# Si number density = 26.648837 Si / 1000 Ang^3
#
#
#
# Elastic Constant Matrix: (Units=GPa)
#
#
# Indices 1 2 3 4 5 6 
#
# 1 157.7696 45.8805 52.5885 0.0000 0.0000 0.0000
# 2 45.8805 135.8103 52.2653 0.0000 0.0000 0.0000
# 3 52.5885 52.2653 107.0959 0.0000 0.0000 0.0000
# 4 0.0000 0.0000 0.0000 7.0820 0.0000 0.0000
# 5 0.0000 0.0000 0.0000 0.0000 37.0854 0.0000
# 6 0.0000 0.0000 0.0000 0.0000 0.0000 -27.9398
#
#
#
# Elastic Compliance Matrix: (Units=1/GPa)
#
#
# Indices 1 2 3 4 5 6 
#
# 1 0.007798 -0.001429 -0.003132 0.000000 0.000000 0.000000
# 2 -0.001429 0.009328 -0.003850 0.000000 0.000000 0.000000
# 3 -0.003132 -0.003850 0.012754 0.000000 0.000000 0.000000
# 4 0.000000 0.000000 0.000000 0.141202 0.000000 0.000000
# 5 0.000000 0.000000 0.000000 0.000000 0.026965 0.000000
# 6 0.000000 0.000000 0.000000 0.000000 0.000000 -0.035791
#
#
# Mechanical properties :
#
#
# Convention : Reuss Voigt Hill
#
# Bulk Modulus (GPa) = 76.58397 78.01606 77.30001
# Shear Modulus (GPa) = 27.25829 19.90829 23.58329
#
# Velocity S-wave (km/s) = 3.20170 2.73621 2.97806
# Velocity P-wave (km/s) = 6.51678 6.27069 6.39492
#
# Compressibility (1/GPa) = 0.01305756
#
# Stress axis : x y z
#
# Youngs Moduli (GPa) = 128.24132 107.20621 78.40516
#
# Poissons Ratio (x) = 0.15321 0.24553
# Poissons Ratio (y) = 0.18328 0.30189
# Poissons Ratio (z) = 0.40160 0.41279
#
# Static dielectric constant tensor:
#      x y z
#    x 2.076690 0.000000 0.000000 
#    y 0.000000 2.238740 0.000000 
#    z 0.000000 0.000000 2.132160 
# 
# From -- ./inp_files/8372.got.cif
#   From: 2010.05.17/outbox.cif.g08.bks.cpg/sg33_5_cif.got.tgz:8372.got - 2010.06.03 17:15:25.
