data_PCOD9344766
_publ_section_title
;
Structure prediction by ZEFSAII (Michael W. Deem and Ramdas Pophale) SiO2 
 PCOD9344766
Probable space group: P N A 21
;
_chemical_formula_sum "Si O2"
_cell_formula_units_Z 24
_cell_length_a 12.679840
_cell_length_b 7.738303
_cell_length_c 12.063786
_cell_angle_alpha 90.000000
_cell_angle_beta 90.000000
_cell_angle_gamma 90.000000
_cell_volume 1183.704038
_symmetry_space_group_name_H-M "P N A 21"
_symmetry_group_IT_number 33
_symmetry_cell_setting 'orthorhombic'
loop_
_space_group_symop_operation_xyz
x,y,z
-x,-y,1/2+z
1/2-x,1/2+y,1/2+z
1/2+x,1/2-y,z
loop_
_atom_site_type_symbol
_atom_site_label
_atom_site_fract_x
_atom_site_fract_y
_atom_site_fract_z
Si Si1 0.894637 0.191068 0.395030
Si Si2 0.507793 0.717499 0.661393
Si Si3 0.795853 0.676474 0.030519
Si Si4 0.025637 0.578419 0.084675
Si Si5 0.374872 0.376658 0.716761
Si Si6 0.599350 0.531315 0.459609
O O1 0.918589 0.238988 0.269279
O O2 0.779916 0.121286 0.428792
O O3 0.911941 0.354316 0.476903
O O4 0.985483 0.054320 0.428802
O O5 0.428064 0.559637 0.685070
O O6 0.578244 0.663698 0.557282
O O7 0.446663 0.892695 0.632742
O O8 0.904079 0.575770 0.047660
O O9 0.727531 0.656109 0.141895
O O10 0.831211 0.872481 0.004013
O O11 0.045243 0.725638 0.177500
O O12 0.356614 0.384568 0.847672
#
# Coordination Sequence:
#
# PCOD9344766 Si02
#       6
#     4   4   4   4   4   4
#     4   9  21  41  63  86 132 161 208 276 310 377
#     4  11  21  41  64  91 123 173 210 260 330 377
#     4  10  19  43  61  91 126 170 212 272 313 385
#     4  10  22  40  64  91 128 165 213 262 323 383
#     4  10  22  44  64  90 138 166 206 282 317 383
#     4  10  21  41  66  91 129 171 213 264 335 375
#
# _framework density 20.275338000000001
#
# number of rings (size 3 to 8) (size 9 to 14) (size 15 to 20)
#    0.000    2.000    5.000    0.000    4.667    0.000 
#    9.000    0.000    0.000    0.000    0.000    0.000 
#    0.000    0.000    0.000    0.000    0.000    0.000 
#
# Total GULP energy -133936.677579 kJ/mol
# GULP energy per Si atom -5580.694899 kJ/mol
# Density = 2.022919 g / cm^3
# Si number density = 20.275338 Si / 1000 Ang^3
#
#
#
# Elastic Constant Matrix: (Units=GPa)
#
#
# Indices 1 2 3 4 5 6 
#
# 1 66.3276 11.2208 -3.1934 0.0000 0.0000 0.0000
# 2 11.2208 112.4386 50.7266 0.0000 0.0000 0.0000
# 3 -3.1934 50.7266 146.2474 0.0000 0.0000 0.0000
# 4 0.0000 0.0000 0.0000 22.2038 0.0000 0.0000
# 5 0.0000 0.0000 0.0000 0.0000 12.0777 0.0000
# 6 0.0000 0.0000 0.0000 0.0000 0.0000 -1.3961
#
#
#
# Elastic Compliance Matrix: (Units=1/GPa)
#
#
# Indices 1 2 3 4 5 6 
#
# 1 0.015467 -0.002010 0.001035 0.000000 0.000000 0.000000
# 2 -0.002010 0.010805 -0.003792 0.000000 0.000000 0.000000
# 3 0.001035 -0.003792 0.008175 0.000000 0.000000 0.000000
# 4 0.000000 0.000000 0.000000 0.045037 0.000000 0.000000
# 5 0.000000 0.000000 0.000000 0.000000 0.082798 0.000000
# 6 0.000000 0.000000 0.000000 0.000000 0.000000 -0.716305
#
#
# Mechanical properties :
#
#
# Convention : Reuss Voigt Hill
#
# Bulk Modulus (GPa) = 40.13974 49.16910 44.65442
# Shear Modulus (GPa) = -9.32516 24.32771 7.50128
#
# Velocity S-wave (km/s) = -2.14692 3.46767 1.92555
# Velocity P-wave (km/s) = 3.70063 6.35109 5.19764
#
# Compressibility (1/GPa) = 0.02491297
#
# Stress axis : x y z
#
# Youngs Moduli (GPa) = 64.65532 92.54990 122.31694
#
# Poissons Ratio (x) = 0.18607 -0.12661
# Poissons Ratio (y) = 0.12999 0.46378
# Poissons Ratio (z) = -0.06692 0.35092
#
# Static dielectric constant tensor:
#      x y z
#    x 1.744550 0.000000 0.000000 
#    y 0.000000 1.730780 0.000000 
#    z 0.000000 0.000000 1.723370 
# 
# From -- ./inp_files/6272.got.cif
#   From: 2010.05.17/outbox.cif.g08.bks.cpg/sg33_4_cif.got.tgz:6272.got - 2010.06.03 17:15:25.
