data_PCOD9344994
_publ_section_title
;
Structure prediction by ZEFSAII (Michael W. Deem and Ramdas Pophale) SiO2 
 PCOD9344994
Probable space group: P N A 21
;
_chemical_formula_sum "Si O2"
_cell_formula_units_Z 24
_cell_length_a 10.028526
_cell_length_b 8.442563
_cell_length_c 12.185407
_cell_angle_alpha 90.000000
_cell_angle_beta 90.000000
_cell_angle_gamma 90.000000
_cell_volume 1031.695305
_symmetry_space_group_name_H-M "P N A 21"
_symmetry_group_IT_number 33
_symmetry_cell_setting 'orthorhombic'
loop_
_space_group_symop_operation_xyz
x,y,z
-x,-y,1/2+z
1/2-x,1/2+y,1/2+z
1/2+x,1/2-y,z
loop_
_atom_site_type_symbol
_atom_site_label
_atom_site_fract_x
_atom_site_fract_y
_atom_site_fract_z
Si Si1 0.057501 0.271363 0.467550
Si Si2 0.356943 0.340967 0.099005
Si Si3 0.560981 0.263247 0.905113
Si Si4 0.528381 0.600483 0.182405
Si Si5 0.756094 0.466581 0.051157
Si Si6 0.208990 0.553211 0.931981
O O1 0.132150 0.436403 0.487529
O O2 0.152926 0.145977 0.403352
O O3 0.046101 0.199728 0.589014
O O4 0.907716 0.314920 0.431473
O O5 0.449806 0.272156 0.000631
O O6 0.249748 0.464413 0.047794
O O7 0.451913 0.432128 0.181641
O O8 0.290460 0.178205 0.133372
O O9 0.485132 0.319730 0.797909
O O10 0.640013 0.101090 0.877433
O O11 0.666036 0.388493 0.955405
O O12 0.672871 0.581568 0.129641
#
# Coordination Sequence:
#
# PCOD9344994 Si02
#       6
#     4   4   4   4   4   4
#     4  11  20  40  65  93 131 175 221 271 336 405
#     4   9  20  40  66  93 136 176 217 275 347 401
#     4  10  21  41  66  97 129 178 226 277 332 409
#     4  10  22  39  66  98 128 174 229 271 335 409
#     4  10  20  38  65  91 135 173 212 281 338 398
#     4  10  21  38  66  94 129 178 219 267 338 400
#
# _framework density 23.262682999999999
#
# number of rings (size 3 to 8) (size 9 to 14) (size 15 to 20)
#    0.000    2.000    3.333    0.000    0.000    2.667 
#    0.000    6.667    0.000    0.000    0.000    0.000 
#    0.000    0.000    0.000    0.000    0.000    0.000 
#
# Total GULP energy -133777.802859 kJ/mol
# GULP energy per Si atom -5574.075119 kJ/mol
# Density = 2.320974 g / cm^3
# Si number density = 23.262683 Si / 1000 Ang^3
#
#
#
# Elastic Constant Matrix: (Units=GPa)
#
#
# Indices 1 2 3 4 5 6 
#
# 1 102.3309 34.8074 6.2890 0.0000 0.0000 0.0000
# 2 34.8074 91.2379 18.7610 0.0000 0.0000 0.0000
# 3 6.2890 18.7610 27.8133 0.0000 0.0000 0.0000
# 4 0.0000 0.0000 0.0000 4.1906 0.0000 0.0000
# 5 0.0000 0.0000 0.0000 0.0000 10.1950 0.0000
# 6 0.0000 0.0000 0.0000 0.0000 0.0000 51.3316
#
#
#
# Elastic Compliance Matrix: (Units=1/GPa)
#
#
# Indices 1 2 3 4 5 6 
#
# 1 0.011233 -0.004369 0.000407 0.000000 0.000000 0.000000
# 2 -0.004369 0.014425 -0.008742 0.000000 0.000000 0.000000
# 3 0.000407 -0.008742 0.041759 0.000000 0.000000 0.000000
# 4 0.000000 0.000000 0.000000 0.238630 0.000000 0.000000
# 5 0.000000 0.000000 0.000000 0.000000 0.098087 0.000000
# 6 0.000000 0.000000 0.000000 0.000000 0.000000 0.019481
#
#
# Mechanical properties :
#
#
# Convention : Reuss Voigt Hill
#
# Bulk Modulus (GPa) = 23.80460 37.89965 30.85212
# Shear Modulus (GPa) = 10.79850 23.91174 17.35512
#
# Velocity S-wave (km/s) = 2.15686 3.20957 2.73435
# Velocity P-wave (km/s) = 4.05684 5.48293 4.82288
#
# Compressibility (1/GPa) = 0.04200869
#
# Stress axis : x y z
#
# Youngs Moduli (GPa) = 89.02038 69.32477 23.94702
#
# Poissons Ratio (x) = 0.30290 -0.00975
# Poissons Ratio (y) = 0.38895 0.20935
# Poissons Ratio (z) = -0.03625 0.60604
#
# Static dielectric constant tensor:
#      x y z
#    x 1.976920 0.000000 0.000000 
#    y 0.000000 1.956460 0.000000 
#    z 0.000000 0.000000 1.854760 
# 
# From -- ./inp_files/6305.got.cif
#   From: 2010.05.17/outbox.cif.g08.bks.cpg/sg33_4_cif.got.tgz:6305.got - 2010.06.03 17:15:25.
