data_PCOD9344076
_publ_section_title
;
Structure prediction by ZEFSAII (Michael W. Deem and Ramdas Pophale) SiO2 
 PCOD9344076
Probable space group: P B A 2
;
_chemical_formula_sum "Si O2"
_cell_formula_units_Z 24
_cell_length_a 8.211874
_cell_length_b 14.717292
_cell_length_c 8.428443
_cell_angle_alpha 90.000000
_cell_angle_beta 90.000000
_cell_angle_gamma 90.000000
_cell_volume 1018.632522
_symmetry_space_group_name_H-M "P B A 2"
_symmetry_group_IT_number 32
_symmetry_cell_setting 'orthorhombic'
loop_
_space_group_symop_operation_xyz
x,y,z
-x,-y,z
1/2-x,1/2+y,z
1/2+x,1/2-y,z
loop_
_atom_site_type_symbol
_atom_site_label
_atom_site_fract_x
_atom_site_fract_y
_atom_site_fract_z
Si Si1 0.500000 0.000000 0.843241
Si Si2 0.378044 0.816849 0.770672
Si Si3 0.608610 0.784196 0.248435
Si Si4 0.000000 0.000000 0.355815
Si Si5 0.877047 0.809336 0.466634
Si Si6 0.938064 0.174244 0.963050
Si Si7 0.772031 0.950032 0.081202
O O1 0.519733 0.091638 0.743249
O O2 0.340387 0.999450 0.955377
O O3 0.387398 0.745961 0.627310
O O4 0.459871 0.763219 0.915563
O O5 0.193401 0.838512 0.824132
O O6 0.689880 0.811440 0.416877
O O7 0.437107 0.749188 0.314428
O O8 0.652437 0.872321 0.147330
O O9 0.648485 0.701131 0.127898
O O10 0.031653 0.093036 0.454863
O O11 0.154048 0.998520 0.234231
O O12 0.072132 0.096727 0.995077
#
# Coordination Sequence:
#
# PCOD9344076 Si02
#       7
#     2   4   4   2   4   4   4
#     4  12  26  42  72 114 148 190 258 314 368 456
#     4  12  25  44  68 105 153 194 245 306 387 451
#     4  11  20  42  71 100 136 190 248 289 372 439
#     4  10  22  44  70 106 148 188 254 306 386 450
#     4  11  25  42  70 105 147 194 237 309 379 451
#     4  12  21  45  74 100 143 200 244 306 377 449
#     4  11  23  40  76 112 138 189 255 319 368 438
#
# _framework density 23.560998999999999
#
# number of rings (size 3 to 8) (size 9 to 14) (size 15 to 20)
#    0.000    0.667    6.667    2.000    0.000    0.000 
#    0.000   15.000    0.000    0.000    0.000    0.000 
#    0.000    0.000    0.000    0.000    0.000    0.000 
#
# Total GULP energy -133824.480344 kJ/mol
# GULP energy per Si atom -5576.020014 kJ/mol
# Density = 2.350737 g / cm^3
# Si number density = 23.560999 Si / 1000 Ang^3
#
#
#
# Elastic Constant Matrix: (Units=GPa)
#
#
# Indices 1 2 3 4 5 6 
#
# 1 69.3968 41.5444 43.7271 0.0000 0.0000 0.0000
# 2 41.5444 131.2638 55.6566 0.0000 0.0000 0.0000
# 3 43.7271 55.6566 110.4295 0.0000 0.0000 0.0000
# 4 0.0000 0.0000 0.0000 34.0268 0.0000 0.0000
# 5 0.0000 0.0000 0.0000 0.0000 20.8477 0.0000
# 6 0.0000 0.0000 0.0000 0.0000 0.0000 34.1058
#
#
#
# Elastic Compliance Matrix: (Units=1/GPa)
#
#
# Indices 1 2 3 4 5 6 
#
# 1 0.020663 -0.003905 -0.006214 0.000000 0.000000 0.000000
# 2 -0.003905 0.010427 -0.003709 0.000000 0.000000 0.000000
# 3 -0.006214 -0.003709 0.013385 0.000000 0.000000 0.000000
# 4 0.000000 0.000000 0.000000 0.029389 0.000000 0.000000
# 5 0.000000 0.000000 0.000000 0.000000 0.047967 0.000000
# 6 0.000000 0.000000 0.000000 0.000000 0.000000 0.029321
#
#
# Mechanical properties :
#
#
# Convention : Reuss Voigt Hill
#
# Bulk Modulus (GPa) = 59.45421 65.88293 62.66857
# Shear Modulus (GPa) = 27.11308 29.14020 28.12664
#
# Velocity S-wave (km/s) = 3.39597 3.52063 3.45886
# Velocity P-wave (km/s) = 6.37697 6.67457 6.52746
#
# Compressibility (1/GPa) = 0.01681967
#
# Stress axis : x y z
#
# Youngs Moduli (GPa) = 48.39571 95.90748 74.70885
#
# Poissons Ratio (x) = 0.37452 0.46423
# Poissons Ratio (y) = 0.18899 0.27708
# Poissons Ratio (z) = 0.30072 0.35570
#
# Static dielectric constant tensor:
#      x y z
#    x 1.994660 0.000000 0.000000 
#    y 0.000000 1.930080 0.000000 
#    z 0.000000 0.000000 1.914140 
# 
# From -- ./inp_files/2335.got.cif
#   From: 2010.05.17/outbox.cif.g08.bks.cpg/sg32_2_cif.got.tgz:2335.got - 2010.06.03 17:12:27.
