data_PCOD9344153
_publ_section_title
;
Structure prediction by ZEFSAII (Michael W. Deem and Ramdas Pophale) SiO2 
 PCOD9344153
Probable space group: P B A 2
;
_chemical_formula_sum "Si O2"
_cell_formula_units_Z 20
_cell_length_a 29.123908
_cell_length_b 5.520973
_cell_length_c 4.756093
_cell_angle_alpha 90.000000
_cell_angle_beta 90.000000
_cell_angle_gamma 90.000000
_cell_volume 764.743179
_symmetry_space_group_name_H-M "P B A 2"
_symmetry_group_IT_number 32
_symmetry_cell_setting 'orthorhombic'
loop_
_space_group_symop_operation_xyz
x,y,z
-x,-y,z
1/2-x,1/2+y,z
1/2+x,1/2-y,z
loop_
_atom_site_type_symbol
_atom_site_label
_atom_site_fract_x
_atom_site_fract_y
_atom_site_fract_z
Si Si1 0.099561 0.248095 0.972320
Si Si2 0.776162 0.156471 0.171869
Si Si3 0.420588 0.248531 0.996480
Si Si4 0.162357 0.931198 0.671350
Si Si5 0.509108 0.247449 0.603223
O O1 0.058671 0.256504 0.743603
O O2 0.094280 0.497532 0.136556
O O3 0.087593 0.005545 0.147176
O O4 0.146103 0.190903 0.800768
O O5 0.756992 0.425910 0.227072
O O6 0.793785 0.149247 0.852895
O O7 0.820867 0.094927 0.357479
O O8 0.382218 0.272900 0.748471
O O9 0.470383 0.243152 0.851354
O O10 0.500000 0.500000 0.451495
O O11 0.500000 0.000000 0.437222
#
# Coordination Sequence:
#
# PCOD9344153 Si02
#       5
#     4   4   4   4   4
#     4   8  16  28  55  82 121 150 195 230 282 342
#     4  12  28  44  66  87 120 151 198 252 312 360
#     4   8  16  28  55  82 121 150 195 230 282 342
#     4  10  24  41  66  90 118 156 198 245 298 356
#     4   8  12  24  44  82 114 156 182 230 274 330
#
# _framework density 26.152570000000001
#
# number of rings (size 3 to 8) (size 9 to 14) (size 15 to 20)
#    1.200    1.600    0.000    1.200    5.600    0.000 
#    0.000    0.000    0.000    4.800    0.000    8.400 
#    0.000    0.000    0.000    0.000    0.000    0.000 
#
# Total GULP energy -111658.104941 kJ/mol
# GULP energy per Si atom -5582.905247 kJ/mol
# Density = 2.609305 g / cm^3
# Si number density = 26.152570 Si / 1000 Ang^3
#
#
#
# Elastic Constant Matrix: (Units=GPa)
#
#
# Indices 1 2 3 4 5 6 
#
# 1 84.2294 -13.8876 16.3642 0.0000 0.0000 0.0000
# 2 -13.8876 188.5657 20.4900 0.0000 0.0000 0.0000
# 3 16.3642 20.4900 59.6627 0.0000 0.0000 0.0000
# 4 0.0000 0.0000 0.0000 1.0988 0.0000 0.0000
# 5 0.0000 0.0000 0.0000 0.0000 48.8216 0.0000
# 6 0.0000 0.0000 0.0000 0.0000 0.0000 35.2256
#
#
#
# Elastic Compliance Matrix: (Units=1/GPa)
#
#
# Indices 1 2 3 4 5 6 
#
# 1 0.012879 0.001384 -0.004008 0.000000 0.000000 0.000000
# 2 0.001384 0.005657 -0.002323 0.000000 0.000000 0.000000
# 3 -0.004008 -0.002323 0.018658 0.000000 0.000000 0.000000
# 4 0.000000 0.000000 0.000000 0.910110 0.000000 0.000000
# 5 0.000000 0.000000 0.000000 0.000000 0.020483 0.000000
# 6 0.000000 0.000000 0.000000 0.000000 0.000000 0.028388
#
#
# Mechanical properties :
#
#
# Convention : Reuss Voigt Hill
#
# Bulk Modulus (GPa) = 36.62762 42.04343 39.33553
# Shear Modulus (GPa) = 4.92529 37.66194 21.29362
#
# Velocity S-wave (km/s) = 1.37382 3.79896 2.85653
# Velocity P-wave (km/s) = 4.06845 5.94592 5.09442
#
# Compressibility (1/GPa) = 0.02730180
#
# Stress axis : x y z
#
# Youngs Moduli (GPa) = 77.64470 176.75656 53.59692
#
# Poissons Ratio (x) = -0.24464 0.21481
# Poissons Ratio (y) = -0.10746 0.12448
# Poissons Ratio (z) = 0.31118 0.41053
#
# Static dielectric constant tensor:
#      x y z
#    x 2.025890 0.000000 0.000000 
#    y 0.000000 2.233050 0.000000 
#    z 0.000000 0.000000 1.909780 
# 
# From -- ./inp_files/1708.got.cif
#   From: 2010.05.17/outbox.cif.g08.bks.cpg/sg32_1_cif.got.tgz:1708.got - 2010.06.03 17:12:27.
