data_PCOD9344845
_publ_section_title
;
Structure prediction by ZEFSAII (Michael W. Deem and Ramdas Pophale) SiO2 
 PCOD9344845
Probable space group: P N A 21
;
_chemical_formula_sum "Si O2"
_cell_formula_units_Z 32
_cell_length_a 9.185696
_cell_length_b 11.219939
_cell_length_c 16.203408
_cell_angle_alpha 90.000000
_cell_angle_beta 90.000000
_cell_angle_gamma 90.000000
_cell_volume 1669.971009
_symmetry_space_group_name_H-M "P N A 21"
_symmetry_group_IT_number 33
_symmetry_cell_setting 'orthorhombic'
loop_
_space_group_symop_operation_xyz
x,y,z
-x,-y,1/2+z
1/2-x,1/2+y,1/2+z
1/2+x,1/2-y,z
loop_
_atom_site_type_symbol
_atom_site_label
_atom_site_fract_x
_atom_site_fract_y
_atom_site_fract_z
Si Si1 0.440130 0.014607 0.654800
Si Si2 0.281081 0.795442 0.740411
Si Si3 0.081242 0.284305 0.767475
Si Si4 0.705193 0.316987 0.601804
Si Si5 0.502783 0.347412 0.341603
Si Si6 0.650446 0.587685 0.298341
Si Si7 0.263101 0.554148 0.633666
Si Si8 0.397350 0.383657 0.522539
O O1 0.488351 0.115012 0.720706
O O2 0.326202 0.080311 0.595548
O O3 0.359336 0.906364 0.698573
O O4 0.592386 0.969222 0.618125
O O5 0.378241 0.752485 0.818519
O O6 0.120663 0.833233 0.770917
O O7 0.278055 0.683623 0.676440
O O8 0.174219 0.215533 0.697162
O O9 0.197189 0.352859 0.824368
O O10 0.973047 0.187473 0.803920
O O11 0.551231 0.353427 0.564736
O O12 0.771815 0.201609 0.558338
O O13 0.592897 0.470300 0.342211
O O14 0.419537 0.349845 0.427788
O O15 0.680057 0.538392 0.204824
O O16 0.351691 0.516614 0.551961
#
# Coordination Sequence:
#
# PCOD9344845 Si02
#       8
#     4   4   4   4   4   4   4   4
#     4  11  20  34  63  92 113 151 207 253 295 351
#     4  11  23  40  61  89 122 167 204 248 302 378
#     4  11  17  34  61  89 111 139 201 259 288 343
#     4  12  19  33  61  93 113 153 193 257 302 348
#     4  11  25  40  59  88 128 166 196 251 315 370
#     4  10  20  35  60  86 113 152 200 248 298 351
#     4  10  20  38  60  87 118 155 206 249 293 367
#     4  12  22  38  61  90 130 155 203 257 315 358
#
# _framework density 19.162011
#
# number of rings (size 3 to 8) (size 9 to 14) (size 15 to 20)
#    0.000    1.000    7.500    1.500    1.750    0.000 
#    0.000    0.000    5.500    0.000    0.000    0.000 
#    0.000    0.000    0.000    0.000    0.000    0.000 
#
# Total GULP energy -178485.738727 kJ/mol
# GULP energy per Si atom -5577.679335 kJ/mol
# Density = 1.911840 g / cm^3
# Si number density = 19.162011 Si / 1000 Ang^3
#
#
#
# Elastic Constant Matrix: (Units=GPa)
#
#
# Indices 1 2 3 4 5 6 
#
# 1 104.6147 11.6800 5.3612 0.0000 0.0000 0.0000
# 2 11.6800 35.9440 5.6924 0.0000 0.0000 0.0000
# 3 5.3612 5.6924 20.5315 0.0000 0.0000 0.0000
# 4 0.0000 0.0000 0.0000 7.8043 0.0000 0.0000
# 5 0.0000 0.0000 0.0000 0.0000 13.8803 0.0000
# 6 0.0000 0.0000 0.0000 0.0000 0.0000 34.9312
#
#
#
# Elastic Compliance Matrix: (Units=1/GPa)
#
#
# Indices 1 2 3 4 5 6 
#
# 1 0.009981 -0.002961 -0.001785 0.000000 0.000000 0.000000
# 2 -0.002961 0.029977 -0.007538 0.000000 0.000000 0.000000
# 3 -0.001785 -0.007538 0.051262 0.000000 0.000000 0.000000
# 4 0.000000 0.000000 0.000000 0.128135 0.000000 0.000000
# 5 0.000000 0.000000 0.000000 0.000000 0.072045 0.000000
# 6 0.000000 0.000000 0.000000 0.000000 0.000000 0.028628
#
#
# Mechanical properties :
#
#
# Convention : Reuss Voigt Hill
#
# Bulk Modulus (GPa) = 15.00339 22.95082 18.97710
# Shear Modulus (GPa) = 13.63094 20.54692 17.08893
#
# Velocity S-wave (km/s) = 2.67001 3.27811 2.98956
# Velocity P-wave (km/s) = 4.16558 5.13140 4.67351
#
# Compressibility (1/GPa) = 0.06665160
#
# Stress axis : x y z
#
# Youngs Moduli (GPa) = 100.19120 33.35901 19.50767
#
# Poissons Ratio (x) = 0.09876 0.03483
# Poissons Ratio (y) = 0.29662 0.14705
# Poissons Ratio (z) = 0.17888 0.25146
#
# Static dielectric constant tensor:
#      x y z
#    x 1.689660 0.000000 0.000000 
#    y 0.000000 1.679720 0.000000 
#    z 0.000000 0.000000 1.693160 
# 
# From -- ./inp_files/8543.got.cif
#   From: 2010.05.17/outbox.cif.g08.bks.cpg/sg33_5_cif.got.tgz:8543.got - 2010.06.03 17:15:25.
