data_PCOD9344858
_publ_section_title
;
Structure prediction by ZEFSAII (Michael W. Deem and Ramdas Pophale) SiO2 
 PCOD9344858
Probable space group: P N A 21
;
_chemical_formula_sum "Si O2"
_cell_formula_units_Z 32
_cell_length_a 20.867626
_cell_length_b 7.019401
_cell_length_c 7.862561
_cell_angle_alpha 90.000000
_cell_angle_beta 90.000000
_cell_angle_gamma 90.000000
_cell_volume 1151.694056
_symmetry_space_group_name_H-M "P N A 21"
_symmetry_group_IT_number 33
_symmetry_cell_setting 'orthorhombic'
loop_
_space_group_symop_operation_xyz
x,y,z
-x,-y,1/2+z
1/2-x,1/2+y,1/2+z
1/2+x,1/2-y,z
loop_
_atom_site_type_symbol
_atom_site_label
_atom_site_fract_x
_atom_site_fract_y
_atom_site_fract_z
Si Si1 0.643366 0.874730 0.158060
Si Si2 0.019970 0.761489 0.324621
Si Si3 0.164846 0.199505 0.270646
Si Si4 0.955866 0.818386 0.956938
Si Si5 0.768324 0.851512 0.285845
Si Si6 0.895927 0.834962 0.432881
Si Si7 0.579604 0.757146 0.810446
Si Si8 0.705820 0.781010 0.653305
O O1 0.587614 0.835696 0.293689
O O2 0.711169 0.765549 0.174306
O O3 0.663080 0.091569 0.187472
O O4 0.613430 0.835710 0.977996
O O5 0.957925 0.700197 0.434595
O O6 0.987658 0.775643 0.137311
O O7 0.038233 0.958725 0.416110
O O8 0.119536 0.215291 0.433169
O O9 0.238752 0.139749 0.283191
O O10 0.125243 0.093348 0.120553
O O11 0.003040 0.710659 0.820803
O O12 0.835101 0.752275 0.332803
O O13 0.732571 0.851741 0.471397
O O14 0.789165 0.054103 0.201080
O O15 0.915191 0.028138 0.334000
O O16 0.630209 0.823807 0.669426
#
# Coordination Sequence:
#
# PCOD9344858 Si02
#       8
#     4   4   4   4   4   4   4   4
#     4  10  21  35  54  84 114 143 180 231 289 339
#     4  10  21  35  56  81 105 143 191 228 271 330
#     4  10  20  36  54  78 115 143 174 230 287 334
#     4  10  20  36  55  79 108 144 188 229 271 329
#     4   9  19  36  57  82 112 147 189 235 287 342
#     4   9  19  38  58  77 106 146 188 230 271 329
#     4   9  19  37  57  79 107 143 191 231 271 334
#     4   9  19  37  57  80 111 149 189 234 285 341
#
# _framework density 27.785160000000001
#
# number of rings (size 3 to 8) (size 9 to 14) (size 15 to 20)
#    0.000    2.500    0.000    2.250    0.000    7.000 
#    0.000   18.750    0.000    0.000    0.000    0.000 
#    0.000    0.000    0.000    0.000    0.000    0.000 
#
# Total GULP energy -178650.720067 kJ/mol
# GULP energy per Si atom -5582.835002 kJ/mol
# Density = 2.772192 g / cm^3
# Si number density = 27.785160 Si / 1000 Ang^3
#
#
#
# Elastic Constant Matrix: (Units=GPa)
#
#
# Indices 1 2 3 4 5 6 
#
# 1 75.9276 2.8066 20.3359 0.0000 0.0000 0.0000
# 2 2.8066 66.2088 -0.0900 0.0000 0.0000 0.0000
# 3 20.3359 -0.0900 115.3261 0.0000 0.0000 0.0000
# 4 0.0000 0.0000 0.0000 14.2542 0.0000 0.0000
# 5 0.0000 0.0000 0.0000 0.0000 52.6607 0.0000
# 6 0.0000 0.0000 0.0000 0.0000 0.0000 27.2574
#
#
#
# Elastic Compliance Matrix: (Units=1/GPa)
#
#
# Indices 1 2 3 4 5 6 
#
# 1 0.013846 -0.000590 -0.002442 0.000000 0.000000 0.000000
# 2 -0.000590 0.015129 0.000116 0.000000 0.000000 0.000000
# 3 -0.002442 0.000116 0.009102 0.000000 0.000000 0.000000
# 4 0.000000 0.000000 0.000000 0.070155 0.000000 0.000000
# 5 0.000000 0.000000 0.000000 0.000000 0.018989 0.000000
# 6 0.000000 0.000000 0.000000 0.000000 0.000000 0.036687
#
#
# Mechanical properties :
#
#
# Convention : Reuss Voigt Hill
#
# Bulk Modulus (GPa) = 31.01336 33.72973 32.37155
# Shear Modulus (GPa) = 27.70245 34.46179 31.08212
#
# Velocity S-wave (km/s) = 3.16099 3.52560 3.34826
# Velocity P-wave (km/s) = 4.95061 5.36088 5.15982
#
# Compressibility (1/GPa) = 0.03224417
#
# Stress axis : x y z
#
# Youngs Moduli (GPa) = 72.22131 66.09860 109.86876
#
# Poissons Ratio (x) = 0.03902 0.26830
# Poissons Ratio (y) = 0.04263 -0.01273
# Poissons Ratio (z) = 0.17637 -0.00766
#
# Static dielectric constant tensor:
#      x y z
#    x 2.296600 0.000000 0.000000 
#    y 0.000000 2.355170 0.000000 
#    z 0.000000 0.000000 2.229610 
# 
# From -- ./inp_files/5028.got.cif
#   From: 2010.05.17/outbox.cif.g08.bks.cpg/sg33_3_cif.got.tgz:5028.got - 2010.06.03 17:15:25.
