data_PCOD9344205
_publ_section_title
;
Structure prediction by ZEFSAII (Michael W. Deem and Ramdas Pophale) SiO2 
 PCOD9344205
Probable space group: P B A 2
;
_chemical_formula_sum "Si O2"
_cell_formula_units_Z 18
_cell_length_a 8.487864
_cell_length_b 10.679750
_cell_length_c 9.615811
_cell_angle_alpha 90.000000
_cell_angle_beta 90.000000
_cell_angle_gamma 90.000000
_cell_volume 871.656589
_symmetry_space_group_name_H-M "P B A 2"
_symmetry_group_IT_number 32
_symmetry_cell_setting 'orthorhombic'
loop_
_space_group_symop_operation_xyz
x,y,z
-x,-y,z
1/2-x,1/2+y,z
1/2+x,1/2-y,z
loop_
_atom_site_type_symbol
_atom_site_label
_atom_site_fract_x
_atom_site_fract_y
_atom_site_fract_z
Si Si1 0.088654 0.121715 0.459820
Si Si2 0.242198 0.408532 0.946738
Si Si3 0.412434 0.161614 0.038159
Si Si4 0.435637 0.131676 0.356456
Si Si5 0.500000 0.500000 0.730675
O O1 0.251191 0.130461 0.381023
O O2 0.000629 0.250173 0.436867
O O3 0.090530 0.093265 0.624549
O O4 0.000000 0.000000 0.400415
O O5 0.362652 0.435013 0.820244
O O6 0.330555 0.296480 0.027901
O O7 0.209213 0.546547 0.012299
O O8 0.061784 0.356419 0.933979
O O9 0.477090 0.145658 0.194190
O O10 0.500000 0.000000 0.409229
#
# Coordination Sequence:
#
# PCOD9344205 Si02
#       5
#     4   4   4   4   2
#     4  10  26  44  70 107 137 192 232 290 358 418
#     4  11  23  46  68 103 145 181 243 284 359 418
#     4  11  25  42  74 109 135 191 230 304 360 416
#     4  12  23  47  72 107 141 178 245 295 366 421
#     4  10  26  48  68 104 138 196 236 280 352 426
#
# _framework density 20.650335999999999
#
# number of rings (size 3 to 8) (size 9 to 14) (size 15 to 20)
#    0.667    0.444    2.222    4.000    3.111    3.556 
#    4.000    0.000    0.000    0.000    0.000    0.000 
#    0.000    0.000    0.000    0.000    0.000    0.000 
#
# Total GULP energy -100346.511193 kJ/mol
# GULP energy per Si atom -5574.806177 kJ/mol
# Density = 2.060334 g / cm^3
# Si number density = 20.650336 Si / 1000 Ang^3
#
#
#
# Elastic Constant Matrix: (Units=GPa)
#
#
# Indices 1 2 3 4 5 6 
#
# 1 101.1404 36.5763 8.8615 0.0000 0.0000 0.0000
# 2 36.5763 148.3837 23.3821 0.0000 0.0000 0.0000
# 3 8.8615 23.3821 49.5585 0.0000 0.0000 0.0000
# 4 0.0000 0.0000 0.0000 -170.8503 0.0000 0.0000
# 5 0.0000 0.0000 0.0000 0.0000 41.4968 0.0000
# 6 0.0000 0.0000 0.0000 0.0000 0.0000 52.1963
#
#
#
# Elastic Compliance Matrix: (Units=1/GPa)
#
#
# Indices 1 2 3 4 5 6 
#
# 1 0.010880 -0.002566 -0.000735 0.000000 0.000000 0.000000
# 2 -0.002566 0.007886 -0.003262 0.000000 0.000000 0.000000
# 3 -0.000735 -0.003262 0.021848 0.000000 0.000000 0.000000
# 4 0.000000 0.000000 0.000000 -0.005853 0.000000 0.000000
# 5 0.000000 0.000000 0.000000 0.000000 0.024098 0.000000
# 6 0.000000 0.000000 0.000000 0.000000 0.000000 0.019158
#
#
# Mechanical properties :
#
#
# Convention : Reuss Voigt Hill
#
# Bulk Modulus (GPa) = 36.37831 48.52471 42.45151
# Shear Modulus (GPa) = 49.84780 -0.08058 24.88361
#
# Velocity S-wave (km/s) = 4.91847 -0.19775 3.47507
# Velocity P-wave (km/s) = 7.06468 4.84738 6.05834
#
# Compressibility (1/GPa) = 0.02748890
#
# Stress axis : x y z
#
# Youngs Moduli (GPa) = 91.91519 126.81041 45.76984
#
# Poissons Ratio (x) = 0.32540 0.03363
# Poissons Ratio (y) = 0.23586 0.14929
# Poissons Ratio (z) = 0.06753 0.41362
#
# Static dielectric constant tensor:
#      x y z
#    x 1.693130 0.000000 0.000000 
#    y 0.000000 1.722530 0.000000 
#    z 0.000000 0.000000 1.726710 
# 
# From -- ./inp_files/2149.got.cif
#   From: 2010.05.17/outbox.cif.g08.bks.cpg/sg32_2_cif.got.tgz:2149.got - 2010.06.03 17:12:27.
