data_PCOD9344281
_publ_section_title
;
Structure prediction by ZEFSAII (Michael W. Deem and Ramdas Pophale) SiO2 
 PCOD9344281
Probable space group: P B A 2
;
_chemical_formula_sum "Si O2"
_cell_formula_units_Z 24
_cell_length_a 15.390287
_cell_length_b 11.904927
_cell_length_c 5.233164
_cell_angle_alpha 90.000000
_cell_angle_beta 90.000000
_cell_angle_gamma 90.000000
_cell_volume 958.821581
_symmetry_space_group_name_H-M "P B A 2"
_symmetry_group_IT_number 32
_symmetry_cell_setting 'orthorhombic'
loop_
_space_group_symop_operation_xyz
x,y,z
-x,-y,z
1/2-x,1/2+y,z
1/2+x,1/2-y,z
loop_
_atom_site_type_symbol
_atom_site_label
_atom_site_fract_x
_atom_site_fract_y
_atom_site_fract_z
Si Si1 0.601916 0.668653 0.615050
Si Si2 0.901920 0.507918 0.866750
Si Si3 0.722148 0.453922 0.589521
Si Si4 0.501388 0.371262 0.107332
Si Si5 0.167500 0.241275 0.941800
Si Si6 0.677654 0.843265 0.225508
O O1 0.667123 0.564249 0.641919
O O2 0.535203 0.634089 0.391895
O O3 0.647489 0.772861 0.471482
O O4 0.554889 0.690568 0.885327
O O5 0.817604 0.468858 0.710267
O O6 0.874921 0.636856 0.912043
O O7 0.000000 0.500000 0.759056
O O8 0.897541 0.419757 0.103884
O O9 0.676878 0.341681 0.698174
O O10 0.748139 0.435074 0.296539
O O11 0.500000 0.500000 0.021767
O O12 0.596602 0.321382 0.112603
O O13 0.265263 0.242744 0.054535
#
# Coordination Sequence:
#
# PCOD9344281 Si02
#       6
#     4   4   4   4   4   4
#     4  12  27  46  78 109 152 200 254 321 388 462
#     4  11  26  48  72 110 151 203 259 318 393 472
#     4  11  25  46  74 108 147 202 253 321 388 467
#     4  12  26  47  75 115 150 195 259 322 386 460
#     4  11  25  45  76 107 154 199 254 322 392 467
#     4  11  26  45  74 104 149 202 257 314 390 468
#
# _framework density 25.030725
#
# number of rings (size 3 to 8) (size 9 to 14) (size 15 to 20)
#    0.000    0.667    1.667    4.500   14.000    0.667 
#    0.000    0.000    0.000    0.000    0.000    0.000 
#    0.000    0.000    0.000    0.000    0.000    0.000 
#
# Total GULP energy -134172.955698 kJ/mol
# GULP energy per Si atom -5590.539821 kJ/mol
# Density = 2.497375 g / cm^3
# Si number density = 25.030725 Si / 1000 Ang^3
#
#
#
# Elastic Constant Matrix: (Units=GPa)
#
#
# Indices 1 2 3 4 5 6 
#
# 1 147.6750 47.1719 37.8561 0.0000 0.0000 0.0000
# 2 47.1719 162.5557 19.9473 0.0000 0.0000 0.0000
# 3 37.8561 19.9473 58.7061 0.0000 0.0000 0.0000
# 4 0.0000 0.0000 0.0000 19.7502 0.0000 0.0000
# 5 0.0000 0.0000 0.0000 0.0000 45.7478 0.0000
# 6 0.0000 0.0000 0.0000 0.0000 0.0000 91.5853
#
#
#
# Elastic Compliance Matrix: (Units=1/GPa)
#
#
# Indices 1 2 3 4 5 6 
#
# 1 0.008642 -0.001903 -0.004926 0.000000 0.000000 0.000000
# 2 -0.001903 0.006839 -0.001096 0.000000 0.000000 0.000000
# 3 -0.004926 -0.001096 0.020583 0.000000 0.000000 0.000000
# 4 0.000000 0.000000 0.000000 0.050632 0.000000 0.000000
# 5 0.000000 0.000000 0.000000 0.000000 0.021859 0.000000
# 6 0.000000 0.000000 0.000000 0.000000 0.000000 0.010919
#
#
# Mechanical properties :
#
#
# Convention : Reuss Voigt Hill
#
# Bulk Modulus (GPa) = 49.47467 64.32082 56.89774
# Shear Modulus (GPa) = 35.19547 49.01409 42.10478
#
# Velocity S-wave (km/s) = 3.75386 4.42991 4.10582
# Velocity P-wave (km/s) = 6.21265 7.20541 6.72737
#
# Compressibility (1/GPa) = 0.02021236
#
# Stress axis : x y z
#
# Youngs Moduli (GPa) = 115.70744 146.22838 48.58349
#
# Poissons Ratio (x) = 0.27834 0.23934
# Poissons Ratio (y) = 0.22024 0.05326
# Poissons Ratio (z) = 0.57001 0.16030
#
# Static dielectric constant tensor:
#      x y z
#    x 2.059330 0.000000 0.000000 
#    y 0.000000 2.041450 0.000000 
#    z 0.000000 0.000000 2.150240 
# 
# From -- ./inp_files/1212.got.cif
#   From: 2010.05.17/outbox.cif.g08.bks.cpg/sg32_1_cif.got.tgz:1212.got - 2010.06.03 17:12:27.
