data_PCOD9344774
_publ_section_title
;
Structure prediction by ZEFSAII (Michael W. Deem and Ramdas Pophale) SiO2 
 PCOD9344774
Probable space group: P N A 21
;
_chemical_formula_sum "Si O2"
_cell_formula_units_Z 24
_cell_length_a 14.567216
_cell_length_b 6.326026
_cell_length_c 11.732237
_cell_angle_alpha 90.000000
_cell_angle_beta 90.000000
_cell_angle_gamma 90.000000
_cell_volume 1081.155993
_symmetry_space_group_name_H-M "P N A 21"
_symmetry_group_IT_number 33
_symmetry_cell_setting 'orthorhombic'
loop_
_space_group_symop_operation_xyz
x,y,z
-x,-y,1/2+z
1/2-x,1/2+y,1/2+z
1/2+x,1/2-y,z
loop_
_atom_site_type_symbol
_atom_site_label
_atom_site_fract_x
_atom_site_fract_y
_atom_site_fract_z
Si Si1 0.302934 0.358932 0.909560
Si Si2 0.452553 0.100015 0.043024
Si Si3 0.117298 0.827584 0.749962
Si Si4 0.381942 0.633508 0.452575
Si Si5 0.360388 0.704370 0.079426
Si Si6 0.282700 0.530843 0.684636
O O1 0.200907 0.267854 0.896747
O O2 0.338504 0.419313 0.785457
O O3 0.361249 0.190871 0.981022
O O4 0.309826 0.572729 0.981848
O O5 0.448376 0.167536 0.177631
O O6 0.444340 0.848237 0.036555
O O7 0.531710 0.215051 0.972810
O O8 0.102202 0.922745 0.876292
O O9 0.109414 0.035001 0.671754
O O10 0.219015 0.721479 0.735297
O O11 0.346282 0.590582 0.580034
O O12 0.289029 0.862386 0.135960
#
# Coordination Sequence:
#
# PCOD9344774 Si02
#       6
#     4   4   4   4   4   4
#     4  11  23  43  67  95 134 179 222 285 329 399
#     4  10  25  44  64 103 137 173 228 282 330 406
#     4  10  22  44  67  96 137 172 227 283 319 409
#     4  12  23  44  70 101 132 185 221 268 357 390
#     4  10  19  45  63  90 135 166 218 284 320 393
#     4  11  22  40  71  95 129 179 226 268 343 391
#
# _framework density 22.198461000000002
#
# number of rings (size 3 to 8) (size 9 to 14) (size 15 to 20)
#    0.000    1.333    6.667    1.000    2.333    0.000 
#   15.000    0.000    0.000    0.000    0.000    0.000 
#    0.000    0.000    0.000    0.000    0.000    0.000 
#
# Total GULP energy -133942.928804 kJ/mol
# GULP energy per Si atom -5580.955367 kJ/mol
# Density = 2.214794 g / cm^3
# Si number density = 22.198461 Si / 1000 Ang^3
#
#
#
# Elastic Constant Matrix: (Units=GPa)
#
#
# Indices 1 2 3 4 5 6 
#
# 1 46.4122 -0.0189 4.9922 0.0000 0.0000 0.0000
# 2 -0.0189 84.5723 22.3946 0.0000 0.0000 0.0000
# 3 4.9922 22.3946 115.2385 0.0000 0.0000 0.0000
# 4 0.0000 0.0000 0.0000 21.1275 0.0000 0.0000
# 5 0.0000 0.0000 0.0000 0.0000 16.2768 0.0000
# 6 0.0000 0.0000 0.0000 0.0000 0.0000 9.2274
#
#
#
# Elastic Compliance Matrix: (Units=1/GPa)
#
#
# Indices 1 2 3 4 5 6 
#
# 1 0.021653 0.000267 -0.000990 0.000000 0.000000 0.000000
# 2 0.000267 0.012469 -0.002435 0.000000 0.000000 0.000000
# 3 -0.000990 -0.002435 0.009194 0.000000 0.000000 0.000000
# 4 0.000000 0.000000 0.000000 0.047332 0.000000 0.000000
# 5 0.000000 0.000000 0.000000 0.000000 0.061437 0.000000
# 6 0.000000 0.000000 0.000000 0.000000 0.000000 0.108373
#
#
# Mechanical properties :
#
#
# Convention : Reuss Voigt Hill
#
# Bulk Modulus (GPa) = 27.02697 33.43986 30.23341
# Shear Modulus (GPa) = 17.91435 23.91669 20.91552
#
# Velocity S-wave (km/s) = 2.84387 3.28594 3.07287
# Velocity P-wave (km/s) = 4.79427 5.43077 5.12242
#
# Compressibility (1/GPa) = 0.03700007
#
# Stress axis : x y z
#
# Youngs Moduli (GPa) = 46.18370 80.19916 108.77041
#
# Poissons Ratio (x) = -0.02141 0.10767
# Poissons Ratio (y) = -0.01233 0.26482
# Poissons Ratio (z) = 0.04572 0.19526
#
# Static dielectric constant tensor:
#      x y z
#    x 1.860650 0.000000 0.000000 
#    y 0.000000 1.831130 0.000000 
#    z 0.000000 0.000000 1.876950 
# 
# From -- ./inp_files/6620.got.cif
#   From: 2010.05.17/outbox.cif.g08.bks.cpg/sg33_4_cif.got.tgz:6620.got - 2010.06.03 17:15:25.
