data_PCOD9344237
_publ_section_title
;
Structure prediction by ZEFSAII (Michael W. Deem and Ramdas Pophale) SiO2 
 PCOD9344237
Probable space group: P B A 2
;
_chemical_formula_sum "Si O2"
_cell_formula_units_Z 30
_cell_length_a 10.308317
_cell_length_b 17.000499
_cell_length_c 8.697898
_cell_angle_alpha 90.000000
_cell_angle_beta 90.000000
_cell_angle_gamma 90.000000
_cell_volume 1524.276468
_symmetry_space_group_name_H-M "P B A 2"
_symmetry_group_IT_number 32
_symmetry_cell_setting 'orthorhombic'
loop_
_space_group_symop_operation_xyz
x,y,z
-x,-y,z
1/2-x,1/2+y,z
1/2+x,1/2-y,z
loop_
_atom_site_type_symbol
_atom_site_label
_atom_site_fract_x
_atom_site_fract_y
_atom_site_fract_z
Si Si1 0.066523 0.579693 0.523850
Si Si2 0.109660 0.286946 0.584725
Si Si3 0.821511 0.094729 0.717165
Si Si4 0.674984 0.363842 0.379392
Si Si5 0.255131 0.179246 0.039327
Si Si6 0.982540 0.219253 0.886279
Si Si7 0.500000 0.500000 0.477443
Si Si8 0.132319 0.531487 0.867029
O O1 0.205148 0.590874 0.453060
O O2 0.085242 0.572006 0.707876
O O3 0.000000 0.500000 0.471013
O O4 0.974999 0.652650 0.485863
O O5 0.236519 0.335106 0.640190
O O6 0.139894 0.208015 0.492423
O O7 0.021358 0.265089 0.731011
O O8 0.923884 0.136479 0.829356
O O9 0.723983 0.039582 0.812704
O O10 0.895000 0.042071 0.590106
O O11 0.725108 0.330092 0.218635
O O12 0.561427 0.429116 0.377766
O O13 0.119776 0.208726 0.968904
O O14 0.373688 0.235945 0.986982
O O15 0.292703 0.094548 0.968531
O O16 0.000000 0.500000 0.943634
#
# Coordination Sequence:
#
# PCOD9344237 Si02
#       8
#     4   4   4   4   4   4   2   4
#     4  11  21  43  71  99 130 175 238 283 340 418
#     4  12  22  42  72 102 134 183 241 298 342 416
#     4  12  22  39  75 100 128 177 244 305 335 413
#     4  12  28  42  66 104 146 183 228 293 364 433
#     4  12  28  44  67 102 147 183 227 292 371 432
#     4  12  24  44  69 100 132 185 237 287 351 420
#     4  12  24  42  66 102 136 186 238 294 358 422
#     4  11  21  43  70 104 131 179 239 290 348 420
#
# _framework density 19.681469
#
# number of rings (size 3 to 8) (size 9 to 14) (size 15 to 20)
#    0.000    0.267    8.000    2.400    1.867    1.600 
#    0.000    1.333    0.000    0.000    0.000    0.000 
#    0.000    0.000    0.000    0.000    0.000    0.000 
#
# Total GULP energy -167658.329849 kJ/mol
# GULP energy per Si atom -5588.610995 kJ/mol
# Density = 1.963667 g / cm^3
# Si number density = 19.681469 Si / 1000 Ang^3
#
#
#
# Elastic Constant Matrix: (Units=GPa)
#
#
# Indices 1 2 3 4 5 6 
#
# 1 137.2624 62.5260 39.7393 0.0000 0.0000 0.0000
# 2 62.5260 124.0715 44.3091 0.0000 0.0000 0.0000
# 3 39.7393 44.3091 63.6534 0.0000 0.0000 0.0000
# 4 0.0000 0.0000 0.0000 -3.2817 0.0000 0.0000
# 5 0.0000 0.0000 0.0000 0.0000 37.5998 0.0000
# 6 0.0000 0.0000 0.0000 0.0000 0.0000 49.9944
#
#
#
# Elastic Compliance Matrix: (Units=1/GPa)
#
#
# Indices 1 2 3 4 5 6 
#
# 1 0.010059 -0.003762 -0.003661 0.000000 0.000000 0.000000
# 2 -0.003762 0.012133 -0.006097 0.000000 0.000000 0.000000
# 3 -0.003661 -0.006097 0.022240 0.000000 0.000000 0.000000
# 4 0.000000 0.000000 0.000000 -0.304722 0.000000 0.000000
# 5 0.000000 0.000000 0.000000 0.000000 0.026596 0.000000
# 6 0.000000 0.000000 0.000000 0.000000 0.000000 0.020002
#
#
# Mechanical properties :
#
#
# Convention : Reuss Voigt Hill
#
# Bulk Modulus (GPa) = 57.49952 68.68177 63.09064
# Shear Modulus (GPa) = -27.64666 28.75669 0.55501
#
# Velocity S-wave (km/s) = -3.75201 3.82659 0.53161
# Velocity P-wave (km/s) = 3.24167 7.38215 5.70108
#
# Compressibility (1/GPa) = 0.01739145
#
# Stress axis : x y z
#
# Youngs Moduli (GPa) = 99.41541 82.41933 44.96336
#
# Poissons Ratio (x) = 0.31003 0.16463
# Poissons Ratio (y) = 0.37396 0.27416
# Poissons Ratio (z) = 0.36399 0.50255
#
# Static dielectric constant tensor:
#      x y z
#    x 1.706540 0.000000 0.000000 
#    y 0.000000 1.655530 0.000000 
#    z 0.000000 0.000000 1.693790 
# 
# From -- ./inp_files/2851.got.cif
#   From: 2010.05.17/outbox.cif.g08.bks.cpg/sg32_2_cif.got.tgz:2851.got - 2010.06.03 17:12:27.
