data_PCOD9344500
_publ_section_title
;
Structure prediction by ZEFSAII (Michael W. Deem and Ramdas Pophale) SiO2 
 PCOD9344500
Probable space group: P N A 21
;
_chemical_formula_sum "Si O2"
_cell_formula_units_Z 32
_cell_length_a 13.987949
_cell_length_b 12.272201
_cell_length_c 6.928128
_cell_angle_alpha 90.000000
_cell_angle_beta 90.000000
_cell_angle_gamma 90.000000
_cell_volume 1189.302694
_symmetry_space_group_name_H-M "P N A 21"
_symmetry_group_IT_number 33
_symmetry_cell_setting 'orthorhombic'
loop_
_space_group_symop_operation_xyz
x,y,z
-x,-y,1/2+z
1/2-x,1/2+y,1/2+z
1/2+x,1/2-y,z
loop_
_atom_site_type_symbol
_atom_site_label
_atom_site_fract_x
_atom_site_fract_y
_atom_site_fract_z
Si Si1 0.251273 0.115132 0.497750
Si Si2 0.496149 0.334425 0.405471
Si Si3 0.466383 0.130201 0.544038
Si Si4 0.074868 0.212057 0.021659
Si Si5 0.966642 0.398242 0.089045
Si Si6 0.706075 0.643758 0.041884
Si Si7 0.599904 0.557493 0.432092
Si Si8 0.763755 0.407387 0.032080
O O1 0.356891 0.100568 0.587099
O O2 0.235386 0.243496 0.550058
O O3 0.259872 0.103296 0.265453
O O4 0.179591 0.015102 0.547368
O O5 0.504450 0.251631 0.589354
O O6 0.577994 0.300029 0.254525
O O7 0.380462 0.334138 0.390870
O O8 0.520716 0.461600 0.414053
O O9 0.467356 0.137574 0.310529
O O10 0.527616 0.027291 0.597838
O O11 0.171149 0.155486 0.949700
O O12 0.055422 0.339250 0.985162
O O13 0.972081 0.152104 0.999335
O O14 0.868683 0.363032 0.988466
O O15 0.653793 0.605445 0.242540
O O16 0.760162 0.534789 0.981189
#
# Coordination Sequence:
#
# PCOD9344500 Si02
#       8
#     4   4   4   4   4   4   4   4
#     4   9  20  37  62  91 129 169 211 267 321 398
#     4  10  18  37  61  89 118 167 206 258 322 382
#     4   9  21  39  58  87 119 163 208 256 318 385
#     4  11  22  39  63  90 129 162 207 275 320 387
#     4  10  23  38  62  85 122 165 206 261 322 382
#     4  10  20  36  65  90 127 168 218 259 323 391
#     4  11  20  37  63  94 128 163 212 271 325 385
#     4  10  20  39  60  92 122 165 220 257 323 394
#
# _framework density 26.906523
#
# number of rings (size 3 to 8) (size 9 to 14) (size 15 to 20)
#    0.000    2.000    3.750    0.750    1.750    3.000 
#    0.000    2.500    0.000    0.000    0.000    0.000 
#    0.000    0.000    0.000    0.000    0.000    0.000 
#
# Total GULP energy -178303.458829 kJ/mol
# GULP energy per Si atom -5571.983088 kJ/mol
# Density = 2.684528 g / cm^3
# Si number density = 26.906523 Si / 1000 Ang^3
#
#
#
# Elastic Constant Matrix: (Units=GPa)
#
#
# Indices 1 2 3 4 5 6 
#
# 1 78.0965 34.4449 -15.2608 0.0000 0.0000 0.0000
# 2 34.4449 167.1990 8.5665 0.0000 0.0000 0.0000
# 3 -15.2608 8.5665 75.3607 0.0000 0.0000 0.0000
# 4 0.0000 0.0000 0.0000 28.5855 0.0000 0.0000
# 5 0.0000 0.0000 0.0000 0.0000 12.2707 0.0000
# 6 0.0000 0.0000 0.0000 0.0000 0.0000 47.0783
#
#
#
# Elastic Compliance Matrix: (Units=1/GPa)
#
#
# Indices 1 2 3 4 5 6 
#
# 1 0.014896 -0.003242 0.003385 0.000000 0.000000 0.000000
# 2 -0.003242 0.006722 -0.001421 0.000000 0.000000 0.000000
# 3 0.003385 -0.001421 0.014116 0.000000 0.000000 0.000000
# 4 0.000000 0.000000 0.000000 0.034983 0.000000 0.000000
# 5 0.000000 0.000000 0.000000 0.000000 0.081495 0.000000
# 6 0.000000 0.000000 0.000000 0.000000 0.000000 0.021241
#
#
# Mechanical properties :
#
#
# Convention : Reuss Voigt Hill
#
# Bulk Modulus (GPa) = 30.13978 41.79525 35.96751
# Shear Modulus (GPa) = 26.72817 37.11393 31.92105
#
# Velocity S-wave (km/s) = 3.15520 3.71801 3.44811
# Velocity P-wave (km/s) = 4.94972 5.83084 5.40825
#
# Compressibility (1/GPa) = 0.03317874
#
# Stress axis : x y z
#
# Youngs Moduli (GPa) = 67.13143 148.77373 70.83912
#
# Poissons Ratio (x) = 0.48236 -0.23980
# Poissons Ratio (y) = 0.21765 0.10064
# Poissons Ratio (z) = -0.22725 0.21135
#
# Static dielectric constant tensor:
#      x y z
#    x 2.471620 0.000000 0.000000 
#    y 0.000000 2.569580 0.000000 
#    z 0.000000 0.000000 2.231680 
# 
# From -- ./inp_files/4381.got.cif
#   From: 2010.05.17/outbox.cif.g08.bks.cpg/sg33_3_cif.got.tgz:4381.got - 2010.06.03 17:15:25.
