data_PCOD9344248
_publ_section_title
;
Structure prediction by ZEFSAII (Michael W. Deem and Ramdas Pophale) SiO2 
 PCOD9344248
Probable space group: P B A 2
;
_chemical_formula_sum "Si O2"
_cell_formula_units_Z 32
_cell_length_a 8.731165
_cell_length_b 10.893131
_cell_length_c 15.664838
_cell_angle_alpha 90.000000
_cell_angle_beta 90.000000
_cell_angle_gamma 90.000000
_cell_volume 1489.878421
_symmetry_space_group_name_H-M "P B A 2"
_symmetry_group_IT_number 32
_symmetry_cell_setting 'orthorhombic'
loop_
_space_group_symop_operation_xyz
x,y,z
-x,-y,z
1/2-x,1/2+y,z
1/2+x,1/2-y,z
loop_
_atom_site_type_symbol
_atom_site_label
_atom_site_fract_x
_atom_site_fract_y
_atom_site_fract_z
Si Si1 0.147957 0.134189 0.982790
Si Si2 0.647957 0.365811 0.185321
Si Si3 0.858422 0.085665 0.729498
Si Si4 0.521615 0.263077 0.584056
Si Si5 0.190342 0.563007 0.584056
Si Si6 0.858422 0.085665 0.438613
Si Si7 0.301920 0.377865 0.916115
Si Si8 0.801921 0.122136 0.251996
O O1 0.219494 0.266223 0.962937
O O2 0.980332 0.133703 0.940892
O O3 0.239619 0.016872 0.944589
O O4 0.134841 0.115998 0.084056
O O5 0.719495 0.233777 0.205175
O O6 0.739619 0.483128 0.223522
O O7 0.480333 0.366297 0.227220
O O8 0.940783 0.182880 0.668235
O O9 0.781200 0.135712 0.814396
O O10 0.744784 0.010062 0.668176
O O11 0.000000 0.000000 0.758422
O O12 0.692049 0.317446 0.584056
O O13 0.478646 0.120934 0.584056
O O14 0.440783 0.317120 0.499876
O O15 0.244784 0.489938 0.499935
O O16 0.781200 0.135712 0.353715
O O17 0.000000 0.000000 0.409689
#
# Coordination Sequence:
#
# PCOD9344248 Si02
#       8
#     4   4   4   4   4   4   4   4
#     4  11  23  42  64  92 123 163 207 262 321 372
#     4  11  23  42  64  92 123 163 207 262 321 372
#     4   9  18  36  55  85 116 160 202 240 303 360
#     4   9  19  31  60  78 120 155 194 248 292 358
#     4   9  19  35  58  84 120 157 198 248 300 361
#     4   9  18  36  55  85 116 160 202 240 303 360
#     4  11  23  39  67  90 125 165 208 258 309 382
#     4  11  23  39  67  90 125 165 208 258 309 382
#
# _framework density 21.478262000000001
#
# number of rings (size 3 to 8) (size 9 to 14) (size 15 to 20)
#    0.000    2.000    2.500    4.500    3.500    1.000 
#    0.000    5.000    5.500    0.000    0.000    0.000 
#    0.000    0.000    0.000    0.000    0.000    0.000 
#
# Total GULP energy -178788.100208 kJ/mol
# GULP energy per Si atom -5587.128131 kJ/mol
# Density = 2.142938 g / cm^3
# Si number density = 21.478262 Si / 1000 Ang^3
#
#
#
# Elastic Constant Matrix: (Units=GPa)
#
#
# Indices 1 2 3 4 5 6 
#
# 1 39.2307 9.5886 11.9514 0.0000 0.0000 0.0000
# 2 9.5886 81.4114 11.9369 0.0000 0.0000 0.0000
# 3 11.9514 11.9369 143.2019 0.0000 0.0000 0.0000
# 4 0.0000 0.0000 0.0000 0.1542 0.0000 0.0000
# 5 0.0000 0.0000 0.0000 0.0000 21.6722 0.0000
# 6 0.0000 0.0000 0.0000 0.0000 0.0000 37.0809
#
#
#
# Elastic Compliance Matrix: (Units=1/GPa)
#
#
# Indices 1 2 3 4 5 6 
#
# 1 0.026799 -0.002863 -0.001998 0.000000 0.000000 0.000000
# 2 -0.002863 0.012741 -0.000823 0.000000 0.000000 0.000000
# 3 -0.001998 -0.000823 0.007218 0.000000 0.000000 0.000000
# 4 0.000000 0.000000 0.000000 6.483569 0.000000 0.000000
# 5 0.000000 0.000000 0.000000 0.000000 0.046142 0.000000
# 6 0.000000 0.000000 0.000000 0.000000 0.000000 0.026968
#
#
# Mechanical properties :
#
#
# Convention : Reuss Voigt Hill
#
# Bulk Modulus (GPa) = 28.25682 36.75531 32.50607
# Shear Modulus (GPa) = 0.75453 27.13927 13.94690
#
# Velocity S-wave (km/s) = 0.59335 3.55853 2.55100
# Velocity P-wave (km/s) = 3.69513 5.83388 4.88304
#
# Compressibility (1/GPa) = 0.03538968
#
# Stress axis : x y z
#
# Youngs Moduli (GPa) = 37.31516 78.48533 138.53296
#
# Poissons Ratio (x) = 0.22474 0.27677
# Poissons Ratio (y) = 0.10685 0.11403
# Poissons Ratio (z) = 0.07455 0.06460
#
# Static dielectric constant tensor:
#      x y z
#    x 1.837050 0.000000 0.000000 
#    y 0.000000 1.858670 0.000000 
#    z 0.000000 0.000000 1.731920 
# 
# From -- ./inp_files/4142.got.cif
#   From: 2010.05.17/outbox.cif.g08.bks.cpg/sg32_3_cif.got.tgz:4142.got - 2010.06.03 17:12:27.
