data_PCOD9344131
_publ_section_title
;
Structure prediction by ZEFSAII (Michael W. Deem and Ramdas Pophale) SiO2 
 PCOD9344131
Probable space group: P B A 2
;
_chemical_formula_sum "Si O2"
_cell_formula_units_Z 32
_cell_length_a 8.354350
_cell_length_b 15.151268
_cell_length_c 11.631801
_cell_angle_alpha 90.000000
_cell_angle_beta 90.000000
_cell_angle_gamma 90.000000
_cell_volume 1472.341690
_symmetry_space_group_name_H-M "P B A 2"
_symmetry_group_IT_number 32
_symmetry_cell_setting 'orthorhombic'
loop_
_space_group_symop_operation_xyz
x,y,z
-x,-y,z
1/2-x,1/2+y,z
1/2+x,1/2-y,z
loop_
_atom_site_type_symbol
_atom_site_label
_atom_site_fract_x
_atom_site_fract_y
_atom_site_fract_z
Si Si1 0.699798 0.157949 0.406290
Si Si2 0.651067 0.950104 0.191918
Si Si3 0.682667 0.853776 0.411542
Si Si4 0.681331 0.530651 0.842173
Si Si5 0.810117 0.506521 0.592101
Si Si6 0.035041 0.811072 0.958235
Si Si7 0.114299 0.913632 0.183864
Si Si8 0.830574 0.370591 0.955852
O O1 0.507901 0.155971 0.387924
O O2 0.745731 0.258205 0.431936
O O3 0.811459 0.126989 0.299732
O O4 0.724208 0.089032 0.508959
O O5 0.742593 0.900547 0.294306
O O6 0.500000 0.000000 0.246066
O O7 0.738471 0.031887 0.130659
O O8 0.624033 0.883454 0.089363
O O9 0.720334 0.918722 0.516828
O O10 0.500000 0.500000 0.873585
O O11 0.709483 0.519868 0.706831
O O12 0.665362 0.630012 0.888813
O O13 0.815521 0.465667 0.895578
O O14 0.000000 0.500000 0.619681
O O15 0.059099 0.710349 0.919940
O O16 0.850497 0.835611 0.940150
O O17 0.059797 0.840108 0.092950
O O18 0.000000 0.000000 0.199518
#
# Coordination Sequence:
#
# PCOD9344131 Si02
#       8
#     4   4   4   4   4   4   4   4
#     4  11  25  41  64  95 130 167 211 263 319 381
#     4  12  22  40  66  92 131 170 207 254 315 376
#     4  11  24  42  62  94 131 165 212 265 316 383
#     4  10  23  45  65  88 123 165 213 268 321 378
#     4  10  23  45  65  88 123 165 213 268 321 378
#     4  11  24  42  62  94 131 165 212 265 316 383
#     4  12  22  40  66  92 131 170 207 254 315 376
#     4  11  25  41  64  95 130 167 211 263 319 381
#
# _framework density 21.734083999999999
#
# number of rings (size 3 to 8) (size 9 to 14) (size 15 to 20)
#    0.000    1.000    5.000    1.500    3.500    6.000 
#    0.000    5.000    0.000    0.000    0.000    0.000 
#    0.000    0.000    0.000    0.000    0.000    0.000 
#
# Total GULP energy -178406.059610 kJ/mol
# GULP energy per Si atom -5575.189363 kJ/mol
# Density = 2.168462 g / cm^3
# Si number density = 21.734084 Si / 1000 Ang^3
#
#
#
# Elastic Constant Matrix: (Units=GPa)
#
#
# Indices 1 2 3 4 5 6 
#
# 1 42.1703 16.1559 4.2671 0.0000 0.0000 0.0000
# 2 16.1559 101.4081 16.0062 0.0000 0.0000 0.0000
# 3 4.2671 16.0062 67.3074 0.0000 0.0000 0.0000
# 4 0.0000 0.0000 0.0000 6.1000 0.0000 0.0000
# 5 0.0000 0.0000 0.0000 0.0000 24.6321 0.0000
# 6 0.0000 0.0000 0.0000 0.0000 0.0000 40.0180
#
#
#
# Elastic Compliance Matrix: (Units=1/GPa)
#
#
# Indices 1 2 3 4 5 6 
#
# 1 0.025284 -0.003922 -0.000670 0.000000 0.000000 0.000000
# 2 -0.003922 0.010854 -0.002333 0.000000 0.000000 0.000000
# 3 -0.000670 -0.002333 0.015454 0.000000 0.000000 0.000000
# 4 0.000000 0.000000 0.000000 0.163934 0.000000 0.000000
# 5 0.000000 0.000000 0.000000 0.000000 0.040597 0.000000
# 6 0.000000 0.000000 0.000000 0.000000 0.000000 0.024989
#
#
# Mechanical properties :
#
#
# Convention : Reuss Voigt Hill
#
# Bulk Modulus (GPa) = 26.49544 31.52715 29.01130
# Shear Modulus (GPa) = 16.25785 25.78046 21.01916
#
# Velocity S-wave (km/s) = 2.73799 3.44783 3.11321
# Velocity P-wave (km/s) = 4.71303 5.51247 5.12835
#
# Compressibility (1/GPa) = 0.03774234
#
# Stress axis : x y z
#
# Youngs Moduli (GPa) = 39.55090 92.13025 64.70653
#
# Poissons Ratio (x) = 0.36137 0.04336
# Poissons Ratio (y) = 0.15513 0.15093
# Poissons Ratio (z) = 0.02651 0.21490
#
# Static dielectric constant tensor:
#      x y z
#    x 1.943810 0.000000 0.000000 
#    y 0.000000 1.806990 0.000000 
#    z 0.000000 0.000000 1.802610 
# 
# From -- ./inp_files/3764.got.cif
#   From: 2010.05.17/outbox.cif.g08.bks.cpg/sg32_2_cif.got.tgz:3764.got - 2010.06.03 17:12:27.
