data_PCOD9344814
_publ_section_title
;
Structure prediction by ZEFSAII (Michael W. Deem and Ramdas Pophale) SiO2 
 PCOD9344814
Probable space group: P N A 21
;
_chemical_formula_sum "Si O2"
_cell_formula_units_Z 32
_cell_length_a 16.824707
_cell_length_b 9.755040
_cell_length_c 8.370552
_cell_angle_alpha 90.000000
_cell_angle_beta 90.000000
_cell_angle_gamma 90.000000
_cell_volume 1373.822621
_symmetry_space_group_name_H-M "P N A 21"
_symmetry_group_IT_number 33
_symmetry_cell_setting 'orthorhombic'
loop_
_space_group_symop_operation_xyz
x,y,z
-x,-y,1/2+z
1/2-x,1/2+y,1/2+z
1/2+x,1/2-y,z
loop_
_atom_site_type_symbol
_atom_site_label
_atom_site_fract_x
_atom_site_fract_y
_atom_site_fract_z
Si Si1 0.962823 0.239653 0.793260
Si Si2 0.582037 0.489546 0.890025
Si Si3 0.432124 0.198692 0.453567
Si Si4 0.658104 0.508653 0.202936
Si Si5 0.308052 0.869713 0.026486
Si Si6 0.406528 0.124432 0.112131
Si Si7 0.720699 0.638113 0.700819
Si Si8 0.748367 0.395065 0.495694
O O1 0.965055 0.329344 0.630997
O O2 0.031299 0.126298 0.806544
O O3 0.885177 0.142874 0.771123
O O4 0.954248 0.318705 0.959988
O O5 0.544776 0.640908 0.924964
O O6 0.654311 0.538481 0.779386
O O7 0.603661 0.438352 0.068625
O O8 0.450410 0.127341 0.284322
O O9 0.335951 0.171134 0.469084
O O10 0.692808 0.420920 0.343868
O O11 0.732848 0.555845 0.101826
O O12 0.286820 0.851243 0.839614
O O13 0.301901 0.716547 0.096079
O O14 0.377880 0.972506 0.066985
O O15 0.329507 0.229532 0.138129
O O16 0.759598 0.546603 0.563950
#
# Coordination Sequence:
#
# PCOD9344814 Si02
#       8
#     4   4   4   4   4   4   4   4
#     4  11  21  37  62  89 119 161 211 252 301 360
#     4   9  21  38  55  88 126 150 207 257 296 355
#     4  10  21  35  53  90 122 153 196 255 303 361
#     4  10  20  34  55  84 122 162 193 256 313 352
#     4  11  20  37  54  85 130 153 197 253 306 379
#     4  11  21  37  59  87 123 163 197 252 313 349
#     4  10  21  35  57  88 115 159 199 249 303 356
#     4  12  19  35  59  85 127 157 198 250 311 372
#
# _framework density 23.292670000000001
#
# number of rings (size 3 to 8) (size 9 to 14) (size 15 to 20)
#    0.000    1.500    7.500    0.750    7.000    0.000 
#    0.000    0.000    0.000    1.500    0.000    0.000 
#    0.000    0.000    0.000    0.000    0.000    0.000 
#
# Total GULP energy -178302.935645 kJ/mol
# GULP energy per Si atom -5571.966739 kJ/mol
# Density = 2.323965 g / cm^3
# Si number density = 23.292670 Si / 1000 Ang^3
#
#
#
# Elastic Constant Matrix: (Units=GPa)
#
#
# Indices 1 2 3 4 5 6 
#
# 1 39.9536 20.4879 25.1881 0.0000 0.0000 0.0000
# 2 20.4879 73.2826 26.3348 0.0000 0.0000 0.0000
# 3 25.1881 26.3348 108.1447 0.0000 0.0000 0.0000
# 4 0.0000 0.0000 0.0000 17.2770 0.0000 0.0000
# 5 0.0000 0.0000 0.0000 0.0000 20.6671 0.0000
# 6 0.0000 0.0000 0.0000 0.0000 0.0000 31.2222
#
#
#
# Elastic Compliance Matrix: (Units=1/GPa)
#
#
# Indices 1 2 3 4 5 6 
#
# 1 0.032252 -0.006923 -0.005826 0.000000 0.000000 0.000000
# 2 -0.006923 0.016441 -0.002391 0.000000 0.000000 0.000000
# 3 -0.005826 -0.002391 0.011186 0.000000 0.000000 0.000000
# 4 0.000000 0.000000 0.000000 0.057881 0.000000 0.000000
# 5 0.000000 0.000000 0.000000 0.000000 0.048386 0.000000
# 6 0.000000 0.000000 0.000000 0.000000 0.000000 0.032028
#
#
# Mechanical properties :
#
#
# Convention : Reuss Voigt Hill
#
# Bulk Modulus (GPa) = 33.78573 40.60028 37.19300
# Shear Modulus (GPa) = 20.98016 23.79126 22.38571
#
# Velocity S-wave (km/s) = 3.00446 3.19941 3.10346
# Velocity P-wave (km/s) = 5.15481 5.57823 5.37069
#
# Compressibility (1/GPa) = 0.02959830
#
# Stress axis : x y z
#
# Youngs Moduli (GPa) = 31.00576 60.82502 89.39695
#
# Poissons Ratio (x) = 0.42110 0.52082
# Poissons Ratio (y) = 0.21466 0.21375
# Poissons Ratio (z) = 0.18064 0.14543
#
# Static dielectric constant tensor:
#      x y z
#    x 1.946190 0.000000 0.000000 
#    y 0.000000 1.926090 0.000000 
#    z 0.000000 0.000000 1.976290 
# 
# From -- ./inp_files/5075.got.cif
#   From: 2010.05.17/outbox.cif.g08.bks.cpg/sg33_3_cif.got.tgz:5075.got - 2010.06.03 17:15:25.
