data_PCOD9344842
_publ_section_title
;
Structure prediction by ZEFSAII (Michael W. Deem and Ramdas Pophale) SiO2 
 PCOD9344842
Probable space group: P N A 21
;
_chemical_formula_sum "Si O2"
_cell_formula_units_Z 32
_cell_length_a 17.532466
_cell_length_b 17.735252
_cell_length_c 5.089585
_cell_angle_alpha 90.000000
_cell_angle_beta 90.000000
_cell_angle_gamma 90.000000
_cell_volume 1582.569315
_symmetry_space_group_name_H-M "P N A 21"
_symmetry_group_IT_number 33
_symmetry_cell_setting 'orthorhombic'
loop_
_space_group_symop_operation_xyz
x,y,z
-x,-y,1/2+z
1/2-x,1/2+y,1/2+z
1/2+x,1/2-y,z
loop_
_atom_site_type_symbol
_atom_site_label
_atom_site_fract_x
_atom_site_fract_y
_atom_site_fract_z
Si Si1 0.733228 0.604225 0.498950
Si Si2 0.785058 0.832748 0.663249
Si Si3 0.517902 0.953741 0.754377
Si Si4 0.405566 0.460202 0.295405
Si Si5 0.630788 0.120285 0.376910
Si Si6 0.420511 0.562992 0.797686
Si Si7 0.685984 0.975621 0.701279
Si Si8 0.274725 0.768002 0.156751
O O1 0.663668 0.592379 0.698909
O O2 0.810052 0.632963 0.641794
O O3 0.759439 0.522395 0.394960
O O4 0.719571 0.664700 0.265819
O O5 0.866808 0.865900 0.748886
O O6 0.733053 0.905264 0.602117
O O7 0.788853 0.786548 0.397693
O O8 0.752439 0.781475 0.902008
O O9 0.457109 0.888319 0.806133
O O10 0.606761 0.943197 0.814691
O O11 0.506207 0.979348 0.454006
O O12 0.399410 0.497835 0.582889
O O13 0.488988 0.422392 0.271447
O O14 0.407083 0.528709 0.085690
O O15 0.649110 0.186657 0.576333
O O16 0.658960 0.040498 0.499493
#
# Coordination Sequence:
#
# PCOD9344842 Si02
#       8
#     4   4   4   4   4   4   4   4
#     4  11  20  41  64  90 117 166 201 251 303 370
#     4  12  23  41  60  89 123 163 204 253 305 361
#     4  10  20  35  59  94 119 144 197 255 301 352
#     4  10  21  36  64  93 117 147 205 256 305 347
#     4  10  21  41  63  88 123 163 203 247 308 370
#     4  10  21  38  59  93 121 148 195 266 304 353
#     4  10  22  35  67  94 117 154 207 263 299 347
#     4  11  26  39  60  83 129 169 202 239 309 380
#
# _framework density 20.220282000000001
#
# number of rings (size 3 to 8) (size 9 to 14) (size 15 to 20)
#    0.000    1.500    3.750    1.500    3.500    0.000 
#    0.000    2.500    0.000    0.000    0.000    0.000 
#    0.000    0.000    0.000    0.000    0.000    0.000 
#
# Total GULP energy -178519.424145 kJ/mol
# GULP energy per Si atom -5578.732005 kJ/mol
# Density = 2.017426 g / cm^3
# Si number density = 20.220282 Si / 1000 Ang^3
#
#
#
# Elastic Constant Matrix: (Units=GPa)
#
#
# Indices 1 2 3 4 5 6 
#
# 1 92.7338 25.6439 3.4277 0.0000 0.0000 0.0000
# 2 25.6439 89.2462 20.0322 0.0000 0.0000 0.0000
# 3 3.4277 20.0322 66.3633 0.0000 0.0000 0.0000
# 4 0.0000 0.0000 0.0000 24.6267 0.0000 0.0000
# 5 0.0000 0.0000 0.0000 0.0000 24.8501 0.0000
# 6 0.0000 0.0000 0.0000 0.0000 0.0000 12.1118
#
#
#
# Elastic Compliance Matrix: (Units=1/GPa)
#
#
# Indices 1 2 3 4 5 6 
#
# 1 0.011726 -0.003469 0.000441 0.000000 0.000000 0.000000
# 2 -0.003469 0.013045 -0.003759 0.000000 0.000000 0.000000
# 3 0.000441 -0.003759 0.016180 0.000000 0.000000 0.000000
# 4 0.000000 0.000000 0.000000 0.040606 0.000000 0.000000
# 5 0.000000 0.000000 0.000000 0.000000 0.040241 0.000000
# 6 0.000000 0.000000 0.000000 0.000000 0.000000 0.082564
#
#
# Mechanical properties :
#
#
# Convention : Reuss Voigt Hill
#
# Bulk Modulus (GPa) = 36.52257 38.50565 37.51411
# Shear Modulus (GPa) = 22.02038 25.60034 23.81036
#
# Velocity S-wave (km/s) = 3.30362 3.56205 3.43527
# Velocity P-wave (km/s) = 5.71432 6.00017 5.85899
#
# Compressibility (1/GPa) = 0.02738033
#
# Stress axis : x y z
#
# Youngs Moduli (GPa) = 85.27767 76.65615 61.80340
#
# Poissons Ratio (x) = 0.26588 -0.02728
# Poissons Ratio (y) = 0.29579 0.23230
# Poissons Ratio (z) = -0.03764 0.28812
#
# Static dielectric constant tensor:
#      x y z
#    x 1.735300 0.000000 0.000000 
#    y 0.000000 1.726060 0.000000 
#    z 0.000000 0.000000 1.771390 
# 
# From -- ./inp_files/1889.got.cif
#   From: 2010.05.17/outbox.cif.g08.bks.cpg/sg33_1_cif.got.tgz:1889.got - 2010.06.03 17:15:25.
