data_PCOD9344840
_publ_section_title
;
Structure prediction by ZEFSAII (Michael W. Deem and Ramdas Pophale) SiO2 
 PCOD9344840
Probable space group: P N A 21
;
_chemical_formula_sum "Si O2"
_cell_formula_units_Z 20
_cell_length_a 13.550155
_cell_length_b 15.317198
_cell_length_c 5.212265
_cell_angle_alpha 90.000000
_cell_angle_beta 90.000000
_cell_angle_gamma 90.000000
_cell_volume 1081.807722
_symmetry_space_group_name_H-M "P N A 21"
_symmetry_group_IT_number 33
_symmetry_cell_setting 'orthorhombic'
loop_
_space_group_symop_operation_xyz
x,y,z
-x,-y,1/2+z
1/2-x,1/2+y,1/2+z
1/2+x,1/2-y,z
loop_
_atom_site_type_symbol
_atom_site_label
_atom_site_fract_x
_atom_site_fract_y
_atom_site_fract_z
Si Si1 0.367367 0.985716 0.731970
Si Si2 0.352470 0.551841 0.245434
Si Si3 0.520153 0.612095 0.926212
Si Si4 0.477276 0.699172 0.418861
Si Si5 0.939133 0.605290 0.235841
O O1 0.375112 0.938193 0.459867
O O2 0.261576 0.030726 0.747645
O O3 0.454724 0.057127 0.742051
O O4 0.389975 0.917380 0.962216
O O5 0.410730 0.468033 0.353620
O O6 0.379765 0.638382 0.405484
O O7 0.409520 0.573760 0.978134
O O8 0.519219 0.684185 0.702270
O O9 0.545856 0.653670 0.201795
O O10 0.454465 0.794806 0.316361
#
# Coordination Sequence:
#
# PCOD9344840 Si02
#       5
#     4   4   4   4   4
#     4  10  23  39  64  78 123 162 196 232 303 352
#     4  10  21  38  60  90 119 155 194 238 306 350
#     4  10  20  35  59  85 120 151 179 253 293 341
#     4  10  20  37  60  83 123 143 198 247 287 333
#     4  10  22  43  57  86 117 161 197 246 281 354
#
# _framework density 18.487572
#
# number of rings (size 3 to 8) (size 9 to 14) (size 15 to 20)
#    1.200    0.800    2.000    1.200    2.800    0.000 
#    7.200    0.000    0.000    0.000    0.000    0.000 
#    0.000    0.000    0.000    0.000    0.000    0.000 
#
# Total GULP energy -111336.310282 kJ/mol
# GULP energy per Si atom -5566.815514 kJ/mol
# Density = 1.844549 g / cm^3
# Si number density = 18.487572 Si / 1000 Ang^3
#
#
#
# Elastic Constant Matrix: (Units=GPa)
#
#
# Indices 1 2 3 4 5 6 
#
# 1 36.4342 -9.1260 12.2235 0.0000 0.0000 0.0000
# 2 -9.1260 30.8566 -31.6709 0.0000 0.0000 0.0000
# 3 12.2235 -31.6709 70.6683 0.0000 0.0000 0.0000
# 4 0.0000 0.0000 0.0000 22.9448 0.0000 0.0000
# 5 0.0000 0.0000 0.0000 0.0000 13.1548 0.0000
# 6 0.0000 0.0000 0.0000 0.0000 0.0000 16.7626
#
#
#
# Elastic Compliance Matrix: (Units=1/GPa)
#
#
# Indices 1 2 3 4 5 6 
#
# 1 0.029832 0.006531 -0.002233 0.000000 0.000000 0.000000
# 2 0.006531 0.061443 0.026407 0.000000 0.000000 0.000000
# 3 -0.002233 0.026407 0.026372 0.000000 0.000000 0.000000
# 4 0.000000 0.000000 0.000000 0.043583 0.000000 0.000000
# 5 0.000000 0.000000 0.000000 0.000000 0.076018 0.000000
# 6 0.000000 0.000000 0.000000 0.000000 0.000000 0.059657
#
#
# Mechanical properties :
#
#
# Convention : Reuss Voigt Hill
#
# Bulk Modulus (GPa) = 5.58485 8.97915 7.28200
# Shear Modulus (GPa) = 16.93882 21.67460 19.30671
#
# Velocity S-wave (km/s) = 3.03021 3.42773 3.23508
# Velocity P-wave (km/s) = 3.90772 4.53135 4.23105
#
# Compressibility (1/GPa) = 0.17905570
#
# Stress axis : x y z
#
# Youngs Moduli (GPa) = 33.52131 16.27518 37.91969
#
# Poissons Ratio (x) = -0.10629 0.08468
# Poissons Ratio (y) = -0.21892 -1.00134
# Poissons Ratio (z) = 0.07486 -0.42978
#
# Static dielectric constant tensor:
#      x y z
#    x 1.609820 0.000000 0.000000 
#    y 0.000000 1.635820 0.000000 
#    z 0.000000 0.000000 1.686990 
# 
# From -- ./inp_files/765.got.cif
#   From: 2010.05.17/outbox.cif.g08.bks.cpg/sg33_1_cif.got.tgz:765.got - 2010.06.03 17:15:25.
