data_PCOD9344686
_publ_section_title
;
Structure prediction by ZEFSAII (Michael W. Deem and Ramdas Pophale) SiO2 
 PCOD9344686
Probable space group: P N A 21
;
_chemical_formula_sum "Si O2"
_cell_formula_units_Z 24
_cell_length_a 29.126340
_cell_length_b 8.833975
_cell_length_c 5.145138
_cell_angle_alpha 90.000000
_cell_angle_beta 90.000000
_cell_angle_gamma 90.000000
_cell_volume 1323.851002
_symmetry_space_group_name_H-M "P N A 21"
_symmetry_group_IT_number 33
_symmetry_cell_setting 'orthorhombic'
loop_
_space_group_symop_operation_xyz
x,y,z
-x,-y,1/2+z
1/2-x,1/2+y,1/2+z
1/2+x,1/2-y,z
loop_
_atom_site_type_symbol
_atom_site_label
_atom_site_fract_x
_atom_site_fract_y
_atom_site_fract_z
Si Si1 0.717594 0.932537 0.908330
Si Si2 0.983034 0.083111 0.896627
Si Si3 0.480393 0.918921 0.491984
Si Si4 0.717113 0.721553 0.409390
Si Si5 0.611519 0.931937 0.870593
Si Si6 0.111061 0.773716 0.370865
O O1 0.725095 0.816918 0.670955
O O2 0.664200 0.983414 0.893706
O O3 0.750509 0.076408 0.894211
O O4 0.724353 0.836840 0.170904
O O5 0.928082 0.102033 0.907976
O O6 0.998820 0.032320 0.612238
O O7 0.003813 0.247301 0.961535
O O8 0.507173 0.018433 0.276170
O O9 0.426770 0.943808 0.430343
O O10 0.663479 0.673158 0.400583
O O11 0.604321 0.856049 0.589519
O O12 0.605142 0.801648 0.088386
#
# Coordination Sequence:
#
# PCOD9344686 Si02
#       6
#     4   4   4   4   4   4
#     4  10  21  38  61  85 116 144 191 235 284 339
#     4  12  24  38  55  86 122 146 185 240 289 333
#     4  12  21  38  63  81 110 152 196 231 267 341
#     4  10  21  39  62  85 113 152 186 238 284 339
#     4  10  19  37  61  84 104 152 199 230 266 340
#     4  10  20  38  60  79 115 156 187 220 292 348
#
# _framework density 18.128931000000001
#
# number of rings (size 3 to 8) (size 9 to 14) (size 15 to 20)
#    0.000    1.333    3.333    3.000    0.000    0.000 
#    6.000    0.000    0.000    0.000    0.000    0.000 
#    0.000    0.000    0.000    0.000    0.000    0.000 
#
# Total GULP energy -134086.585421 kJ/mol
# GULP energy per Si atom -5586.941059 kJ/mol
# Density = 1.808767 g / cm^3
# Si number density = 18.128931 Si / 1000 Ang^3
#
#
#
# Elastic Constant Matrix: (Units=GPa)
#
#
# Indices 1 2 3 4 5 6 
#
# 1 128.6431 51.9684 9.7649 0.0000 0.0000 0.0000
# 2 51.9684 50.2127 -7.4325 0.0000 0.0000 0.0000
# 3 9.7649 -7.4325 66.8574 0.0000 0.0000 0.0000
# 4 0.0000 0.0000 0.0000 20.2656 0.0000 0.0000
# 5 0.0000 0.0000 0.0000 0.0000 7.8944 0.0000
# 6 0.0000 0.0000 0.0000 0.0000 0.0000 34.9688
#
#
#
# Elastic Compliance Matrix: (Units=1/GPa)
#
#
# Indices 1 2 3 4 5 6 
#
# 1 0.014240 -0.015298 -0.003781 0.000000 0.000000 0.000000
# 2 -0.015298 0.036682 0.006312 0.000000 0.000000 0.000000
# 3 -0.003781 0.006312 0.016211 0.000000 0.000000 0.000000
# 4 0.000000 0.000000 0.000000 0.049345 0.000000 0.000000
# 5 0.000000 0.000000 0.000000 0.000000 0.126672 0.000000
# 6 0.000000 0.000000 0.000000 0.000000 0.000000 0.028597
#
#
# Mechanical properties :
#
#
# Convention : Reuss Voigt Hill
#
# Bulk Modulus (GPa) = 24.03753 39.36832 31.70292
# Shear Modulus (GPa) = 16.06959 25.38658 20.72808
#
# Velocity S-wave (km/s) = 2.98049 3.74616 3.38504
# Velocity P-wave (km/s) = 5.01322 6.36196 5.72743
#
# Compressibility (1/GPa) = 0.04160162
#
# Stress axis : x y z
#
# Youngs Moduli (GPa) = 70.22302 27.26105 61.68607
#
# Poissons Ratio (x) = 0.41704 0.23321
# Poissons Ratio (y) = 1.07426 -0.38938
# Poissons Ratio (z) = 0.26548 -0.17208
#
# Static dielectric constant tensor:
#      x y z
#    x 1.638680 0.000000 0.000000 
#    y 0.000000 1.564290 0.000000 
#    z 0.000000 0.000000 1.616190 
# 
# From -- ./inp_files/2188.got.cif
#   From: 2010.05.17/outbox.cif.g08.bks.cpg/sg33_2_cif.got.tgz:2188.got - 2010.06.03 17:15:25.
