data_PCOD9344230
_publ_section_title
;
Structure prediction by ZEFSAII (Michael W. Deem and Ramdas Pophale) SiO2 
 PCOD9344230
Probable space group: P B A 2
;
_chemical_formula_sum "Si O2"
_cell_formula_units_Z 32
_cell_length_a 12.715730
_cell_length_b 8.612073
_cell_length_c 13.107864
_cell_angle_alpha 90.000000
_cell_angle_beta 90.000000
_cell_angle_gamma 90.000000
_cell_volume 1435.426392
_symmetry_space_group_name_H-M "P B A 2"
_symmetry_group_IT_number 32
_symmetry_cell_setting 'orthorhombic'
loop_
_space_group_symop_operation_xyz
x,y,z
-x,-y,z
1/2-x,1/2+y,z
1/2+x,1/2-y,z
loop_
_atom_site_type_symbol
_atom_site_label
_atom_site_fract_x
_atom_site_fract_y
_atom_site_fract_z
Si Si1 0.724391 0.677321 0.527540
Si Si2 0.799285 0.666440 0.819476
Si Si3 0.665389 0.422983 0.153832
Si Si4 0.072478 0.371705 0.416945
Si Si5 0.078866 0.884168 0.346435
Si Si6 0.616349 0.456737 0.922930
Si Si7 0.197906 0.577632 0.671053
Si Si8 0.117428 0.439828 0.201154
O O1 0.847114 0.705847 0.496283
O O2 0.674346 0.645352 0.419538
O O3 0.725687 0.534242 0.605698
O O4 0.657243 0.812291 0.581155
O O5 0.704868 0.569351 0.872667
O O6 0.861464 0.775078 0.897686
O O7 0.859286 0.539833 0.748653
O O8 0.754836 0.796112 0.741955
O O9 0.615173 0.532733 0.242410
O O10 0.790770 0.453499 0.154088
O O11 0.639430 0.240969 0.172235
O O12 0.623192 0.474208 0.044308
O O13 0.133346 0.453969 0.323553
O O14 0.000000 0.500000 0.469332
O O15 0.994931 0.265452 0.348516
O O16 0.000000 0.000000 0.402910
O O17 0.500000 0.500000 0.885593
O O18 0.000000 0.500000 0.173648
#
# Coordination Sequence:
#
# PCOD9344230 Si02
#       8
#     4   4   4   4   4   4   4   4
#     4  11  21  40  63  97 136 186 232 283 345 416
#     4   9  21  47  67 100 135 169 229 305 364 411
#     4  12  26  45  70 104 144 193 233 294 350 417
#     4  11  24  39  60  94 142 191 238 283 333 411
#     4  12  24  39  62  94 143 192 233 284 339 411
#     4  11  24  45  75 103 135 181 236 290 361 430
#     4   9  20  40  71  93 134 176 225 297 360 414
#     4  11  27  44  68 100 142 195 240 280 340 412
#
# _framework density 22.293029000000001
#
# number of rings (size 3 to 8) (size 9 to 14) (size 15 to 20)
#    0.000    1.250    2.500    2.625    3.500    1.000 
#    0.000   24.375    0.000    0.000    0.000    0.000 
#    0.000    0.000    0.000    0.000    0.000    0.000 
#
# Total GULP energy -178275.051450 kJ/mol
# GULP energy per Si atom -5571.095358 kJ/mol
# Density = 2.224229 g / cm^3
# Si number density = 22.293029 Si / 1000 Ang^3
#
#
#
# Elastic Constant Matrix: (Units=GPa)
#
#
# Indices 1 2 3 4 5 6 
#
# 1 120.5319 42.4961 28.6260 0.0000 0.0000 0.0000
# 2 42.4961 129.2827 45.9145 0.0000 0.0000 0.0000
# 3 28.6260 45.9145 103.8688 0.0000 0.0000 0.0000
# 4 0.0000 0.0000 0.0000 58.1515 0.0000 0.0000
# 5 0.0000 0.0000 0.0000 0.0000 6.2310 0.0000
# 6 0.0000 0.0000 0.0000 0.0000 0.0000 21.7278
#
#
#
# Elastic Compliance Matrix: (Units=1/GPa)
#
#
# Indices 1 2 3 4 5 6 
#
# 1 0.009572 -0.002621 -0.001479 0.000000 0.000000 0.000000
# 2 -0.002621 0.009893 -0.003651 0.000000 0.000000 0.000000
# 3 -0.001479 -0.003651 0.011649 0.000000 0.000000 0.000000
# 4 0.000000 0.000000 0.000000 0.017196 0.000000 0.000000
# 5 0.000000 0.000000 0.000000 0.000000 0.160488 0.000000
# 6 0.000000 0.000000 0.000000 0.000000 0.000000 0.046024
#
#
# Mechanical properties :
#
#
# Convention : Reuss Voigt Hill
#
# Bulk Modulus (GPa) = 64.05456 65.30630 64.68043
# Shear Modulus (GPa) = 18.14690 32.99851 25.57270
#
# Velocity S-wave (km/s) = 2.85619 3.85153 3.39059
# Velocity P-wave (km/s) = 6.29861 7.00979 6.66369
#
# Compressibility (1/GPa) = 0.01561169
#
# Stress axis : x y z
#
# Youngs Moduli (GPa) = 104.47133 101.08054 85.84364
#
# Poissons Ratio (x) = 0.26493 0.12700
# Poissons Ratio (y) = 0.27382 0.31340
# Poissons Ratio (z) = 0.15456 0.36903
#
# Static dielectric constant tensor:
#      x y z
#    x 1.898330 0.000000 0.000000 
#    y 0.000000 1.887180 0.000000 
#    z 0.000000 0.000000 1.846590 
# 
# From -- ./inp_files/4174.got.cif
#   From: 2010.05.17/outbox.cif.g08.bks.cpg/sg32_3_cif.got.tgz:4174.got - 2010.06.03 17:12:27.
