data_PCOD9344608
_publ_section_title
;
Structure prediction by ZEFSAII (Michael W. Deem and Ramdas Pophale) SiO2 
 PCOD9344608
Probable space group: P N A 21
;
_chemical_formula_sum "Si O2"
_cell_formula_units_Z 24
_cell_length_a 8.142843
_cell_length_b 15.934825
_cell_length_c 7.819797
_cell_angle_alpha 90.000000
_cell_angle_beta 90.000000
_cell_angle_gamma 90.000000
_cell_volume 1014.656025
_symmetry_space_group_name_H-M "P N A 21"
_symmetry_group_IT_number 33
_symmetry_cell_setting 'orthorhombic'
loop_
_space_group_symop_operation_xyz
x,y,z
-x,-y,1/2+z
1/2-x,1/2+y,1/2+z
1/2+x,1/2-y,z
loop_
_atom_site_type_symbol
_atom_site_label
_atom_site_fract_x
_atom_site_fract_y
_atom_site_fract_z
Si Si1 0.615158 0.129300 0.307670
Si Si2 0.886312 0.964612 0.778475
Si Si3 0.272539 0.531675 0.388301
Si Si4 0.252535 0.203195 0.309360
Si Si5 0.757677 0.132519 0.929586
Si Si6 0.130658 0.202399 0.916818
O O1 0.629124 0.036437 0.385384
O O2 0.435710 0.168929 0.315678
O O3 0.728715 0.204033 0.385325
O O4 0.672977 0.117912 0.112240
O O5 0.832619 0.958071 0.582690
O O6 0.781256 0.041370 0.850361
O O7 0.857476 0.875370 0.870255
O O8 0.076191 0.988930 0.789390
O O9 0.262698 0.628246 0.329273
O O10 0.200167 0.213833 0.109827
O O11 0.651665 0.205351 0.837682
O O12 0.942939 0.171539 0.932110
#
# Coordination Sequence:
#
# PCOD9344608 Si02
#       6
#     4   4   4   4   4   4
#     4  11  20  34  57  80 106 140 183 223 267 321
#     4  10  21  37  57  80 110 144 182 222 271 320
#     4  10  20  37  55  79 109 145 181 223 268 320
#     4  10  20  34  56  80 106 145 183 219 266 333
#     4  10  19  35  58  81 107 144 180 224 267 321
#     4   9  18  33  55  78 106 140 179 213 263 325
#
# _framework density 23.653334999999998
#
# number of rings (size 3 to 8) (size 9 to 14) (size 15 to 20)
#    0.000    2.000    0.000    8.000    0.000    4.000 
#    0.000    8.333    0.000    0.000    0.000    0.000 
#    0.000    0.000    0.000    0.000    0.000    0.000 
#
# Total GULP energy -133962.573444 kJ/mol
# GULP energy per Si atom -5581.773893 kJ/mol
# Density = 2.359950 g / cm^3
# Si number density = 23.653335 Si / 1000 Ang^3
#
#
#
# Elastic Constant Matrix: (Units=GPa)
#
#
# Indices 1 2 3 4 5 6 
#
# 1 54.8960 -9.8976 -8.4532 0.0000 0.0000 0.0000
# 2 -9.8976 112.3362 -4.6017 0.0000 0.0000 0.0000
# 3 -8.4532 -4.6017 12.5232 0.0000 0.0000 0.0000
# 4 0.0000 0.0000 0.0000 28.8573 0.0000 0.0000
# 5 0.0000 0.0000 0.0000 0.0000 13.1314 0.0000
# 6 0.0000 0.0000 0.0000 0.0000 0.0000 50.4450
#
#
#
# Elastic Compliance Matrix: (Units=1/GPa)
#
#
# Indices 1 2 3 4 5 6 
#
# 1 0.020981 0.002466 0.015068 0.000000 0.000000 0.000000
# 2 0.002466 0.009328 0.005092 0.000000 0.000000 0.000000
# 3 0.015068 0.005092 0.091894 0.000000 0.000000 0.000000
# 4 0.000000 0.000000 0.000000 0.034653 0.000000 0.000000
# 5 0.000000 0.000000 0.000000 0.000000 0.076154 0.000000
# 6 0.000000 0.000000 0.000000 0.000000 0.000000 0.019824
#
#
# Mechanical properties :
#
#
# Convention : Reuss Voigt Hill
#
# Bulk Modulus (GPa) = 5.97175 14.87226 10.42200
# Shear Modulus (GPa) = 18.98261 32.00060 25.49160
#
# Velocity S-wave (km/s) = 2.83598 3.68217 3.28642
# Velocity P-wave (km/s) = 3.64059 4.93752 4.33780
#
# Compressibility (1/GPa) = 0.16745521
#
# Stress axis : x y z
#
# Youngs Moduli (GPa) = 47.66177 107.20764 10.88212
#
# Poissons Ratio (x) = -0.26436 -0.16398
# Poissons Ratio (y) = -0.11753 -0.05541
# Poissons Ratio (z) = -0.71819 -0.54589
#
# Static dielectric constant tensor:
#      x y z
#    x 1.923180 0.000000 0.000000 
#    y 0.000000 2.143760 0.000000 
#    z 0.000000 0.000000 1.918930 
# 
# From -- ./inp_files/3161.got.cif
#   From: 2010.05.17/outbox.cif.g08.bks.cpg/sg33_2_cif.got.tgz:3161.got - 2010.06.03 17:15:25.
