data_PCOD9344012
_publ_section_title
;
Structure prediction by ZEFSAII (Michael W. Deem and Ramdas Pophale) SiO2 
 PCOD9344012
Probable space group: P B A 2
;
_chemical_formula_sum "Si O2"
_cell_formula_units_Z 30
_cell_length_a 16.744694
_cell_length_b 14.379881
_cell_length_c 5.253202
_cell_angle_alpha 90.000000
_cell_angle_beta 90.000000
_cell_angle_gamma 90.000000
_cell_volume 1264.901211
_symmetry_space_group_name_H-M "P B A 2"
_symmetry_group_IT_number 32
_symmetry_cell_setting 'orthorhombic'
loop_
_space_group_symop_operation_xyz
x,y,z
-x,-y,z
1/2-x,1/2+y,z
1/2+x,1/2-y,z
loop_
_atom_site_type_symbol
_atom_site_label
_atom_site_fract_x
_atom_site_fract_y
_atom_site_fract_z
Si Si1 0.938830 0.767448 0.900230
Si Si2 0.134361 0.057985 0.699531
Si Si3 0.962557 0.203489 0.392450
Si Si4 0.200474 0.722269 0.264269
Si Si5 0.500000 0.500000 0.341412
Si Si6 0.821253 0.653280 0.560768
Si Si7 0.725250 0.982015 0.343914
Si Si8 0.818827 0.108470 0.940113
O O1 0.883498 0.860444 0.897379
O O2 0.883591 0.689473 0.768279
O O3 0.000978 0.789699 0.674319
O O4 0.980035 0.750717 0.173174
O O5 0.072529 0.056964 0.469868
O O6 0.222204 0.058518 0.580413
O O7 0.114676 0.958449 0.824088
O O8 0.877317 0.253409 0.430351
O O9 0.952685 0.098072 0.277638
O O10 0.283793 0.765334 0.378669
O O11 0.201754 0.613528 0.208821
O O12 0.175763 0.786660 0.028397
O O13 0.843135 0.556948 0.417757
O O14 0.744629 0.618421 0.714129
O O15 0.780344 0.045388 0.162759
#
# Coordination Sequence:
#
# PCOD9344012 Si02
#       8
#     4   4   4   4   2   4   4   4
#     4  11  26  43  70  96 140 184 227 279 355 423
#     4  10  22  38  61  98 135 180 218 276 352 427
#     4  11  27  42  66 102 142 182 227 282 355 419
#     4  11  24  42  69  96 139 176 237 289 349 417
#     4  10  22  40  62  96 150 174 220 272 366 432
#     4  10  23  43  68  96 134 179 237 290 342 417
#     4  10  22  42  64  97 128 177 238 287 338 404
#     4  10  23  35  66  99 129 169 230 284 348 395
#
# _framework density 23.717265999999999
#
# number of rings (size 3 to 8) (size 9 to 14) (size 15 to 20)
#    0.000    1.600    1.333    2.400   16.800    0.533 
#    0.000    0.667    0.000    0.000    0.000    0.000 
#    0.000    0.000    0.000    0.000    0.000    0.000 
#
# Total GULP energy -167037.787627 kJ/mol
# GULP energy per Si atom -5567.926254 kJ/mol
# Density = 2.366328 g / cm^3
# Si number density = 23.717266 Si / 1000 Ang^3
#
#
#
# Elastic Constant Matrix: (Units=GPa)
#
#
# Indices 1 2 3 4 5 6 
#
# 1 26.1954 24.2035 -6.6554 0.0000 0.0000 0.0000
# 2 24.2035 160.9405 12.0158 0.0000 0.0000 0.0000
# 3 -6.6554 12.0158 73.3978 0.0000 0.0000 0.0000
# 4 0.0000 0.0000 0.0000 27.4548 0.0000 0.0000
# 5 0.0000 0.0000 0.0000 0.0000 41.1914 0.0000
# 6 0.0000 0.0000 0.0000 0.0000 0.0000 2.4141
#
#
#
# Elastic Compliance Matrix: (Units=1/GPa)
#
#
# Indices 1 2 3 4 5 6 
#
# 1 0.046365 -0.007377 0.005412 0.000000 0.000000 0.000000
# 2 -0.007377 0.007464 -0.001891 0.000000 0.000000 0.000000
# 3 0.005412 -0.001891 0.014425 0.000000 0.000000 0.000000
# 4 0.000000 0.000000 0.000000 0.036424 0.000000 0.000000
# 5 0.000000 0.000000 0.000000 0.000000 0.024277 0.000000
# 6 0.000000 0.000000 0.000000 0.000000 0.000000 0.414231
#
#
# Mechanical properties :
#
#
# Convention : Reuss Voigt Hill
#
# Bulk Modulus (GPa) = 16.51731 35.51795 26.01763
# Shear Modulus (GPa) = 8.75536 29.61005 19.18271
#
# Velocity S-wave (km/s) = 1.92343 3.53719 2.84704
# Velocity P-wave (km/s) = 3.45140 5.62942 4.66918
#
# Compressibility (1/GPa) = 0.06054256
#
# Stress axis : x y z
#
# Youngs Moduli (GPa) = 21.56777 133.97578 69.32578
#
# Poissons Ratio (x) = 0.98832 -0.37518
# Poissons Ratio (y) = 0.15910 0.13108
# Poissons Ratio (z) = -0.11672 0.25332
#
# Static dielectric constant tensor:
#      x y z
#    x 2.018990 0.000000 0.000000 
#    y 0.000000 1.988780 0.000000 
#    z 0.000000 0.000000 2.048560 
# 
# From -- ./inp_files/1289.got.cif
#   From: 2010.05.17/outbox.cif.g08.bks.cpg/sg32_1_cif.got.tgz:1289.got - 2010.06.03 17:12:27.
