data_PCOD9344323
_publ_section_title
;
Structure prediction by ZEFSAII (Michael W. Deem and Ramdas Pophale) SiO2 
 PCOD9344323
Probable space group: P B A 2
;
_chemical_formula_sum "Si O2"
_cell_formula_units_Z 14
_cell_length_a 19.726797
_cell_length_b 4.813599
_cell_length_c 5.900378
_cell_angle_alpha 90.000000
_cell_angle_beta 90.000000
_cell_angle_gamma 90.000000
_cell_volume 560.281547
_symmetry_space_group_name_H-M "P B A 2"
_symmetry_group_IT_number 32
_symmetry_cell_setting 'orthorhombic'
loop_
_space_group_symop_operation_xyz
x,y,z
-x,-y,z
1/2-x,1/2+y,z
1/2+x,1/2-y,z
loop_
_atom_site_type_symbol
_atom_site_label
_atom_site_fract_x
_atom_site_fract_y
_atom_site_fract_z
Si Si1 0.205573 0.364343 0.428070
Si Si2 0.402662 0.181140 0.114364
Si Si3 0.000000 0.000000 0.441038
Si Si4 0.390790 0.708717 0.799940
O O1 0.273327 0.545518 0.395672
O O2 0.152420 0.509607 0.261568
O O3 0.174318 0.351480 0.680709
O O4 0.460899 0.287387 0.279736
O O5 0.377587 0.447009 0.965758
O O6 0.426008 0.951093 0.938021
O O7 0.940942 0.882023 0.600200
#
# Coordination Sequence:
#
# PCOD9344323 Si02
#       4
#     4   4   2   4
#     4  12  27  49  74 107 149 192 248 304 356 434
#     4  12  28  48  76 109 146 195 243 301 372 435
#     4  12  28  50  76 112 154 186 246 308 364 444
#     4  12  28  48  76 109 146 195 243 301 372 435
#
# _framework density 24.987434
#
# number of rings (size 3 to 8) (size 9 to 14) (size 15 to 20)
#    0.000    0.000    0.000    9.429    0.000   24.000 
#    0.000    0.000    0.000    0.000    0.000    0.000 
#    0.000    0.000    0.000    0.000    0.000    0.000 
#
# Total GULP energy -78450.870034 kJ/mol
# GULP energy per Si atom -5603.633574 kJ/mol
# Density = 2.493056 g / cm^3
# Si number density = 24.987434 Si / 1000 Ang^3
#
#
#
# Elastic Constant Matrix: (Units=GPa)
#
#
# Indices 1 2 3 4 5 6 
#
# 1 65.5926 34.5574 40.8505 0.0000 0.0000 0.0000
# 2 34.5574 177.8179 88.5965 0.0000 0.0000 0.0000
# 3 40.8505 88.5965 145.6603 0.0000 0.0000 0.0000
# 4 0.0000 0.0000 0.0000 50.2187 0.0000 0.0000
# 5 0.0000 0.0000 0.0000 0.0000 27.6580 0.0000
# 6 0.0000 0.0000 0.0000 0.0000 0.0000 27.1187
#
#
#
# Elastic Compliance Matrix: (Units=1/GPa)
#
#
# Indices 1 2 3 4 5 6 
#
# 1 0.018735 -0.001468 -0.004361 0.000000 0.000000 0.000000
# 2 -0.001468 0.008184 -0.004566 0.000000 0.000000 0.000000
# 3 -0.004361 -0.004566 0.010866 0.000000 0.000000 0.000000
# 4 0.000000 0.000000 0.000000 0.019913 0.000000 0.000000
# 5 0.000000 0.000000 0.000000 0.000000 0.036156 0.000000
# 6 0.000000 0.000000 0.000000 0.000000 0.000000 0.036875
#
#
# Mechanical properties :
#
#
# Convention : Reuss Voigt Hill
#
# Bulk Modulus (GPa) = 58.84451 79.67551 69.26001
# Shear Modulus (GPa) = 31.80970 36.00351 33.90661
#
# Velocity S-wave (km/s) = 3.57182 3.79999 3.68767
# Velocity P-wave (km/s) = 6.37270 7.15602 6.77569
#
# Compressibility (1/GPa) = 0.01699394
#
# Stress axis : x y z
#
# Youngs Moduli (GPa) = 53.37525 122.18808 92.03191
#
# Poissons Ratio (x) = 0.17937 0.40139
# Poissons Ratio (y) = 0.07836 0.42024
# Poissons Ratio (z) = 0.23279 0.55794
#
# Static dielectric constant tensor:
#      x y z
#    x 1.979980 0.000000 0.000000 
#    y 0.000000 1.927770 0.000000 
#    z 0.000000 0.000000 2.005650 
# 
# From -- ./inp_files/1352.got.cif
#   From: 2010.05.17/outbox.cif.g08.bks.cpg/sg32_1_cif.got.tgz:1352.got - 2010.06.03 17:12:27.
