data_PCOD9344355
_publ_section_title
;
Structure prediction by ZEFSAII (Michael W. Deem and Ramdas Pophale) SiO2 
 PCOD9344355
Probable space group: P N A 21
;
_chemical_formula_sum "Si O2"
_cell_formula_units_Z 32
_cell_length_a 5.863359
_cell_length_b 25.104799
_cell_length_c 9.089803
_cell_angle_alpha 90.000000
_cell_angle_beta 90.000000
_cell_angle_gamma 90.000000
_cell_volume 1338.004905
_symmetry_space_group_name_H-M "P N A 21"
_symmetry_group_IT_number 33
_symmetry_cell_setting 'orthorhombic'
loop_
_space_group_symop_operation_xyz
x,y,z
-x,-y,1/2+z
1/2-x,1/2+y,1/2+z
1/2+x,1/2-y,z
loop_
_atom_site_type_symbol
_atom_site_label
_atom_site_fract_x
_atom_site_fract_y
_atom_site_fract_z
Si Si1 0.606519 0.813223 0.174900
Si Si2 0.899866 0.541263 0.097639
Si Si3 0.627930 0.869945 0.896058
Si Si4 0.761829 0.617390 0.669732
Si Si5 0.105556 0.810018 0.166012
Si Si6 0.517971 0.547540 0.893709
Si Si7 0.837223 0.545134 0.419882
Si Si8 0.106108 0.778960 0.819538
O O1 0.351252 0.833378 0.213632
O O2 0.604439 0.751403 0.218392
O O3 0.860994 0.835073 0.213588
O O4 0.617499 0.817551 0.995609
O O5 0.962192 0.550636 0.264949
O O6 0.003303 0.487175 0.032986
O O7 0.636403 0.542055 0.051887
O O8 0.991023 0.588976 0.998644
O O9 0.508682 0.868224 0.739212
O O10 0.862626 0.900363 0.891763
O O11 0.683728 0.564021 0.760375
O O12 0.764874 0.598467 0.502571
O O13 0.619647 0.670180 0.708521
O O14 0.113187 0.802953 0.987220
O O15 0.369253 0.494719 0.877931
O O16 0.353717 0.748386 0.795741
#
# Coordination Sequence:
#
# PCOD9344355 Si02
#       8
#     4   4   4   4   4   4   4   4
#     4  10  17  27  47  78 117 156 196 252 315 370
#     4  10  22  38  59  86 121 161 203 267 314 397
#     4  10  20  34  54  87 124 159 203 261 322 394
#     4  11  23  36  64  96 127 176 215 274 344 403
#     4  10  16  27  47  78 119 157 196 258 315 366
#     4  10  21  36  60  89 125 164 210 267 330 399
#     4  11  22  42  61  89 126 165 216 264 335 401
#     4  12  21  36  58  95 137 170 223 283 337 398
#
# _framework density 23.916205999999999
#
# number of rings (size 3 to 8) (size 9 to 14) (size 15 to 20)
#    0.000    1.500    3.750    3.750    3.500    1.000 
#    0.000    0.000    0.000    0.000    6.500    0.000 
#    0.000    0.000    0.000    0.000    0.000    0.000 
#
# Total GULP energy -178312.951177 kJ/mol
# GULP energy per Si atom -5572.279724 kJ/mol
# Density = 2.386177 g / cm^3
# Si number density = 23.916206 Si / 1000 Ang^3
#
#
#
# Elastic Constant Matrix: (Units=GPa)
#
#
# Indices 1 2 3 4 5 6 
#
# 1 170.7865 37.7214 21.3069 0.0000 0.0000 0.0000
# 2 37.7214 77.6627 22.4566 0.0000 0.0000 0.0000
# 3 21.3069 22.4566 84.7294 0.0000 0.0000 0.0000
# 4 0.0000 0.0000 0.0000 20.4204 0.0000 0.0000
# 5 0.0000 0.0000 0.0000 0.0000 9.1074 0.0000
# 6 0.0000 0.0000 0.0000 0.0000 0.0000 31.1695
#
#
#
# Elastic Compliance Matrix: (Units=1/GPa)
#
#
# Indices 1 2 3 4 5 6 
#
# 1 0.006619 -0.002960 -0.000880 0.000000 0.000000 0.000000
# 2 -0.002960 0.015269 -0.003302 0.000000 0.000000 0.000000
# 3 -0.000880 -0.003302 0.012899 0.000000 0.000000 0.000000
# 4 0.000000 0.000000 0.000000 0.048971 0.000000 0.000000
# 5 0.000000 0.000000 0.000000 0.000000 0.109801 0.000000
# 6 0.000000 0.000000 0.000000 0.000000 0.000000 0.032083
#
#
# Mechanical properties :
#
#
# Convention : Reuss Voigt Hill
#
# Bulk Modulus (GPa) = 48.77730 55.12761 51.95246
# Shear Modulus (GPa) = 20.26255 28.91903 24.59079
#
# Velocity S-wave (km/s) = 2.91388 3.48110 3.21004
# Velocity P-wave (km/s) = 5.63563 6.26560 5.95895
#
# Compressibility (1/GPa) = 0.02050134
#
# Stress axis : x y z
#
# Youngs Moduli (GPa) = 151.08253 65.49205 77.52662
#
# Poissons Ratio (x) = 0.19389 0.06821
# Poissons Ratio (y) = 0.44727 0.25603
# Poissons Ratio (z) = 0.13293 0.21628
#
# Static dielectric constant tensor:
#      x y z
#    x 2.171070 0.000000 0.000000 
#    y 0.000000 2.017780 0.000000 
#    z 0.000000 0.000000 1.914650 
# 
# From -- ./inp_files/2875.got.cif
#   From: 2010.05.17/outbox.cif.g08.bks.cpg/sg33_2_cif.got.tgz:2875.got - 2010.06.03 17:15:25.
