data_PCOD9344092
_publ_section_title
;
Structure prediction by ZEFSAII (Michael W. Deem and Ramdas Pophale) SiO2 
 PCOD9344092
Probable space group: P B A 2
;
_chemical_formula_sum "Si O2"
_cell_formula_units_Z 24
_cell_length_a 8.828594
_cell_length_b 10.187781
_cell_length_c 10.919736
_cell_angle_alpha 90.000000
_cell_angle_beta 90.000000
_cell_angle_gamma 90.000000
_cell_volume 982.162357
_symmetry_space_group_name_H-M "P B A 2"
_symmetry_group_IT_number 32
_symmetry_cell_setting 'orthorhombic'
loop_
_space_group_symop_operation_xyz
x,y,z
-x,-y,z
1/2-x,1/2+y,z
1/2+x,1/2-y,z
loop_
_atom_site_type_symbol
_atom_site_label
_atom_site_fract_x
_atom_site_fract_y
_atom_site_fract_z
Si Si1 0.502829 0.800522 0.488610
Si Si2 0.500000 0.500000 0.784305
Si Si3 0.759610 0.132553 0.324849
Si Si4 0.767769 0.867640 0.653827
Si Si5 0.000000 0.000000 0.190811
Si Si6 0.087935 0.278210 0.078893
Si Si7 0.140276 0.753641 0.904259
O O1 0.375017 0.882184 0.419639
O O2 0.608760 0.722123 0.389024
O O3 0.624743 0.877042 0.567727
O O4 0.401017 0.710645 0.581222
O O5 0.647150 0.497091 0.698196
O O6 0.474807 0.369292 0.863036
O O7 0.669361 0.179392 0.203883
O O8 0.854004 0.009131 0.278398
O O9 0.701430 0.809114 0.779923
O O10 0.972922 0.868777 0.112786
O O11 0.215298 0.303024 0.977517
O O12 0.941512 0.336689 0.007837
#
# Coordination Sequence:
#
# PCOD9344092 Si02
#       7
#     4   2   4   4   2   4   4
#     4  10  22  47  73 102 154 184 246 312 350 428
#     4  12  25  45  76 106 144 203 235 290 388 418
#     4  11  23  45  74 106 143 196 241 304 360 439
#     4  11  23  45  74 106 143 196 241 304 360 439
#     4  12  25  45  76 106 144 203 235 290 388 418
#     4  12  24  44  73 104 144 185 243 302 357 439
#     4  12  24  44  73 104 144 185 243 302 357 439
#
# _framework density 24.435879
#
# number of rings (size 3 to 8) (size 9 to 14) (size 15 to 20)
#    0.000    0.667    6.667    0.500    0.000    0.667 
#    0.000   10.000    0.000    0.000    0.000    0.000 
#    0.000    0.000    0.000    0.000    0.000    0.000 
#
# Total GULP energy -133923.141848 kJ/mol
# GULP energy per Si atom -5580.130910 kJ/mol
# Density = 2.438026 g / cm^3
# Si number density = 24.435879 Si / 1000 Ang^3
#
#
#
# Elastic Constant Matrix: (Units=GPa)
#
#
# Indices 1 2 3 4 5 6 
#
# 1 158.5251 25.3252 63.0905 0.0000 0.0000 0.0000
# 2 25.3252 36.5310 36.2988 0.0000 0.0000 0.0000
# 3 63.0905 36.2988 176.8984 0.0000 0.0000 0.0000
# 4 0.0000 0.0000 0.0000 -18.0854 0.0000 0.0000
# 5 0.0000 0.0000 0.0000 0.0000 78.8742 0.0000
# 6 0.0000 0.0000 0.0000 0.0000 0.0000 44.9256
#
#
#
# Elastic Compliance Matrix: (Units=1/GPa)
#
#
# Indices 1 2 3 4 5 6 
#
# 1 0.007648 -0.003255 -0.002060 0.000000 0.000000 0.000000
# 2 -0.003255 0.035770 -0.006179 0.000000 0.000000 0.000000
# 3 -0.002060 -0.006179 0.007655 0.000000 0.000000 0.000000
# 4 0.000000 0.000000 0.000000 -0.055293 0.000000 0.000000
# 5 0.000000 0.000000 0.000000 0.000000 0.012678 0.000000
# 6 0.000000 0.000000 0.000000 0.000000 0.000000 0.022259
#
#
# Mechanical properties :
#
#
# Convention : Reuss Voigt Hill
#
# Bulk Modulus (GPa) = 35.60504 69.04261 52.32382
# Shear Modulus (GPa) = 79.27943 37.62554 58.45248
#
# Velocity S-wave (km/s) = 5.70213 3.92824 4.89619
# Velocity P-wave (km/s) = 7.61281 6.99219 7.30909
#
# Compressibility (1/GPa) = 0.02808591
#
# Stress axis : x y z
#
# Youngs Moduli (GPa) = 130.75458 27.95600 130.62654
#
# Poissons Ratio (x) = 0.09101 0.26904
# Poissons Ratio (y) = 0.42566 0.80713
# Poissons Ratio (z) = 0.26930 0.17274
#
# Static dielectric constant tensor:
#      x y z
#    x 1.977450 0.000000 0.000000 
#    y 0.000000 1.991720 0.000000 
#    z 0.000000 0.000000 2.033960 
# 
# From -- ./inp_files/3676.got.cif
#   From: 2010.05.17/outbox.cif.g08.bks.cpg/sg32_2_cif.got.tgz:3676.got - 2010.06.03 17:12:27.
