data_PCOD9344757
_publ_section_title
;
Structure prediction by ZEFSAII (Michael W. Deem and Ramdas Pophale) SiO2 
 PCOD9344757
Probable space group: P N A 21
;
_chemical_formula_sum "Si O2"
_cell_formula_units_Z 32
_cell_length_a 19.716781
_cell_length_b 8.751300
_cell_length_c 9.215690
_cell_angle_alpha 90.000000
_cell_angle_beta 90.000000
_cell_angle_gamma 90.000000
_cell_volume 1590.143953
_symmetry_space_group_name_H-M "P N A 21"
_symmetry_group_IT_number 33
_symmetry_cell_setting 'orthorhombic'
loop_
_space_group_symop_operation_xyz
x,y,z
-x,-y,1/2+z
1/2-x,1/2+y,1/2+z
1/2+x,1/2-y,z
loop_
_atom_site_type_symbol
_atom_site_label
_atom_site_fract_x
_atom_site_fract_y
_atom_site_fract_z
Si Si1 0.569787 0.874223 0.934820
Si Si2 0.493282 0.892599 0.227624
Si Si3 0.858480 0.381811 0.831714
Si Si4 0.166322 0.402150 0.072580
Si Si5 0.131706 0.214794 0.817171
Si Si6 0.342227 0.367393 0.380493
Si Si7 0.784632 0.316747 0.122300
Si Si8 0.264467 0.364663 0.672719
O O1 0.585674 0.695341 0.937724
O O2 0.541567 0.955505 0.792578
O O3 0.519063 0.914391 0.064902
O O4 0.641842 0.952338 0.979519
O O5 0.561186 0.858563 0.319698
O O6 0.438122 0.759162 0.240807
O O7 0.843891 0.535167 0.735631
O O8 0.819861 0.238615 0.756201
O O9 0.828342 0.388848 0.992544
O O10 0.239609 0.324966 0.063877
O O11 0.123902 0.274137 0.984478
O O12 0.192392 0.301868 0.731534
O O13 0.152748 0.040000 0.828047
O O14 0.329214 0.257565 0.245737
O O15 0.284752 0.349686 0.503229
O O16 0.738242 0.451460 0.189841
#
# Coordination Sequence:
#
# PCOD9344757 Si02
#       8
#     4   4   4   4   4   4   4   4
#     4  10  23  43  70  92 133 178 219 276 334 401
#     4  10  23  45  69  96 135 176 224 272 338 407
#     4  11  24  43  67 100 134 178 228 274 334 411
#     4  10  19  41  63  97 131 169 216 278 328 395
#     4  11  24  44  69  99 138 180 223 287 343 401
#     4  12  25  43  66 100 139 176 225 284 341 396
#     4  12  24  38  68 101 135 178 223 271 342 403
#     4  12  22  41  68  99 133 177 220 284 336 398
#
# _framework density 20.123964999999998
#
# number of rings (size 3 to 8) (size 9 to 14) (size 15 to 20)
#    0.000    1.000    5.000    3.000    3.500    0.000 
#    2.250    2.500    0.000    0.000    0.000    0.000 
#    0.000    0.000    0.000    0.000    0.000    0.000 
#
# Total GULP energy -178319.670288 kJ/mol
# GULP energy per Si atom -5572.489696 kJ/mol
# Density = 2.007816 g / cm^3
# Si number density = 20.123965 Si / 1000 Ang^3
#
#
#
# Elastic Constant Matrix: (Units=GPa)
#
#
# Indices 1 2 3 4 5 6 
#
# 1 104.1398 37.3484 23.1154 0.0000 0.0000 0.0000
# 2 37.3484 96.4547 53.5398 0.0000 0.0000 0.0000
# 3 23.1154 53.5398 94.2942 0.0000 0.0000 0.0000
# 4 0.0000 0.0000 0.0000 30.0143 0.0000 0.0000
# 5 0.0000 0.0000 0.0000 0.0000 30.6423 0.0000
# 6 0.0000 0.0000 0.0000 0.0000 0.0000 23.7082
#
#
#
# Elastic Compliance Matrix: (Units=1/GPa)
#
#
# Indices 1 2 3 4 5 6 
#
# 1 0.011162 -0.004093 -0.000412 0.000000 0.000000 0.000000
# 2 -0.004093 0.016640 -0.008445 0.000000 0.000000 0.000000
# 3 -0.000412 -0.008445 0.015501 0.000000 0.000000 0.000000
# 4 0.000000 0.000000 0.000000 0.033317 0.000000 0.000000
# 5 0.000000 0.000000 0.000000 0.000000 0.032635 0.000000
# 6 0.000000 0.000000 0.000000 0.000000 0.000000 0.042180
#
#
# Mechanical properties :
#
#
# Convention : Reuss Voigt Hill
#
# Bulk Modulus (GPa) = 57.46211 58.09957 57.78084
# Shear Modulus (GPa) = 27.30218 28.93197 28.11707
#
# Velocity S-wave (km/s) = 3.68734 3.79580 3.74196
# Velocity P-wave (km/s) = 6.83701 6.93861 6.88800
#
# Compressibility (1/GPa) = 0.01740277
#
# Stress axis : x y z
#
# Youngs Moduli (GPa) = 89.59006 60.09623 64.51209
#
# Poissons Ratio (x) = 0.24599 0.02659
# Poissons Ratio (y) = 0.36672 0.54478
# Poissons Ratio (z) = 0.03692 0.50749
#
# Static dielectric constant tensor:
#      x y z
#    x 1.739790 0.000000 0.000000 
#    y 0.000000 1.751910 0.000000 
#    z 0.000000 0.000000 1.789960 
# 
# From -- ./inp_files/4965.got.cif
#   From: 2010.05.17/outbox.cif.g08.bks.cpg/sg33_3_cif.got.tgz:4965.got - 2010.06.03 17:15:25.
