data_PCOD9344791
_publ_section_title
;
Structure prediction by ZEFSAII (Michael W. Deem and Ramdas Pophale) SiO2 
 PCOD9344791
Probable space group: P N A 21
;
_chemical_formula_sum "Si O2"
_cell_formula_units_Z 32
_cell_length_a 18.204904
_cell_length_b 17.568011
_cell_length_c 5.129942
_cell_angle_alpha 90.000000
_cell_angle_beta 90.000000
_cell_angle_gamma 90.000000
_cell_volume 1640.678333
_symmetry_space_group_name_H-M "P N A 21"
_symmetry_group_IT_number 33
_symmetry_cell_setting 'orthorhombic'
loop_
_space_group_symop_operation_xyz
x,y,z
-x,-y,1/2+z
1/2-x,1/2+y,1/2+z
1/2+x,1/2-y,z
loop_
_atom_site_type_symbol
_atom_site_label
_atom_site_fract_x
_atom_site_fract_y
_atom_site_fract_z
Si Si1 0.386719 0.324289 0.049230
Si Si2 0.094968 0.726443 0.065399
Si Si3 0.238937 0.921235 0.411340
Si Si4 0.397956 0.962286 0.500141
Si Si5 0.045495 0.986551 0.714405
Si Si6 0.662045 0.899023 0.349997
Si Si7 0.303400 0.516712 0.420119
Si Si8 0.468735 0.102714 0.246566
O O1 0.387700 0.277688 0.316421
O O2 0.424595 0.405010 0.113789
O O3 0.424175 0.279212 0.811345
O O4 0.303822 0.342543 0.950954
O O5 0.161834 0.671046 0.150337
O O6 0.034808 0.663312 0.980071
O O7 0.326278 0.926277 0.364864
O O8 0.225818 0.965610 0.681080
O O9 0.198555 0.966182 0.179618
O O10 0.451596 0.900018 0.620562
O O11 0.368527 0.024737 0.709112
O O12 0.448889 0.015744 0.321324
O O13 0.114011 0.034462 0.831979
O O14 0.008253 0.023720 0.461309
O O15 0.600408 0.877623 0.561580
O O16 0.742670 0.917731 0.455835
#
# Coordination Sequence:
#
# PCOD9344791 Si02
#       8
#     4   4   4   4   4   4   4   4
#     4  11  22  41  63  84 121 162 218 253 301 384
#     4  11  23  38  60  85 123 174 208 238 303 390
#     4  10  20  36  60  89 116 154 200 255 298 346
#     4  10  20  32  60  94 129 153 201 261 303 345
#     4  11  22  40  67  96 116 153 209 279 328 350
#     4  10  20  36  59  90 123 158 203 246 307 363
#     4  10  20  36  61  94 116 143 198 263 308 357
#     4  11  19  35  58  96 128 165 201 247 306 375
#
# _framework density 19.504128999999999
#
# number of rings (size 3 to 8) (size 9 to 14) (size 15 to 20)
#    0.000    1.500    3.750    3.750    0.000    0.000 
#    0.000    0.000    8.250    0.000    0.000    0.000 
#    0.000    0.000    0.000    0.000    0.000    0.000 
#
# Total GULP energy -178363.912174 kJ/mol
# GULP energy per Si atom -5573.872255 kJ/mol
# Density = 1.945974 g / cm^3
# Si number density = 19.504129 Si / 1000 Ang^3
#
#
#
# Elastic Constant Matrix: (Units=GPa)
#
#
# Indices 1 2 3 4 5 6 
#
# 1 101.9228 28.7023 31.8587 0.0000 0.0000 0.0000
# 2 28.7023 69.6795 27.1012 0.0000 0.0000 0.0000
# 3 31.8587 27.1012 120.2140 0.0000 0.0000 0.0000
# 4 0.0000 0.0000 0.0000 34.0874 0.0000 0.0000
# 5 0.0000 0.0000 0.0000 0.0000 22.4025 0.0000
# 6 0.0000 0.0000 0.0000 0.0000 0.0000 10.3978
#
#
#
# Elastic Compliance Matrix: (Units=1/GPa)
#
#
# Indices 1 2 3 4 5 6 
#
# 1 0.011602 -0.003927 -0.002189 0.000000 0.000000 0.000000
# 2 -0.003927 0.017060 -0.002805 0.000000 0.000000 0.000000
# 3 -0.002189 -0.002805 0.009531 0.000000 0.000000 0.000000
# 4 0.000000 0.000000 0.000000 0.029336 0.000000 0.000000
# 5 0.000000 0.000000 0.000000 0.000000 0.044638 0.000000
# 6 0.000000 0.000000 0.000000 0.000000 0.000000 0.096175
#
#
# Mechanical properties :
#
#
# Convention : Reuss Voigt Hill
#
# Bulk Modulus (GPa) = 49.14201 51.90451 50.52326
# Shear Modulus (GPa) = 21.46211 26.98781 24.22496
#
# Velocity S-wave (km/s) = 3.32081 3.72384 3.52809
# Velocity P-wave (km/s) = 6.32092 6.72006 6.52354
#
# Compressibility (1/GPa) = 0.02034919
#
# Stress axis : x y z
#
# Youngs Moduli (GPa) = 86.19471 58.61563 104.91975
#
# Poissons Ratio (x) = 0.23021 0.22969
# Poissons Ratio (y) = 0.33853 0.29433
# Poissons Ratio (z) = 0.18870 0.16443
#
# Static dielectric constant tensor:
#      x y z
#    x 1.743160 0.000000 0.000000 
#    y 0.000000 1.697770 0.000000 
#    z 0.000000 0.000000 1.740040 
# 
# From -- ./inp_files/1893.got.cif
#   From: 2010.05.17/outbox.cif.g08.bks.cpg/sg33_1_cif.got.tgz:1893.got - 2010.06.03 17:15:25.
