data_PCOD9344098
_publ_section_title
;
Structure prediction by ZEFSAII (Michael W. Deem and Ramdas Pophale) SiO2 
 PCOD9344098
Probable space group: P B A 2
;
_chemical_formula_sum "Si O2"
_cell_formula_units_Z 20
_cell_length_a 11.665650
_cell_length_b 4.997796
_cell_length_c 13.638385
_cell_angle_alpha 90.000000
_cell_angle_beta 90.000000
_cell_angle_gamma 90.000000
_cell_volume 795.152472
_symmetry_space_group_name_H-M "P B A 2"
_symmetry_group_IT_number 32
_symmetry_cell_setting 'orthorhombic'
loop_
_space_group_symop_operation_xyz
x,y,z
-x,-y,z
1/2-x,1/2+y,z
1/2+x,1/2-y,z
loop_
_atom_site_type_symbol
_atom_site_label
_atom_site_fract_x
_atom_site_fract_y
_atom_site_fract_z
Si Si1 0.672616 0.314779 0.900620
Si Si2 0.500000 0.000000 0.535130
Si Si3 0.500000 0.000000 0.030092
Si Si4 0.815487 0.179870 0.412972
Si Si5 0.325898 0.690220 0.670607
Si Si6 0.923844 0.262614 0.216015
O O1 0.778549 0.109938 0.918093
O O2 0.642594 0.289157 0.785558
O O3 0.566760 0.215373 0.965427
O O4 0.422597 0.191093 0.467015
O O5 0.426340 0.808460 0.605767
O O6 0.406668 0.127647 0.106244
O O7 0.710462 0.375704 0.438837
O O8 0.828279 0.200232 0.295150
O O9 0.217124 0.888722 0.653418
O O10 0.000000 0.500000 0.261804
O O11 0.000000 0.000000 0.206279
#
# Coordination Sequence:
#
# PCOD9344098 Si02
#       6
#     4   2   2   4   4   4
#     4  10  23  40  64  95 133 169 212 264 319 381
#     4  12  24  44  70  96 128 174 214 280 314 396
#     4  10  24  40  66  98 126 170 218 266 310 390
#     4  12  27  44  67  97 129 171 218 271 330 390
#     4  10  23  43  63  96 132 170 214 261 325 388
#     4  10  23  44  63  91 130 165 217 264 323 389
#
# _framework density 25.152408999999999
#
# number of rings (size 3 to 8) (size 9 to 14) (size 15 to 20)
#    0.600    0.800    1.000    3.000    2.800    4.000 
#    0.000    6.000    0.000    0.000    0.000    0.000 
#    0.000    0.000    0.000    0.000    0.000    0.000 
#
# Total GULP energy -112062.795678 kJ/mol
# GULP energy per Si atom -5603.139784 kJ/mol
# Density = 2.509516 g / cm^3
# Si number density = 25.152409 Si / 1000 Ang^3
#
#
#
# Elastic Constant Matrix: (Units=GPa)
#
#
# Indices 1 2 3 4 5 6 
#
# 1 59.9169 2.7792 46.7033 0.0000 0.0000 0.0000
# 2 2.7792 112.2827 18.2985 0.0000 0.0000 0.0000
# 3 46.7033 18.2985 143.8170 0.0000 0.0000 0.0000
# 4 0.0000 0.0000 0.0000 35.4511 0.0000 0.0000
# 5 0.0000 0.0000 0.0000 0.0000 48.9632 0.0000
# 6 0.0000 0.0000 0.0000 0.0000 0.0000 36.2537
#
#
#
# Elastic Compliance Matrix: (Units=1/GPa)
#
#
# Indices 1 2 3 4 5 6 
#
# 1 0.022392 0.000644 -0.007353 0.000000 0.000000 0.000000
# 2 0.000644 0.009113 -0.001369 0.000000 0.000000 0.000000
# 3 -0.007353 -0.001369 0.009515 0.000000 0.000000 0.000000
# 4 0.000000 0.000000 0.000000 0.028208 0.000000 0.000000
# 5 0.000000 0.000000 0.000000 0.000000 0.020423 0.000000
# 6 0.000000 0.000000 0.000000 0.000000 0.000000 0.027583
#
#
# Mechanical properties :
#
#
# Convention : Reuss Voigt Hill
#
# Bulk Modulus (GPa) = 40.21835 50.17539 45.19687
# Shear Modulus (GPa) = 35.29102 40.68265 37.98683
#
# Velocity S-wave (km/s) = 3.74984 4.02611 3.89043
# Velocity P-wave (km/s) = 5.89686 6.45016 6.17971
#
# Compressibility (1/GPa) = 0.02486427
#
# Stress axis : x y z
#
# Youngs Moduli (GPa) = 44.65944 109.73088 105.09287
#
# Poissons Ratio (x) = -0.07068 0.77280
# Poissons Ratio (y) = -0.02877 0.14384
# Poissons Ratio (z) = 0.32840 0.15019
#
# Static dielectric constant tensor:
#      x y z
#    x 1.996970 0.000000 0.000000 
#    y 0.000000 1.915060 0.000000 
#    z 0.000000 0.000000 1.991800 
# 
# From -- ./inp_files/4154.got.cif
#   From: 2010.05.17/outbox.cif.g08.bks.cpg/sg32_3_cif.got.tgz:4154.got - 2010.06.03 17:12:27.
