data_PCOD9344407
_publ_section_title
;
Structure prediction by ZEFSAII (Michael W. Deem and Ramdas Pophale) SiO2 
 PCOD9344407
Probable space group: P N A 21
;
_chemical_formula_sum "Si O2"
_cell_formula_units_Z 28
_cell_length_a 5.549864
_cell_length_b 8.971999
_cell_length_c 23.546882
_cell_angle_alpha 90.000000
_cell_angle_beta 90.000000
_cell_angle_gamma 90.000000
_cell_volume 1172.478708
_symmetry_space_group_name_H-M "P N A 21"
_symmetry_group_IT_number 33
_symmetry_cell_setting 'orthorhombic'
loop_
_space_group_symop_operation_xyz
x,y,z
-x,-y,1/2+z
1/2-x,1/2+y,1/2+z
1/2+x,1/2-y,z
loop_
_atom_site_type_symbol
_atom_site_label
_atom_site_fract_x
_atom_site_fract_y
_atom_site_fract_z
Si Si1 0.667331 0.938659 0.378800
Si Si2 0.286482 0.432265 0.579319
Si Si3 0.713846 0.909796 0.036253
Si Si4 0.181113 0.431257 0.710756
Si Si5 0.665905 0.496899 0.414099
Si Si6 0.381946 0.745123 0.816366
Si Si7 0.817738 0.901497 0.254530
O O1 0.401147 0.900747 0.402160
O O2 0.628528 0.110548 0.358100
O O3 0.898876 0.932828 0.419889
O O4 0.746542 0.863375 0.319364
O O5 0.303385 0.254604 0.564272
O O6 0.551463 0.489655 0.562670
O O7 0.236015 0.457751 0.645325
O O8 0.046114 0.484078 0.546465
O O9 0.768370 0.901517 0.969478
O O10 0.158525 0.252910 0.720626
O O11 0.418576 0.474029 0.746992
O O12 0.916740 0.485549 0.729979
O O13 0.629699 0.392691 0.359494
O O14 0.631933 0.748834 0.784027
#
# Coordination Sequence:
#
# PCOD9344407 Si02
#       7
#     4   4   4   4   4   4   4
#     4  10  19  28  40  61  81 115 164 173 203 254
#     4  10  19  27  43  65  82 110 162 173 202 262
#     4  10  18  25  41  60  87 114 149 166 205 249
#     4  10  19  33  47  63  85 112 157 192 215 256
#     4  10  19  28  40  59  92 123 151 166 198 258
#     4   8  16  25  38  51  80 113 147 168 193 230
#     4  10  18  30  47  59  81 113 152 190 228 241
#
# _framework density 23.881029000000002
#
# number of rings (size 3 to 8) (size 9 to 14) (size 15 to 20)
#    0.000    2.286    0.000    6.000   12.000    0.000 
#    0.000    0.000    0.000    0.000    0.000    0.000 
#    0.000    0.000    0.000    0.000 1889.143   44.571 
#
# Total GULP energy -156214.963166 kJ/mol
# GULP energy per Si atom -5579.105827 kJ/mol
# Density = 2.382667 g / cm^3
# Si number density = 23.881029 Si / 1000 Ang^3
#
#
#
# Elastic Constant Matrix: (Units=GPa)
#
#
# Indices 1 2 3 4 5 6 
#
# 1 255.9804 10.7457 0.5116 0.0000 0.0000 0.0000
# 2 10.7457 39.8713 -3.8762 0.0000 0.0000 0.0000
# 3 0.5116 -3.8762 64.5065 0.0000 0.0000 0.0000
# 4 0.0000 0.0000 0.0000 26.4343 0.0000 0.0000
# 5 0.0000 0.0000 0.0000 0.0000 41.6695 0.0000
# 6 0.0000 0.0000 0.0000 0.0000 0.0000 16.1302
#
#
#
# Elastic Compliance Matrix: (Units=1/GPa)
#
#
# Indices 1 2 3 4 5 6 
#
# 1 0.003952 -0.001074 -0.000096 0.000000 0.000000 0.000000
# 2 -0.001074 0.025520 0.001542 0.000000 0.000000 0.000000
# 3 -0.000096 0.001542 0.015596 0.000000 0.000000 0.000000
# 4 0.000000 0.000000 0.000000 0.037830 0.000000 0.000000
# 5 0.000000 0.000000 0.000000 0.000000 0.023998 0.000000
# 6 0.000000 0.000000 0.000000 0.000000 0.000000 0.061996
#
#
# Mechanical properties :
#
#
# Convention : Reuss Voigt Hill
#
# Bulk Modulus (GPa) = 21.82870 41.68004 31.75437
# Shear Modulus (GPa) = 27.26010 40.37860 33.81935
#
# Velocity S-wave (km/s) = 3.38227 4.11642 3.76727
# Velocity P-wave (km/s) = 4.94100 6.33122 5.67881
#
# Compressibility (1/GPa) = 0.04581124
#
# Stress axis : x y z
#
# Youngs Moduli (GPa) = 253.04660 39.18470 64.12007
#
# Poissons Ratio (x) = 0.04210 0.00615
# Poissons Ratio (y) = 0.27187 -0.09888
# Poissons Ratio (z) = 0.02427 -0.06042
#
# Static dielectric constant tensor:
#      x y z
#    x 2.092760 0.000000 0.000000 
#    y 0.000000 2.103570 0.000000 
#    z 0.000000 0.000000 1.848380 
# 
# From -- ./inp_files/8355.got.cif
#   From: 2010.05.17/outbox.cif.g08.bks.cpg/sg33_5_cif.got.tgz:8355.got - 2010.06.03 17:15:25.
