data_PCOD9344520
_publ_section_title
;
Structure prediction by ZEFSAII (Michael W. Deem and Ramdas Pophale) SiO2 
 PCOD9344520
Probable space group: P N A 21
;
_chemical_formula_sum "Si O2"
_cell_formula_units_Z 28
_cell_length_a 12.474720
_cell_length_b 8.551805
_cell_length_c 11.438792
_cell_angle_alpha 90.000000
_cell_angle_beta 90.000000
_cell_angle_gamma 90.000000
_cell_volume 1220.306035
_symmetry_space_group_name_H-M "P N A 21"
_symmetry_group_IT_number 33
_symmetry_cell_setting 'orthorhombic'
loop_
_space_group_symop_operation_xyz
x,y,z
-x,-y,1/2+z
1/2-x,1/2+y,1/2+z
1/2+x,1/2-y,z
loop_
_atom_site_type_symbol
_atom_site_label
_atom_site_fract_x
_atom_site_fract_y
_atom_site_fract_z
Si Si1 0.373482 0.424097 0.311460
Si Si2 0.838832 0.754853 0.800775
Si Si3 0.786759 0.518783 0.210850
Si Si4 0.500521 0.302265 0.502232
Si Si5 0.988722 0.319857 0.144496
Si Si6 0.690780 0.353764 0.640178
Si Si7 0.136421 0.483866 0.979096
O O1 0.278517 0.302117 0.328440
O O2 0.434870 0.433538 0.433096
O O3 0.444211 0.339857 0.207390
O O4 0.311897 0.575096 0.269287
O O5 0.918397 0.634685 0.737737
O O6 0.815650 0.904892 0.719374
O O7 0.894308 0.790698 0.921208
O O8 0.885723 0.432445 0.146055
O O9 0.761492 0.680479 0.146455
O O10 0.826276 0.542684 0.345669
O O11 0.561674 0.336875 0.620203
O O12 0.435576 0.141361 0.493585
O O13 0.058286 0.345345 0.026996
O O14 0.758709 0.474621 0.559535
#
# Coordination Sequence:
#
# PCOD9344520 Si02
#       7
#     4   4   4   4   4   4   4
#     4  10  22  40  64  91 131 171 216 274 338 397
#     4  10  18  41  64  87 124 174 218 262 336 400
#     4  11  23  40  66  99 127 176 225 271 336 407
#     4  11  21  40  67  90 131 180 214 271 341 393
#     4  10  21  40  67  87 125 176 214 268 329 399
#     4  12  25  40  65 104 133 170 230 281 336 404
#     4  12  22  41  67  96 135 175 223 279 334 400
#
# _framework density 22.945065
#
# number of rings (size 3 to 8) (size 9 to 14) (size 15 to 20)
#    0.000    1.143    8.571    0.000    0.000    3.429 
#    0.000    4.286    0.000    0.000    0.000    0.000 
#    0.000    0.000    0.000    0.000    0.000    0.000 
#
# Total GULP energy -155903.760915 kJ/mol
# GULP energy per Si atom -5567.991461 kJ/mol
# Density = 2.289284 g / cm^3
# Si number density = 22.945065 Si / 1000 Ang^3
#
#
#
# Elastic Constant Matrix: (Units=GPa)
#
#
# Indices 1 2 3 4 5 6 
#
# 1 87.7503 1.4291 -5.2693 0.0000 0.0000 0.0000
# 2 1.4291 47.8777 -8.3721 0.0000 0.0000 0.0000
# 3 -5.2693 -8.3721 14.3932 0.0000 0.0000 0.0000
# 4 0.0000 0.0000 0.0000 22.6244 0.0000 0.0000
# 5 0.0000 0.0000 0.0000 0.0000 39.4904 0.0000
# 6 0.0000 0.0000 0.0000 0.0000 0.0000 18.1050
#
#
#
# Elastic Compliance Matrix: (Units=1/GPa)
#
#
# Indices 1 2 3 4 5 6 
#
# 1 0.011661 0.000444 0.004527 0.000000 0.000000 0.000000
# 2 0.000444 0.023268 0.013697 0.000000 0.000000 0.000000
# 3 0.004527 0.013697 0.079101 0.000000 0.000000 0.000000
# 4 0.000000 0.000000 0.000000 0.044200 0.000000 0.000000
# 5 0.000000 0.000000 0.000000 0.000000 0.025323 0.000000
# 6 0.000000 0.000000 0.000000 0.000000 0.000000 0.055233
#
#
# Mechanical properties :
#
#
# Convention : Reuss Voigt Hill
#
# Bulk Modulus (GPa) = 6.60655 13.95518 10.28087
# Shear Modulus (GPa) = 19.84860 26.85952 23.35406
#
# Velocity S-wave (km/s) = 2.94436 3.42512 3.19380
# Velocity P-wave (km/s) = 3.80060 4.66231 4.25333
#
# Compressibility (1/GPa) = 0.15136492
#
# Stress axis : x y z
#
# Youngs Moduli (GPa) = 85.75898 42.97676 12.64199
#
# Poissons Ratio (x) = -0.01906 -0.05723
# Poissons Ratio (y) = -0.03804 -0.17316
# Poissons Ratio (z) = -0.38822 -0.58865
#
# Static dielectric constant tensor:
#      x y z
#    x 1.872980 0.000000 0.000000 
#    y 0.000000 1.955470 0.000000 
#    z 0.000000 0.000000 1.993400 
# 
# From -- ./inp_files/6358.got.cif
#   From: 2010.05.17/outbox.cif.g08.bks.cpg/sg33_4_cif.got.tgz:6358.got - 2010.06.03 17:15:25.
