data_PCOD9344409
_publ_section_title
;
Structure prediction by ZEFSAII (Michael W. Deem and Ramdas Pophale) SiO2 
 PCOD9344409
Probable space group: P N A 21
;
_chemical_formula_sum "Si O2"
_cell_formula_units_Z 32
_cell_length_a 21.462700
_cell_length_b 6.726175
_cell_length_c 8.021690
_cell_angle_alpha 90.000000
_cell_angle_beta 90.000000
_cell_angle_gamma 90.000000
_cell_volume 1158.026218
_symmetry_space_group_name_H-M "P N A 21"
_symmetry_group_IT_number 33
_symmetry_cell_setting 'orthorhombic'
loop_
_space_group_symop_operation_xyz
x,y,z
-x,-y,1/2+z
1/2-x,1/2+y,1/2+z
1/2+x,1/2-y,z
loop_
_atom_site_type_symbol
_atom_site_label
_atom_site_fract_x
_atom_site_fract_y
_atom_site_fract_z
Si Si1 0.188916 0.376287 0.725210
Si Si2 0.313704 0.310666 0.878359
Si Si3 0.530198 0.129052 0.459813
Si Si4 0.625967 0.233909 0.042206
Si Si5 0.366350 0.311843 0.222621
Si Si6 0.405380 0.241790 0.588545
Si Si7 0.007930 0.783795 0.606185
Si Si8 0.174646 0.342305 0.377183
O O1 0.253581 0.423480 0.813060
O O2 0.144573 0.569673 0.707171
O O3 0.207949 0.284556 0.548185
O O4 0.153689 0.240293 0.859309
O O5 0.373817 0.329010 0.755630
O O6 0.303905 0.071814 0.860936
O O7 0.320191 0.366768 0.072497
O O8 0.481328 0.238855 0.582917
O O9 0.500386 0.179600 0.283901
O O10 0.602381 0.180803 0.439381
O O11 0.526476 0.893218 0.483341
O O12 0.560914 0.352332 0.059469
O O13 0.673205 0.258562 0.196397
O O14 0.608128 0.998465 0.070997
O O15 0.371146 0.328961 0.422590
O O16 0.429912 0.403344 0.143238
#
# Coordination Sequence:
#
# PCOD9344409 Si02
#       8
#     4   4   4   4   4   4   4   4
#     4  10  18  27  40  59  87 123 153 177 209 274
#     4  10  18  27  40  59  87 123 153 177 209 274
#     4   9  14  22  40  60  81 109 138 173 222 274
#     4   8  16  26  40  62  84 113 144 175 229 272
#     4   9  17  29  40  59  85 119 148 178 227 264
#     4   8  16  26  40  62  84 113 144 175 229 272
#     4   9  14  22  40  60  81 109 138 173 222 274
#     4   9  17  29  40  59  85 119 148 178 227 264
#
# _framework density 27.633227000000002
#
# number of rings (size 3 to 8) (size 9 to 14) (size 15 to 20)
#    0.000    3.000    2.500    1.500    0.000    1.000 
#    0.000    0.000    0.000    0.000    0.000    0.000 
#    0.000    0.000  204.000    0.000    9.000    1.500 
#
# Total GULP energy -178546.918086 kJ/mol
# GULP energy per Si atom -5579.591190 kJ/mol
# Density = 2.757033 g / cm^3
# Si number density = 27.633227 Si / 1000 Ang^3
#
#
#
# Elastic Constant Matrix: (Units=GPa)
#
#
# Indices 1 2 3 4 5 6 
#
# 1 90.4069 1.4279 26.8591 0.0000 0.0000 0.0000
# 2 1.4279 100.5243 -3.6496 0.0000 0.0000 0.0000
# 3 26.8591 -3.6496 120.6461 0.0000 0.0000 0.0000
# 4 0.0000 0.0000 0.0000 -1.3734 0.0000 0.0000
# 5 0.0000 0.0000 0.0000 0.0000 50.2310 0.0000
# 6 0.0000 0.0000 0.0000 0.0000 0.0000 15.0940
#
#
#
# Elastic Compliance Matrix: (Units=1/GPa)
#
#
# Indices 1 2 3 4 5 6 
#
# 1 0.011852 -0.000264 -0.002646 0.000000 0.000000 0.000000
# 2 -0.000264 0.009965 0.000360 0.000000 0.000000 0.000000
# 3 -0.002646 0.000360 0.008889 0.000000 0.000000 0.000000
# 4 0.000000 0.000000 0.000000 -0.728096 0.000000 0.000000
# 5 0.000000 0.000000 0.000000 0.000000 0.019908 0.000000
# 6 0.000000 0.000000 0.000000 0.000000 0.000000 0.066251
#
#
# Mechanical properties :
#
#
# Convention : Reuss Voigt Hill
#
# Bulk Modulus (GPa) = 39.05673 40.09471 39.57572
# Shear Modulus (GPa) = -8.36686 31.91963 11.77638
#
# Velocity S-wave (km/s) = -1.74195 3.40239 2.06662
# Velocity P-wave (km/s) = 3.18100 5.47504 4.47744
#
# Compressibility (1/GPa) = 0.02560378
#
# Stress axis : x y z
#
# Youngs Moduli (GPa) = 84.37734 100.35448 112.50140
#
# Poissons Ratio (x) = 0.02654 0.29773
# Poissons Ratio (y) = 0.02231 -0.04053
# Poissons Ratio (z) = 0.22330 -0.03616
#
# Static dielectric constant tensor:
#      x y z
#    x 2.208620 0.000000 0.000000 
#    y 0.000000 2.404970 0.000000 
#    z 0.000000 0.000000 2.169830 
# 
# From -- ./inp_files/5069.got.cif
#   From: 2010.05.17/outbox.cif.g08.bks.cpg/sg33_3_cif.got.tgz:5069.got - 2010.06.03 17:15:25.
