data_PCOD9344803
_publ_section_title
;
Structure prediction by ZEFSAII (Michael W. Deem and Ramdas Pophale) SiO2 
 PCOD9344803
Probable space group: P N A 21
;
_chemical_formula_sum "Si O2"
_cell_formula_units_Z 24
_cell_length_a 5.608593
_cell_length_b 20.957352
_cell_length_c 8.327100
_cell_angle_alpha 90.000000
_cell_angle_beta 90.000000
_cell_angle_gamma 90.000000
_cell_volume 978.777807
_symmetry_space_group_name_H-M "P N A 21"
_symmetry_group_IT_number 33
_symmetry_cell_setting 'orthorhombic'
loop_
_space_group_symop_operation_xyz
x,y,z
-x,-y,1/2+z
1/2-x,1/2+y,1/2+z
1/2+x,1/2-y,z
loop_
_atom_site_type_symbol
_atom_site_label
_atom_site_fract_x
_atom_site_fract_y
_atom_site_fract_z
Si Si1 0.541542 0.230238 0.184760
Si Si2 0.640178 0.894360 0.140615
Si Si3 0.433244 0.721552 0.054401
Si Si4 0.122043 0.403884 0.331335
Si Si5 0.562125 0.521441 0.616771
Si Si6 0.818818 0.533374 0.309778
O O1 0.293757 0.251467 0.105817
O O2 0.552787 0.267622 0.359816
O O3 0.539488 0.154535 0.219136
O O4 0.861687 0.849026 0.108507
O O5 0.487679 0.904984 0.301261
O O6 0.745994 0.965067 0.126368
O O7 0.441129 0.876624 0.006784
O O8 0.692437 0.742593 0.113378
O O9 0.374029 0.427744 0.257231
O O10 0.963637 0.467799 0.335089
O O11 0.613058 0.547199 0.439893
O O12 0.314550 0.486556 0.645303
#
# Coordination Sequence:
#
# PCOD9344803 Si02
#       6
#     4   4   4   4   4   4
#     4  10  20  33  57  93 121 155 199 259 316 365
#     4  10  20  36  58  87 119 151 206 257 310 379
#     4  10  20  33  57  93 121 155 200 259 316 363
#     4  10  20  36  58  86 121 150 209 257 316 374
#     4  10  22  36  59  84 121 164 201 261 317 371
#     4  10  22  36  57  87 119 167 201 263 317 378
#
# _framework density 24.520375000000001
#
# number of rings (size 3 to 8) (size 9 to 14) (size 15 to 20)
#    0.000    2.000    3.333    1.000    4.667    2.667 
#    0.000    0.000    0.000    2.000    0.000    0.000 
#    0.000    0.000    0.000    0.000    0.000    0.000 
#
# Total GULP energy -133650.046458 kJ/mol
# GULP energy per Si atom -5568.751936 kJ/mol
# Density = 2.446457 g / cm^3
# Si number density = 24.520375 Si / 1000 Ang^3
#
#
#
# Elastic Constant Matrix: (Units=GPa)
#
#
# Indices 1 2 3 4 5 6 
#
# 1 122.7589 14.6995 12.0862 0.0000 0.0000 0.0000
# 2 14.6995 55.9019 7.3249 0.0000 0.0000 0.0000
# 3 12.0862 7.3249 17.6688 0.0000 0.0000 0.0000
# 4 0.0000 0.0000 0.0000 13.5845 0.0000 0.0000
# 5 0.0000 0.0000 0.0000 0.0000 22.4636 0.0000
# 6 0.0000 0.0000 0.0000 0.0000 0.0000 39.9574
#
#
#
# Elastic Compliance Matrix: (Units=1/GPa)
#
#
# Indices 1 2 3 4 5 6 
#
# 1 0.008872 -0.001626 -0.005395 0.000000 0.000000 0.000000
# 2 -0.001626 0.019214 -0.006853 0.000000 0.000000 0.000000
# 3 -0.005395 -0.006853 0.063128 0.000000 0.000000 0.000000
# 4 0.000000 0.000000 0.000000 0.073614 0.000000 0.000000
# 5 0.000000 0.000000 0.000000 0.000000 0.044517 0.000000
# 6 0.000000 0.000000 0.000000 0.000000 0.000000 0.025027
#
#
# Mechanical properties :
#
#
# Convention : Reuss Voigt Hill
#
# Bulk Modulus (GPa) = 15.75641 29.39455 22.57548
# Shear Modulus (GPa) = 17.65075 26.01568 21.83321
#
# Velocity S-wave (km/s) = 2.68589 3.26081 2.98721
# Velocity P-wave (km/s) = 4.00731 5.11771 4.59616
#
# Compressibility (1/GPa) = 0.06346625
#
# Stress axis : x y z
#
# Youngs Moduli (GPa) = 112.71567 52.04530 15.84079
#
# Poissons Ratio (x) = 0.08463 0.08546
# Poissons Ratio (y) = 0.18328 0.10856
# Poissons Ratio (z) = 0.60806 0.35668
#
# Static dielectric constant tensor:
#      x y z
#    x 1.970760 0.000000 0.000000 
#    y 0.000000 1.979690 0.000000 
#    z 0.000000 0.000000 2.088900 
# 
# From -- ./inp_files/2710.got.cif
#   From: 2010.05.17/outbox.cif.g08.bks.cpg/sg33_2_cif.got.tgz:2710.got - 2010.06.03 17:15:25.
