data_PCOD9344684
_publ_section_title
;
Structure prediction by ZEFSAII (Michael W. Deem and Ramdas Pophale) SiO2 
 PCOD9344684
Probable space group: P N A 21
;
_chemical_formula_sum "Si O2"
_cell_formula_units_Z 32
_cell_length_a 9.448581
_cell_length_b 13.902082
_cell_length_c 10.833376
_cell_angle_alpha 90.000000
_cell_angle_beta 90.000000
_cell_angle_gamma 90.000000
_cell_volume 1423.017539
_symmetry_space_group_name_H-M "P N A 21"
_symmetry_group_IT_number 33
_symmetry_cell_setting 'orthorhombic'
loop_
_space_group_symop_operation_xyz
x,y,z
-x,-y,1/2+z
1/2-x,1/2+y,1/2+z
1/2+x,1/2-y,z
loop_
_atom_site_type_symbol
_atom_site_label
_atom_site_fract_x
_atom_site_fract_y
_atom_site_fract_z
Si Si1 0.359849 0.364001 0.052330
Si Si2 0.941525 0.697674 0.619771
Si Si3 0.722402 0.829726 0.004959
Si Si4 0.013869 0.974178 0.758703
Si Si5 0.830179 0.833104 0.284058
Si Si6 0.777182 0.518635 0.344070
Si Si7 0.009247 0.232626 0.377427
Si Si8 0.510481 0.853175 0.366472
O O1 0.227761 0.310664 0.118550
O O2 0.495796 0.296215 0.063100
O O3 0.407932 0.456199 0.129759
O O4 0.300024 0.395427 0.920847
O O5 0.001806 0.698163 0.757792
O O6 0.991305 0.625218 0.513288
O O7 0.828146 0.774228 0.913681
O O8 0.576827 0.772439 0.992852
O O9 0.703074 0.933760 0.943035
O O10 0.791451 0.830827 0.138757
O O11 0.034390 0.875854 0.837253
O O12 0.085244 0.068990 0.813955
O O13 0.844153 0.987214 0.748311
O O14 0.675439 0.837578 0.345525
O O15 0.923498 0.741096 0.321963
O O16 0.927543 0.559204 0.299658
#
# Coordination Sequence:
#
# PCOD9344684 Si02
#       8
#     4   4   4   4   4   4   4   4
#     4  10  19  37  60  90 120 163 202 274 309 377
#     4  10  20  37  64  91 122 158 221 266 317 367
#     4  11  23  42  64  93 134 171 213 265 325 389
#     4  10  21  38  63  87 125 168 214 257 324 379
#     4  12  23  42  65  96 133 175 208 271 326 390
#     4  10  22  41  61  91 127 166 216 263 318 383
#     4  10  22  39  66  94 123 176 214 267 320 386
#     4  11  24  40  67  96 130 169 218 269 321 387
#
# _framework density 22.487424000000001
#
# number of rings (size 3 to 8) (size 9 to 14) (size 15 to 20)
#    0.000    1.500    1.250    5.250    0.000    2.000 
#    0.000    0.000    0.000    0.000    0.000    0.000 
#    0.000    0.000    0.000    0.000    0.000    0.000 
#
# Total GULP energy -178569.245209 kJ/mol
# GULP energy per Si atom -5580.288913 kJ/mol
# Density = 2.243624 g / cm^3
# Si number density = 22.487424 Si / 1000 Ang^3
#
#
#
# Elastic Constant Matrix: (Units=GPa)
#
#
# Indices 1 2 3 4 5 6 
#
# 1 72.0389 20.5495 2.5952 0.0000 0.0000 0.0000
# 2 20.5495 37.9039 -2.9967 0.0000 0.0000 0.0000
# 3 2.5952 -2.9967 49.0832 0.0000 0.0000 0.0000
# 4 0.0000 0.0000 0.0000 23.1232 0.0000 0.0000
# 5 0.0000 0.0000 0.0000 0.0000 29.9516 0.0000
# 6 0.0000 0.0000 0.0000 0.0000 0.0000 37.1114
#
#
#
# Elastic Compliance Matrix: (Units=1/GPa)
#
#
# Indices 1 2 3 4 5 6 
#
# 1 0.016520 -0.009069 -0.001427 0.000000 0.000000 0.000000
# 2 -0.009069 0.031489 0.002402 0.000000 0.000000 0.000000
# 3 -0.001427 0.002402 0.020596 0.000000 0.000000 0.000000
# 4 0.000000 0.000000 0.000000 0.043247 0.000000 0.000000
# 5 0.000000 0.000000 0.000000 0.000000 0.033387 0.000000
# 6 0.000000 0.000000 0.000000 0.000000 0.000000 0.026946
#
#
# Mechanical properties :
#
#
# Convention : Reuss Voigt Hill
#
# Bulk Modulus (GPa) = 19.07798 22.14688 20.61243
# Shear Modulus (GPa) = 24.29015 27.29576 25.79295
#
# Velocity S-wave (km/s) = 3.29015 3.48778 3.39040
# Velocity P-wave (km/s) = 4.78913 5.10778 4.95102
#
# Compressibility (1/GPa) = 0.05241645
#
# Stress axis : x y z
#
# Youngs Moduli (GPa) = 60.53345 31.75693 48.55381
#
# Poissons Ratio (x) = 0.28800 0.06929
# Poissons Ratio (y) = 0.54898 -0.11663
# Poissons Ratio (z) = 0.08639 -0.07628
#
# Static dielectric constant tensor:
#      x y z
#    x 1.835920 0.000000 0.000000 
#    y 0.000000 1.902490 0.000000 
#    z 0.000000 0.000000 1.881880 
# 
# From -- ./inp_files/5993.got.cif
#   From: 2010.05.17/outbox.cif.g08.bks.cpg/sg33_3_cif.got.tgz:5993.got - 2010.06.03 17:15:25.
