data_PCOD9344392
_publ_section_title
;
Structure prediction by ZEFSAII (Michael W. Deem and Ramdas Pophale) SiO2 
 PCOD9344392
Probable space group: P N A 21
;
_chemical_formula_sum "Si O2"
_cell_formula_units_Z 28
_cell_length_a 8.992181
_cell_length_b 17.419915
_cell_length_c 9.797793
_cell_angle_alpha 90.000000
_cell_angle_beta 90.000000
_cell_angle_gamma 90.000000
_cell_volume 1534.755970
_symmetry_space_group_name_H-M "P N A 21"
_symmetry_group_IT_number 33
_symmetry_cell_setting 'orthorhombic'
loop_
_space_group_symop_operation_xyz
x,y,z
-x,-y,1/2+z
1/2-x,1/2+y,1/2+z
1/2+x,1/2-y,z
loop_
_atom_site_type_symbol
_atom_site_label
_atom_site_fract_x
_atom_site_fract_y
_atom_site_fract_z
Si Si1 0.733466 0.441377 0.286180
Si Si2 0.108272 0.877086 0.785353
Si Si3 0.906715 0.159262 0.732247
Si Si4 0.358807 0.430314 0.988568
Si Si5 0.365134 0.763341 0.086838
Si Si6 0.374899 0.202964 0.390842
Si Si7 0.139372 0.972185 0.044189
O O1 0.565669 0.404447 0.284300
O O2 0.735137 0.503177 0.410737
O O3 0.846609 0.371563 0.301289
O O4 0.755674 0.487056 0.144228
O O5 0.177630 0.904306 0.641895
O O6 0.118569 0.785629 0.814063
O O7 0.181089 0.920755 0.914607
O O8 0.870770 0.141649 0.887393
O O9 0.753620 0.183541 0.660257
O O10 0.950762 0.081888 0.651090
O O11 0.032860 0.220089 0.696829
O O12 0.525319 0.464410 0.992031
O O13 0.478092 0.802831 0.982257
O O14 0.264876 0.706763 0.995024
#
# Coordination Sequence:
#
# PCOD9344392 Si02
#       7
#     4   4   4   4   4   4   4
#     4   9  18  32  55  82 105 144 188 237 272 333
#     4  10  17  32  56  84 109 143 186 235 276 335
#     4  10  19  36  55  86 107 150 190 235 280 338
#     4   9  19  33  56  83 113 143 192 237 273 341
#     4  10  19  32  58  78 113 147 190 230 282 340
#     4  11  18  33  57  85 107 147 191 231 285 337
#     4   9  16  32  57  80 106 142 195 223 276 338
#
# _framework density 18.243941
#
# number of rings (size 3 to 8) (size 9 to 14) (size 15 to 20)
#    0.000    2.286    4.286    1.714    0.000    0.000 
#    5.143    0.000    6.286    3.429    0.000    0.000 
#    0.000    0.000    0.000    0.000    0.000    0.000 
#
# Total GULP energy -155898.889286 kJ/mol
# GULP energy per Si atom -5567.817475 kJ/mol
# Density = 1.820242 g / cm^3
# Si number density = 18.243941 Si / 1000 Ang^3
#
#
#
# Elastic Constant Matrix: (Units=GPa)
#
#
# Indices 1 2 3 4 5 6 
#
# 1 52.6608 13.6011 10.0618 0.0000 0.0000 0.0000
# 2 13.6011 69.5595 39.3117 0.0000 0.0000 0.0000
# 3 10.0618 39.3117 126.4976 0.0000 0.0000 0.0000
# 4 0.0000 0.0000 0.0000 34.1245 0.0000 0.0000
# 5 0.0000 0.0000 0.0000 0.0000 10.0314 0.0000
# 6 0.0000 0.0000 0.0000 0.0000 0.0000 19.0434
#
#
#
# Elastic Compliance Matrix: (Units=1/GPa)
#
#
# Indices 1 2 3 4 5 6 
#
# 1 0.020021 -0.003657 -0.000456 0.000000 0.000000 0.000000
# 2 -0.003657 0.018107 -0.005336 0.000000 0.000000 0.000000
# 3 -0.000456 -0.005336 0.009600 0.000000 0.000000 0.000000
# 4 0.000000 0.000000 0.000000 0.029304 0.000000 0.000000
# 5 0.000000 0.000000 0.000000 0.000000 0.099687 0.000000
# 6 0.000000 0.000000 0.000000 0.000000 0.000000 0.052512
#
#
# Mechanical properties :
#
#
# Convention : Reuss Voigt Hill
#
# Bulk Modulus (GPa) = 34.68674 41.62968 38.15821
# Shear Modulus (GPa) = 19.39943 25.02276 22.21109
#
# Velocity S-wave (km/s) = 3.26442 3.70748 3.49298
# Velocity P-wave (km/s) = 5.76737 6.41834 6.10155
#
# Compressibility (1/GPa) = 0.02882946
#
# Stress axis : x y z
#
# Youngs Moduli (GPa) = 49.94729 55.22718 104.16773
#
# Poissons Ratio (x) = 0.20197 0.04750
# Poissons Ratio (y) = 0.18266 0.55586
# Poissons Ratio (z) = 0.02278 0.29471
#
# Static dielectric constant tensor:
#      x y z
#    x 1.617850 0.000000 0.000000 
#    y 0.000000 1.686290 0.000000 
#    z 0.000000 0.000000 1.663420 
# 
# From -- ./inp_files/3300.got.cif
#   From: 2010.05.17/outbox.cif.g08.bks.cpg/sg33_2_cif.got.tgz:3300.got - 2010.06.03 17:15:25.
