data_PCOD9344560
_publ_section_title
;
Structure prediction by ZEFSAII (Michael W. Deem and Ramdas Pophale) SiO2 
 PCOD9344560
Probable space group: P N A 21
;
_chemical_formula_sum "Si O2"
_cell_formula_units_Z 28
_cell_length_a 28.082709
_cell_length_b 9.377023
_cell_length_c 5.059283
_cell_angle_alpha 90.000000
_cell_angle_beta 90.000000
_cell_angle_gamma 90.000000
_cell_volume 1332.272164
_symmetry_space_group_name_H-M "P N A 21"
_symmetry_group_IT_number 33
_symmetry_cell_setting 'orthorhombic'
loop_
_space_group_symop_operation_xyz
x,y,z
-x,-y,1/2+z
1/2-x,1/2+y,1/2+z
1/2+x,1/2-y,z
loop_
_atom_site_type_symbol
_atom_site_label
_atom_site_fract_x
_atom_site_fract_y
_atom_site_fract_z
Si Si1 0.518381 0.935826 0.345980
Si Si2 0.217851 0.518600 0.082240
Si Si3 0.063430 0.061012 0.656733
Si Si4 0.369350 0.312908 0.057346
Si Si5 0.476824 0.665578 0.647193
Si Si6 0.886827 0.362663 0.552584
Si Si7 0.237336 0.711147 0.595537
O O1 0.502877 0.793305 0.497555
O O2 0.568112 0.936921 0.188103
O O3 0.517042 0.039614 0.598505
O O4 0.160932 0.543698 0.050787
O O5 0.234441 0.606931 0.341505
O O6 0.228542 0.349418 0.085098
O O7 0.242775 0.603258 0.840832
O O8 0.047697 0.171401 0.431722
O O9 0.109672 0.969075 0.593249
O O10 0.065044 0.122803 0.947665
O O11 0.018707 0.951251 0.667695
O O12 0.395492 0.205002 0.264134
O O13 0.314357 0.287482 0.121940
O O14 0.377272 0.266751 0.756071
#
# Coordination Sequence:
#
# PCOD9344560 Si02
#       7
#     4   4   4   4   4   4   4
#     4  12  24  38  56  78 117 159 199 236 278 349
#     4  10  21  40  64  93 122 158 202 246 308 361
#     4  10  19  33  56  80 106 137 182 247 281 328
#     4  10  19  35  61  87 112 148 200 241 286 354
#     4  10  21  33  52  79 107 142 186 234 293 315
#     4  10  21  37  59  83 114 156 205 234 279 358
#     4  10  21  38  64  94 122 158 198 250 301 367
#
# _framework density 21.016725000000001
#
# number of rings (size 3 to 8) (size 9 to 14) (size 15 to 20)
#    0.000    1.714    1.429    3.429    4.000    0.000 
#    0.000    4.286    0.000    0.000    0.000    0.000 
#    0.000    0.000    0.000    0.000    0.000    0.000 
#
# Total GULP energy -156119.063398 kJ/mol
# GULP energy per Si atom -5575.680836 kJ/mol
# Density = 2.096889 g / cm^3
# Si number density = 21.016725 Si / 1000 Ang^3
#
#
#
# Elastic Constant Matrix: (Units=GPa)
#
#
# Indices 1 2 3 4 5 6 
#
# 1 20.8403 2.9973 -12.4190 0.0000 0.0000 0.0000
# 2 2.9973 55.8992 24.8234 0.0000 0.0000 0.0000
# 3 -12.4190 24.8234 73.5226 0.0000 0.0000 0.0000
# 4 0.0000 0.0000 0.0000 20.5769 0.0000 0.0000
# 5 0.0000 0.0000 0.0000 0.0000 19.0739 0.0000
# 6 0.0000 0.0000 0.0000 0.0000 0.0000 26.9484
#
#
#
# Elastic Compliance Matrix: (Units=1/GPa)
#
#
# Indices 1 2 3 4 5 6 
#
# 1 0.056643 -0.008571 0.012462 0.000000 0.000000 0.000000
# 2 -0.008571 0.022342 -0.008991 0.000000 0.000000 0.000000
# 3 0.012462 -0.008991 0.018742 0.000000 0.000000 0.000000
# 4 0.000000 0.000000 0.000000 0.048598 0.000000 0.000000
# 5 0.000000 0.000000 0.000000 0.000000 0.052428 0.000000
# 6 0.000000 0.000000 0.000000 0.000000 0.000000 0.037108
#
#
# Mechanical properties :
#
#
# Convention : Reuss Voigt Hill
#
# Bulk Modulus (GPa) = 11.42528 20.11839 15.77184
# Shear Modulus (GPa) = 18.16625 22.31054 20.23840
#
# Velocity S-wave (km/s) = 2.94321 3.26170 3.10654
# Velocity P-wave (km/s) = 4.12287 4.87629 4.51532
#
# Compressibility (1/GPa) = 0.08752520
#
# Stress axis : x y z
#
# Youngs Moduli (GPa) = 17.65455 44.75960 53.35663
#
# Poissons Ratio (x) = 0.38364 -0.66491
# Poissons Ratio (y) = 0.15132 0.47973
# Poissons Ratio (z) = -0.22000 0.40243
#
# Static dielectric constant tensor:
#      x y z
#    x 1.774770 0.000000 0.000000 
#    y 0.000000 1.808730 0.000000 
#    z 0.000000 0.000000 1.755090 
# 
# From -- ./inp_files/2430.got.cif
#   From: 2010.05.17/outbox.cif.g08.bks.cpg/sg33_2_cif.got.tgz:2430.got - 2010.06.03 17:15:25.
