data_PCOD9344190
_publ_section_title
;
Structure prediction by ZEFSAII (Michael W. Deem and Ramdas Pophale) SiO2 
 PCOD9344190
Probable space group: P B A 2
;
_chemical_formula_sum "Si O2"
_cell_formula_units_Z 22
_cell_length_a 10.903222
_cell_length_b 15.268223
_cell_length_c 5.135614
_cell_angle_alpha 90.000000
_cell_angle_beta 90.000000
_cell_angle_gamma 90.000000
_cell_volume 854.940170
_symmetry_space_group_name_H-M "P B A 2"
_symmetry_group_IT_number 32
_symmetry_cell_setting 'orthorhombic'
loop_
_space_group_symop_operation_xyz
x,y,z
-x,-y,z
1/2-x,1/2+y,z
1/2+x,1/2-y,z
loop_
_atom_site_type_symbol
_atom_site_label
_atom_site_fract_x
_atom_site_fract_y
_atom_site_fract_z
Si Si1 0.774164 0.930413 0.260330
Si Si2 0.458863 0.651077 0.617059
Si Si3 0.000000 0.000000 0.924477
Si Si4 0.902968 0.293125 0.403965
Si Si5 0.844831 0.611510 0.331306
Si Si6 0.729815 0.216471 0.823936
O O1 0.848632 0.910561 0.522466
O O2 0.702883 0.837587 0.226247
O O3 0.680601 0.010124 0.281312
O O4 0.884515 0.961914 0.079203
O O5 0.544850 0.584302 0.764614
O O6 0.525609 0.700327 0.377652
O O7 0.392737 0.724043 0.790522
O O8 0.840851 0.274018 0.690127
O O9 0.013447 0.361566 0.367100
O O10 0.787462 0.642670 0.601774
O O11 0.780934 0.667864 0.100102
#
# Coordination Sequence:
#
# PCOD9344190 Si02
#       6
#     4   4   2   4   4   4
#     4  11  26  46  76 112 152 207 269 335 411 496
#     4  10  25  46  69 110 152 209 260 332 397 494
#     4  12  26  44  78 110 160 206 278 338 420 494
#     4  10  24  50  75 111 156 209 265 333 412 492
#     4  11  25  47  76 116 154 206 265 339 400 490
#     4  10  25  45  77 110 158 206 264 324 409 483
#
# _framework density 25.732797000000001
#
# number of rings (size 3 to 8) (size 9 to 14) (size 15 to 20)
#    0.000    1.455    0.000    2.182   15.273    2.909 
#    6.545    3.636    0.000    0.000    0.000    0.000 
#    0.000    0.000    0.000    0.000    0.000    0.000 
#
# Total GULP energy -122783.907846 kJ/mol
# GULP energy per Si atom -5581.086720 kJ/mol
# Density = 2.567423 g / cm^3
# Si number density = 25.732797 Si / 1000 Ang^3
#
#
#
# Elastic Constant Matrix: (Units=GPa)
#
#
# Indices 1 2 3 4 5 6 
#
# 1 142.9182 36.2266 16.3570 0.0000 0.0000 0.0000
# 2 36.2266 172.2023 40.3506 0.0000 0.0000 0.0000
# 3 16.3570 40.3506 41.8168 0.0000 0.0000 0.0000
# 4 0.0000 0.0000 0.0000 32.4619 0.0000 0.0000
# 5 0.0000 0.0000 0.0000 0.0000 30.4113 0.0000
# 6 0.0000 0.0000 0.0000 0.0000 0.0000 45.9587
#
#
#
# Elastic Compliance Matrix: (Units=1/GPa)
#
#
# Indices 1 2 3 4 5 6 
#
# 1 0.007497 -0.001150 -0.001823 0.000000 0.000000 0.000000
# 2 -0.001150 0.007680 -0.006961 0.000000 0.000000 0.000000
# 3 -0.001823 -0.006961 0.031344 0.000000 0.000000 0.000000
# 4 0.000000 0.000000 0.000000 0.030805 0.000000 0.000000
# 5 0.000000 0.000000 0.000000 0.000000 0.032882 0.000000
# 6 0.000000 0.000000 0.000000 0.000000 0.000000 0.021759
#
#
# Mechanical properties :
#
#
# Convention : Reuss Voigt Hill
#
# Bulk Modulus (GPa) = 37.51885 60.31175 48.91530
# Shear Modulus (GPa) = 31.11004 39.36661 35.23832
#
# Velocity S-wave (km/s) = 3.48079 3.91554 3.70455
# Velocity P-wave (km/s) = 5.54674 6.62801 6.11133
#
# Compressibility (1/GPa) = 0.02665327
#
# Stress axis : x y z
#
# Youngs Moduli (GPa) = 133.38406 130.20529 31.90424
#
# Poissons Ratio (x) = 0.14974 0.05816
# Poissons Ratio (y) = 0.15340 0.22209
# Poissons Ratio (z) = 0.24314 0.90636
#
# Static dielectric constant tensor:
#      x y z
#    x 2.129930 0.000000 0.000000 
#    y 0.000000 2.017500 0.000000 
#    z 0.000000 0.000000 2.071710 
# 
# From -- ./inp_files/850.got.cif
#   From: 2010.05.17/outbox.cif.g08.bks.cpg/sg32_1_cif.got.tgz:850.got - 2010.06.03 17:12:27.
