data_PCOD9344158
_publ_section_title
;
Structure prediction by ZEFSAII (Michael W. Deem and Ramdas Pophale) SiO2 
 PCOD9344158
Probable space group: P B A 2
;
_chemical_formula_sum "Si O2"
_cell_formula_units_Z 30
_cell_length_a 11.730332
_cell_length_b 19.676131
_cell_length_c 5.381355
_cell_angle_alpha 90.000000
_cell_angle_beta 90.000000
_cell_angle_gamma 90.000000
_cell_volume 1242.057358
_symmetry_space_group_name_H-M "P B A 2"
_symmetry_group_IT_number 32
_symmetry_cell_setting 'orthorhombic'
loop_
_space_group_symop_operation_xyz
x,y,z
-x,-y,z
1/2-x,1/2+y,z
1/2+x,1/2-y,z
loop_
_atom_site_type_symbol
_atom_site_label
_atom_site_fract_x
_atom_site_fract_y
_atom_site_fract_z
Si Si1 0.192992 0.471046 0.511750
Si Si2 0.542471 0.142361 0.633663
Si Si3 0.745004 0.454610 0.995161
Si Si4 0.620846 0.622848 0.358787
Si Si5 0.500000 0.500000 0.071238
Si Si6 0.093433 0.214450 0.393369
Si Si7 0.212789 0.676903 0.743995
Si Si8 0.202866 0.300314 0.000732
O O1 0.081199 0.424515 0.489840
O O2 0.186841 0.514021 0.762772
O O3 0.297788 0.417011 0.549716
O O4 0.220755 0.513300 0.261208
O O5 0.588904 0.211392 0.514993
O O6 0.409582 0.153944 0.649987
O O7 0.612730 0.145742 0.892035
O O8 0.762669 0.374374 0.970916
O O9 0.612116 0.471332 0.938019
O O10 0.548685 0.563145 0.227747
O O11 0.525834 0.677174 0.430786
O O12 0.711672 0.660551 0.182084
O O13 0.190738 0.171535 0.532351
O O14 0.126803 0.238832 0.117645
O O15 0.215509 0.756052 0.820914
#
# Coordination Sequence:
#
# PCOD9344158 Si02
#       8
#     4   4   4   4   2   4   4   4
#     4  11  26  49  73 105 147 199 246 306 379 453
#     4  11  24  46  69 105 146 196 248 310 381 458
#     4  11  27  48  74 108 147 196 254 305 379 453
#     4  11  23  44  76 106 144 192 245 312 375 454
#     4  10  24  42  76 106 142 190 240 310 372 446
#     4  11  24  42  72 109 145 185 249 316 384 455
#     4  11  27  43  74 107 148 198 251 319 381 460
#     4  11  23  46  70 110 146 196 248 316 388 448
#
# _framework density 24.153471
#
# number of rings (size 3 to 8) (size 9 to 14) (size 15 to 20)
#    0.000    1.067    1.333    4.000    9.333    2.133 
#    2.400    2.667    0.000    0.000    0.000    0.000 
#    0.000    0.000    0.000    0.000    0.000    0.000 
#
# Total GULP energy -167702.549020 kJ/mol
# GULP energy per Si atom -5590.084967 kJ/mol
# Density = 2.409850 g / cm^3
# Si number density = 24.153471 Si / 1000 Ang^3
#
#
#
# Elastic Constant Matrix: (Units=GPa)
#
#
# Indices 1 2 3 4 5 6 
#
# 1 51.9236 -20.5820 -6.8795 0.0000 0.0000 0.0000
# 2 -20.5820 74.6661 2.1527 0.0000 0.0000 0.0000
# 3 -6.8795 2.1527 53.8036 0.0000 0.0000 0.0000
# 4 0.0000 0.0000 0.0000 28.1775 0.0000 0.0000
# 5 0.0000 0.0000 0.0000 0.0000 29.4983 0.0000
# 6 0.0000 0.0000 0.0000 0.0000 0.0000 34.3987
#
#
#
# Elastic Compliance Matrix: (Units=1/GPa)
#
#
# Indices 1 2 3 4 5 6 
#
# 1 0.021971 0.005982 0.002570 0.000000 0.000000 0.000000
# 2 0.005982 0.015037 0.000163 0.000000 0.000000 0.000000
# 3 0.002570 0.000163 0.018908 0.000000 0.000000 0.000000
# 4 0.000000 0.000000 0.000000 0.035489 0.000000 0.000000
# 5 0.000000 0.000000 0.000000 0.000000 0.033900 0.000000
# 6 0.000000 0.000000 0.000000 0.000000 0.000000 0.029071
#
#
# Mechanical properties :
#
#
# Convention : Reuss Voigt Hill
#
# Bulk Modulus (GPa) = 13.63376 14.41950 14.02663
# Shear Modulus (GPa) = 30.97991 32.12838 31.55415
#
# Velocity S-wave (km/s) = 3.58526 3.65112 3.61834
# Velocity P-wave (km/s) = 4.77449 4.87413 4.82456
#
# Compressibility (1/GPa) = 0.07334732
#
# Stress axis : x y z
#
# Youngs Moduli (GPa) = 45.51477 66.50136 52.88716
#
# Poissons Ratio (x) = -0.39783 -0.13592
# Poissons Ratio (y) = -0.27228 -0.00864
# Poissons Ratio (z) = -0.11697 -0.01086
#
# Static dielectric constant tensor:
#      x y z
#    x 1.912850 0.000000 0.000000 
#    y 0.000000 1.948390 0.000000 
#    z 0.000000 0.000000 2.128520 
# 
# From -- ./inp_files/1009.got.cif
#   From: 2010.05.17/outbox.cif.g08.bks.cpg/sg32_1_cif.got.tgz:1009.got - 2010.06.03 17:12:27.
