data_PCOD9344179
_publ_section_title
;
Structure prediction by ZEFSAII (Michael W. Deem and Ramdas Pophale) SiO2 
 PCOD9344179
Probable space group: P B A 2
;
_chemical_formula_sum "Si O2"
_cell_formula_units_Z 26
_cell_length_a 9.867593
_cell_length_b 10.664618
_cell_length_c 10.418978
_cell_angle_alpha 90.000000
_cell_angle_beta 90.000000
_cell_angle_gamma 90.000000
_cell_volume 1096.431876
_symmetry_space_group_name_H-M "P B A 2"
_symmetry_group_IT_number 32
_symmetry_cell_setting 'orthorhombic'
loop_
_space_group_symop_operation_xyz
x,y,z
-x,-y,z
1/2-x,1/2+y,z
1/2+x,1/2-y,z
loop_
_atom_site_type_symbol
_atom_site_label
_atom_site_fract_x
_atom_site_fract_y
_atom_site_fract_z
Si Si1 0.500000 0.000000 0.029091
Si Si2 0.491785 0.647022 0.236400
Si Si3 0.791554 0.292456 0.090027
Si Si4 0.707702 0.021500 0.585871
Si Si5 0.993867 0.302097 0.496083
Si Si6 0.556175 0.384174 0.683827
Si Si7 0.683404 0.166932 0.848225
O O1 0.384837 0.081990 0.100403
O O2 0.577191 0.100634 0.941806
O O3 0.500000 0.500000 0.267506
O O4 0.356767 0.678960 0.151272
O O5 0.628593 0.684159 0.163257
O O6 0.500516 0.736108 0.360464
O O7 0.786946 0.235290 0.945433
O O8 0.606627 0.915360 0.529614
O O9 0.850802 0.952246 0.577483
O O10 0.646566 0.144949 0.519766
O O11 0.705941 0.060879 0.737778
O O12 0.953310 0.200218 0.603866
O O13 0.500000 0.500000 0.764113
O O14 0.629340 0.285904 0.771542
#
# Coordination Sequence:
#
# PCOD9344179 Si02
#       7
#     2   4   4   4   4   4   4
#     4  12  24  48  74 108 162 204 264 328 404 490
#     4  12  29  52  80 115 161 211 275 335 402 494
#     4  12  28  51  80 116 156 217 268 335 415 484
#     4  10  24  46  74 106 147 196 256 325 397 468
#     4  10  25  48  72 104 151 198 255 320 392 466
#     4  11  25  39  73 108 147 196 252 319 390 470
#     4  11  24  46  76 109 157 203 259 326 407 484
#
# _framework density 23.713284999999999
#
# number of rings (size 3 to 8) (size 9 to 14) (size 15 to 20)
#    0.000    0.923    1.538    4.154    8.615    3.077 
#    0.000    0.000    0.000    0.000    0.000    0.000 
#    0.000    0.000    0.000    0.000    0.000    0.000 
#
# Total GULP energy -145025.813448 kJ/mol
# GULP energy per Si atom -5577.915902 kJ/mol
# Density = 2.365931 g / cm^3
# Si number density = 23.713285 Si / 1000 Ang^3
#
#
#
# Elastic Constant Matrix: (Units=GPa)
#
#
# Indices 1 2 3 4 5 6 
#
# 1 52.9728 27.6599 -8.0007 0.0000 0.0000 0.0000
# 2 27.6599 157.1337 37.4537 0.0000 0.0000 0.0000
# 3 -8.0007 37.4537 85.4469 0.0000 0.0000 0.0000
# 4 0.0000 0.0000 0.0000 30.4191 0.0000 0.0000
# 5 0.0000 0.0000 0.0000 0.0000 19.5984 0.0000
# 6 0.0000 0.0000 0.0000 0.0000 0.0000 33.4977
#
#
#
# Elastic Compliance Matrix: (Units=1/GPa)
#
#
# Indices 1 2 3 4 5 6 
#
# 1 0.022065 -0.004887 0.004208 0.000000 0.000000 0.000000
# 2 -0.004887 0.008189 -0.004047 0.000000 0.000000 0.000000
# 3 0.004208 -0.004047 0.013871 0.000000 0.000000 0.000000
# 4 0.000000 0.000000 0.000000 0.032874 0.000000 0.000000
# 5 0.000000 0.000000 0.000000 0.000000 0.051025 0.000000
# 6 0.000000 0.000000 0.000000 0.000000 0.000000 0.029853
#
#
# Mechanical properties :
#
#
# Convention : Reuss Voigt Hill
#
# Bulk Modulus (GPa) = 28.84080 45.53106 37.18593
# Shear Modulus (GPa) = 27.95074 32.59906 30.27490
#
# Velocity S-wave (km/s) = 3.43694 3.71174 3.57698
# Velocity P-wave (km/s) = 5.28571 6.13284 5.72496
#
# Compressibility (1/GPa) = 0.03467310
#
# Stress axis : x y z
#
# Youngs Moduli (GPa) = 45.32067 122.11648 72.09227
#
# Poissons Ratio (x) = 0.59680 -0.30338
# Poissons Ratio (y) = 0.22149 0.29176
# Poissons Ratio (z) = -0.19072 0.49421
#
# Static dielectric constant tensor:
#      x y z
#    x 2.077550 0.000000 0.000000 
#    y 0.000000 2.040410 0.000000 
#    z 0.000000 0.000000 1.909850 
# 
# From -- ./inp_files/3836.got.cif
#   From: 2010.05.17/outbox.cif.g08.bks.cpg/sg32_2_cif.got.tgz:3836.got - 2010.06.03 17:12:27.
