data_PCOD9344127
_publ_section_title
;
Structure prediction by ZEFSAII (Michael W. Deem and Ramdas Pophale) SiO2 
 PCOD9344127
Probable space group: P B A 2
;
_chemical_formula_sum "Si O2"
_cell_formula_units_Z 22
_cell_length_a 20.161574
_cell_length_b 7.991679
_cell_length_c 4.913177
_cell_angle_alpha 90.000000
_cell_angle_beta 90.000000
_cell_angle_gamma 90.000000
_cell_volume 791.634797
_symmetry_space_group_name_H-M "P B A 2"
_symmetry_group_IT_number 32
_symmetry_cell_setting 'orthorhombic'
loop_
_space_group_symop_operation_xyz
x,y,z
-x,-y,z
1/2-x,1/2+y,z
1/2+x,1/2-y,z
loop_
_atom_site_type_symbol
_atom_site_label
_atom_site_fract_x
_atom_site_fract_y
_atom_site_fract_z
Si Si1 0.000000 0.500000 0.338780
Si Si2 0.241904 0.973909 0.663537
Si Si3 0.837851 0.785851 0.917160
Si Si4 0.940584 0.213406 0.038266
Si Si5 0.640987 0.982220 0.310929
Si Si6 0.095691 0.982723 0.537173
O O1 0.001693 0.665390 0.147380
O O2 0.071410 0.507990 0.481288
O O3 0.295190 0.070037 0.478541
O O4 0.173347 0.939140 0.513329
O O5 0.288139 0.820799 0.733968
O O6 0.210371 0.052274 0.941342
O O7 0.851548 0.663312 0.165762
O O8 0.897636 0.849694 0.721445
O O9 0.878103 0.339521 0.089512
O O10 0.931847 0.053029 0.238495
O O11 0.941839 0.146220 0.735086
#
# Coordination Sequence:
#
# PCOD9344127 Si02
#       6
#     2   4   4   4   4   4
#     4   8  24  44  82  98 142 210 250 308 364 476
#     4  10  24  40  65 108 142 190 237 321 382 456
#     4  10  25  37  69 102 144 197 237 310 386 446
#     4  10  23  47  73 106 141 197 254 307 369 452
#     4  10  23  44  72 102 146 197 260 301 378 474
#     4  10  25  42  71 106 148 189 243 319 382 439
#
# _framework density 27.790588
#
# number of rings (size 3 to 8) (size 9 to 14) (size 15 to 20)
#    2.182    0.000    0.000    1.091   10.182    2.182 
#    3.273    0.909    0.000    0.000    0.000    0.000 
#    0.000    0.000    0.000    0.000    0.000    0.000 
#
# Total GULP energy -122640.596724 kJ/mol
# GULP energy per Si atom -5574.572578 kJ/mol
# Density = 2.772734 g / cm^3
# Si number density = 27.790588 Si / 1000 Ang^3
#
#
#
# Elastic Constant Matrix: (Units=GPa)
#
#
# Indices 1 2 3 4 5 6 
#
# 1 166.6993 16.5883 28.8486 0.0000 0.0000 0.0000
# 2 16.5883 111.3958 31.6870 0.0000 0.0000 0.0000
# 3 28.8486 31.6870 120.1690 0.0000 0.0000 0.0000
# 4 0.0000 0.0000 0.0000 82.9418 0.0000 0.0000
# 5 0.0000 0.0000 0.0000 0.0000 33.1462 0.0000
# 6 0.0000 0.0000 0.0000 0.0000 0.0000 36.6423
#
#
#
# Elastic Compliance Matrix: (Units=1/GPa)
#
#
# Indices 1 2 3 4 5 6 
#
# 1 0.006290 -0.000548 -0.001365 0.000000 0.000000 0.000000
# 2 -0.000548 0.009753 -0.002440 0.000000 0.000000 0.000000
# 3 -0.001365 -0.002440 0.009293 0.000000 0.000000 0.000000
# 4 0.000000 0.000000 0.000000 0.012057 0.000000 0.000000
# 5 0.000000 0.000000 0.000000 0.000000 0.030169 0.000000
# 6 0.000000 0.000000 0.000000 0.000000 0.000000 0.027291
#
#
# Mechanical properties :
#
#
# Convention : Reuss Voigt Hill
#
# Bulk Modulus (GPa) = 60.13998 61.39021 60.76509
# Shear Modulus (GPa) = 45.82866 51.95541 48.89203
#
# Velocity S-wave (km/s) = 4.06528 4.32850 4.19895
# Velocity P-wave (km/s) = 6.61232 6.86436 6.73952
#
# Compressibility (1/GPa) = 0.01662787
#
# Stress axis : x y z
#
# Youngs Moduli (GPa) = 158.99088 102.53549 107.61010
#
# Poissons Ratio (x) = 0.05621 0.14693
# Poissons Ratio (y) = 0.08716 0.26257
# Poissons Ratio (z) = 0.21708 0.25019
#
# Static dielectric constant tensor:
#      x y z
#    x 2.155060 0.000000 0.000000 
#    y 0.000000 2.226080 0.000000 
#    z 0.000000 0.000000 2.115160 
# 
# From -- ./inp_files/1717.got.cif
#   From: 2010.05.17/outbox.cif.g08.bks.cpg/sg32_1_cif.got.tgz:1717.got - 2010.06.03 17:12:27.
