data_PCOD9344573
_publ_section_title
;
Structure prediction by ZEFSAII (Michael W. Deem and Ramdas Pophale) SiO2 
 PCOD9344573
Probable space group: P N A 21
;
_chemical_formula_sum "Si O2"
_cell_formula_units_Z 28
_cell_length_a 20.255839
_cell_length_b 6.803264
_cell_length_c 7.055596
_cell_angle_alpha 90.000000
_cell_angle_beta 90.000000
_cell_angle_gamma 90.000000
_cell_volume 972.302194
_symmetry_space_group_name_H-M "P N A 21"
_symmetry_group_IT_number 33
_symmetry_cell_setting 'orthorhombic'
loop_
_space_group_symop_operation_xyz
x,y,z
-x,-y,1/2+z
1/2-x,1/2+y,1/2+z
1/2+x,1/2-y,z
loop_
_atom_site_type_symbol
_atom_site_label
_atom_site_fract_x
_atom_site_fract_y
_atom_site_fract_z
Si Si1 0.373659 0.373691 0.175820
Si Si2 0.769012 0.128959 0.918561
Si Si3 0.842923 0.577580 0.106463
Si Si4 0.015252 0.217441 0.157348
Si Si5 0.157962 0.307084 0.167705
Si Si6 0.015723 0.333662 0.593419
Si Si7 0.375877 0.260304 0.611551
O O1 0.450387 0.415470 0.122959
O O2 0.368340 0.348080 0.401318
O O3 0.360825 0.153719 0.093441
O O4 0.311832 0.488570 0.082217
O O5 0.712453 0.086233 0.763897
O O6 0.827516 0.160983 0.769129
O O7 0.723259 0.261431 0.058998
O O8 0.911266 0.678890 0.177507
O O9 0.829931 0.655315 0.892348
O O10 0.092698 0.179323 0.122336
O O11 0.015438 0.255594 0.381237
O O12 0.000285 0.433528 0.073539
O O13 0.142716 0.528588 0.095912
O O14 0.951569 0.236578 0.685351
#
# Coordination Sequence:
#
# PCOD9344573 Si02
#       7
#     4   4   4   4   4   4   4
#     4  10  19  34  51  78 109 136 175 213 260 312
#     4  12  22  30  52  76 112 150 162 210 264 324
#     4  10  19  34  51  78 109 136 175 213 260 312
#     4   8  16  28  50  74 100 131 164 220 266 303
#     4  10  19  34  51  78 109 136 175 213 260 312
#     4   8  16  28  50  74 100 131 164 220 266 303
#     4  10  19  34  51  78 109 136 175 213 260 312
#
# _framework density 28.797632
#
# number of rings (size 3 to 8) (size 9 to 14) (size 15 to 20)
#    0.000    2.286    2.857    0.857    4.000    0.000 
#    0.000    0.000    0.000    0.000    0.000    8.000 
#    0.000    0.000    0.000    0.000    0.000    0.000 
#
# Total GULP energy -156561.061792 kJ/mol
# GULP energy per Si atom -5591.466493 kJ/mol
# Density = 2.873209 g / cm^3
# Si number density = 28.797632 Si / 1000 Ang^3
#
#
#
# Elastic Constant Matrix: (Units=GPa)
#
#
# Indices 1 2 3 4 5 6 
#
# 1 303.5062 27.5771 106.1626 0.0000 0.0000 0.0000
# 2 27.5771 73.6270 55.7671 0.0000 0.0000 0.0000
# 3 106.1626 55.7671 211.4552 0.0000 0.0000 0.0000
# 4 0.0000 0.0000 0.0000 -37.4564 0.0000 0.0000
# 5 0.0000 0.0000 0.0000 0.0000 47.8737 0.0000
# 6 0.0000 0.0000 0.0000 0.0000 0.0000 15.7152
#
#
#
# Elastic Compliance Matrix: (Units=1/GPa)
#
#
# Indices 1 2 3 4 5 6 
#
# 1 0.003997 0.000029 -0.002014 0.000000 0.000000 0.000000
# 2 0.000029 0.016973 -0.004491 0.000000 0.000000 0.000000
# 3 -0.002014 -0.004491 0.006925 0.000000 0.000000 0.000000
# 4 0.000000 0.000000 0.000000 -0.026698 0.000000 0.000000
# 5 0.000000 0.000000 0.000000 0.000000 0.020888 0.000000
# 6 0.000000 0.000000 0.000000 0.000000 0.000000 0.063633
#
#
# Mechanical properties :
#
#
# Convention : Reuss Voigt Hill
#
# Bulk Modulus (GPa) = 66.92658 107.51132 87.21895
# Shear Modulus (GPa) = 48.23935 31.83194 40.03565
#
# Velocity S-wave (km/s) = 4.09726 3.32831 3.73264
# Velocity P-wave (km/s) = 6.75826 7.22389 6.99495
#
# Compressibility (1/GPa) = 0.01494175
#
# Stress axis : x y z
#
# Youngs Moduli (GPa) = 250.20359 58.91883 144.41222
#
# Poissons Ratio (x) = -0.00168 0.29086
# Poissons Ratio (y) = -0.00715 0.64848
# Poissons Ratio (z) = 0.50394 0.26458
#
# Static dielectric constant tensor:
#      x y z
#    x 2.459270 0.000000 0.000000 
#    y 0.000000 2.424610 0.000000 
#    z 0.000000 0.000000 2.121160 
# 
# From -- ./inp_files/4820.got.cif
#   From: 2010.05.17/outbox.cif.g08.bks.cpg/sg33_3_cif.got.tgz:4820.got - 2010.06.03 17:15:25.
