data_PCOD9344639
_publ_section_title
;
Structure prediction by ZEFSAII (Michael W. Deem and Ramdas Pophale) SiO2 
 PCOD9344639
Probable space group: P N A 21
;
_chemical_formula_sum "Si O2"
_cell_formula_units_Z 28
_cell_length_a 7.683443
_cell_length_b 18.001984
_cell_length_c 7.576647
_cell_angle_alpha 90.000000
_cell_angle_beta 90.000000
_cell_angle_gamma 90.000000
_cell_volume 1047.980734
_symmetry_space_group_name_H-M "P N A 21"
_symmetry_group_IT_number 33
_symmetry_cell_setting 'orthorhombic'
loop_
_space_group_symop_operation_xyz
x,y,z
-x,-y,1/2+z
1/2-x,1/2+y,1/2+z
1/2+x,1/2-y,z
loop_
_atom_site_type_symbol
_atom_site_label
_atom_site_fract_x
_atom_site_fract_y
_atom_site_fract_z
Si Si1 0.497512 0.807896 0.476320
Si Si2 0.723821 0.005445 0.363867
Si Si3 0.558374 0.804152 0.071515
Si Si4 0.339971 0.646164 0.549476
Si Si5 0.335402 0.409937 0.923105
Si Si6 0.669803 0.955826 0.971274
Si Si7 0.656710 0.646217 0.047541
O O1 0.590218 0.800464 0.283430
O O2 0.406586 0.729844 0.511139
O O3 0.644443 0.831468 0.617599
O O4 0.348040 0.869716 0.461966
O O5 0.527416 0.025903 0.421063
O O6 0.845483 0.070524 0.438700
O O7 0.773369 0.925116 0.436589
O O8 0.716053 0.994750 0.155731
O O9 0.684353 0.867979 0.995188
O O10 0.570119 0.722856 0.987451
O O11 0.360757 0.831917 0.057950
O O12 0.531408 0.609547 0.579552
O O13 0.408533 0.370665 0.745443
O O14 0.295678 0.493826 0.853541
#
# Coordination Sequence:
#
# PCOD9344639 Si02
#       7
#     4   4   4   4   4   4   4
#     4  11  19  38  63 100 129 165 227 284 319 396
#     4  11  24  40  68  96 138 178 225 284 346 399
#     4  10  19  35  67  88 128 168 223 271 325 395
#     4  12  21  36  68  99 130 171 224 279 333 401
#     4  11  23  37  68 100 133 168 226 282 339 402
#     4  11  22  43  65  97 134 183 224 285 341 401
#     4  10  22  39  65  96 126 175 223 281 333 402
#
# _framework density 26.718046999999999
#
# number of rings (size 3 to 8) (size 9 to 14) (size 15 to 20)
#    0.000    1.143    5.714    2.571    0.000    2.286 
#    0.000    0.000   15.714    0.000    0.000    0.000 
#    0.000    0.000    0.000    0.000    0.000    0.000 
#
# Total GULP energy -156262.024488 kJ/mol
# GULP energy per Si atom -5580.786589 kJ/mol
# Density = 2.665724 g / cm^3
# Si number density = 26.718047 Si / 1000 Ang^3
#
#
#
# Elastic Constant Matrix: (Units=GPa)
#
#
# Indices 1 2 3 4 5 6 
#
# 1 112.2019 35.6996 5.3542 0.0000 0.0000 0.0000
# 2 35.6996 145.4413 31.9098 0.0000 0.0000 0.0000
# 3 5.3542 31.9098 62.0688 0.0000 0.0000 0.0000
# 4 0.0000 0.0000 0.0000 17.8088 0.0000 0.0000
# 5 0.0000 0.0000 0.0000 0.0000 10.4054 0.0000
# 6 0.0000 0.0000 0.0000 0.0000 0.0000 65.3067
#
#
#
# Elastic Compliance Matrix: (Units=1/GPa)
#
#
# Indices 1 2 3 4 5 6 
#
# 1 0.009678 -0.002471 0.000436 0.000000 0.000000 0.000000
# 2 -0.002471 0.008381 -0.004095 0.000000 0.000000 0.000000
# 3 0.000436 -0.004095 0.018179 0.000000 0.000000 0.000000
# 4 0.000000 0.000000 0.000000 0.056152 0.000000 0.000000
# 5 0.000000 0.000000 0.000000 0.000000 0.096104 0.000000
# 6 0.000000 0.000000 0.000000 0.000000 0.000000 0.015312
#
#
# Mechanical properties :
#
#
# Convention : Reuss Voigt Hill
#
# Bulk Modulus (GPa) = 41.70863 51.73768 46.72315
# Shear Modulus (GPa) = 22.31544 35.15408 28.73476
#
# Velocity S-wave (km/s) = 2.89315 3.63125 3.28301
# Velocity P-wave (km/s) = 5.17735 6.08175 5.64768
#
# Compressibility (1/GPa) = 0.02397586
#
# Stress axis : x y z
#
# Youngs Moduli (GPa) = 103.32766 119.32189 55.00846
#
# Poissons Ratio (x) = 0.29485 -0.02396
# Poissons Ratio (y) = 0.25533 0.22528
# Poissons Ratio (z) = -0.04500 0.48867
#
# Static dielectric constant tensor:
#      x y z
#    x 2.111380 0.000000 0.000000 
#    y 0.000000 2.228380 0.000000 
#    z 0.000000 0.000000 2.181850 
# 
# From -- ./inp_files/3334.got.cif
#   From: 2010.05.17/outbox.cif.g08.bks.cpg/sg33_2_cif.got.tgz:3334.got - 2010.06.03 17:15:25.
