data_PCOD9344063
_publ_section_title
;
Structure prediction by ZEFSAII (Michael W. Deem and Ramdas Pophale) SiO2 
 PCOD9344063
Probable space group: P B A 2
;
_chemical_formula_sum "Si O2"
_cell_formula_units_Z 16
_cell_length_a 11.234673
_cell_length_b 5.085823
_cell_length_c 11.323194
_cell_angle_alpha 90.000000
_cell_angle_beta 90.000000
_cell_angle_gamma 90.000000
_cell_volume 646.979658
_symmetry_space_group_name_H-M "P B A 2"
_symmetry_group_IT_number 32
_symmetry_cell_setting 'orthorhombic'
loop_
_space_group_symop_operation_xyz
x,y,z
-x,-y,z
1/2-x,1/2+y,z
1/2+x,1/2-y,z
loop_
_atom_site_type_symbol
_atom_site_label
_atom_site_fract_x
_atom_site_fract_y
_atom_site_fract_z
Si Si1 0.815933 0.321425 0.392070
Si Si2 0.000000 0.000000 0.855179
Si Si3 0.000000 0.000000 0.243579
Si Si4 0.667549 0.257142 0.045093
Si Si5 0.422698 0.260191 0.631530
O O1 0.711802 0.118236 0.359978
O O2 0.928347 0.203746 0.325088
O O3 0.825252 0.298816 0.534184
O O4 0.906507 0.143144 0.765758
O O5 0.921003 0.809206 0.935185
O O6 0.911775 0.841123 0.156810
O O7 0.722808 0.966277 0.043914
O O8 0.500000 0.500000 0.579293
O O9 0.500000 0.000000 0.639347
#
# Coordination Sequence:
#
# PCOD9344063 Si02
#       5
#     4   2   2   4   4
#     4  12  26  42  69 102 132 179 226 270 337 408
#     4   9  25  42  70  94 141 173 216 280 334 391
#     4  11  25  48  68  94 143 173 222 290 336 389
#     4  11  26  44  68 101 128 176 231 274 335 401
#     4  10  22  43  65  97 134 179 211 273 338 389
#
# _framework density 24.730301999999998
#
# number of rings (size 3 to 8) (size 9 to 14) (size 15 to 20)
#    0.750    0.500    1.250    3.000    3.500    7.000 
#    0.000    0.000    0.000    0.000    0.000    0.000 
#    0.000    0.000    0.000    0.000    0.000    0.000 
#
# Total GULP energy -89534.731287 kJ/mol
# GULP energy per Si atom -5595.920705 kJ/mol
# Density = 2.467401 g / cm^3
# Si number density = 24.730302 Si / 1000 Ang^3
#
#
#
# Elastic Constant Matrix: (Units=GPa)
#
#
# Indices 1 2 3 4 5 6 
#
# 1 57.5350 -8.8820 46.2717 0.0000 0.0000 0.0000
# 2 -8.8820 79.4753 20.7890 0.0000 0.0000 0.0000
# 3 46.2717 20.7890 162.6119 0.0000 0.0000 0.0000
# 4 0.0000 0.0000 0.0000 12.3495 0.0000 0.0000
# 5 0.0000 0.0000 0.0000 0.0000 36.7951 0.0000
# 6 0.0000 0.0000 0.0000 0.0000 0.0000 37.9577
#
#
#
# Elastic Compliance Matrix: (Units=1/GPa)
#
#
# Indices 1 2 3 4 5 6 
#
# 1 0.024086 0.004640 -0.007447 0.000000 0.000000 0.000000
# 2 0.004640 0.013912 -0.003099 0.000000 0.000000 0.000000
# 3 -0.007447 -0.003099 0.008665 0.000000 0.000000 0.000000
# 4 0.000000 0.000000 0.000000 0.080975 0.000000 0.000000
# 5 0.000000 0.000000 0.000000 0.000000 0.027178 0.000000
# 6 0.000000 0.000000 0.000000 0.000000 0.000000 0.026345
#
#
# Mechanical properties :
#
#
# Convention : Reuss Voigt Hill
#
# Bulk Modulus (GPa) = 28.69391 46.21996 37.45693
# Shear Modulus (GPa) = 24.43925 33.51669 28.97797
#
# Velocity S-wave (km/s) = 3.14702 3.68542 3.42681
# Velocity P-wave (km/s) = 4.98327 6.06959 5.55306
#
# Compressibility (1/GPa) = 0.03485061
#
# Stress axis : x y z
#
# Youngs Moduli (GPa) = 41.51779 71.88233 115.40922
#
# Poissons Ratio (x) = -0.33352 0.85944
# Poissons Ratio (y) = -0.19263 0.35763
# Poissons Ratio (z) = 0.30918 0.22275
#
# Static dielectric constant tensor:
#      x y z
#    x 1.969570 0.000000 0.000000 
#    y 0.000000 1.885690 0.000000 
#    z 0.000000 0.000000 1.981060 
# 
# From -- ./inp_files/3813.got.cif
#   From: 2010.05.17/outbox.cif.g08.bks.cpg/sg32_2_cif.got.tgz:3813.got - 2010.06.03 17:12:27.
