data_PCOD9344999
_publ_section_title
;
Structure prediction by ZEFSAII (Michael W. Deem and Ramdas Pophale) SiO2 
 PCOD9344999
Probable space group: P N A 21
;
_chemical_formula_sum "Si O2"
_cell_formula_units_Z 24
_cell_length_a 13.979842
_cell_length_b 9.648660
_cell_length_c 6.794495
_cell_angle_alpha 90.000000
_cell_angle_beta 90.000000
_cell_angle_gamma 90.000000
_cell_volume 916.487296
_symmetry_space_group_name_H-M "P N A 21"
_symmetry_group_IT_number 33
_symmetry_cell_setting 'orthorhombic'
loop_
_space_group_symop_operation_xyz
x,y,z
-x,-y,1/2+z
1/2-x,1/2+y,1/2+z
1/2+x,1/2-y,z
loop_
_atom_site_type_symbol
_atom_site_label
_atom_site_fract_x
_atom_site_fract_y
_atom_site_fract_z
Si Si1 0.612929 0.345563 0.298960
Si Si2 0.129044 0.729192 0.155891
Si Si3 0.801543 0.564104 0.721228
Si Si4 0.903381 0.063470 0.297105
Si Si5 0.219671 0.446805 0.692615
Si Si6 0.923287 0.760681 0.260092
O O1 0.633919 0.199163 0.196042
O O2 0.513993 0.420009 0.233938
O O3 0.709577 0.434420 0.268428
O O4 0.597821 0.307396 0.530747
O O5 0.154138 0.570835 0.125144
O O6 0.222113 0.804910 0.234648
O O7 0.036494 0.745899 0.289537
O O8 0.108318 0.817187 0.959725
O O9 0.690301 0.587541 0.662299
O O10 0.795752 0.535452 0.958038
O O11 0.891687 0.903276 0.365511
O O12 0.119523 0.393676 0.778615
#
# Coordination Sequence:
#
# PCOD9344999 Si02
#       6
#     4   4   4   4   4   4
#     4  10  22  40  68  99 134 174 233 285 349 417
#     4  10  20  38  66  94 134 171 230 281 342 418
#     4  10  22  40  64  95 135 178 224 290 340 407
#     4  10  20  39  67  94 132 184 218 283 355 407
#     4  10  20  40  65  93 129 178 228 275 342 412
#     4  10  20  39  70  97 134 179 225 290 350 407
#
# _framework density 26.186941000000001
#
# number of rings (size 3 to 8) (size 9 to 14) (size 15 to 20)
#    0.000    2.000    3.333    0.000    0.000    1.333 
#    3.000    1.667   22.000    0.000    0.000    0.000 
#    0.000    0.000    0.000    0.000    0.000    0.000 
#
# Total GULP energy -134149.925731 kJ/mol
# GULP energy per Si atom -5589.580239 kJ/mol
# Density = 2.612734 g / cm^3
# Si number density = 26.186941 Si / 1000 Ang^3
#
#
#
# Elastic Constant Matrix: (Units=GPa)
#
#
# Indices 1 2 3 4 5 6 
#
# 1 92.9986 33.6410 -2.9389 0.0000 0.0000 0.0000
# 2 33.6410 167.6583 23.5709 0.0000 0.0000 0.0000
# 3 -2.9389 23.5709 98.8101 0.0000 0.0000 0.0000
# 4 0.0000 0.0000 0.0000 36.1939 0.0000 0.0000
# 5 0.0000 0.0000 0.0000 0.0000 15.1758 0.0000
# 6 0.0000 0.0000 0.0000 0.0000 0.0000 50.3853
#
#
#
# Elastic Compliance Matrix: (Units=1/GPa)
#
#
# Indices 1 2 3 4 5 6 
#
# 1 0.011678 -0.002475 0.000938 0.000000 0.000000 0.000000
# 2 -0.002475 0.006696 -0.001671 0.000000 0.000000 0.000000
# 3 0.000938 -0.001671 0.010547 0.000000 0.000000 0.000000
# 4 0.000000 0.000000 0.000000 0.027629 0.000000 0.000000
# 5 0.000000 0.000000 0.000000 0.000000 0.065895 0.000000
# 6 0.000000 0.000000 0.000000 0.000000 0.000000 0.019847
#
#
# Mechanical properties :
#
#
# Convention : Reuss Voigt Hill
#
# Bulk Modulus (GPa) = 44.43594 52.00147 48.21870
# Shear Modulus (GPa) = 32.00836 40.69726 36.35281
#
# Velocity S-wave (km/s) = 3.49994 3.94649 3.72990
# Velocity P-wave (km/s) = 5.77393 6.37709 6.08299
#
# Compressibility (1/GPa) = 0.02250431
#
# Stress axis : x y z
#
# Youngs Moduli (GPa) = 85.63268 149.34189 94.81452
#
# Poissons Ratio (x) = 0.36962 -0.08891
# Poissons Ratio (y) = 0.21194 0.15843
# Poissons Ratio (z) = -0.08030 0.24954
#
# Static dielectric constant tensor:
#      x y z
#    x 2.060230 0.000000 0.000000 
#    y 0.000000 1.991690 0.000000 
#    z 0.000000 0.000000 2.261840 
# 
# From -- ./inp_files/4275.got.cif
#   From: 2010.05.17/outbox.cif.g08.bks.cpg/sg33_3_cif.got.tgz:4275.got - 2010.06.03 17:15:25.
