data_PCOD9344597
_publ_section_title
;
Structure prediction by ZEFSAII (Michael W. Deem and Ramdas Pophale) SiO2 
 PCOD9344597
Probable space group: P N A 21
;
_chemical_formula_sum "Si O2"
_cell_formula_units_Z 24
_cell_length_a 20.541153
_cell_length_b 8.486893
_cell_length_c 5.190186
_cell_angle_alpha 90.000000
_cell_angle_beta 90.000000
_cell_angle_gamma 90.000000
_cell_volume 904.808071
_symmetry_space_group_name_H-M "P N A 21"
_symmetry_group_IT_number 33
_symmetry_cell_setting 'orthorhombic'
loop_
_space_group_symop_operation_xyz
x,y,z
-x,-y,1/2+z
1/2-x,1/2+y,1/2+z
1/2+x,1/2-y,z
loop_
_atom_site_type_symbol
_atom_site_label
_atom_site_fract_x
_atom_site_fract_y
_atom_site_fract_z
Si Si1 0.611234 0.839236 0.393790
Si Si2 0.967700 0.066528 0.467732
Si Si3 0.171644 0.758329 0.884690
Si Si4 0.628681 0.289048 0.905790
Si Si5 0.244099 0.554998 0.248977
Si Si6 0.439022 0.847873 0.908854
O O1 0.618308 0.754538 0.661875
O O2 0.677369 0.943661 0.404741
O O3 0.553431 0.963751 0.374094
O O4 0.628606 0.730635 0.149402
O O5 0.903057 0.963826 0.403595
O O6 0.983776 0.028991 0.768016
O O7 0.996596 0.241987 0.418843
O O8 0.220385 0.891924 0.791150
O O9 0.218237 0.610307 0.967901
O O10 0.705055 0.314456 0.853363
O O11 0.597482 0.189592 0.675440
O O12 0.605876 0.211832 0.171950
#
# Coordination Sequence:
#
# PCOD9344597 Si02
#       6
#     4   4   4   4   4   4
#     4  10  23  34  54  77 105 147 178 220 274 326
#     4   8  16  31  50  80 104 134 176 227 270 320
#     4  10  24  35  54  75 111 140 189 217 276 330
#     4  10  20  31  58  80 109 139 178 231 279 316
#     4  10  24  36  55  78 112 143 182 228 273 335
#     4  10  19  35  55  80 109 139 181 225 278 327
#
# _framework density 26.524961999999999
#
# number of rings (size 3 to 8) (size 9 to 14) (size 15 to 20)
#    1.000    1.333    0.000    2.000    7.000    0.000 
#    0.000    0.000    0.000    2.000    0.000    0.000 
#    0.000    0.000    0.000    0.000    0.000    0.000 
#
# Total GULP energy -134039.075268 kJ/mol
# GULP energy per Si atom -5584.961470 kJ/mol
# Density = 2.646459 g / cm^3
# Si number density = 26.524962 Si / 1000 Ang^3
#
#
#
# Elastic Constant Matrix: (Units=GPa)
#
#
# Indices 1 2 3 4 5 6 
#
# 1 53.4233 -32.2295 -6.6930 0.0000 0.0000 0.0000
# 2 -32.2295 73.4578 34.2097 0.0000 0.0000 0.0000
# 3 -6.6930 34.2097 154.2060 0.0000 0.0000 0.0000
# 4 0.0000 0.0000 0.0000 42.6120 0.0000 0.0000
# 5 0.0000 0.0000 0.0000 0.0000 -17.4433 0.0000
# 6 0.0000 0.0000 0.0000 0.0000 0.0000 38.7592
#
#
#
# Elastic Compliance Matrix: (Units=1/GPa)
#
#
# Indices 1 2 3 4 5 6 
#
# 1 0.025785 0.012035 -0.001551 0.000000 0.000000 0.000000
# 2 0.012035 0.020799 -0.004092 0.000000 0.000000 0.000000
# 3 -0.001551 -0.004092 0.007325 0.000000 0.000000 0.000000
# 4 0.000000 0.000000 0.000000 0.023468 0.000000 0.000000
# 5 0.000000 0.000000 0.000000 0.000000 -0.057329 0.000000
# 6 0.000000 0.000000 0.000000 0.000000 0.000000 0.025800
#
#
# Mechanical properties :
#
#
# Convention : Reuss Voigt Hill
#
# Bulk Modulus (GPa) = 14.99371 30.18463 22.58917
# Shear Modulus (GPa) = 90.42409 31.83891 61.13150
#
# Velocity S-wave (km/s) = 5.84501 3.46835 4.80591
# Velocity P-wave (km/s) = 7.15662 5.23867 6.27140
#
# Compressibility (1/GPa) = 0.06669462
#
# Stress axis : x y z
#
# Youngs Moduli (GPa) = 38.78251 48.07851 136.51373
#
# Poissons Ratio (x) = -0.57864 0.21171
# Poissons Ratio (y) = -0.46676 0.55859
# Poissons Ratio (z) = 0.06014 0.19673
#
# Static dielectric constant tensor:
#      x y z
#    x 2.295660 0.000000 0.000000 
#    y 0.000000 2.928780 0.000000 
#    z 0.000000 0.000000 2.115620 
# 
# From -- ./inp_files/2382.got.cif
#   From: 2010.05.17/outbox.cif.g08.bks.cpg/sg33_2_cif.got.tgz:2382.got - 2010.06.03 17:15:25.
