data_PCOD9344107
_publ_section_title
;
Structure prediction by ZEFSAII (Michael W. Deem and Ramdas Pophale) SiO2 
 PCOD9344107
Probable space group: P B A 2
;
_chemical_formula_sum "Si O2"
_cell_formula_units_Z 22
_cell_length_a 14.235552
_cell_length_b 7.625111
_cell_length_c 8.565040
_cell_angle_alpha 90.000000
_cell_angle_beta 90.000000
_cell_angle_gamma 90.000000
_cell_volume 929.715085
_symmetry_space_group_name_H-M "P B A 2"
_symmetry_group_IT_number 32
_symmetry_cell_setting 'orthorhombic'
loop_
_space_group_symop_operation_xyz
x,y,z
-x,-y,z
1/2-x,1/2+y,z
1/2+x,1/2-y,z
loop_
_atom_site_type_symbol
_atom_site_label
_atom_site_fract_x
_atom_site_fract_y
_atom_site_fract_z
Si Si1 0.843345 0.262783 0.227290
Si Si2 0.941122 0.768933 0.881243
Si Si3 0.858257 0.387101 0.871708
Si Si4 0.500000 0.500000 0.163341
Si Si5 0.308691 0.911374 0.414695
Si Si6 0.315932 0.622420 0.642390
O O1 0.741015 0.196034 0.277640
O O2 0.864309 0.428943 0.338672
O O3 0.920366 0.110860 0.249527
O O4 0.839137 0.318981 0.046857
O O5 0.874948 0.596797 0.881506
O O6 0.895443 0.912694 0.768249
O O7 0.042283 0.699105 0.828305
O O8 0.951090 0.857450 0.049695
O O9 0.777027 0.342321 0.748707
O O10 0.356167 0.781786 0.537114
O O11 0.221890 0.985007 0.518004
#
# Coordination Sequence:
#
# PCOD9344107 Si02
#       6
#     4   4   4   2   4   4
#     4  10  24  44  65 100 136 180 229 287 340 420
#     4  10  23  41  69 103 128 173 235 295 326 407
#     4  10  23  42  72  98 136 176 240 282 343 402
#     4  10  24  44  68 104 134 178 244 288 342 400
#     4  10  24  41  65  99 140 178 224 270 363 415
#     4  11  22  43  68  98 136 185 224 283 346 414
#
# _framework density 23.663163999999998
#
# number of rings (size 3 to 8) (size 9 to 14) (size 15 to 20)
#    0.000    1.818    1.818    0.000   10.182    1.455 
#    6.545    0.000    0.000    0.000    0.000    0.000 
#    0.000    0.000    0.000    0.000    0.000    0.000 
#
# Total GULP energy -122974.829500 kJ/mol
# GULP energy per Si atom -5589.764977 kJ/mol
# Density = 2.360931 g / cm^3
# Si number density = 23.663164 Si / 1000 Ang^3
#
#
#
# Elastic Constant Matrix: (Units=GPa)
#
#
# Indices 1 2 3 4 5 6 
#
# 1 70.3952 12.1652 39.6016 0.0000 0.0000 0.0000
# 2 12.1652 74.1782 6.9607 0.0000 0.0000 0.0000
# 3 39.6016 6.9607 85.1634 0.0000 0.0000 0.0000
# 4 0.0000 0.0000 0.0000 43.9514 0.0000 0.0000
# 5 0.0000 0.0000 0.0000 0.0000 19.5612 0.0000
# 6 0.0000 0.0000 0.0000 0.0000 0.0000 32.9754
#
#
#
# Elastic Compliance Matrix: (Units=1/GPa)
#
#
# Indices 1 2 3 4 5 6 
#
# 1 0.019647 -0.002383 -0.008941 0.000000 0.000000 0.000000
# 2 -0.002383 0.013874 -0.000026 0.000000 0.000000 0.000000
# 3 -0.008941 -0.000026 0.015902 0.000000 0.000000 0.000000
# 4 0.000000 0.000000 0.000000 0.022752 0.000000 0.000000
# 5 0.000000 0.000000 0.000000 0.000000 0.051122 0.000000
# 6 0.000000 0.000000 0.000000 0.000000 0.000000 0.030326
#
#
# Mechanical properties :
#
#
# Convention : Reuss Voigt Hill
#
# Bulk Modulus (GPa) = 37.42085 38.57687 37.99886
# Shear Modulus (GPa) = 26.99318 30.69822 28.84570
#
# Velocity S-wave (km/s) = 3.38113 3.60571 3.49522
# Velocity P-wave (km/s) = 5.57593 5.80282 5.69051
#
# Compressibility (1/GPa) = 0.02672307
#
# Stress axis : x y z
#
# Youngs Moduli (GPa) = 50.89719 72.07566 62.88491
#
# Poissons Ratio (x) = 0.17176 0.56228
# Poissons Ratio (y) = 0.12129 0.00162
# Poissons Ratio (z) = 0.45509 0.00186
#
# Static dielectric constant tensor:
#      x y z
#    x 1.864010 0.000000 0.000000 
#    y 0.000000 1.963950 0.000000 
#    z 0.000000 0.000000 1.840350 
# 
# From -- ./inp_files/2268.got.cif
#   From: 2010.05.17/outbox.cif.g08.bks.cpg/sg32_2_cif.got.tgz:2268.got - 2010.06.03 17:12:27.
