data_PCOD9344748
_publ_section_title
;
Structure prediction by ZEFSAII (Michael W. Deem and Ramdas Pophale) SiO2 
 PCOD9344748
Probable space group: P N A 21
;
_chemical_formula_sum "Si O2"
_cell_formula_units_Z 32
_cell_length_a 14.329378
_cell_length_b 9.210057
_cell_length_c 11.304653
_cell_angle_alpha 90.000000
_cell_angle_beta 90.000000
_cell_angle_gamma 90.000000
_cell_volume 1491.924663
_symmetry_space_group_name_H-M "P N A 21"
_symmetry_group_IT_number 33
_symmetry_cell_setting 'orthorhombic'
loop_
_space_group_symop_operation_xyz
x,y,z
-x,-y,1/2+z
1/2-x,1/2+y,1/2+z
1/2+x,1/2-y,z
loop_
_atom_site_type_symbol
_atom_site_label
_atom_site_fract_x
_atom_site_fract_y
_atom_site_fract_z
Si Si1 0.365105 0.427863 0.257490
Si Si2 0.690369 0.551530 0.169433
Si Si3 0.071468 0.865111 0.513970
Si Si4 0.854648 0.785247 0.538117
Si Si5 0.164931 0.388429 0.278820
Si Si6 0.640438 0.227042 0.770744
Si Si7 0.921606 0.296632 0.767297
Si Si8 0.069989 0.124905 0.363174
O O1 0.371402 0.343506 0.132701
O O2 0.271601 0.375677 0.321031
O O3 0.353780 0.601417 0.240704
O O4 0.464328 0.402335 0.319757
O O5 0.695761 0.439210 0.061627
O O6 0.788424 0.623658 0.202425
O O7 0.618639 0.687229 0.167944
O O8 0.643299 0.450000 0.271629
O O9 0.096783 0.778950 0.395172
O O10 0.964341 0.826085 0.538728
O O11 0.079247 0.035193 0.482627
O O12 0.839106 0.676111 0.645846
O O13 0.833831 0.719851 0.410247
O O14 0.131073 0.552238 0.269849
O O15 0.097238 0.292228 0.360298
O O16 0.532402 0.184550 0.754671
#
# Coordination Sequence:
#
# PCOD9344748 Si02
#       8
#     4   4   4   4   4   4   4   4
#     4  12  21  40  68  92 126 176 215 259 335 383
#     4  10  19  40  65  91 128 169 218 263 315 395
#     4  10  20  43  71  85 126 189 208 255 336 393
#     4  10  21  42  67  95 130 173 214 266 329 387
#     4  11  24  37  64 101 132 159 219 280 312 385
#     4  11  22  41  69  93 128 178 215 268 327 386
#     4  10  21  40  64  93 133 164 221 271 314 382
#     4  10  22  43  64  90 133 168 218 264 322 391
#
# _framework density 21.448806000000001
#
# number of rings (size 3 to 8) (size 9 to 14) (size 15 to 20)
#    0.000    1.500    7.500    0.000    3.500    2.000 
#    2.250    5.000    0.000    0.000    0.000    0.000 
#    0.000    0.000    0.000    0.000    0.000    0.000 
#
# Total GULP energy -178726.443483 kJ/mol
# GULP energy per Si atom -5585.201359 kJ/mol
# Density = 2.139999 g / cm^3
# Si number density = 21.448806 Si / 1000 Ang^3
#
#
#
# Elastic Constant Matrix: (Units=GPa)
#
#
# Indices 1 2 3 4 5 6 
#
# 1 116.7035 24.6177 17.0532 0.0000 0.0000 0.0000
# 2 24.6177 84.1769 15.1990 0.0000 0.0000 0.0000
# 3 17.0532 15.1990 43.9989 0.0000 0.0000 0.0000
# 4 0.0000 0.0000 0.0000 20.2635 0.0000 0.0000
# 5 0.0000 0.0000 0.0000 0.0000 -1.8895 0.0000
# 6 0.0000 0.0000 0.0000 0.0000 0.0000 13.5915
#
#
#
# Elastic Compliance Matrix: (Units=1/GPa)
#
#
# Indices 1 2 3 4 5 6 
#
# 1 0.009465 -0.002246 -0.002893 0.000000 0.000000 0.000000
# 2 -0.002246 0.013203 -0.003690 0.000000 0.000000 0.000000
# 3 -0.002893 -0.003690 0.025124 0.000000 0.000000 0.000000
# 4 0.000000 0.000000 0.000000 0.049350 0.000000 0.000000
# 5 0.000000 0.000000 0.000000 0.000000 -0.529235 0.000000
# 6 0.000000 0.000000 0.000000 0.000000 0.000000 0.073576
#
#
# Mechanical properties :
#
#
# Convention : Reuss Voigt Hill
#
# Bulk Modulus (GPa) = 33.18507 39.84656 36.51582
# Shear Modulus (GPa) = -15.11418 18.92706 1.90644
#
# Velocity S-wave (km/s) = -2.65743 2.97379 0.94380
# Velocity P-wave (km/s) = 2.46768 5.51445 4.27192
#
# Compressibility (1/GPa) = 0.03013403
#
# Stress axis : x y z
#
# Youngs Moduli (GPa) = 105.65069 75.74114 39.80287
#
# Poissons Ratio (x) = 0.17010 0.11514
# Poissons Ratio (y) = 0.23727 0.14689
# Poissons Ratio (z) = 0.30562 0.27951
#
# Static dielectric constant tensor:
#      x y z
#    x 1.797110 0.000000 0.000000 
#    y 0.000000 1.768970 0.000000 
#    z 0.000000 0.000000 1.814930 
# 
# From -- ./inp_files/6839.got.cif
#   From: 2010.05.17/outbox.cif.g08.bks.cpg/sg33_4_cif.got.tgz:6839.got - 2010.06.03 17:15:25.
