data_PCOD9344279
_publ_section_title
;
Structure prediction by ZEFSAII (Michael W. Deem and Ramdas Pophale) SiO2 
 PCOD9344279
Probable space group: P B A 2
;
_chemical_formula_sum "Si O2"
_cell_formula_units_Z 14
_cell_length_a 4.955861
_cell_length_b 11.065554
_cell_length_c 10.817189
_cell_angle_alpha 90.000000
_cell_angle_beta 90.000000
_cell_angle_gamma 90.000000
_cell_volume 593.207587
_symmetry_space_group_name_H-M "P B A 2"
_symmetry_group_IT_number 32
_symmetry_cell_setting 'orthorhombic'
loop_
_space_group_symop_operation_xyz
x,y,z
-x,-y,z
1/2-x,1/2+y,z
1/2+x,1/2-y,z
loop_
_atom_site_type_symbol
_atom_site_label
_atom_site_fract_x
_atom_site_fract_y
_atom_site_fract_z
Si Si1 0.500000 0.500000 0.784611
Si Si2 0.000000 0.000000 0.219973
Si Si3 0.124099 0.335485 0.623540
Si Si4 0.560204 0.679872 0.997307
Si Si5 0.500000 0.000000 0.396770
O O1 0.260382 0.444442 0.701827
O O2 0.441311 0.605559 0.882567
O O3 0.749033 0.973919 0.308105
O O4 0.018820 0.887524 0.126328
O O5 0.332269 0.224446 0.644848
O O6 0.095441 0.391079 0.486307
O O7 0.379717 0.799815 0.990463
#
# Coordination Sequence:
#
# PCOD9344279 Si02
#       5
#     2   2   4   4   2
#     4  11  25  46  70 104 143 179 236 296 354 429
#     4  11  25  44  70 100 139 181 234 294 350 423
#     4  12  26  44  70 101 139 187 233 290 358 423
#     4  11  25  44  71 102 136 182 231 291 360 424
#     4  12  26  46  68 102 142 184 238 294 348 424
#
# _framework density 23.600508000000001
#
# number of rings (size 3 to 8) (size 9 to 14) (size 15 to 20)
#    0.000    0.571    0.000    7.714    0.000   14.857 
#    0.000    0.000    0.000    0.000    0.000    0.000 
#    0.000    0.000    0.000    0.000    0.000    0.000 
#
# Total GULP energy -78256.051040 kJ/mol
# GULP energy per Si atom -5589.717931 kJ/mol
# Density = 2.354679 g / cm^3
# Si number density = 23.600508 Si / 1000 Ang^3
#
#
#
# Elastic Constant Matrix: (Units=GPa)
#
#
# Indices 1 2 3 4 5 6 
#
# 1 140.9401 17.7764 61.4326 0.0000 0.0000 0.0000
# 2 17.7764 53.8750 34.3153 0.0000 0.0000 0.0000
# 3 61.4326 34.3153 167.2342 0.0000 0.0000 0.0000
# 4 0.0000 0.0000 0.0000 22.3205 0.0000 0.0000
# 5 0.0000 0.0000 0.0000 0.0000 65.3966 0.0000
# 6 0.0000 0.0000 0.0000 0.0000 0.0000 34.1362
#
#
#
# Elastic Compliance Matrix: (Units=1/GPa)
#
#
# Indices 1 2 3 4 5 6 
#
# 1 0.008489 -0.000937 -0.002926 0.000000 0.000000 0.000000
# 2 -0.000937 0.021456 -0.004058 0.000000 0.000000 0.000000
# 3 -0.002926 -0.004058 0.007887 0.000000 0.000000 0.000000
# 4 0.000000 0.000000 0.000000 0.044802 0.000000 0.000000
# 5 0.000000 0.000000 0.000000 0.000000 0.015291 0.000000
# 6 0.000000 0.000000 0.000000 0.000000 0.000000 0.029294
#
#
# Mechanical properties :
#
#
# Convention : Reuss Voigt Hill
#
# Bulk Modulus (GPa) = 45.47807 65.45536 55.46671
# Shear Modulus (GPa) = 33.24652 40.93900 37.09276
#
# Velocity S-wave (km/s) = 3.75736 4.16945 3.96876
# Velocity P-wave (km/s) = 6.17539 7.13961 6.67494
#
# Compressibility (1/GPa) = 0.02198862
#
# Stress axis : x y z
#
# Youngs Moduli (GPa) = 117.80230 46.60789 126.78750
#
# Poissons Ratio (x) = 0.04368 0.37098
# Poissons Ratio (y) = 0.11041 0.51454
# Poissons Ratio (z) = 0.34469 0.18915
#
# Static dielectric constant tensor:
#      x y z
#    x 1.852790 0.000000 0.000000 
#    y 0.000000 1.973270 0.000000 
#    z 0.000000 0.000000 1.832470 
# 
# From -- ./inp_files/1854.got.cif
#   From: 2010.05.17/outbox.cif.g08.bks.cpg/sg32_1_cif.got.tgz:1854.got - 2010.06.03 17:12:27.
