data_PCOD9344322
_publ_section_title
;
Structure prediction by ZEFSAII (Michael W. Deem and Ramdas Pophale) SiO2 
 PCOD9344322
Probable space group: P B A 2
;
_chemical_formula_sum "Si O2"
_cell_formula_units_Z 20
_cell_length_a 9.575345
_cell_length_b 9.022807
_cell_length_c 9.745253
_cell_angle_alpha 90.000000
_cell_angle_beta 90.000000
_cell_angle_gamma 90.000000
_cell_volume 841.955652
_symmetry_space_group_name_H-M "P B A 2"
_symmetry_group_IT_number 32
_symmetry_cell_setting 'orthorhombic'
loop_
_space_group_symop_operation_xyz
x,y,z
-x,-y,z
1/2-x,1/2+y,z
1/2+x,1/2-y,z
loop_
_atom_site_type_symbol
_atom_site_label
_atom_site_fract_x
_atom_site_fract_y
_atom_site_fract_z
Si Si1 0.255256 0.232484 0.190500
Si Si2 0.155557 0.561882 0.648250
Si Si3 0.386135 0.377935 0.772073
Si Si4 0.990572 0.666274 0.006397
Si Si5 0.341848 0.491515 0.385122
O O1 0.293086 0.340376 0.315064
O O2 0.165561 0.103600 0.257533
O O3 0.398768 0.170404 0.130393
O O4 0.162017 0.301846 0.068641
O O5 0.243717 0.474400 0.766272
O O6 0.145826 0.737102 0.675977
O O7 0.239086 0.533297 0.507985
O O8 0.000000 0.500000 0.636103
O O9 0.500000 0.500000 0.731423
O O10 0.454611 0.294384 0.903741
O O11 0.000000 0.500000 0.948393
O O12 0.500000 0.500000 0.434534
#
# Coordination Sequence:
#
# PCOD9344322 Si02
#       5
#     4   4   4   4   4
#     4  12  27  47  78 118 158 210 261 330 407 483
#     4  12  29  51  82 117 158 215 277 340 410 483
#     4  12  30  53  81 118 160 213 272 341 408 487
#     4  12  29  49  80 118 166 214 268 332 406 493
#     4  12  27  50  79 115 161 207 267 336 402 486
#
# _framework density 23.754218999999999
#
# number of rings (size 3 to 8) (size 9 to 14) (size 15 to 20)
#    0.000    0.000    4.000    3.600   14.000    3.200 
#    0.000    0.000    0.000    0.000    0.000    0.000 
#    0.000    0.000    0.000    0.000    0.000    0.000 
#
# Total GULP energy -111985.727239 kJ/mol
# GULP energy per Si atom -5599.286362 kJ/mol
# Density = 2.370015 g / cm^3
# Si number density = 23.754219 Si / 1000 Ang^3
#
#
#
# Elastic Constant Matrix: (Units=GPa)
#
#
# Indices 1 2 3 4 5 6 
#
# 1 169.8672 37.8980 13.3172 0.0000 0.0000 0.0000
# 2 37.8980 137.5905 15.4178 0.0000 0.0000 0.0000
# 3 13.3172 15.4178 76.4787 0.0000 0.0000 0.0000
# 4 0.0000 0.0000 0.0000 121.5484 0.0000 0.0000
# 5 0.0000 0.0000 0.0000 0.0000 117.1363 0.0000
# 6 0.0000 0.0000 0.0000 0.0000 0.0000 33.8823
#
#
#
# Elastic Compliance Matrix: (Units=1/GPa)
#
#
# Indices 1 2 3 4 5 6 
#
# 1 0.006316 -0.001654 -0.000766 0.000000 0.000000 0.000000
# 2 -0.001654 0.007869 -0.001298 0.000000 0.000000 0.000000
# 3 -0.000766 -0.001298 0.013471 0.000000 0.000000 0.000000
# 4 0.000000 0.000000 0.000000 0.008227 0.000000 0.000000
# 5 0.000000 0.000000 0.000000 0.000000 0.008537 0.000000
# 6 0.000000 0.000000 0.000000 0.000000 0.000000 0.029514
#
#
# Mechanical properties :
#
#
# Convention : Reuss Voigt Hill
#
# Bulk Modulus (GPa) = 49.45956 57.46693 53.46325
# Shear Modulus (GPa) = 56.74689 75.66695 66.20692
#
# Velocity S-wave (km/s) = 4.89296 5.65007 5.28509
# Velocity P-wave (km/s) = 7.26553 8.17369 7.73295
#
# Compressibility (1/GPa) = 0.02021854
#
# Stress axis : x y z
#
# Youngs Moduli (GPa) = 158.32795 127.08164 74.23499
#
# Poissons Ratio (x) = 0.21017 0.05689
# Poissons Ratio (y) = 0.26184 0.09638
# Poissons Ratio (z) = 0.12134 0.16500
#
# Static dielectric constant tensor:
#      x y z
#    x 1.848770 0.000000 0.000000 
#    y 0.000000 1.546540 0.000000 
#    z 0.000000 0.000000 1.911480 
# 
# From -- ./inp_files/3633.got.cif
#   From: 2010.05.17/outbox.cif.g08.bks.cpg/sg32_2_cif.got.tgz:3633.got - 2010.06.03 17:12:27.
