data_PCOD9344161
_publ_section_title
;
Structure prediction by ZEFSAII (Michael W. Deem and Ramdas Pophale) SiO2 
 PCOD9344161
Probable space group: P B A 2
;
_chemical_formula_sum "Si O2"
_cell_formula_units_Z 20
_cell_length_a 7.725384
_cell_length_b 17.386886
_cell_length_c 5.432954
_cell_angle_alpha 90.000000
_cell_angle_beta 90.000000
_cell_angle_gamma 90.000000
_cell_volume 729.756396
_symmetry_space_group_name_H-M "P B A 2"
_symmetry_group_IT_number 32
_symmetry_cell_setting 'orthorhombic'
loop_
_space_group_symop_operation_xyz
x,y,z
-x,-y,z
1/2-x,1/2+y,z
1/2+x,1/2-y,z
loop_
_atom_site_type_symbol
_atom_site_label
_atom_site_fract_x
_atom_site_fract_y
_atom_site_fract_z
Si Si1 0.237297 0.331312 0.506030
Si Si2 0.474246 0.627832 0.894295
Si Si3 0.170233 0.979265 0.297701
Si Si4 0.011454 0.732158 0.202302
Si Si5 0.117787 0.575876 0.953324
O O1 0.378626 0.339076 0.715582
O O2 0.210579 0.419728 0.434876
O O3 0.051861 0.293503 0.477058
O O4 0.323474 0.283441 0.282813
O O5 0.578800 0.568085 0.070565
O O6 0.413695 0.701153 0.051925
O O7 0.290591 0.594562 0.790723
O O8 0.282470 0.048115 0.199889
O O9 0.000000 0.000000 0.452877
O O10 0.023638 0.655203 0.032738
O O11 0.000000 0.500000 0.888043
#
# Coordination Sequence:
#
# PCOD9344161 Si02
#       5
#     4   4   4   4   4
#     4  11  23  41  69  95 139 187 244 300 369 441
#     4  10  24  43  68  99 141 192 249 301 373 451
#     4   9  21  41  66  93 136 188 229 294 373 437
#     4  11  23  42  67 101 138 190 243 308 369 446
#     4  11  21  42  72  98 144 189 240 306 376 447
#
# _framework density 27.406407999999999
#
# number of rings (size 3 to 8) (size 9 to 14) (size 15 to 20)
#    0.000    1.600    4.000    0.000    2.800    2.400 
#    0.000    2.000    0.000    0.000    0.000    0.000 
#    0.000    0.000    0.000    0.000    0.000    0.000 
#
# Total GULP energy -111431.581836 kJ/mol
# GULP energy per Si atom -5571.579092 kJ/mol
# Density = 2.734403 g / cm^3
# Si number density = 27.406408 Si / 1000 Ang^3
#
#
#
# Elastic Constant Matrix: (Units=GPa)
#
#
# Indices 1 2 3 4 5 6 
#
# 1 65.1795 37.6811 21.5571 0.0000 0.0000 0.0000
# 2 37.6811 182.3176 31.0957 0.0000 0.0000 0.0000
# 3 21.5571 31.0957 65.9122 0.0000 0.0000 0.0000
# 4 0.0000 0.0000 0.0000 11.6273 0.0000 0.0000
# 5 0.0000 0.0000 0.0000 0.0000 33.1988 0.0000
# 6 0.0000 0.0000 0.0000 0.0000 0.0000 23.0128
#
#
#
# Elastic Compliance Matrix: (Units=1/GPa)
#
#
# Indices 1 2 3 4 5 6 
#
# 1 0.018652 -0.003061 -0.004656 0.000000 0.000000 0.000000
# 2 -0.003061 0.006467 -0.002050 0.000000 0.000000 0.000000
# 3 -0.004656 -0.002050 0.017662 0.000000 0.000000 0.000000
# 4 0.000000 0.000000 0.000000 0.086005 0.000000 0.000000
# 5 0.000000 0.000000 0.000000 0.000000 0.030122 0.000000
# 6 0.000000 0.000000 0.000000 0.000000 0.000000 0.043454
#
#
# Mechanical properties :
#
#
# Convention : Reuss Voigt Hill
#
# Bulk Modulus (GPa) = 43.01696 54.89746 48.95721
# Shear Modulus (GPa) = 21.77288 28.43947 25.10618
#
# Velocity S-wave (km/s) = 2.82165 3.22482 3.02995
# Velocity P-wave (km/s) = 5.13280 5.82583 5.49026
#
# Compressibility (1/GPa) = 0.02324665
#
# Stress axis : x y z
#
# Youngs Moduli (GPa) = 53.61454 154.62717 56.61973
#
# Poissons Ratio (x) = 0.47327 0.26363
# Poissons Ratio (y) = 0.16410 0.11607
# Poissons Ratio (z) = 0.24964 0.31699
#
# Static dielectric constant tensor:
#      x y z
#    x 2.494220 0.000000 0.000000 
#    y 0.000000 2.148480 0.000000 
#    z 0.000000 0.000000 2.211770 
# 
# From -- ./inp_files/427.got.cif
#   From: 2010.05.17/outbox.cif.g08.bks.cpg/sg32_1_cif.got.tgz:427.got - 2010.06.03 17:12:27.
