data_PCOD9344285
_publ_section_title
;
Structure prediction by ZEFSAII (Michael W. Deem and Ramdas Pophale) SiO2 
 PCOD9344285
Probable space group: P B A 2
;
_chemical_formula_sum "Si O2"
_cell_formula_units_Z 20
_cell_length_a 8.891200
_cell_length_b 9.505149
_cell_length_c 10.273963
_cell_angle_alpha 90.000000
_cell_angle_beta 90.000000
_cell_angle_gamma 90.000000
_cell_volume 868.275018
_symmetry_space_group_name_H-M "P B A 2"
_symmetry_group_IT_number 32
_symmetry_cell_setting 'orthorhombic'
loop_
_space_group_symop_operation_xyz
x,y,z
-x,-y,z
1/2-x,1/2+y,z
1/2+x,1/2-y,z
loop_
_atom_site_type_symbol
_atom_site_label
_atom_site_fract_x
_atom_site_fract_y
_atom_site_fract_z
Si Si1 0.932138 0.652940 0.128560
Si Si2 0.615886 0.624781 0.256446
Si Si3 0.820614 0.033370 0.546033
Si Si4 0.566945 0.342824 0.874366
Si Si5 0.332067 0.197173 0.702546
O O1 0.757408 0.635731 0.162049
O O2 0.000000 0.500000 0.102409
O O3 0.022181 0.730514 0.245776
O O4 0.946812 0.759449 0.008256
O O5 0.500000 0.500000 0.223020
O O6 0.681281 0.586073 0.398104
O O7 0.777693 0.156662 0.642763
O O8 0.705855 0.910079 0.585494
O O9 0.000000 0.000000 0.568383
O O10 0.500000 0.500000 0.881290
O O11 0.489426 0.243717 0.764721
O O12 0.736577 0.356636 0.824954
#
# Coordination Sequence:
#
# PCOD9344285 Si02
#       5
#     4   4   4   4   4
#     4  12  28  47  78 112 146 211 261 316 391 451
#     4  11  27  51  76 111 158 195 257 323 382 466
#     4  11  26  47  73 112 153 193 246 314 382 455
#     4  12  27  49  71 108 153 196 251 318 374 451
#     4  12  23  47  73 106 149 194 244 306 384 446
#
# _framework density 23.034175999999999
#
# number of rings (size 3 to 8) (size 9 to 14) (size 15 to 20)
#    0.000    0.400    4.000    3.000   11.200    3.200 
#    0.000    0.000    0.000    0.000    0.000    0.000 
#    0.000    0.000    0.000    0.000    0.000    0.000 
#
# Total GULP energy -111801.275141 kJ/mol
# GULP energy per Si atom -5590.063757 kJ/mol
# Density = 2.298175 g / cm^3
# Si number density = 23.034176 Si / 1000 Ang^3
#
#
#
# Elastic Constant Matrix: (Units=GPa)
#
#
# Indices 1 2 3 4 5 6 
#
# 1 96.4427 24.2345 44.0880 0.0000 0.0000 0.0000
# 2 24.2345 101.1037 58.2534 0.0000 0.0000 0.0000
# 3 44.0880 58.2534 97.1309 0.0000 0.0000 0.0000
# 4 0.0000 0.0000 0.0000 32.9673 0.0000 0.0000
# 5 0.0000 0.0000 0.0000 0.0000 16.1767 0.0000
# 6 0.0000 0.0000 0.0000 0.0000 0.0000 26.5499
#
#
#
# Elastic Compliance Matrix: (Units=1/GPa)
#
#
# Indices 1 2 3 4 5 6 
#
# 1 0.013096 0.000437 -0.006206 0.000000 0.000000 0.000000
# 2 0.000437 0.015128 -0.009271 0.000000 0.000000 0.000000
# 3 -0.006206 -0.009271 0.018673 0.000000 0.000000 0.000000
# 4 0.000000 0.000000 0.000000 0.030333 0.000000 0.000000
# 5 0.000000 0.000000 0.000000 0.000000 0.061817 0.000000
# 6 0.000000 0.000000 0.000000 0.000000 0.000000 0.037665
#
#
# Mechanical properties :
#
#
# Convention : Reuss Voigt Hill
#
# Bulk Modulus (GPa) = 59.46880 60.86991 60.16935
# Shear Modulus (GPa) = 23.54061 26.34554 24.94307
#
# Velocity S-wave (km/s) = 3.20032 3.38562 3.29427
# Velocity P-wave (km/s) = 6.28727 6.46270 6.37559
#
# Compressibility (1/GPa) = 0.01681554
#
# Stress axis : x y z
#
# Youngs Moduli (GPa) = 76.35742 66.10302 53.55394
#
# Poissons Ratio (x) = -0.02887 0.33238
# Poissons Ratio (y) = -0.03335 0.49650
# Poissons Ratio (z) = 0.47391 0.61285
#
# Static dielectric constant tensor:
#      x y z
#    x 1.980900 0.000000 0.000000 
#    y 0.000000 1.894380 0.000000 
#    z 0.000000 0.000000 1.903720 
# 
# From -- ./inp_files/3632.got.cif
#   From: 2010.05.17/outbox.cif.g08.bks.cpg/sg32_2_cif.got.tgz:3632.got - 2010.06.03 17:12:27.
