data_PCOD9344059
_publ_section_title
;
Structure prediction by ZEFSAII (Michael W. Deem and Ramdas Pophale) SiO2 
 PCOD9344059
Probable space group: P B A 2
;
_chemical_formula_sum "Si O2"
_cell_formula_units_Z 20
_cell_length_a 11.424648
_cell_length_b 15.279515
_cell_length_c 4.936786
_cell_angle_alpha 90.000000
_cell_angle_beta 90.000000
_cell_angle_gamma 90.000000
_cell_volume 861.780572
_symmetry_space_group_name_H-M "P B A 2"
_symmetry_group_IT_number 32
_symmetry_cell_setting 'orthorhombic'
loop_
_space_group_symop_operation_xyz
x,y,z
-x,-y,z
1/2-x,1/2+y,z
1/2+x,1/2-y,z
loop_
_atom_site_type_symbol
_atom_site_label
_atom_site_fract_x
_atom_site_fract_y
_atom_site_fract_z
Si Si1 0.745756 0.709154 0.948110
Si Si2 0.264401 0.996606 0.423995
Si Si3 0.177501 0.685194 0.474692
Si Si4 0.952983 0.596064 0.729944
Si Si5 0.622990 0.545241 0.918739
O O1 0.757756 0.785177 0.726252
O O2 0.863279 0.649553 0.923214
O O3 0.640730 0.646247 0.838174
O O4 0.703308 0.745016 0.237121
O O5 0.294205 0.093252 0.331707
O O6 0.375231 0.935455 0.473617
O O7 0.210989 0.005366 0.722936
O O8 0.169157 0.958357 0.223892
O O9 0.053915 0.660338 0.619802
O O10 0.000000 0.500000 0.836060
O O11 0.500000 0.500000 0.893860
#
# Coordination Sequence:
#
# PCOD9344059 Si02
#       5
#     4   4   4   4   4
#     4  11  24  41  63 100 133 168 226 280 333 406
#     4  10  22  42  66  91 124 176 225 257 319 417
#     4  11  24  41  66  99 131 165 215 286 335 377
#     4   9  22  45  69  94 136 186 224 269 341 418
#     4  11  23  41  62  88 128 173 212 262 326 396
#
# _framework density 23.207764000000001
#
# number of rings (size 3 to 8) (size 9 to 14) (size 15 to 20)
#    0.000    1.600    0.000    4.200    0.000    9.600 
#    0.000   16.000    0.000    0.000    0.000    0.000 
#    0.000    0.000    0.000    0.000    0.000    0.000 
#
# Total GULP energy -111540.761585 kJ/mol
# GULP energy per Si atom -5577.038079 kJ/mol
# Density = 2.315494 g / cm^3
# Si number density = 23.207764 Si / 1000 Ang^3
#
#
#
# Elastic Constant Matrix: (Units=GPa)
#
#
# Indices 1 2 3 4 5 6 
#
# 1 94.1263 55.6915 28.2714 0.0000 0.0000 0.0000
# 2 55.6915 119.7803 38.7239 0.0000 0.0000 0.0000
# 3 28.2714 38.7239 101.5815 0.0000 0.0000 0.0000
# 4 0.0000 0.0000 0.0000 39.4222 0.0000 0.0000
# 5 0.0000 0.0000 0.0000 0.0000 20.0433 0.0000
# 6 0.0000 0.0000 0.0000 0.0000 0.0000 54.8187
#
#
#
# Elastic Compliance Matrix: (Units=1/GPa)
#
#
# Indices 1 2 3 4 5 6 
#
# 1 0.014914 -0.006379 -0.001719 0.000000 0.000000 0.000000
# 2 -0.006379 0.012250 -0.002895 0.000000 0.000000 0.000000
# 3 -0.001719 -0.002895 0.011426 0.000000 0.000000 0.000000
# 4 0.000000 0.000000 0.000000 0.025366 0.000000 0.000000
# 5 0.000000 0.000000 0.000000 0.000000 0.049892 0.000000
# 6 0.000000 0.000000 0.000000 0.000000 0.000000 0.018242
#
#
# Mechanical properties :
#
#
# Convention : Reuss Voigt Hill
#
# Bulk Modulus (GPa) = 60.21987 62.31796 61.26891
# Shear Modulus (GPa) = 31.32610 35.71029 33.51820
#
# Velocity S-wave (km/s) = 3.67796 3.92691 3.80447
# Velocity P-wave (km/s) = 6.63634 6.88994 6.76433
#
# Compressibility (1/GPa) = 0.01660582
#
# Stress axis : x y z
#
# Youngs Moduli (GPa) = 67.04923 81.63182 87.51764
#
# Poissons Ratio (x) = 0.52070 0.15047
# Poissons Ratio (y) = 0.42768 0.25333
# Poissons Ratio (z) = 0.11528 0.23629
#
# Static dielectric constant tensor:
#      x y z
#    x 1.902220 0.000000 0.000000 
#    y 0.000000 1.910270 0.000000 
#    z 0.000000 0.000000 1.834520 
# 
# From -- ./inp_files/816.got.cif
#   From: 2010.05.17/outbox.cif.g08.bks.cpg/sg32_1_cif.got.tgz:816.got - 2010.06.03 17:12:27.
