data_PCOD9344074
_publ_section_title
;
Structure prediction by ZEFSAII (Michael W. Deem and Ramdas Pophale) SiO2 
 PCOD9344074
Probable space group: P B A 2
;
_chemical_formula_sum "Si O2"
_cell_formula_units_Z 30
_cell_length_a 19.474583
_cell_length_b 10.874428
_cell_length_c 6.025279
_cell_angle_alpha 90.000000
_cell_angle_beta 90.000000
_cell_angle_gamma 90.000000
_cell_volume 1276.003163
_symmetry_space_group_name_H-M "P B A 2"
_symmetry_group_IT_number 32
_symmetry_cell_setting 'orthorhombic'
loop_
_space_group_symop_operation_xyz
x,y,z
-x,-y,z
1/2-x,1/2+y,z
1/2+x,1/2-y,z
loop_
_atom_site_type_symbol
_atom_site_label
_atom_site_fract_x
_atom_site_fract_y
_atom_site_fract_z
Si Si1 0.500000 0.000000 0.116710
Si Si2 0.927839 0.163493 0.488799
Si Si3 0.316111 0.279289 0.113023
Si Si4 0.317616 0.477908 0.731325
Si Si5 0.562895 0.246059 0.317291
Si Si6 0.824362 0.779086 0.992522
Si Si7 0.326597 0.896004 0.606034
Si Si8 0.606131 0.884578 0.784559
O O1 0.522736 0.119985 0.253415
O O2 0.440581 0.040321 0.950432
O O3 0.873575 0.208550 0.300672
O O4 0.888645 0.050005 0.604358
O O5 0.932070 0.270705 0.673433
O O6 0.004909 0.159426 0.398426
O O7 0.237899 0.241695 0.166661
O O8 0.317243 0.401910 0.962438
O O9 0.336086 0.174132 0.937622
O O10 0.254846 0.424352 0.580082
O O11 0.309040 0.617231 0.809054
O O12 0.603954 0.303234 0.111117
O O13 0.624542 0.197999 0.474975
O O14 0.829929 0.652147 0.858746
O O15 0.363249 0.027917 0.596626
#
# Coordination Sequence:
#
# PCOD9344074 Si02
#       8
#     2   4   4   4   4   4   4   4
#     4  12  22  42  68 106 142 174 216 292 356 408
#     4  11  24  43  68 100 135 185 225 280 356 420
#     4  10  22  44  69  98 133 179 227 280 346 412
#     4  10  24  45  70  94 138 185 229 282 345 406
#     4  12  25  40  68 104 138 178 232 286 349 419
#     4  11  24  45  69 100 137 179 234 286 335 413
#     4  11  23  43  68 105 132 174 227 290 344 405
#     4  11  21  40  70  99 139 170 218 283 350 405
#
# _framework density 23.510912999999999
#
# number of rings (size 3 to 8) (size 9 to 14) (size 15 to 20)
#    0.000    1.067    4.000    2.400    0.000    1.067 
#    2.400    4.000    0.000    0.000    0.000    0.000 
#    0.000    0.000    0.000    0.000    0.000    0.000 
#
# Total GULP energy -167556.399695 kJ/mol
# GULP energy per Si atom -5585.213323 kJ/mol
# Density = 2.345740 g / cm^3
# Si number density = 23.510913 Si / 1000 Ang^3
#
#
#
# Elastic Constant Matrix: (Units=GPa)
#
#
# Indices 1 2 3 4 5 6 
#
# 1 137.3290 28.8350 34.3945 0.0000 0.0000 0.0000
# 2 28.8350 49.1187 6.9104 0.0000 0.0000 0.0000
# 3 34.3945 6.9104 40.8158 0.0000 0.0000 0.0000
# 4 0.0000 0.0000 0.0000 22.3874 0.0000 0.0000
# 5 0.0000 0.0000 0.0000 0.0000 50.4500 0.0000
# 6 0.0000 0.0000 0.0000 0.0000 0.0000 10.4493
#
#
#
# Elastic Compliance Matrix: (Units=1/GPa)
#
#
# Indices 1 2 3 4 5 6 
#
# 1 0.010277 -0.004932 -0.007825 0.000000 0.000000 0.000000
# 2 -0.004932 0.023223 0.000225 0.000000 0.000000 0.000000
# 3 -0.007825 0.000225 0.031057 0.000000 0.000000 0.000000
# 4 0.000000 0.000000 0.000000 0.044668 0.000000 0.000000
# 5 0.000000 0.000000 0.000000 0.000000 0.019822 0.000000
# 6 0.000000 0.000000 0.000000 0.000000 0.000000 0.095700
#
#
# Mechanical properties :
#
#
# Convention : Reuss Voigt Hill
#
# Bulk Modulus (GPa) = 25.32261 40.83814 33.08037
# Shear Modulus (GPa) = 19.01313 27.13225 23.07269
#
# Velocity S-wave (km/s) = 2.84684 3.40078 3.13607
# Velocity P-wave (km/s) = 4.64757 5.72957 5.21670
#
# Compressibility (1/GPa) = 0.03949041
#
# Stress axis : x y z
#
# Youngs Moduli (GPa) = 97.30164 43.06117 32.19930
#
# Poissons Ratio (x) = 0.21239 0.25197
# Poissons Ratio (y) = 0.47992 -0.00723
# Poissons Ratio (z) = 0.76142 -0.00967
#
# Static dielectric constant tensor:
#      x y z
#    x 1.916100 0.000000 0.000000 
#    y 0.000000 1.705240 0.000000 
#    z 0.000000 0.000000 1.888040 
# 
# From -- ./inp_files/1573.got.cif
#   From: 2010.05.17/outbox.cif.g08.bks.cpg/sg32_1_cif.got.tgz:1573.got - 2010.06.03 17:12:27.
