data_PCOD9344712
_publ_section_title
;
Structure prediction by ZEFSAII (Michael W. Deem and Ramdas Pophale) SiO2 
 PCOD9344712
Probable space group: P N A 21
;
_chemical_formula_sum "Si O2"
_cell_formula_units_Z 24
_cell_length_a 14.673278
_cell_length_b 7.431990
_cell_length_c 8.789443
_cell_angle_alpha 90.000000
_cell_angle_beta 90.000000
_cell_angle_gamma 90.000000
_cell_volume 958.503309
_symmetry_space_group_name_H-M "P N A 21"
_symmetry_group_IT_number 33
_symmetry_cell_setting 'orthorhombic'
loop_
_space_group_symop_operation_xyz
x,y,z
-x,-y,1/2+z
1/2-x,1/2+y,1/2+z
1/2+x,1/2-y,z
loop_
_atom_site_type_symbol
_atom_site_label
_atom_site_fract_x
_atom_site_fract_y
_atom_site_fract_z
Si Si1 0.340091 0.915706 0.881500
Si Si2 0.150833 0.849137 0.739698
Si Si3 0.609016 0.063032 0.724874
Si Si4 0.498455 0.369980 0.848482
Si Si5 0.595040 0.360651 0.153317
Si Si6 0.256843 0.272408 0.947634
O O1 0.238657 0.839909 0.849918
O O2 0.401668 0.816829 0.757340
O O3 0.324644 0.130078 0.871174
O O4 0.375786 0.881984 0.050433
O O5 0.107728 0.651241 0.736387
O O6 0.081779 0.999268 0.795757
O O7 0.191205 0.891639 0.572155
O O8 0.523053 0.172755 0.788064
O O9 0.693936 0.127217 0.828378
O O10 0.414753 0.470166 0.766532
O O11 0.513500 0.366019 0.029833
O O12 0.687923 0.345422 0.055777
#
# Coordination Sequence:
#
# PCOD9344712 Si02
#       6
#     4   4   4   4   4   4
#     4  10  19  38  63  90 120 160 214 262 310 383
#     4  10  21  37  61  88 125 159 214 263 314 383
#     4  10  21  35  63  88 121 163 209 261 323 380
#     4  11  22  42  59  91 132 169 211 267 328 392
#     4  10  21  38  65  88 128 173 206 264 328 381
#     4   9  20  40  61  95 122 164 218 265 317 381
#
# _framework density 25.039037
#
# number of rings (size 3 to 8) (size 9 to 14) (size 15 to 20)
#    0.000    2.000    3.333    1.000    2.333    1.333 
#    3.000   10.000    0.000    0.000    0.000    0.000 
#    0.000    0.000    0.000    0.000    0.000    0.000 
#
# Total GULP energy -134389.317544 kJ/mol
# GULP energy per Si atom -5599.554898 kJ/mol
# Density = 2.498205 g / cm^3
# Si number density = 25.039037 Si / 1000 Ang^3
#
#
#
# Elastic Constant Matrix: (Units=GPa)
#
#
# Indices 1 2 3 4 5 6 
#
# 1 100.8699 9.6984 36.9547 0.0000 0.0000 0.0000
# 2 9.6984 103.8955 62.5557 0.0000 0.0000 0.0000
# 3 36.9547 62.5557 139.2118 0.0000 0.0000 0.0000
# 4 0.0000 0.0000 0.0000 46.4385 0.0000 0.0000
# 5 0.0000 0.0000 0.0000 0.0000 38.6487 0.0000
# 6 0.0000 0.0000 0.0000 0.0000 0.0000 66.8572
#
#
#
# Elastic Compliance Matrix: (Units=1/GPa)
#
#
# Indices 1 2 3 4 5 6 
#
# 1 0.011058 0.001008 -0.003388 0.000000 0.000000 0.000000
# 2 0.001008 0.013287 -0.006238 0.000000 0.000000 0.000000
# 3 -0.003388 -0.006238 0.010886 0.000000 0.000000 0.000000
# 4 0.000000 0.000000 0.000000 0.021534 0.000000 0.000000
# 5 0.000000 0.000000 0.000000 0.000000 0.025874 0.000000
# 6 0.000000 0.000000 0.000000 0.000000 0.000000 0.014957
#
#
# Mechanical properties :
#
#
# Convention : Reuss Voigt Hill
#
# Bulk Modulus (GPa) = 55.57449 62.48829 59.03139
# Shear Modulus (GPa) = 41.37993 46.04010 43.71001
#
# Velocity S-wave (km/s) = 4.06965 4.29270 4.18266
# Velocity P-wave (km/s) = 6.65778 7.04132 6.85223
#
# Compressibility (1/GPa) = 0.01799387
#
# Stress axis : x y z
#
# Youngs Moduli (GPa) = 90.43040 75.26170 91.86185
#
# Poissons Ratio (x) = -0.07586 0.31126
# Poissons Ratio (y) = -0.09114 0.57305
# Poissons Ratio (z) = 0.30641 0.46949
#
# Static dielectric constant tensor:
#      x y z
#    x 2.157590 0.000000 0.000000 
#    y 0.000000 1.934590 0.000000 
#    z 0.000000 0.000000 1.940680 
# 
# From -- ./inp_files/4274.got.cif
#   From: 2010.05.17/outbox.cif.g08.bks.cpg/sg33_3_cif.got.tgz:4274.got - 2010.06.03 17:15:25.
