data_PCOD9344728
_publ_section_title
;
Structure prediction by ZEFSAII (Michael W. Deem and Ramdas Pophale) SiO2 
 PCOD9344728
Probable space group: P N A 21
;
_chemical_formula_sum "Si O2"
_cell_formula_units_Z 32
_cell_length_a 19.577074
_cell_length_b 7.557335
_cell_length_c 11.160933
_cell_angle_alpha 90.000000
_cell_angle_beta 90.000000
_cell_angle_gamma 90.000000
_cell_volume 1651.265691
_symmetry_space_group_name_H-M "P N A 21"
_symmetry_group_IT_number 33
_symmetry_cell_setting 'orthorhombic'
loop_
_space_group_symop_operation_xyz
x,y,z
-x,-y,1/2+z
1/2-x,1/2+y,1/2+z
1/2+x,1/2-y,z
loop_
_atom_site_type_symbol
_atom_site_label
_atom_site_fract_x
_atom_site_fract_y
_atom_site_fract_z
Si Si1 0.303309 0.278401 0.807040
Si Si2 0.462443 0.609930 0.729993
Si Si3 0.359749 0.599786 0.945580
Si Si4 0.779541 0.546691 0.968846
Si Si5 0.597648 0.707482 0.827408
Si Si6 0.420319 0.637068 0.208775
Si Si7 0.371622 0.416072 0.570668
Si Si8 0.335718 0.965749 0.225066
O O1 0.330061 0.408580 0.911725
O O2 0.351399 0.306903 0.690541
O O3 0.230252 0.356619 0.767287
O O4 0.296073 0.082439 0.858985
O O5 0.413150 0.641546 0.840642
O O6 0.528098 0.736022 0.749536
O O7 0.501934 0.419745 0.733331
O O8 0.415143 0.587114 0.613505
O O9 0.301737 0.750778 0.945383
O O10 0.398455 0.604994 0.071774
O O11 0.700990 0.535925 0.010605
O O12 0.823932 0.491679 0.085419
O O13 0.620089 0.511973 0.784291
O O14 0.651480 0.856519 0.797089
O O15 0.586932 0.690420 0.969444
O O16 0.399210 0.833491 0.241092
#
# Coordination Sequence:
#
# PCOD9344728 Si02
#       8
#     4   4   4   4   4   4   4   4
#     4  10  21  36  60  87 121 152 201 255 305 357
#     4   9  21  37  62  79 119 160 197 244 300 357
#     4  10  19  39  59  87 116 160 199 248 310 362
#     4  10  21  37  63  84 123 152 198 257 303 361
#     4  10  20  36  61  82 123 160 197 249 304 361
#     4   9  20  35  60  82 121 156 201 248 305 352
#     4  10  20  39  59  90 119 156 199 249 306 362
#     4  10  20  37  58  91 114 158 206 244 303 372
#
# _framework density 19.379075
#
# number of rings (size 3 to 8) (size 9 to 14) (size 15 to 20)
#    0.750    1.500    0.000    3.000    0.000    0.000 
#    4.500   15.000   11.000    0.000    0.000    0.000 
#    0.000    0.000    0.000    0.000    0.000    0.000 
#
# Total GULP energy -178147.250716 kJ/mol
# GULP energy per Si atom -5567.101585 kJ/mol
# Density = 1.933497 g / cm^3
# Si number density = 19.379075 Si / 1000 Ang^3
#
#
#
# Elastic Constant Matrix: (Units=GPa)
#
#
# Indices 1 2 3 4 5 6 
#
# 1 57.6021 16.4034 14.2826 0.0000 0.0000 0.0000
# 2 16.4034 47.7671 30.1163 0.0000 0.0000 0.0000
# 3 14.2826 30.1163 82.3669 0.0000 0.0000 0.0000
# 4 0.0000 0.0000 0.0000 20.6278 0.0000 0.0000
# 5 0.0000 0.0000 0.0000 0.0000 27.7173 0.0000
# 6 0.0000 0.0000 0.0000 0.0000 0.0000 13.6612
#
#
#
# Elastic Compliance Matrix: (Units=1/GPa)
#
#
# Indices 1 2 3 4 5 6 
#
# 1 0.019333 -0.005881 -0.001202 0.000000 0.000000 0.000000
# 2 -0.005881 0.028996 -0.009582 0.000000 0.000000 0.000000
# 3 -0.001202 -0.009582 0.015853 0.000000 0.000000 0.000000
# 4 0.000000 0.000000 0.000000 0.048478 0.000000 0.000000
# 5 0.000000 0.000000 0.000000 0.000000 0.036079 0.000000
# 6 0.000000 0.000000 0.000000 0.000000 0.000000 0.073200
#
#
# Mechanical properties :
#
#
# Convention : Reuss Voigt Hill
#
# Bulk Modulus (GPa) = 32.41366 34.37119 33.39243
# Shear Modulus (GPa) = 18.82859 20.86351 19.84605
#
# Velocity S-wave (km/s) = 3.12042 3.28472 3.20362
# Velocity P-wave (km/s) = 5.45391 5.67103 5.56353
#
# Compressibility (1/GPa) = 0.03085119
#
# Stress axis : x y z
#
# Youngs Moduli (GPa) = 51.72410 34.48758 63.08037
#
# Poissons Ratio (x) = 0.20283 0.07583
# Poissons Ratio (y) = 0.30420 0.60444
# Poissons Ratio (z) = 0.06217 0.33046
#
# Static dielectric constant tensor:
#      x y z
#    x 1.722300 0.000000 0.000000 
#    y 0.000000 1.636760 0.000000 
#    z 0.000000 0.000000 1.699970 
# 
# From -- ./inp_files/7203.got.cif
#   From: 2010.05.17/outbox.cif.g08.bks.cpg/sg33_4_cif.got.tgz:7203.got - 2010.06.03 17:15:25.
