data_PCOD9344610
_publ_section_title
;
Structure prediction by ZEFSAII (Michael W. Deem and Ramdas Pophale) SiO2 
 PCOD9344610
Probable space group: P N A 21
;
_chemical_formula_sum "Si O2"
_cell_formula_units_Z 28
_cell_length_a 10.602854
_cell_length_b 26.513681
_cell_length_c 5.006934
_cell_angle_alpha 90.000000
_cell_angle_beta 90.000000
_cell_angle_gamma 90.000000
_cell_volume 1407.552734
_symmetry_space_group_name_H-M "P N A 21"
_symmetry_group_IT_number 33
_symmetry_cell_setting 'orthorhombic'
loop_
_space_group_symop_operation_xyz
x,y,z
-x,-y,1/2+z
1/2-x,1/2+y,1/2+z
1/2+x,1/2-y,z
loop_
_atom_site_type_symbol
_atom_site_label
_atom_site_fract_x
_atom_site_fract_y
_atom_site_fract_z
Si Si1 0.663687 0.009288 0.370400
Si Si2 0.938267 0.978683 0.555525
Si Si3 0.697092 0.156468 0.033626
Si Si4 0.524865 0.631891 0.434432
Si Si5 0.061605 0.436759 0.869407
Si Si6 0.986998 0.800745 0.933524
Si Si7 0.266737 0.776738 0.034974
O O1 0.606703 0.051324 0.570465
O O2 0.803757 0.997865 0.457673
O O3 0.577774 0.959428 0.401064
O O4 0.645792 0.029794 0.072497
O O5 0.955327 0.919477 0.503961
O O6 0.962994 0.992798 0.861753
O O7 0.696850 0.177918 0.331484
O O8 0.825218 0.124829 0.980242
O O9 0.582260 0.120656 0.954025
O O10 0.710664 0.203511 0.833679
O O11 0.498901 0.652446 0.138817
O O12 0.488816 0.676554 0.637709
O O13 0.861052 0.769015 0.980909
O O14 0.116780 0.769137 0.984292
#
# Coordination Sequence:
#
# PCOD9344610 Si02
#       7
#     4   4   4   4   4   4   4
#     4  10  21  36  55  81 117 150 184 230 279 325
#     4  12  23  37  58  87 116 150 193 227 279 338
#     4  10  19  35  58  82 104 143 190 218 271 337
#     4  10  21  36  58  81 114 145 180 228 277 329
#     4  10  20  37  57  80 114 150 186 233 275 324
#     4  10  21  40  56  82 111 147 184 232 283 331
#     4  10  21  37  58  81 108 141 187 228 280 334
#
# _framework density 19.892683000000002
#
# number of rings (size 3 to 8) (size 9 to 14) (size 15 to 20)
#    0.000    1.714    0.000    5.143    0.000    2.286 
#    5.143    0.000    0.000    0.000    0.000    0.000 
#    0.000    0.000    0.000    0.000    0.000    0.000 
#
# Total GULP energy -156435.323698 kJ/mol
# GULP energy per Si atom -5586.975846 kJ/mol
# Density = 1.984741 g / cm^3
# Si number density = 19.892683 Si / 1000 Ang^3
#
#
#
# Elastic Constant Matrix: (Units=GPa)
#
#
# Indices 1 2 3 4 5 6 
#
# 1 52.2157 10.4417 -9.7741 0.0000 0.0000 0.0000
# 2 10.4417 24.0371 -16.0277 0.0000 0.0000 0.0000
# 3 -9.7741 -16.0277 52.4278 0.0000 0.0000 0.0000
# 4 0.0000 0.0000 0.0000 11.2228 0.0000 0.0000
# 5 0.0000 0.0000 0.0000 0.0000 19.1052 0.0000
# 6 0.0000 0.0000 0.0000 0.0000 0.0000 17.6890
#
#
#
# Elastic Compliance Matrix: (Units=1/GPa)
#
#
# Indices 1 2 3 4 5 6 
#
# 1 0.021057 -0.008201 0.001418 0.000000 0.000000 0.000000
# 2 -0.008201 0.055448 0.015422 0.000000 0.000000 0.000000
# 3 0.001418 0.015422 0.024053 0.000000 0.000000 0.000000
# 4 0.000000 0.000000 0.000000 0.089104 0.000000 0.000000
# 5 0.000000 0.000000 0.000000 0.000000 0.052342 0.000000
# 6 0.000000 0.000000 0.000000 0.000000 0.000000 0.056532
#
#
# Mechanical properties :
#
#
# Convention : Reuss Voigt Hill
#
# Bulk Modulus (GPa) = 8.48633 10.88449 9.68541
# Shear Modulus (GPa) = 15.59883 19.20611 17.40247
#
# Velocity S-wave (km/s) = 2.80330 3.11060 2.96094
# Velocity P-wave (km/s) = 3.84101 4.28772 4.07050
#
# Compressibility (1/GPa) = 0.11783650
#
# Stress axis : x y z
#
# Youngs Moduli (GPa) = 47.49041 18.03484 41.57490
#
# Poissons Ratio (x) = 0.14791 -0.05897
# Poissons Ratio (y) = 0.38948 -0.64117
# Poissons Ratio (z) = -0.06736 -0.27813
#
# Static dielectric constant tensor:
#      x y z
#    x 1.708160 0.000000 0.000000 
#    y 0.000000 1.675870 0.000000 
#    z 0.000000 0.000000 1.675490 
# 
# From -- ./inp_files/464.got.cif
#   From: 2010.05.17/outbox.cif.g08.bks.cpg/sg33_1_cif.got.tgz:464.got - 2010.06.03 17:15:25.
