data_PCOD9344710
_publ_section_title
;
Structure prediction by ZEFSAII (Michael W. Deem and Ramdas Pophale) SiO2 
 PCOD9344710
Probable space group: P N A 21
;
_chemical_formula_sum "Si O2"
_cell_formula_units_Z 28
_cell_length_a 13.478193
_cell_length_b 7.773933
_cell_length_c 11.052608
_cell_angle_alpha 90.000000
_cell_angle_beta 90.000000
_cell_angle_gamma 90.000000
_cell_volume 1158.076454
_symmetry_space_group_name_H-M "P N A 21"
_symmetry_group_IT_number 33
_symmetry_cell_setting 'orthorhombic'
loop_
_space_group_symop_operation_xyz
x,y,z
-x,-y,1/2+z
1/2-x,1/2+y,1/2+z
1/2+x,1/2-y,z
loop_
_atom_site_type_symbol
_atom_site_label
_atom_site_fract_x
_atom_site_fract_y
_atom_site_fract_z
Si Si1 0.811012 0.357769 0.935630
Si Si2 0.845167 0.046901 0.082975
Si Si3 0.459648 0.200747 0.248321
Si Si4 0.294657 0.968324 0.177455
Si Si5 0.507118 0.685088 0.018571
Si Si6 0.375633 0.667990 0.578486
Si Si7 0.664351 0.874505 0.173418
O O1 0.849768 0.429778 0.810844
O O2 0.829859 0.498378 0.039328
O O3 0.694668 0.309873 0.959393
O O4 0.863209 0.179050 0.972900
O O5 0.729587 0.009728 0.100071
O O6 0.899159 0.867772 0.063247
O O7 0.887438 0.145922 0.199372
O O8 0.389170 0.032151 0.252907
O O9 0.492999 0.253434 0.381250
O O10 0.546786 0.206111 0.146207
O O11 0.204642 0.109043 0.180909
O O12 0.237730 0.790951 0.194815
O O13 0.563679 0.502906 0.039998
O O14 0.568207 0.814508 0.102589
#
# Coordination Sequence:
#
# PCOD9344710 Si02
#       7
#     4   4   4   4   4   4   4
#     4   9  20  40  61  85 119 159 200 249 301 365
#     4  10  23  37  62  91 114 161 212 237 314 358
#     4  10  19  38  62  86 118 157 210 248 301 372
#     4   8  20  38  57  87 112 164 192 247 313 342
#     4  10  22  35  63  89 118 158 204 254 301 363
#     4   8  18  38  56  85 117 157 202 244 310 350
#     4  11  22  40  59  87 128 152 204 255 306 362
#
# _framework density 24.178024000000001
#
# number of rings (size 3 to 8) (size 9 to 14) (size 15 to 20)
#    0.857    1.714    0.000    0.857    8.000    0.000 
#    5.143    0.000    0.000    0.000    0.000    0.000 
#    0.000    0.000    0.000    0.000    0.000    0.000 
#
# Total GULP energy -156159.863437 kJ/mol
# GULP energy per Si atom -5577.137980 kJ/mol
# Density = 2.412299 g / cm^3
# Si number density = 24.178024 Si / 1000 Ang^3
#
#
#
# Elastic Constant Matrix: (Units=GPa)
#
#
# Indices 1 2 3 4 5 6 
#
# 1 91.2065 7.9966 9.3045 0.0000 0.0000 0.0000
# 2 7.9966 67.0310 6.1457 0.0000 0.0000 0.0000
# 3 9.3045 6.1457 77.6760 0.0000 0.0000 0.0000
# 4 0.0000 0.0000 0.0000 21.6832 0.0000 0.0000
# 5 0.0000 0.0000 0.0000 0.0000 24.2585 0.0000
# 6 0.0000 0.0000 0.0000 0.0000 0.0000 47.6445
#
#
#
# Elastic Compliance Matrix: (Units=1/GPa)
#
#
# Indices 1 2 3 4 5 6 
#
# 1 0.011198 -0.001222 -0.001245 0.000000 0.000000 0.000000
# 2 -0.001222 0.015161 -0.001053 0.000000 0.000000 0.000000
# 3 -0.001245 -0.001053 0.013106 0.000000 0.000000 0.000000
# 4 0.000000 0.000000 0.000000 0.046119 0.000000 0.000000
# 5 0.000000 0.000000 0.000000 0.000000 0.041223 0.000000
# 6 0.000000 0.000000 0.000000 0.000000 0.000000 0.020989
#
#
# Mechanical properties :
#
#
# Convention : Reuss Voigt Hill
#
# Bulk Modulus (GPa) = 30.83939 31.42302 31.13120
# Shear Modulus (GPa) = 30.18531 32.88171 31.53351
#
# Velocity S-wave (km/s) = 3.53719 3.69180 3.61532
# Velocity P-wave (km/s) = 5.42818 5.58545 5.50737
#
# Compressibility (1/GPa) = 0.03242606
#
# Stress axis : x y z
#
# Youngs Moduli (GPa) = 89.29978 65.95969 76.29853
#
# Poissons Ratio (x) = 0.08059 0.09497
# Poissons Ratio (y) = 0.10911 0.08035
# Poissons Ratio (z) = 0.11115 0.06947
#
# Static dielectric constant tensor:
#      x y z
#    x 2.010810 0.000000 0.000000 
#    y 0.000000 1.971050 0.000000 
#    z 0.000000 0.000000 1.879150 
# 
# From -- ./inp_files/6751.got.cif
#   From: 2010.05.17/outbox.cif.g08.bks.cpg/sg33_4_cif.got.tgz:6751.got - 2010.06.03 17:15:25.
