data_PCOD9344198
_publ_section_title
;
Structure prediction by ZEFSAII (Michael W. Deem and Ramdas Pophale) SiO2 
 PCOD9344198
Probable space group: P B A 2
;
_chemical_formula_sum "Si O2"
_cell_formula_units_Z 12
_cell_length_a 8.117825
_cell_length_b 12.228778
_cell_length_c 4.801271
_cell_angle_alpha 90.000000
_cell_angle_beta 90.000000
_cell_angle_gamma 90.000000
_cell_volume 476.627356
_symmetry_space_group_name_H-M "P B A 2"
_symmetry_group_IT_number 32
_symmetry_cell_setting 'orthorhombic'
loop_
_space_group_symop_operation_xyz
x,y,z
-x,-y,z
1/2-x,1/2+y,z
1/2+x,1/2-y,z
loop_
_atom_site_type_symbol
_atom_site_label
_atom_site_fract_x
_atom_site_fract_y
_atom_site_fract_z
Si Si1 0.904058 0.601848 0.342490
Si Si2 0.825023 0.951804 0.698987
Si Si3 0.763696 0.308305 0.220339
O O1 0.803693 0.545292 0.593696
O O2 0.780412 0.681598 0.184404
O O3 0.000000 0.500000 0.202334
O O4 0.061714 0.679873 0.378556
O O5 0.853477 0.876700 0.427298
O O6 0.750135 0.872203 0.931438
O O7 0.000000 0.000000 0.790939
#
# Coordination Sequence:
#
# PCOD9344198 Si02
#       3
#     4   4   4
#     4  10  25  46  72 108 154 203 259 319 386 466
#     4  11  25  46  74 111 151 202 263 326 393 471
#     4  11  25  44  74 109 153 207 258 323 398 469
#
# _framework density 25.176901000000001
#
# number of rings (size 3 to 8) (size 9 to 14) (size 15 to 20)
#    0.000    1.333    0.000    3.000    0.000   28.000 
#    0.000    0.000    0.000    0.000    0.000    0.000 
#    0.000    0.000    0.000    0.000    0.000    0.000 
#
# Total GULP energy -66931.432802 kJ/mol
# GULP energy per Si atom -5577.619400 kJ/mol
# Density = 2.511960 g / cm^3
# Si number density = 25.176901 Si / 1000 Ang^3
#
#
#
# Elastic Constant Matrix: (Units=GPa)
#
#
# Indices 1 2 3 4 5 6 
#
# 1 134.3414 98.6418 33.4471 0.0000 0.0000 0.0000
# 2 98.6418 176.9215 75.7626 0.0000 0.0000 0.0000
# 3 33.4471 75.7626 145.4482 0.0000 0.0000 0.0000
# 4 0.0000 0.0000 0.0000 27.8717 0.0000 0.0000
# 5 0.0000 0.0000 0.0000 0.0000 8.1301 0.0000
# 6 0.0000 0.0000 0.0000 0.0000 0.0000 70.3421
#
#
#
# Elastic Compliance Matrix: (Units=1/GPa)
#
#
# Indices 1 2 3 4 5 6 
#
# 1 0.012713 -0.007512 0.000989 0.000000 0.000000 0.000000
# 2 -0.007512 0.011713 -0.004374 0.000000 0.000000 0.000000
# 3 0.000989 -0.004374 0.008926 0.000000 0.000000 0.000000
# 4 0.000000 0.000000 0.000000 0.035879 0.000000 0.000000
# 5 0.000000 0.000000 0.000000 0.000000 0.122999 0.000000
# 6 0.000000 0.000000 0.000000 0.000000 0.000000 0.014216
#
#
# Mechanical properties :
#
#
# Convention : Reuss Voigt Hill
#
# Bulk Modulus (GPa) = 86.50711 96.93491 91.72101
# Shear Modulus (GPa) = 21.54310 37.85942 29.70126
#
# Velocity S-wave (km/s) = 2.92836 3.88201 3.43841
# Velocity P-wave (km/s) = 6.77259 7.66019 7.23002
#
# Compressibility (1/GPa) = 0.01155974
#
# Stress axis : x y z
#
# Youngs Moduli (GPa) = 78.65977 85.37215 112.02988
#
# Poissons Ratio (x) = 0.64129 -0.11083
# Poissons Ratio (y) = 0.59087 0.49002
# Poissons Ratio (z) = -0.07782 0.37342
#
# Static dielectric constant tensor:
#      x y z
#    x 2.181040 0.000000 0.000000 
#    y 0.000000 2.082350 0.000000 
#    z 0.000000 0.000000 1.980530 
# 
# From -- ./inp_files/53.got.cif
#   From: 2010.05.17/outbox.cif.g08.bks.cpg/sg32_1_cif.got.tgz:53.got - 2010.06.03 17:12:27.
