data_PCOD9344831
_publ_section_title
;
Structure prediction by ZEFSAII (Michael W. Deem and Ramdas Pophale) SiO2 
 PCOD9344831
Probable space group: P N A 21
;
_chemical_formula_sum "Si O2"
_cell_formula_units_Z 32
_cell_length_a 25.642034
_cell_length_b 6.004011
_cell_length_c 7.643290
_cell_angle_alpha 90.000000
_cell_angle_beta 90.000000
_cell_angle_gamma 90.000000
_cell_volume 1176.723126
_symmetry_space_group_name_H-M "P N A 21"
_symmetry_group_IT_number 33
_symmetry_cell_setting 'orthorhombic'
loop_
_space_group_symop_operation_xyz
x,y,z
-x,-y,1/2+z
1/2-x,1/2+y,1/2+z
1/2+x,1/2-y,z
loop_
_atom_site_type_symbol
_atom_site_label
_atom_site_fract_x
_atom_site_fract_y
_atom_site_fract_z
Si Si1 0.867386 0.268385 0.195480
Si Si2 0.442770 0.574821 0.036475
Si Si3 0.106202 0.911522 0.213711
Si Si4 0.184116 0.456801 0.978066
Si Si5 0.958074 0.793437 0.529497
Si Si6 0.494265 0.075432 0.732200
Si Si7 0.226995 0.072076 0.731273
Si Si8 0.167928 0.532718 0.342450
O O1 0.859106 0.395838 0.377923
O O2 0.916806 0.105777 0.170050
O O3 0.817036 0.107743 0.192366
O O4 0.862211 0.434225 0.025396
O O5 0.496559 0.461944 0.978042
O O6 0.461700 0.807012 0.112161
O O7 0.401059 0.567835 0.883028
O O8 0.157570 0.773100 0.247367
O O9 0.058289 0.728988 0.227994
O O10 0.093059 0.060069 0.046345
O O11 0.237262 0.572231 0.053989
O O12 0.160154 0.380510 0.167712
O O13 0.200677 0.282551 0.827156
O O14 0.970965 0.586676 0.407361
O O15 0.974085 0.673141 0.708418
O O16 0.270941 0.003619 0.874854
#
# Coordination Sequence:
#
# PCOD9344831 Si02
#       8
#     4   4   4   4   4   4   4   4
#     4  11  22  41  65  87 123 162 202 253 313 363
#     4   9  21  38  59  84 116 157 194 245 299 358
#     4   9  19  38  58  80 119 154 194 244 301 355
#     4  10  23  38  61  89 118 158 202 249 309 363
#     4  10  20  36  59  84 119 155 196 242 299 358
#     4  10  20  35  57  87 114 155 196 244 297 354
#     4  10  21  41  59  89 119 156 205 250 297 369
#     4   9  20  41  60  88 122 157 203 253 303 368
#
# _framework density 27.194163
#
# number of rings (size 3 to 8) (size 9 to 14) (size 15 to 20)
#    0.750    1.500    1.250    0.750    3.500    2.000 
#    2.250    5.000    0.000    0.000    0.000    0.000 
#    0.000    0.000    0.000    0.000    0.000    0.000 
#
# Total GULP energy -178262.762383 kJ/mol
# GULP energy per Si atom -5570.711324 kJ/mol
# Density = 2.713227 g / cm^3
# Si number density = 27.194163 Si / 1000 Ang^3
#
#
#
# Elastic Constant Matrix: (Units=GPa)
#
#
# Indices 1 2 3 4 5 6 
#
# 1 111.8796 45.0078 9.6808 0.0000 0.0000 0.0000
# 2 45.0078 63.6468 25.5019 0.0000 0.0000 0.0000
# 3 9.6808 25.5019 98.7284 0.0000 0.0000 0.0000
# 4 0.0000 0.0000 0.0000 36.2688 0.0000 0.0000
# 5 0.0000 0.0000 0.0000 0.0000 36.4420 0.0000
# 6 0.0000 0.0000 0.0000 0.0000 0.0000 32.0190
#
#
#
# Elastic Compliance Matrix: (Units=1/GPa)
#
#
# Indices 1 2 3 4 5 6 
#
# 1 0.012616 -0.009398 0.001191 0.000000 0.000000 0.000000
# 2 -0.009398 0.024527 -0.005414 0.000000 0.000000 0.000000
# 3 0.001191 -0.005414 0.011410 0.000000 0.000000 0.000000
# 4 0.000000 0.000000 0.000000 0.027572 0.000000 0.000000
# 5 0.000000 0.000000 0.000000 0.000000 0.027441 0.000000
# 6 0.000000 0.000000 0.000000 0.000000 0.000000 0.031231
#
#
# Mechanical properties :
#
#
# Convention : Reuss Voigt Hill
#
# Bulk Modulus (GPa) = 46.92611 48.29286 47.60948
# Shear Modulus (GPa) = 29.56050 33.88359 31.72205
#
# Velocity S-wave (km/s) = 3.30057 3.53368 3.41911
# Velocity P-wave (km/s) = 5.64078 5.86910 5.75607
#
# Compressibility (1/GPa) = 0.02131010
#
# Stress axis : x y z
#
# Youngs Moduli (GPa) = 79.26414 40.77132 87.63878
#
# Poissons Ratio (x) = 0.38319 -0.10434
# Poissons Ratio (y) = 0.74496 0.47446
# Poissons Ratio (z) = -0.09437 0.22073
#
# Static dielectric constant tensor:
#      x y z
#    x 2.051480 0.000000 0.000000 
#    y 0.000000 2.155340 0.000000 
#    z 0.000000 0.000000 2.658930 
# 
# From -- ./inp_files/5365.got.cif
#   From: 2010.05.17/outbox.cif.g08.bks.cpg/sg33_3_cif.got.tgz:5365.got - 2010.06.03 17:15:25.
