data_PCOD9344808
_publ_section_title
;
Structure prediction by ZEFSAII (Michael W. Deem and Ramdas Pophale) SiO2 
 PCOD9344808
Probable space group: P N A 21
;
_chemical_formula_sum "Si O2"
_cell_formula_units_Z 24
_cell_length_a 15.864176
_cell_length_b 6.906771
_cell_length_c 7.929779
_cell_angle_alpha 90.000000
_cell_angle_beta 90.000000
_cell_angle_gamma 90.000000
_cell_volume 868.867715
_symmetry_space_group_name_H-M "P N A 21"
_symmetry_group_IT_number 33
_symmetry_cell_setting 'orthorhombic'
loop_
_space_group_symop_operation_xyz
x,y,z
-x,-y,1/2+z
1/2-x,1/2+y,1/2+z
1/2+x,1/2-y,z
loop_
_atom_site_type_symbol
_atom_site_label
_atom_site_fract_x
_atom_site_fract_y
_atom_site_fract_z
Si Si1 0.045707 0.985055 0.717560
Si Si2 0.787210 0.538370 0.170453
Si Si3 0.709901 0.479747 0.544544
Si Si4 0.119830 0.948842 0.070749
Si Si5 0.045108 0.439900 0.815806
Si Si6 0.377183 0.011642 0.678673
O O1 0.115599 0.946461 0.575107
O O2 0.041754 0.216376 0.755837
O O3 0.951457 0.930612 0.666666
O O4 0.080297 0.900469 0.890725
O O5 0.746504 0.520018 0.359014
O O6 0.882593 0.466060 0.196246
O O7 0.797088 0.751846 0.089107
O O8 0.711239 0.452559 0.057218
O O9 0.780382 0.556902 0.678615
O O10 0.131423 0.745061 0.164741
O O11 0.081827 0.449498 0.001909
O O12 0.951112 0.525141 0.811049
#
# Coordination Sequence:
#
# PCOD9344808 Si02
#       6
#     4   4   4   4   4   4
#     4  10  20  34  53  78 107 140 178 224 276 332
#     4   9  18  35  54  75 107 144 181 228 280 335
#     4   9  18  35  54  75 107 144 181 228 280 335
#     4  10  20  34  53  78 107 140 178 224 276 332
#     4   9  19  35  52  73 103 136 173 218 268 323
#     4   9  19  35  52  73 103 136 173 218 268 323
#
# _framework density 27.622156
#
# number of rings (size 3 to 8) (size 9 to 14) (size 15 to 20)
#    0.000    2.667    0.000    1.000    0.000    2.667 
#    0.000   15.000    0.000    0.000    0.000    0.000 
#    0.000    0.000    0.000    0.000    0.000    0.000 
#
# Total GULP energy -134163.426775 kJ/mol
# GULP energy per Si atom -5590.142782 kJ/mol
# Density = 2.755929 g / cm^3
# Si number density = 27.622156 Si / 1000 Ang^3
#
#
#
# Elastic Constant Matrix: (Units=GPa)
#
#
# Indices 1 2 3 4 5 6 
#
# 1 111.0235 -6.8147 9.4714 0.0000 0.0000 0.0000
# 2 -6.8147 128.2410 6.5811 0.0000 0.0000 0.0000
# 3 9.4714 6.5811 99.1503 0.0000 0.0000 0.0000
# 4 0.0000 0.0000 0.0000 25.7376 0.0000 0.0000
# 5 0.0000 0.0000 0.0000 0.0000 45.2911 0.0000
# 6 0.0000 0.0000 0.0000 0.0000 0.0000 -0.6439
#
#
#
# Elastic Compliance Matrix: (Units=1/GPa)
#
#
# Indices 1 2 3 4 5 6 
#
# 1 0.009117 0.000531 -0.000906 0.000000 0.000000 0.000000
# 2 0.000531 0.007855 -0.000572 0.000000 0.000000 0.000000
# 3 -0.000906 -0.000572 0.010210 0.000000 0.000000 0.000000
# 4 0.000000 0.000000 0.000000 0.038854 0.000000 0.000000
# 5 0.000000 0.000000 0.000000 0.000000 0.022079 0.000000
# 6 0.000000 0.000000 0.000000 0.000000 0.000000 -1.553010
#
#
# Mechanical properties :
#
#
# Convention : Reuss Voigt Hill
#
# Bulk Modulus (GPa) = 39.54437 39.65446 39.59942
# Shear Modulus (GPa) = -3.43744 36.02210 16.29233
#
# Velocity S-wave (km/s) = -1.11676 3.61515 2.43127
# Velocity P-wave (km/s) = 3.56152 5.64030 4.71685
#
# Compressibility (1/GPa) = 0.02528805
#
# Stress axis : x y z
#
# Youngs Moduli (GPa) = 109.68521 127.30109 97.94097
#
# Poissons Ratio (x) = -0.06759 0.08875
# Poissons Ratio (y) = -0.05824 0.05603
# Poissons Ratio (z) = 0.09939 0.07283
#
# Static dielectric constant tensor:
#      x y z
#    x 2.224490 0.000000 0.000000 
#    y 0.000000 2.224950 0.000000 
#    z 0.000000 0.000000 2.139740 
# 
# From -- ./inp_files/4250.got.cif
#   From: 2010.05.17/outbox.cif.g08.bks.cpg/sg33_3_cif.got.tgz:4250.got - 2010.06.03 17:15:25.
