data_PCOD9344474
_publ_section_title
;
Structure prediction by ZEFSAII (Michael W. Deem and Ramdas Pophale) SiO2 
 PCOD9344474
Probable space group: P N A 21
;
_chemical_formula_sum "Si O2"
_cell_formula_units_Z 24
_cell_length_a 12.758441
_cell_length_b 12.793413
_cell_length_c 6.538918
_cell_angle_alpha 90.000000
_cell_angle_beta 90.000000
_cell_angle_gamma 90.000000
_cell_volume 1067.308384
_symmetry_space_group_name_H-M "P N A 21"
_symmetry_group_IT_number 33
_symmetry_cell_setting 'orthorhombic'
loop_
_space_group_symop_operation_xyz
x,y,z
-x,-y,1/2+z
1/2-x,1/2+y,1/2+z
1/2+x,1/2-y,z
loop_
_atom_site_type_symbol
_atom_site_label
_atom_site_fract_x
_atom_site_fract_y
_atom_site_fract_z
Si Si1 0.380505 0.904379 0.713320
Si Si2 0.761229 0.351589 0.060783
Si Si3 0.408391 0.039874 0.366983
Si Si4 0.470003 0.688897 0.569593
Si Si5 0.395724 0.226755 0.696359
Si Si6 0.167269 0.850830 0.823263
O O1 0.472269 0.976414 0.801856
O O2 0.435684 0.790434 0.704849
O O3 0.269305 0.923174 0.818619
O O4 0.364629 0.938970 0.480080
O O5 0.835765 0.432730 0.176113
O O6 0.637873 0.374431 0.048946
O O7 0.781802 0.249913 0.206721
O O8 0.804127 0.316046 0.842147
O O9 0.413041 0.136034 0.528222
O O10 0.514664 0.735169 0.355500
O O11 0.563342 0.628951 0.688392
O O12 0.363583 0.323428 0.553053
#
# Coordination Sequence:
#
# PCOD9344474 Si02
#       6
#     4   4   4   4   4   4
#     4  11  21  37  59  88 124 159 198 258 309 370
#     4   9  20  35  57  85 118 153 198 249 299 367
#     4  11  22  37  55  88 127 155 201 253 321 363
#     4  10  19  38  60  88 114 156 206 250 302 360
#     4  10  18  35  56  89 116 153 204 251 311 352
#     4   9  20  36  57  88 117 152 205 253 298 362
#
# _framework density 22.486473
#
# number of rings (size 3 to 8) (size 9 to 14) (size 15 to 20)
#    0.000    2.000    5.000    1.000    2.333    1.333 
#    3.000    0.000    3.667    0.000    0.000    0.000 
#    0.000    0.000    0.000    0.000    0.000    0.000 
#
# Total GULP energy -133870.791953 kJ/mol
# GULP energy per Si atom -5577.949665 kJ/mol
# Density = 2.243529 g / cm^3
# Si number density = 22.486473 Si / 1000 Ang^3
#
#
#
# Elastic Constant Matrix: (Units=GPa)
#
#
# Indices 1 2 3 4 5 6 
#
# 1 221.1415 21.9674 80.0478 0.0000 0.0000 0.0000
# 2 21.9674 14.2747 12.7522 0.0000 0.0000 0.0000
# 3 80.0478 12.7522 129.5304 0.0000 0.0000 0.0000
# 4 0.0000 0.0000 0.0000 26.1566 0.0000 0.0000
# 5 0.0000 0.0000 0.0000 0.0000 15.0954 0.0000
# 6 0.0000 0.0000 0.0000 0.0000 0.0000 16.1709
#
#
#
# Elastic Compliance Matrix: (Units=1/GPa)
#
#
# Indices 1 2 3 4 5 6 
#
# 1 0.006393 -0.006917 -0.003270 0.000000 0.000000 0.000000
# 2 -0.006917 0.084293 -0.004024 0.000000 0.000000 0.000000
# 3 -0.003270 -0.004024 0.010137 0.000000 0.000000 0.000000
# 4 0.000000 0.000000 0.000000 0.038231 0.000000 0.000000
# 5 0.000000 0.000000 0.000000 0.000000 0.066245 0.000000
# 6 0.000000 0.000000 0.000000 0.000000 0.000000 0.061840
#
#
# Mechanical properties :
#
#
# Convention : Reuss Voigt Hill
#
# Bulk Modulus (GPa) = 13.81185 66.05349 39.93267
# Shear Modulus (GPa) = 15.63998 28.16319 21.90159
#
# Velocity S-wave (km/s) = 2.64015 3.54284 3.12427
# Velocity P-wave (km/s) = 3.93058 6.79515 5.55084
#
# Compressibility (1/GPa) = 0.07240160
#
# Stress axis : x y z
#
# Youngs Moduli (GPa) = 156.43148 11.86338 98.64936
#
# Poissons Ratio (x) = 0.08206 0.32254
# Poissons Ratio (y) = 1.08199 0.39698
# Poissons Ratio (z) = 0.51146 0.04774
#
# Static dielectric constant tensor:
#      x y z
#    x 1.888030 0.000000 0.000000 
#    y 0.000000 1.986490 0.000000 
#    z 0.000000 0.000000 1.828720 
# 
# From -- ./inp_files/837.got.cif
#   From: 2010.05.17/outbox.cif.g08.bks.cpg/sg33_1_cif.got.tgz:837.got - 2010.06.03 17:15:25.
