data_PCOD9344177
_publ_section_title
;
Structure prediction by ZEFSAII (Michael W. Deem and Ramdas Pophale) SiO2 
 PCOD9344177
Probable space group: P B A 2
;
_chemical_formula_sum "Si O2"
_cell_formula_units_Z 20
_cell_length_a 5.218341
_cell_length_b 26.145516
_cell_length_c 6.160111
_cell_angle_alpha 90.000000
_cell_angle_beta 90.000000
_cell_angle_gamma 90.000000
_cell_volume 840.462248
_symmetry_space_group_name_H-M "P B A 2"
_symmetry_group_IT_number 32
_symmetry_cell_setting 'orthorhombic'
loop_
_space_group_symop_operation_xyz
x,y,z
-x,-y,z
1/2-x,1/2+y,z
1/2+x,1/2-y,z
loop_
_atom_site_type_symbol
_atom_site_label
_atom_site_fract_x
_atom_site_fract_y
_atom_site_fract_z
Si Si1 0.000000 0.500000 0.883080
Si Si2 0.312646 0.671297 0.001189
Si Si3 0.968925 0.107335 0.395921
Si Si4 0.016901 0.605372 0.672544
Si Si5 0.000000 0.000000 0.162750
Si Si6 0.166276 0.766809 0.764184
O O1 0.927788 0.549280 0.743865
O O2 0.249340 0.513691 0.023141
O O3 0.424454 0.647311 0.217161
O O4 0.208879 0.729491 0.975523
O O5 0.557548 0.679489 0.840635
O O6 0.093187 0.637410 0.888097
O O7 0.700681 0.123923 0.504734
O O8 0.929073 0.051211 0.292555
O O9 0.208109 0.101160 0.557017
O O10 0.432362 0.761051 0.642154
#
# Coordination Sequence:
#
# PCOD9344177 Si02
#       6
#     2   4   4   4   2   4
#     4  12  24  46  72  96 140 186 222 286 350 412
#     4  10  24  46  70  96 142 184 226 292 354 400
#     4  12  27  42  70 104 138 180 235 282 348 426
#     4  12  27  42  70 104 138 180 235 282 348 426
#     4  12  24  46  72  96 140 186 222 286 350 412
#     4   8  20  38  72  90 132 178 230 284 342 414
#
# _framework density 23.796429
#
# number of rings (size 3 to 8) (size 9 to 14) (size 15 to 20)
#    1.200    0.000    2.000    3.600    5.600    0.000 
#    0.000    6.000    0.000    0.000    0.000    0.000 
#    0.000    0.000    0.000    0.000    0.000    0.000 
#
# Total GULP energy -111533.124241 kJ/mol
# GULP energy per Si atom -5576.656212 kJ/mol
# Density = 2.374227 g / cm^3
# Si number density = 23.796429 Si / 1000 Ang^3
#
#
#
# Elastic Constant Matrix: (Units=GPa)
#
#
# Indices 1 2 3 4 5 6 
#
# 1 164.9556 -1.2179 27.8516 0.0000 0.0000 0.0000
# 2 -1.2179 86.3315 25.7543 0.0000 0.0000 0.0000
# 3 27.8516 25.7543 47.8257 0.0000 0.0000 0.0000
# 4 0.0000 0.0000 0.0000 14.5086 0.0000 0.0000
# 5 0.0000 0.0000 0.0000 0.0000 45.3353 0.0000
# 6 0.0000 0.0000 0.0000 0.0000 0.0000 29.3172
#
#
#
# Elastic Compliance Matrix: (Units=1/GPa)
#
#
# Indices 1 2 3 4 5 6 
#
# 1 0.006891 0.001542 -0.004844 0.000000 0.000000 0.000000
# 2 0.001542 0.014145 -0.008515 0.000000 0.000000 0.000000
# 3 -0.004844 -0.008515 0.028316 0.000000 0.000000 0.000000
# 4 0.000000 0.000000 0.000000 0.068925 0.000000 0.000000
# 5 0.000000 0.000000 0.000000 0.000000 0.022058 0.000000
# 6 0.000000 0.000000 0.000000 0.000000 0.000000 0.034110
#
#
# Mechanical properties :
#
#
# Convention : Reuss Voigt Hill
#
# Bulk Modulus (GPa) = 38.88257 44.87653 41.87955
# Shear Modulus (GPa) = 24.19536 34.28054 29.23795
#
# Velocity S-wave (km/s) = 3.19213 3.79961 3.50904
# Velocity P-wave (km/s) = 5.47370 6.17647 5.83568
#
# Compressibility (1/GPa) = 0.02571847
#
# Stress axis : x y z
#
# Youngs Moduli (GPa) = 145.10709 70.69484 35.31619
#
# Poissons Ratio (x) = -0.10903 0.17106
# Poissons Ratio (y) = -0.22378 0.30073
# Poissons Ratio (z) = 0.70287 0.60199
#
# Static dielectric constant tensor:
#      x y z
#    x 1.982900 0.000000 0.000000 
#    y 0.000000 1.955560 0.000000 
#    z 0.000000 0.000000 1.915050 
# 
# From -- ./inp_files/207.got.cif
#   From: 2010.05.17/outbox.cif.g08.bks.cpg/sg32_1_cif.got.tgz:207.got - 2010.06.03 17:12:27.
