data_PCOD9344450
_publ_section_title
;
Structure prediction by ZEFSAII (Michael W. Deem and Ramdas Pophale) SiO2 
 PCOD9344450
Probable space group: P N A 21
;
_chemical_formula_sum "Si O2"
_cell_formula_units_Z 32
_cell_length_a 8.978611
_cell_length_b 8.617370
_cell_length_c 18.438586
_cell_angle_alpha 90.000000
_cell_angle_beta 90.000000
_cell_angle_gamma 90.000000
_cell_volume 1426.630517
_symmetry_space_group_name_H-M "P N A 21"
_symmetry_group_IT_number 33
_symmetry_cell_setting 'orthorhombic'
loop_
_space_group_symop_operation_xyz
x,y,z
-x,-y,1/2+z
1/2-x,1/2+y,1/2+z
1/2+x,1/2-y,z
loop_
_atom_site_type_symbol
_atom_site_label
_atom_site_fract_x
_atom_site_fract_y
_atom_site_fract_z
Si Si1 0.865767 0.305091 0.821990
Si Si2 0.429530 0.782673 0.752067
Si Si3 0.685125 0.256128 0.414529
Si Si4 0.910456 0.786975 0.551895
Si Si5 0.929701 0.955437 0.281150
Si Si6 0.667596 0.819617 0.658762
Si Si7 0.065746 0.947913 0.948546
Si Si8 0.145148 0.416222 0.915005
O O1 0.744697 0.407442 0.777461
O O2 0.760230 0.197421 0.872803
O O3 0.963913 0.193103 0.770388
O O4 0.986220 0.391228 0.874045
O O5 0.372024 0.789243 0.834340
O O6 0.500976 0.607925 0.743840
O O7 0.566498 0.891422 0.724711
O O8 0.284568 0.789085 0.701685
O O9 0.769222 0.116209 0.452147
O O10 0.545880 0.308397 0.461138
O O11 0.791950 0.408455 0.408324
O O12 0.781032 0.877007 0.596527
O O13 0.862364 0.645743 0.498418
O O14 0.035696 0.740507 0.608237
O O15 0.976027 0.910808 0.497225
O O16 0.949905 0.999126 0.365754
#
# Coordination Sequence:
#
# PCOD9344450 Si02
#       8
#     4   4   4   4   4   4   4   4
#     4  10  18  33  58  94 123 172 191 252 333 380
#     4  10  20  42  55  89 126 160 222 257 313 382
#     4  11  23  36  59  96 129 165 188 277 348 375
#     4  11  21  39  64  92 121 162 224 258 302 386
#     4  10  20  35  58  89 132 157 201 267 319 372
#     4  10  23  38  63  80 116 179 212 259 282 368
#     4  11  22  35  57  93 133 156 201 270 334 369
#     4  11  19  36  60  95 128 159 211 254 335 380
#
# _framework density 22.430475999999999
#
# number of rings (size 3 to 8) (size 9 to 14) (size 15 to 20)
#    0.000    1.500    5.000    3.000    1.750    0.000 
#    4.500    0.000    0.000   12.000    0.000    0.000 
#    0.000    0.000    0.000    0.000    0.000    0.000 
#
# Total GULP energy -178338.462251 kJ/mol
# GULP energy per Si atom -5573.076945 kJ/mol
# Density = 2.237942 g / cm^3
# Si number density = 22.430476 Si / 1000 Ang^3
#
#
#
# Elastic Constant Matrix: (Units=GPa)
#
#
# Indices 1 2 3 4 5 6 
#
# 1 131.1973 10.4985 7.4027 0.0000 0.0000 0.0000
# 2 10.4985 48.9718 10.6232 0.0000 0.0000 0.0000
# 3 7.4027 10.6232 61.0140 0.0000 0.0000 0.0000
# 4 0.0000 0.0000 0.0000 10.9093 0.0000 0.0000
# 5 0.0000 0.0000 0.0000 0.0000 32.2650 0.0000
# 6 0.0000 0.0000 0.0000 0.0000 0.0000 42.5311
#
#
#
# Elastic Compliance Matrix: (Units=1/GPa)
#
#
# Indices 1 2 3 4 5 6 
#
# 1 0.007782 -0.001521 -0.000679 0.000000 0.000000 0.000000
# 2 -0.001521 0.021519 -0.003562 0.000000 0.000000 0.000000
# 3 -0.000679 -0.003562 0.017092 0.000000 0.000000 0.000000
# 4 0.000000 0.000000 0.000000 0.091665 0.000000 0.000000
# 5 0.000000 0.000000 0.000000 0.000000 0.030993 0.000000
# 6 0.000000 0.000000 0.000000 0.000000 0.000000 0.023512
#
#
# Mechanical properties :
#
#
# Convention : Reuss Voigt Hill
#
# Bulk Modulus (GPa) = 28.67935 33.13687 30.90811
# Shear Modulus (GPa) = 23.17911 31.31833 27.24872
#
# Velocity S-wave (km/s) = 3.21810 3.74068 3.48919
# Velocity P-wave (km/s) = 5.15964 5.78465 5.48106
#
# Compressibility (1/GPa) = 0.03486830
#
# Stress axis : x y z
#
# Youngs Moduli (GPa) = 128.49917 46.47124 58.50587
#
# Poissons Ratio (x) = 0.07068 0.03975
# Poissons Ratio (y) = 0.19544 0.20840
# Poissons Ratio (z) = 0.08730 0.16553
#
# Static dielectric constant tensor:
#      x y z
#    x 1.927920 0.000000 0.000000 
#    y 0.000000 1.900710 0.000000 
#    z 0.000000 0.000000 1.904480 
# 
# From -- ./inp_files/8969.got.cif
#   From: 2010.05.17/outbox.cif.g08.bks.cpg/sg33_5_cif.got.tgz:8969.got - 2010.06.03 17:15:25.
