data_PCOD9344783
_publ_section_title
;
Structure prediction by ZEFSAII (Michael W. Deem and Ramdas Pophale) SiO2 
 PCOD9344783
Probable space group: P N A 21
;
_chemical_formula_sum "Si O2"
_cell_formula_units_Z 20
_cell_length_a 7.830740
_cell_length_b 4.217491
_cell_length_c 19.560417
_cell_angle_alpha 90.000000
_cell_angle_beta 90.000000
_cell_angle_gamma 90.000000
_cell_volume 646.003808
_symmetry_space_group_name_H-M "P N A 21"
_symmetry_group_IT_number 33
_symmetry_cell_setting 'orthorhombic'
loop_
_space_group_symop_operation_xyz
x,y,z
-x,-y,1/2+z
1/2-x,1/2+y,1/2+z
1/2+x,1/2-y,z
loop_
_atom_site_type_symbol
_atom_site_label
_atom_site_fract_x
_atom_site_fract_y
_atom_site_fract_z
Si Si1 0.827059 0.999999 0.252020
Si Si2 0.100329 0.051570 0.350552
Si Si3 0.633589 0.963658 0.951857
Si Si4 0.133588 0.463660 0.552182
Si Si5 0.100329 0.948431 0.153488
O O1 0.713174 0.767183 0.205565
O O2 0.965479 0.145979 0.198682
O O3 0.713175 0.232819 0.298475
O O4 0.965478 0.854018 0.305358
O O5 0.231827 0.872302 0.400650
O O6 0.983549 0.256889 0.401331
O O7 0.750000 0.749996 0.002020
O O8 0.500003 0.138784 0.002020
O O9 0.268170 0.627699 0.603391
O O10 0.016451 0.256883 0.602708
#
# Coordination Sequence:
#
# PCOD9344783 Si02
#       5
#     4   4   4   4   4
#     4  10  20  32  48  76 108 132 164 198 254 310
#     4   9  18  31  50  77 102 131 162 206 255 299
#     4   8  14  27  48  75  95 121 172 221 237 267
#     4   8  14  27  48  75  95 121 172 221 237 267
#     4   9  18  31  50  77 102 131 162 206 255 299
#
# _framework density 30.959569999999999
#
# number of rings (size 3 to 8) (size 9 to 14) (size 15 to 20)
#    0.000    3.200    0.000    0.000    0.000    6.400 
#    0.000    0.000    0.000    0.000    0.000  520.800 
#    0.000    0.000    0.000    0.000    0.000    0.000 
#
# Total GULP energy -111915.396053 kJ/mol
# GULP energy per Si atom -5595.769803 kJ/mol
# Density = 3.088911 g / cm^3
# Si number density = 30.959570 Si / 1000 Ang^3
#
#
#
# Elastic Constant Matrix: (Units=GPa)
#
#
# Indices 1 2 3 4 5 6 
#
# 1 229.5819 74.6277 168.0345 0.0000 0.0000 0.0000
# 2 74.6277 69.3689 79.3489 0.0000 0.0000 0.0000
# 3 168.0345 79.3489 238.0137 0.0000 0.0000 0.0000
# 4 0.0000 0.0000 0.0000 69.1550 0.0000 0.0000
# 5 0.0000 0.0000 0.0000 0.0000 218.3964 0.0000
# 6 0.0000 0.0000 0.0000 0.0000 0.0000 -0.5523
#
#
#
# Elastic Compliance Matrix: (Units=1/GPa)
#
#
# Indices 1 2 3 4 5 6 
#
# 1 0.009720 -0.004215 -0.005457 0.000000 0.000000 0.000000
# 2 -0.004215 0.025129 -0.005402 0.000000 0.000000 0.000000
# 3 -0.005457 -0.005402 0.009855 0.000000 0.000000 0.000000
# 4 0.000000 0.000000 0.000000 0.014460 0.000000 0.000000
# 5 0.000000 0.000000 0.000000 0.000000 0.004579 0.000000
# 6 0.000000 0.000000 0.000000 0.000000 0.000000 -1.810535
#
#
# Mechanical properties :
#
#
# Convention : Reuss Voigt Hill
#
# Bulk Modulus (GPa) = 68.69791 131.22074 99.95932
# Shear Modulus (GPa) = -2.92091 71.73005 34.40457
#
# Velocity S-wave (km/s) = -0.97237 4.81863 3.33719
# Velocity P-wave (km/s) = 4.58007 8.56945 6.87068
#
# Compressibility (1/GPa) = 0.01455648
#
# Stress axis : x y z
#
# Youngs Moduli (GPa) = 102.88312 39.79469 101.47199
#
# Poissons Ratio (x) = 0.16772 0.55373
# Poissons Ratio (y) = 0.43361 0.54816
# Poissons Ratio (z) = 0.56143 0.21497
#
# Static dielectric constant tensor:
#      x y z
#    x 2.356870 0.000000 0.000000 
#    y 0.000000 2.381910 0.000000 
#    z 0.000000 0.000000 2.386340 
# 
# From -- ./inp_files/7505.got.cif
#   From: 2010.05.17/outbox.cif.g08.bks.cpg/sg33_4_cif.got.tgz:7505.got - 2010.06.03 17:15:25.
