data_PCOD9344259
_publ_section_title
;
Structure prediction by ZEFSAII (Michael W. Deem and Ramdas Pophale) SiO2 
 PCOD9344259
Probable space group: P B A 2
;
_chemical_formula_sum "Si O2"
_cell_formula_units_Z 32
_cell_length_a 11.632799
_cell_length_b 14.243536
_cell_length_c 8.721566
_cell_angle_alpha 90.000000
_cell_angle_beta 90.000000
_cell_angle_gamma 90.000000
_cell_volume 1445.095382
_symmetry_space_group_name_H-M "P B A 2"
_symmetry_group_IT_number 32
_symmetry_cell_setting 'orthorhombic'
loop_
_space_group_symop_operation_xyz
x,y,z
-x,-y,z
1/2-x,1/2+y,z
1/2+x,1/2-y,z
loop_
_atom_site_type_symbol
_atom_site_label
_atom_site_fract_x
_atom_site_fract_y
_atom_site_fract_z
Si Si1 0.378348 0.460796 0.304080
Si Si2 0.042879 0.352071 0.238950
Si Si3 0.179028 0.087981 0.849792
Si Si4 0.134700 0.727593 0.780774
Si Si5 0.197613 0.915773 0.633767
Si Si6 0.180148 0.533756 0.139307
Si Si7 0.516404 0.677763 0.057457
Si Si8 0.042702 0.394412 0.590115
O O1 0.500000 0.500000 0.356328
O O2 0.316954 0.420466 0.452048
O O3 0.295224 0.541135 0.239722
O O4 0.408344 0.389165 0.166723
O O5 0.918288 0.395741 0.194562
O O6 0.054620 0.251154 0.160852
O O7 0.131545 0.429131 0.172153
O O8 0.050221 0.346731 0.422734
O O9 0.157030 0.009030 0.722413
O O10 0.240186 0.179523 0.778723
O O11 0.276787 0.048745 0.966842
O O12 0.096876 0.758198 0.950176
O O13 0.132553 0.824603 0.690327
O O14 0.045365 0.657171 0.702087
O O15 0.931993 0.882389 0.948244
O O16 0.332509 0.901778 0.665299
O O17 0.000000 0.500000 0.559314
#
# Coordination Sequence:
#
# PCOD9344259 Si02
#       8
#     4   4   4   4   4   4   4   4
#     4  12  26  50  74 103 146 200 248 305 381 455
#     4  11  24  45  76 105 145 191 259 307 370 443
#     4  12  27  47  73 109 151 195 243 316 376 458
#     4  12  28  45  75 110 146 199 246 308 392 445
#     4  12  28  49  76 106 153 194 250 315 384 453
#     4  11  23  45  73 104 138 196 241 306 373 439
#     4  12  28  47  70 109 147 192 254 314 373 458
#     4  12  23  49  75 111 150 195 257 318 376 452
#
# _framework density 22.143867
#
# number of rings (size 3 to 8) (size 9 to 14) (size 15 to 20)
#    0.000    0.250    6.250    2.250    7.000    0.000 
#    4.500    0.000    0.000    0.000    0.000    0.000 
#    0.000    0.000    0.000    0.000    0.000    0.000 
#
# Total GULP energy -179132.070417 kJ/mol
# GULP energy per Si atom -5597.877201 kJ/mol
# Density = 2.209347 g / cm^3
# Si number density = 22.143867 Si / 1000 Ang^3
#
#
#
# Elastic Constant Matrix: (Units=GPa)
#
#
# Indices 1 2 3 4 5 6 
#
# 1 81.9436 20.1463 8.7713 0.0000 0.0000 0.0000
# 2 20.1463 90.0723 46.0130 0.0000 0.0000 0.0000
# 3 8.7713 46.0130 90.3980 0.0000 0.0000 0.0000
# 4 0.0000 0.0000 0.0000 17.9574 0.0000 0.0000
# 5 0.0000 0.0000 0.0000 0.0000 40.7384 0.0000
# 6 0.0000 0.0000 0.0000 0.0000 0.0000 22.6871
#
#
#
# Elastic Compliance Matrix: (Units=1/GPa)
#
#
# Indices 1 2 3 4 5 6 
#
# 1 0.012919 -0.003040 0.000294 0.000000 0.000000 0.000000
# 2 -0.003040 0.015719 -0.007706 0.000000 0.000000 0.000000
# 3 0.000294 -0.007706 0.014956 0.000000 0.000000 0.000000
# 4 0.000000 0.000000 0.000000 0.055687 0.000000 0.000000
# 5 0.000000 0.000000 0.000000 0.000000 0.024547 0.000000
# 6 0.000000 0.000000 0.000000 0.000000 0.000000 0.044078
#
#
# Mechanical properties :
#
#
# Convention : Reuss Voigt Hill
#
# Bulk Modulus (GPa) = 44.07193 45.80833 44.94013
# Shear Modulus (GPa) = 25.46171 28.77547 27.11859
#
# Velocity S-wave (km/s) = 3.39459 3.60874 3.50330
# Velocity P-wave (km/s) = 5.94223 6.17216 6.05829
#
# Compressibility (1/GPa) = 0.02269018
#
# Stress axis : x y z
#
# Youngs Moduli (GPa) = 77.40303 63.61899 66.86267
#
# Poissons Ratio (x) = 0.19338 -0.01963
# Poissons Ratio (y) = 0.23528 0.51524
# Poissons Ratio (z) = -0.02273 0.49024
#
# Static dielectric constant tensor:
#      x y z
#    x 1.821650 0.000000 0.000000 
#    y 0.000000 1.808410 0.000000 
#    z 0.000000 0.000000 1.819740 
# 
# From -- ./inp_files/2876.got.cif
#   From: 2010.05.17/outbox.cif.g08.bks.cpg/sg32_2_cif.got.tgz:2876.got - 2010.06.03 17:12:27.
