data_PCOD9344185
_publ_section_title
;
Structure prediction by ZEFSAII (Michael W. Deem and Ramdas Pophale) SiO2 
 PCOD9344185
Probable space group: P B A 2
;
_chemical_formula_sum "Si O2"
_cell_formula_units_Z 30
_cell_length_a 8.449224
_cell_length_b 18.974182
_cell_length_c 8.240965
_cell_angle_alpha 90.000000
_cell_angle_beta 90.000000
_cell_angle_gamma 90.000000
_cell_volume 1321.167725
_symmetry_space_group_name_H-M "P B A 2"
_symmetry_group_IT_number 32
_symmetry_cell_setting 'orthorhombic'
loop_
_space_group_symop_operation_xyz
x,y,z
-x,-y,z
1/2-x,1/2+y,z
1/2+x,1/2-y,z
loop_
_atom_site_type_symbol
_atom_site_label
_atom_site_fract_x
_atom_site_fract_y
_atom_site_fract_z
Si Si1 0.067668 0.693436 0.292820
Si Si2 0.617379 0.063723 0.436008
Si Si3 0.925094 0.680154 0.937709
Si Si4 0.388338 0.678338 0.429942
Si Si5 0.194484 0.736459 0.738196
Si Si6 0.591952 0.606263 0.642743
Si Si7 0.500000 0.500000 0.912463
Si Si8 0.175611 0.465717 0.064586
O O1 0.251721 0.674697 0.297153
O O2 0.978231 0.636016 0.403949
O O3 0.023345 0.769243 0.365432
O O4 0.003198 0.691356 0.111838
O O5 0.747085 0.073827 0.573991
O O6 0.500000 0.000000 0.475918
O O7 0.689108 0.048379 0.257165
O O8 0.807929 0.742795 0.887417
O O9 0.834295 0.606589 0.960711
O O10 0.060263 0.683151 0.799885
O O11 0.293776 0.708624 0.586287
O O12 0.469132 0.607791 0.492603
O O13 0.122716 0.812249 0.688255
O O14 0.518333 0.566179 0.792902
O O15 0.334648 0.505327 0.009630
O O16 0.000000 0.500000 0.042528
#
# Coordination Sequence:
#
# PCOD9344185 Si02
#       8
#     4   4   4   4   4   4   2   4
#     4  11  22  42  68  99 132 188 230 283 347 417
#     4  10  24  48  70  95 138 184 237 290 346 414
#     4  11  24  42  68 101 138 183 233 285 355 417
#     4  12  23  42  67 101 140 174 228 285 350 415
#     4  12  22  42  67 100 142 177 219 293 354 415
#     4  12  26  44  68 105 135 180 233 282 354 423
#     4  12  28  46  70 104 142 186 238 286 352 426
#     4  10  25  49  72  99 141 189 238 291 349 417
#
# _framework density 22.707184999999999
#
# number of rings (size 3 to 8) (size 9 to 14) (size 15 to 20)
#    0.000    0.800    5.333    0.800    3.733    2.133 
#    4.800    0.000    0.000    0.000    0.000    0.000 
#    0.000    0.000    0.000    0.000    0.000    0.000 
#
# Total GULP energy -167810.494435 kJ/mol
# GULP energy per Si atom -5593.683148 kJ/mol
# Density = 2.265550 g / cm^3
# Si number density = 22.707185 Si / 1000 Ang^3
#
#
#
# Elastic Constant Matrix: (Units=GPa)
#
#
# Indices 1 2 3 4 5 6 
#
# 1 108.6317 6.6567 33.0788 0.0000 0.0000 0.0000
# 2 6.6567 27.4301 16.8870 0.0000 0.0000 0.0000
# 3 33.0788 16.8870 74.3868 0.0000 0.0000 0.0000
# 4 0.0000 0.0000 0.0000 33.8664 0.0000 0.0000
# 5 0.0000 0.0000 0.0000 0.0000 48.5524 0.0000
# 6 0.0000 0.0000 0.0000 0.0000 0.0000 33.4320
#
#
#
# Elastic Compliance Matrix: (Units=1/GPa)
#
#
# Indices 1 2 3 4 5 6 
#
# 1 0.010651 0.000385 -0.004824 0.000000 0.000000 0.000000
# 2 0.000385 0.042393 -0.009795 0.000000 0.000000 0.000000
# 3 -0.004824 -0.009795 0.017812 0.000000 0.000000 0.000000
# 4 0.000000 0.000000 0.000000 0.029528 0.000000 0.000000
# 5 0.000000 0.000000 0.000000 0.000000 0.020596 0.000000
# 6 0.000000 0.000000 0.000000 0.000000 0.000000 0.029911
#
#
# Mechanical properties :
#
#
# Convention : Reuss Voigt Hill
#
# Bulk Modulus (GPa) = 23.59153 35.96595 29.77874
# Shear Modulus (GPa) = 25.84140 33.42523 29.63331
#
# Velocity S-wave (km/s) = 3.37713 3.84084 3.61642
# Velocity P-wave (km/s) = 5.06149 5.96178 5.52999
#
# Compressibility (1/GPa) = 0.04238809
#
# Stress axis : x y z
#
# Youngs Moduli (GPa) = 93.89119 23.58875 56.14238
#
# Poissons Ratio (x) = -0.00908 0.27081
# Poissons Ratio (y) = -0.03614 0.54992
# Poissons Ratio (z) = 0.45289 0.23105
#
# Static dielectric constant tensor:
#      x y z
#    x 2.434640 0.000000 0.000000 
#    y 0.000000 1.838130 0.000000 
#    z 0.000000 0.000000 1.849820 
# 
# From -- ./inp_files/2560.got.cif
#   From: 2010.05.17/outbox.cif.g08.bks.cpg/sg32_2_cif.got.tgz:2560.got - 2010.06.03 17:12:27.
