data_PCOD9344225
_publ_section_title
;
Structure prediction by ZEFSAII (Michael W. Deem and Ramdas Pophale) SiO2 
 PCOD9344225
Probable space group: P B A 2
;
_chemical_formula_sum "Si O2"
_cell_formula_units_Z 18
_cell_length_a 8.674457
_cell_length_b 8.470653
_cell_length_c 8.091104
_cell_angle_alpha 90.000000
_cell_angle_beta 90.000000
_cell_angle_gamma 90.000000
_cell_volume 594.520690
_symmetry_space_group_name_H-M "P B A 2"
_symmetry_group_IT_number 32
_symmetry_cell_setting 'orthorhombic'
loop_
_space_group_symop_operation_xyz
x,y,z
-x,-y,z
1/2-x,1/2+y,z
1/2+x,1/2-y,z
loop_
_atom_site_type_symbol
_atom_site_label
_atom_site_fract_x
_atom_site_fract_y
_atom_site_fract_z
Si Si1 0.155090 0.760695 0.719290
Si Si2 0.000000 0.500000 0.316932
Si Si3 0.214033 0.517590 0.960767
Si Si4 0.683491 0.477210 0.488338
Si Si5 0.904435 0.768751 0.173345
O O1 0.096539 0.638946 0.864888
O O2 0.276108 0.651251 0.626281
O O3 0.232477 0.893179 0.828393
O O4 0.093265 0.872330 0.569113
O O5 0.144144 0.457678 0.437243
O O6 0.944853 0.329281 0.232369
O O7 0.168327 0.402987 0.114640
O O8 0.360072 0.621087 0.020617
O O9 0.627161 0.386570 0.324759
#
# Coordination Sequence:
#
# PCOD9344225 Si02
#       5
#     4   2   4   4   4
#     4   9  19  37  67  88 126 169 200 260 323 359
#     4  12  24  36  72  94 124 160 216 252 320 362
#     4   9  19  37  67  88 126 169 200 260 323 359
#     4  11  20  40  66  94 124 166 210 259 309 375
#     4  11  20  40  66  94 124 166 210 259 309 375
#
# _framework density 30.276492000000001
#
# number of rings (size 3 to 8) (size 9 to 14) (size 15 to 20)
#    0.000    1.778    4.444    0.000    0.000    0.000 
#    0.000   14.444    9.778    0.000    0.000    0.000 
#    0.000    0.000    0.000    0.000    0.000    0.000 
#
# Total GULP energy -100224.153799 kJ/mol
# GULP energy per Si atom -5568.008544 kJ/mol
# Density = 3.020758 g / cm^3
# Si number density = 30.276492 Si / 1000 Ang^3
#
#
#
# Elastic Constant Matrix: (Units=GPa)
#
#
# Indices 1 2 3 4 5 6 
#
# 1 63.3529 41.5230 19.7002 0.0000 0.0000 0.0000
# 2 41.5230 243.8127 86.8100 0.0000 0.0000 0.0000
# 3 19.7002 86.8100 196.4402 0.0000 0.0000 0.0000
# 4 0.0000 0.0000 0.0000 78.5511 0.0000 0.0000
# 5 0.0000 0.0000 0.0000 0.0000 -52.6238 0.0000
# 6 0.0000 0.0000 0.0000 0.0000 0.0000 46.1989
#
#
#
# Elastic Compliance Matrix: (Units=1/GPa)
#
#
# Indices 1 2 3 4 5 6 
#
# 1 0.017814 -0.002846 -0.000529 0.000000 0.000000 0.000000
# 2 -0.002846 0.005322 -0.002066 0.000000 0.000000 0.000000
# 3 -0.000529 -0.002066 0.006057 0.000000 0.000000 0.000000
# 4 0.000000 0.000000 0.000000 0.012731 0.000000 0.000000
# 5 0.000000 0.000000 0.000000 0.000000 -0.019003 0.000000
# 6 0.000000 0.000000 0.000000 0.000000 0.000000 0.021646
#
#
# Mechanical properties :
#
#
# Convention : Reuss Voigt Hill
#
# Bulk Modulus (GPa) = 54.61236 88.85245 71.73240
# Shear Modulus (GPa) = 81.23243 38.13008 59.68125
#
# Velocity S-wave (km/s) = 5.18541 3.55265 4.44465
# Velocity P-wave (km/s) = 7.34359 6.79993 7.07698
#
# Compressibility (1/GPa) = 0.01831087
#
# Stress axis : x y z
#
# Youngs Moduli (GPa) = 56.13525 187.90334 165.10194
#
# Poissons Ratio (x) = 0.53468 0.08734
# Poissons Ratio (y) = 0.15973 0.34118
# Poissons Ratio (z) = 0.02970 0.38829
#
# Static dielectric constant tensor:
#      x y z
#    x 4.645470 0.000000 0.000000 
#    y 0.000000 2.403100 0.000000 
#    z 0.000000 0.000000 3.614910 
# 
# From -- ./inp_files/2162.got.cif
#   From: 2010.05.17/outbox.cif.g08.bks.cpg/sg32_2_cif.got.tgz:2162.got - 2010.06.03 17:12:27.
