data_PCOD9344365
_publ_section_title
;
Structure prediction by ZEFSAII (Michael W. Deem and Ramdas Pophale) SiO2 
 PCOD9344365
Probable space group: P N A 21
;
_chemical_formula_sum "Si O2"
_cell_formula_units_Z 32
_cell_length_a 5.394893
_cell_length_b 7.975909
_cell_length_c 34.022663
_cell_angle_alpha 90.000000
_cell_angle_beta 90.000000
_cell_angle_gamma 90.000000
_cell_volume 1463.967142
_symmetry_space_group_name_H-M "P N A 21"
_symmetry_group_IT_number 33
_symmetry_cell_setting 'orthorhombic'
loop_
_space_group_symop_operation_xyz
x,y,z
-x,-y,1/2+z
1/2-x,1/2+y,1/2+z
1/2+x,1/2-y,z
loop_
_atom_site_type_symbol
_atom_site_label
_atom_site_fract_x
_atom_site_fract_y
_atom_site_fract_z
Si Si1 0.405020 0.346708 0.630310
Si Si2 0.351722 0.949447 0.826310
Si Si3 0.852416 0.940212 0.794551
Si Si4 0.507020 0.152591 0.409193
Si Si5 0.549330 0.148800 0.501298
Si Si6 0.041722 0.842268 0.579969
Si Si7 0.954986 0.284804 0.996006
Si Si8 0.547383 0.640392 0.220940
O O1 0.117686 0.295514 0.625827
O O2 0.481732 0.481250 0.598406
O O3 0.439997 0.409546 0.675089
O O4 0.585507 0.019921 0.803039
O O5 0.332716 0.754016 0.809793
O O6 0.421228 0.958355 0.872044
O O7 0.080264 0.018920 0.818602
O O8 0.921547 0.981130 0.749689
O O9 0.218577 0.202309 0.404873
O O10 0.544898 0.103376 0.454403
O O11 0.299912 0.250851 0.509974
O O12 0.547507 0.963100 0.517918
O O13 0.310921 0.775336 0.592266
O O14 0.043410 0.844135 0.532443
O O15 0.705390 0.248561 0.972911
O O16 0.783701 0.765215 0.227372
#
# Coordination Sequence:
#
# PCOD9344365 Si02
#       8
#     4   4   4   4   4   4   4   4
#     4  10  21  40  63  84 114 155 205 235 281 351
#     4  10  17  30  50  80 106 133 179 233 275 312
#     4  10  18  30  50  75 107 137 178 225 282 317
#     4  10  16  30  51  80 105 141 182 238 282 306
#     4  10  21  35  60  90 112 151 203 236 283 352
#     4  10  21  40  60  88 119 154 180 240 302 341
#     4  10  21  40  60  82 124 154 182 233 306 344
#     4  10  21  37  54  75 107 153 185 230 275 329
#
# _framework density 21.858414
#
# number of rings (size 3 to 8) (size 9 to 14) (size 15 to 20)
#    0.000    2.000    2.500    2.250    0.000    0.000 
#    4.500   15.000    0.000    4.500    0.000    0.000 
#    0.000    0.000    0.000    0.000    0.000    0.000 
#
# Total GULP energy -178346.599268 kJ/mol
# GULP energy per Si atom -5573.331227 kJ/mol
# Density = 2.180866 g / cm^3
# Si number density = 21.858414 Si / 1000 Ang^3
#
#
#
# Elastic Constant Matrix: (Units=GPa)
#
#
# Indices 1 2 3 4 5 6 
#
# 1 160.2549 21.5882 -10.2375 0.0000 0.0000 0.0000
# 2 21.5882 12.3703 4.0507 0.0000 0.0000 0.0000
# 3 -10.2375 4.0507 40.9072 0.0000 0.0000 0.0000
# 4 0.0000 0.0000 0.0000 31.7535 0.0000 0.0000
# 5 0.0000 0.0000 0.0000 0.0000 15.9138 0.0000
# 6 0.0000 0.0000 0.0000 0.0000 0.0000 21.1118
#
#
#
# Elastic Compliance Matrix: (Units=1/GPa)
#
#
# Indices 1 2 3 4 5 6 
#
# 1 0.008695 -0.016419 0.003802 0.000000 0.000000 0.000000
# 2 -0.016419 0.114552 -0.015452 0.000000 0.000000 0.000000
# 3 0.003802 -0.015452 0.026927 0.000000 0.000000 0.000000
# 4 0.000000 0.000000 0.000000 0.031493 0.000000 0.000000
# 5 0.000000 0.000000 0.000000 0.000000 0.062839 0.000000
# 6 0.000000 0.000000 0.000000 0.000000 0.000000 0.047367
#
#
# Mechanical properties :
#
#
# Convention : Reuss Voigt Hill
#
# Bulk Modulus (GPa) = 10.63425 27.14837 18.89131
# Shear Modulus (GPa) = 13.18027 26.96454 20.07240
#
# Velocity S-wave (km/s) = 2.45824 3.51607 3.03362
# Velocity P-wave (km/s) = 3.59623 5.37873 4.57513
#
# Compressibility (1/GPa) = 0.09403580
#
# Stress axis : x y z
#
# Youngs Moduli (GPa) = 115.01262 8.72967 37.13729
#
# Poissons Ratio (x) = 0.14333 -0.14119
# Poissons Ratio (y) = 1.88834 0.57385
# Poissons Ratio (z) = -0.43725 0.13489
#
# Static dielectric constant tensor:
#      x y z
#    x 1.900230 0.000000 0.000000 
#    y 0.000000 1.660850 0.000000 
#    z 0.000000 0.000000 1.820540 
# 
# From -- ./inp_files/9365.got.cif
#   From: 2010.05.17/outbox.cif.g08.bks.cpg/sg33_5_cif.got.tgz:9365.got - 2010.06.03 17:15:25.
