data_PCOD9344276
_publ_section_title
;
Structure prediction by ZEFSAII (Michael W. Deem and Ramdas Pophale) SiO2 
 PCOD9344276
Probable space group: P B A 2
;
_chemical_formula_sum "Si O2"
_cell_formula_units_Z 26
_cell_length_a 10.332522
_cell_length_b 9.023209
_cell_length_c 11.627094
_cell_angle_alpha 90.000000
_cell_angle_beta 90.000000
_cell_angle_gamma 90.000000
_cell_volume 1084.023105
_symmetry_space_group_name_H-M "P B A 2"
_symmetry_group_IT_number 32
_symmetry_cell_setting 'orthorhombic'
loop_
_space_group_symop_operation_xyz
x,y,z
-x,-y,z
1/2-x,1/2+y,z
1/2+x,1/2-y,z
loop_
_atom_site_type_symbol
_atom_site_label
_atom_site_fract_x
_atom_site_fract_y
_atom_site_fract_z
Si Si1 0.804227 0.385446 0.671620
Si Si2 0.624562 0.972688 0.982693
Si Si3 0.354336 0.026726 0.430454
Si Si4 0.707746 0.273756 0.300231
Si Si5 0.500000 0.500000 0.247826
Si Si6 0.410457 0.817268 0.760274
Si Si7 0.177611 0.826887 0.078248
O O1 0.783981 0.385980 0.534805
O O2 0.680052 0.326218 0.742369
O O3 0.831994 0.559543 0.688428
O O4 0.940423 0.309646 0.714928
O O5 0.591648 0.096102 0.882856
O O6 0.500000 0.000000 0.064018
O O7 0.762787 0.029272 0.020843
O O8 0.640287 0.795464 0.984345
O O9 0.342624 0.143652 0.327491
O O10 0.500000 0.000000 0.470051
O O11 0.307826 0.870663 0.378579
O O12 0.601277 0.402049 0.319809
O O13 0.713427 0.234060 0.166020
O O14 0.431164 0.383791 0.163759
#
# Coordination Sequence:
#
# PCOD9344276 Si02
#       7
#     4   4   4   4   2   4   4
#     4  11  24  49  73 108 149 189 252 315 374 454
#     4  12  25  44  75 103 146 197 245 310 383 443
#     4  12  25  44  75 103 146 197 245 310 383 443
#     4  12  25  46  69 108 146 194 252 306 372 458
#     4  12  24  48  72 104 158 196 254 306 372 448
#     4  11  24  49  73 108 149 189 252 315 374 454
#     4  12  25  46  69 108 146 194 252 306 372 458
#
# _framework density 23.984729999999999
#
# number of rings (size 3 to 8) (size 9 to 14) (size 15 to 20)
#    0.000    0.308    6.154    3.692    0.000    1.846 
#    0.000    0.000    0.000    0.000    0.000    0.000 
#    0.000    0.000    0.000    0.000    0.000    0.000 
#
# Total GULP energy -144863.930183 kJ/mol
# GULP energy per Si atom -5571.689622 kJ/mol
# Density = 2.393014 g / cm^3
# Si number density = 23.984730 Si / 1000 Ang^3
#
#
#
# Elastic Constant Matrix: (Units=GPa)
#
#
# Indices 1 2 3 4 5 6 
#
# 1 71.4447 35.7721 25.7129 0.0000 0.0000 0.0000
# 2 35.7721 115.3029 44.0695 0.0000 0.0000 0.0000
# 3 25.7129 44.0695 88.3084 0.0000 0.0000 0.0000
# 4 0.0000 0.0000 0.0000 32.7626 0.0000 0.0000
# 5 0.0000 0.0000 0.0000 0.0000 25.8368 0.0000
# 6 0.0000 0.0000 0.0000 0.0000 0.0000 48.2225
#
#
#
# Elastic Compliance Matrix: (Units=1/GPa)
#
#
# Indices 1 2 3 4 5 6 
#
# 1 0.017147 -0.004216 -0.002889 0.000000 0.000000 0.000000
# 2 -0.004216 0.011753 -0.004638 0.000000 0.000000 0.000000
# 3 -0.002889 -0.004638 0.014480 0.000000 0.000000 0.000000
# 4 0.000000 0.000000 0.000000 0.030523 0.000000 0.000000
# 5 0.000000 0.000000 0.000000 0.000000 0.038704 0.000000
# 6 0.000000 0.000000 0.000000 0.000000 0.000000 0.020737
#
#
# Mechanical properties :
#
#
# Convention : Reuss Voigt Hill
#
# Bulk Modulus (GPa) = 50.26355 54.01833 52.14094
# Shear Modulus (GPa) = 30.58823 32.66449 31.62636
#
# Velocity S-wave (km/s) = 3.57504 3.69438 3.63520
# Velocity P-wave (km/s) = 6.16791 6.38504 6.27742
#
# Compressibility (1/GPa) = 0.01989513
#
# Stress axis : x y z
#
# Youngs Moduli (GPa) = 58.31795 85.08230 69.06237
#
# Poissons Ratio (x) = 0.35868 0.19952
# Poissons Ratio (y) = 0.24585 0.32030
# Poissons Ratio (z) = 0.16848 0.39460
#
# Static dielectric constant tensor:
#      x y z
#    x 1.991410 0.000000 0.000000 
#    y 0.000000 1.914050 0.000000 
#    z 0.000000 0.000000 2.036650 
# 
# From -- ./inp_files/3847.got.cif
#   From: 2010.05.17/outbox.cif.g08.bks.cpg/sg32_2_cif.got.tgz:3847.got - 2010.06.03 17:12:27.
