data_PCOD9344267
_publ_section_title
;
Structure prediction by ZEFSAII (Michael W. Deem and Ramdas Pophale) SiO2 
 PCOD9344267
Probable space group: P B A 2
;
_chemical_formula_sum "Si O2"
_cell_formula_units_Z 20
_cell_length_a 9.198587
_cell_length_b 8.462844
_cell_length_c 10.256967
_cell_angle_alpha 90.000000
_cell_angle_beta 90.000000
_cell_angle_gamma 90.000000
_cell_volume 798.465974
_symmetry_space_group_name_H-M "P B A 2"
_symmetry_group_IT_number 32
_symmetry_cell_setting 'orthorhombic'
loop_
_space_group_symop_operation_xyz
x,y,z
-x,-y,z
1/2-x,1/2+y,z
1/2+x,1/2-y,z
loop_
_atom_site_type_symbol
_atom_site_label
_atom_site_fract_x
_atom_site_fract_y
_atom_site_fract_z
Si Si1 0.716713 0.045766 0.923840
Si Si2 0.661830 0.642592 0.377147
Si Si3 0.562274 0.181212 0.541368
Si Si4 0.661298 0.924496 0.207205
Si Si5 0.538661 0.765981 0.827493
O O1 0.591051 0.181161 0.924144
O O2 0.866495 0.119241 0.875292
O O3 0.651667 0.913644 0.826911
O O4 0.717783 0.965668 0.064689
O O5 0.513242 0.694865 0.443477
O O6 0.729795 0.484686 0.318978
O O7 0.772378 0.679306 0.495698
O O8 0.656663 0.741807 0.241752
O O9 0.533133 0.243055 0.686239
O O10 0.500000 0.000000 0.530169
O O11 0.500000 0.000000 0.222171
#
# Coordination Sequence:
#
# PCOD9344267 Si02
#       5
#     4   4   4   4   4
#     4  11  24  45  72 101 139 182 227 287 349 408
#     4  12  24  44  70  98 142 186 226 284 346 404
#     4  12  24  46  69 102 144 180 230 291 345 407
#     4  12  24  46  69 102 144 180 230 291 345 407
#     4  11  24  45  72 101 139 182 227 287 349 408
#
# _framework density 25.048031999999999
#
# number of rings (size 3 to 8) (size 9 to 14) (size 15 to 20)
#    0.000    0.400    8.000    2.400    0.000    1.600 
#    0.000    4.000    0.000    0.000    0.000    0.000 
#    0.000    0.000    0.000    0.000    0.000    0.000 
#
# Total GULP energy -111889.521843 kJ/mol
# GULP energy per Si atom -5594.476092 kJ/mol
# Density = 2.499102 g / cm^3
# Si number density = 25.048032 Si / 1000 Ang^3
#
#
#
# Elastic Constant Matrix: (Units=GPa)
#
#
# Indices 1 2 3 4 5 6 
#
# 1 110.5797 33.4522 29.8321 0.0000 0.0000 0.0000
# 2 33.4522 21.8178 10.4394 0.0000 0.0000 0.0000
# 3 29.8321 10.4394 157.2091 0.0000 0.0000 0.0000
# 4 0.0000 0.0000 0.0000 27.3828 0.0000 0.0000
# 5 0.0000 0.0000 0.0000 0.0000 32.8587 0.0000
# 6 0.0000 0.0000 0.0000 0.0000 0.0000 37.5039
#
#
#
# Elastic Compliance Matrix: (Units=1/GPa)
#
#
# Indices 1 2 3 4 5 6 
#
# 1 0.017232 -0.025671 -0.001565 0.000000 0.000000 0.000000
# 2 -0.025671 0.085583 -0.000812 0.000000 0.000000 0.000000
# 3 -0.001565 -0.000812 0.006712 0.000000 0.000000 0.000000
# 4 0.000000 0.000000 0.000000 0.036519 0.000000 0.000000
# 5 0.000000 0.000000 0.000000 0.000000 0.030433 0.000000
# 6 0.000000 0.000000 0.000000 0.000000 0.000000 0.026664
#
#
# Mechanical properties :
#
#
# Convention : Reuss Voigt Hill
#
# Bulk Modulus (GPa) = 18.71604 48.56155 33.63880
# Shear Modulus (GPa) = 18.04729 33.94125 25.99427
#
# Velocity S-wave (km/s) = 2.68714 3.68509 3.22495
# Velocity P-wave (km/s) = 4.13714 6.12666 5.22742
#
# Compressibility (1/GPa) = 0.05343011
#
# Stress axis : x y z
#
# Youngs Moduli (GPa) = 58.03310 11.68453 148.98994
#
# Poissons Ratio (x) = 0.29996 0.23319
# Poissons Ratio (y) = 1.48979 0.12093
# Poissons Ratio (z) = 0.09083 0.00948
#
# Static dielectric constant tensor:
#      x y z
#    x 2.287170 0.000000 0.000000 
#    y 0.000000 2.166180 0.000000 
#    z 0.000000 0.000000 1.917290 
# 
# From -- ./inp_files/3631.got.cif
#   From: 2010.05.17/outbox.cif.g08.bks.cpg/sg32_2_cif.got.tgz:3631.got - 2010.06.03 17:12:27.
