data_PCOD9344373
_publ_section_title
;
Structure prediction by ZEFSAII (Michael W. Deem and Ramdas Pophale) SiO2 
 PCOD9344373
Probable space group: P N A 21
;
_chemical_formula_sum "Si O2"
_cell_formula_units_Z 28
_cell_length_a 8.814697
_cell_length_b 17.149186
_cell_length_c 8.124894
_cell_angle_alpha 90.000000
_cell_angle_beta 90.000000
_cell_angle_gamma 90.000000
_cell_volume 1228.198613
_symmetry_space_group_name_H-M "P N A 21"
_symmetry_group_IT_number 33
_symmetry_cell_setting 'orthorhombic'
loop_
_space_group_symop_operation_xyz
x,y,z
-x,-y,1/2+z
1/2-x,1/2+y,1/2+z
1/2+x,1/2-y,z
loop_
_atom_site_type_symbol
_atom_site_label
_atom_site_fract_x
_atom_site_fract_y
_atom_site_fract_z
Si Si1 0.806638 0.857963 0.955790
Si Si2 0.780722 0.670230 0.208517
Si Si3 0.959124 0.250530 0.311116
Si Si4 0.277390 0.988776 0.320473
Si Si5 0.390241 0.015291 0.952993
Si Si6 0.858905 0.334255 0.776869
Si Si7 0.276312 0.860160 0.812622
O O1 0.669754 0.810329 0.869506
O O2 0.946663 0.798905 0.947501
O O3 0.830971 0.940279 0.867662
O O4 0.742972 0.873153 0.135026
O O5 0.712575 0.597923 0.311502
O O6 0.707780 0.748110 0.280552
O O7 0.962929 0.668977 0.232626
O O8 0.759153 0.661434 0.010081
O O9 0.870309 0.178557 0.226170
O O10 0.084512 0.309326 0.239138
O O11 0.428714 0.993558 0.431605
O O12 0.339859 0.996943 0.135842
O O13 0.347328 0.104942 0.923592
O O14 0.314765 0.951611 0.827742
#
# Coordination Sequence:
#
# PCOD9344373 Si02
#       7
#     4   4   4   4   4   4   4
#     4  11  18  35  56  86 103 141 186 228 265 324
#     4  10  18  32  57  77 106 141 185 218 267 322
#     4  10  18  29  59  80 107 139 187 223 262 329
#     4  10  20  36  56  81 110 145 184 225 271 325
#     4  10  21  34  57  80 113 143 182 225 275 323
#     4  11  19  35  58  82 104 147 184 228 266 327
#     4  10  16  33  51  86 101 138 184 227 256 326
#
# _framework density 22.797615
#
# number of rings (size 3 to 8) (size 9 to 14) (size 15 to 20)
#    0.000    1.714    5.714    1.714    0.000    0.000 
#    2.571    2.857    3.143    0.000    0.000    0.000 
#    0.000    0.000    0.000    0.000    0.000    0.000 
#
# Total GULP energy -156087.753996 kJ/mol
# GULP energy per Si atom -5574.562643 kJ/mol
# Density = 2.274573 g / cm^3
# Si number density = 22.797615 Si / 1000 Ang^3
#
#
#
# Elastic Constant Matrix: (Units=GPa)
#
#
# Indices 1 2 3 4 5 6 
#
# 1 54.1684 13.6455 -1.8053 0.0000 0.0000 0.0000
# 2 13.6455 184.8529 29.7733 0.0000 0.0000 0.0000
# 3 -1.8053 29.7733 22.5115 0.0000 0.0000 0.0000
# 4 0.0000 0.0000 0.0000 28.3174 0.0000 0.0000
# 5 0.0000 0.0000 0.0000 0.0000 10.3087 0.0000
# 6 0.0000 0.0000 0.0000 0.0000 0.0000 139.3065
#
#
#
# Elastic Compliance Matrix: (Units=1/GPa)
#
#
# Indices 1 2 3 4 5 6 
#
# 1 0.019136 -0.002109 0.004324 0.000000 0.000000 0.000000
# 2 -0.002109 0.007106 -0.009568 0.000000 0.000000 0.000000
# 3 0.004324 -0.009568 0.057423 0.000000 0.000000 0.000000
# 4 0.000000 0.000000 0.000000 0.035314 0.000000 0.000000
# 5 0.000000 0.000000 0.000000 0.000000 0.097006 0.000000
# 6 0.000000 0.000000 0.000000 0.000000 0.000000 0.007178
#
#
# Mechanical properties :
#
#
# Convention : Reuss Voigt Hill
#
# Bulk Modulus (GPa) = 14.50123 38.30664 26.40394
# Shear Modulus (GPa) = 19.16762 50.24781 34.70771
#
# Velocity S-wave (km/s) = 2.90275 4.69986 3.90606
# Velocity P-wave (km/s) = 4.19634 6.80375 5.65244
#
# Compressibility (1/GPa) = 0.06895966
#
# Stress axis : x y z
#
# Youngs Moduli (GPa) = 52.25656 140.71706 17.41466
#
# Poissons Ratio (x) = 0.29678 -0.07530
# Poissons Ratio (y) = 0.11021 0.16662
# Poissons Ratio (z) = -0.22596 1.34638
#
# Static dielectric constant tensor:
#      x y z
#    x 1.861780 0.000000 0.000000 
#    y 0.000000 1.910950 0.000000 
#    z 0.000000 0.000000 1.891480 
# 
# From -- ./inp_files/3318.got.cif
#   From: 2010.05.17/outbox.cif.g08.bks.cpg/sg33_2_cif.got.tgz:3318.got - 2010.06.03 17:15:25.
