data_PCOD9344390
_publ_section_title
;
Structure prediction by ZEFSAII (Michael W. Deem and Ramdas Pophale) SiO2 
 PCOD9344390
Probable space group: P N A 21
;
_chemical_formula_sum "Si O2"
_cell_formula_units_Z 32
_cell_length_a 9.193817
_cell_length_b 20.305407
_cell_length_c 7.302186
_cell_angle_alpha 90.000000
_cell_angle_beta 90.000000
_cell_angle_gamma 90.000000
_cell_volume 1363.202723
_symmetry_space_group_name_H-M "P N A 21"
_symmetry_group_IT_number 33
_symmetry_cell_setting 'orthorhombic'
loop_
_space_group_symop_operation_xyz
x,y,z
-x,-y,1/2+z
1/2-x,1/2+y,1/2+z
1/2+x,1/2-y,z
loop_
_atom_site_type_symbol
_atom_site_label
_atom_site_fract_x
_atom_site_fract_y
_atom_site_fract_z
Si Si1 0.481631 0.684088 0.030140
Si Si2 0.231298 0.461646 0.890013
Si Si3 0.045430 0.328254 0.567535
Si Si4 0.918785 0.945800 0.389207
Si Si5 0.184945 0.321136 0.965050
Si Si6 0.735892 0.900551 0.048404
Si Si7 0.261326 0.419846 0.484997
Si Si8 0.023079 0.191019 0.975467
O O1 0.498148 0.759688 0.975906
O O2 0.332598 0.654518 0.948318
O O3 0.610588 0.634192 0.985953
O O4 0.475762 0.690327 0.252205
O O5 0.408444 0.458681 0.897927
O O6 0.163947 0.399645 0.999848
O O7 0.201639 0.445744 0.680172
O O8 0.184702 0.534295 0.945104
O O9 0.153084 0.316064 0.742352
O O10 0.124150 0.376432 0.423104
O O11 0.899721 0.363602 0.638333
O O12 0.854752 0.926106 0.193049
O O13 0.902135 0.880277 0.516332
O O14 0.833522 0.013585 0.415615
O O15 0.095241 0.258908 0.038758
O O16 0.352618 0.310396 0.018965
#
# Coordination Sequence:
#
# PCOD9344390 Si02
#       8
#     4   4   4   4   4   4   4   4
#     4  10  17  32  53  75 103 137 177 221 260 308
#     4  10  18  36  52  80 107 140 177 223 264 322
#     4  10  21  31  50  84 109 133 176 233 268 301
#     4  10  19  33  55  79 103 140 186 211 267 327
#     4   9  18  30  51  74 108 131 175 222 264 300
#     4  11  21  33  56  81 105 144 178 216 272 320
#     4  11  19  35  54  79 109 139 174 224 266 319
#     4   9  17  30  49  78 100 134 173 224 259 307
#
# _framework density 23.474129999999999
#
# number of rings (size 3 to 8) (size 9 to 14) (size 15 to 20)
#    0.000    2.000    6.250    0.750    8.750    2.000 
#    0.000    0.000    0.000    3.000    0.000    0.000 
#    0.000    0.000    0.000    0.000    0.000    0.000 
#
# Total GULP energy -178173.625127 kJ/mol
# GULP energy per Si atom -5567.925785 kJ/mol
# Density = 2.342070 g / cm^3
# Si number density = 23.474130 Si / 1000 Ang^3
#
#
#
# Elastic Constant Matrix: (Units=GPa)
#
#
# Indices 1 2 3 4 5 6 
#
# 1 53.2750 42.3572 -3.7401 0.0000 0.0000 0.0000
# 2 42.3572 177.3774 7.3351 0.0000 0.0000 0.0000
# 3 -3.7401 7.3351 29.5589 0.0000 0.0000 0.0000
# 4 0.0000 0.0000 0.0000 15.5735 0.0000 0.0000
# 5 0.0000 0.0000 0.0000 0.0000 6.6416 0.0000
# 6 0.0000 0.0000 0.0000 0.0000 0.0000 33.6055
#
#
#
# Elastic Compliance Matrix: (Units=1/GPa)
#
#
# Indices 1 2 3 4 5 6 
#
# 1 0.023736 -0.005852 0.004456 0.000000 0.000000 0.000000
# 2 -0.005852 0.007139 -0.002512 0.000000 0.000000 0.000000
# 3 0.004456 -0.002512 0.035018 0.000000 0.000000 0.000000
# 4 0.000000 0.000000 0.000000 0.064212 0.000000 0.000000
# 5 0.000000 0.000000 0.000000 0.000000 0.150567 0.000000
# 6 0.000000 0.000000 0.000000 0.000000 0.000000 0.029757
#
#
# Mechanical properties :
#
#
# Convention : Reuss Voigt Hill
#
# Bulk Modulus (GPa) = 17.21890 39.12398 28.17144
# Shear Modulus (GPa) = 14.81021 25.44805 20.12913
#
# Velocity S-wave (km/s) = 2.51453 3.29612 2.93149
# Velocity P-wave (km/s) = 3.97262 5.58471 4.84616
#
# Compressibility (1/GPa) = 0.05807571
#
# Stress axis : x y z
#
# Youngs Moduli (GPa) = 42.12940 140.07322 28.55679
#
# Poissons Ratio (x) = 0.81977 -0.12724
# Poissons Ratio (y) = 0.24656 0.07174
# Poissons Ratio (z) = -0.18771 0.35188
#
# Static dielectric constant tensor:
#      x y z
#    x 1.921340 0.000000 0.000000 
#    y 0.000000 2.271520 0.000000 
#    z 0.000000 0.000000 2.011160 
# 
# From -- ./inp_files/6076.got.cif
#   From: 2010.05.17/outbox.cif.g08.bks.cpg/sg33_4_cif.got.tgz:6076.got - 2010.06.03 17:15:25.
