data_PCOD9344927
_publ_section_title
;
Structure prediction by ZEFSAII (Michael W. Deem and Ramdas Pophale) SiO2 
 PCOD9344927
Probable space group: P N A 21
;
_chemical_formula_sum "Si O2"
_cell_formula_units_Z 32
_cell_length_a 18.404992
_cell_length_b 5.063576
_cell_length_c 14.978487
_cell_angle_alpha 90.000000
_cell_angle_beta 90.000000
_cell_angle_gamma 90.000000
_cell_volume 1395.921231
_symmetry_space_group_name_H-M "P N A 21"
_symmetry_group_IT_number 33
_symmetry_cell_setting 'orthorhombic'
loop_
_space_group_symop_operation_xyz
x,y,z
-x,-y,1/2+z
1/2-x,1/2+y,1/2+z
1/2+x,1/2-y,z
loop_
_atom_site_type_symbol
_atom_site_label
_atom_site_fract_x
_atom_site_fract_y
_atom_site_fract_z
Si Si1 0.443164 0.983354 0.265500
Si Si2 0.722301 0.860778 0.253309
Si Si3 0.587133 0.214696 0.320725
Si Si4 0.693565 0.056247 0.060885
Si Si5 0.294462 0.550654 0.909939
Si Si6 0.101552 0.945063 0.025318
Si Si7 0.337244 0.357970 0.354284
Si Si8 0.995594 0.028689 0.176357
O O1 0.514174 0.041360 0.327958
O O2 0.374255 0.093781 0.317694
O O3 0.455002 0.193668 0.184615
O O4 0.449161 0.699866 0.222001
O O5 0.652775 0.036873 0.283506
O O6 0.718533 0.893448 0.147452
O O7 0.801359 0.974242 0.277056
O O8 0.715089 0.602100 0.315423
O O9 0.622816 0.351573 0.407012
O O10 0.563295 0.426666 0.245402
O O11 0.655116 0.339988 0.071377
O O12 0.630275 0.856532 0.026856
O O13 0.761431 0.101812 0.993983
O O14 0.236634 0.790379 0.908159
O O15 0.027607 0.963729 0.080170
O O16 0.106601 0.006283 0.919404
#
# Coordination Sequence:
#
# PCOD9344927 Si02
#       8
#     4   4   4   4   4   4   4   4
#     4  10  22  38  60  88 118 164 200 255 310 374
#     4  11  20  38  63  92 123 162 203 264 318 369
#     4   9  19  34  61  87 114 159 203 247 305 365
#     4  11  22  35  61  91 126 156 209 256 315 373
#     4  10  21  36  60  93 124 159 209 260 316 385
#     4  11  20  40  60  94 117 164 213 257 295 388
#     4  10  24  38  61  92 130 161 204 263 329 370
#     4  10  20  37  64  85 114 157 213 248 292 372
#
# _framework density 22.923929000000001
#
# number of rings (size 3 to 8) (size 9 to 14) (size 15 to 20)
#    0.750    1.000    2.500    3.000    3.500    0.000 
#    0.000    1.250    5.500    0.000    0.000    0.000 
#    0.000    0.000    0.000    0.000    0.000    0.000 
#
# Total GULP energy -178181.530246 kJ/mol
# GULP energy per Si atom -5568.172820 kJ/mol
# Density = 2.287175 g / cm^3
# Si number density = 22.923929 Si / 1000 Ang^3
#
#
#
# Elastic Constant Matrix: (Units=GPa)
#
#
# Indices 1 2 3 4 5 6 
#
# 1 59.5734 13.8197 -6.1414 0.0000 0.0000 0.0000
# 2 13.8197 76.4133 -6.9601 0.0000 0.0000 0.0000
# 3 -6.1414 -6.9601 46.1095 0.0000 0.0000 0.0000
# 4 0.0000 0.0000 0.0000 21.0500 0.0000 0.0000
# 5 0.0000 0.0000 0.0000 0.0000 15.6551 0.0000
# 6 0.0000 0.0000 0.0000 0.0000 0.0000 31.3225
#
#
#
# Elastic Compliance Matrix: (Units=1/GPa)
#
#
# Indices 1 2 3 4 5 6 
#
# 1 0.017684 -0.003025 0.001899 0.000000 0.000000 0.000000
# 2 -0.003025 0.013787 0.001678 0.000000 0.000000 0.000000
# 3 0.001899 0.001678 0.022194 0.000000 0.000000 0.000000
# 4 0.000000 0.000000 0.000000 0.047506 0.000000 0.000000
# 5 0.000000 0.000000 0.000000 0.000000 0.063877 0.000000
# 6 0.000000 0.000000 0.000000 0.000000 0.000000 0.031926
#
#
# Mechanical properties :
#
#
# Convention : Reuss Voigt Hill
#
# Bulk Modulus (GPa) = 18.25917 20.39253 19.32585
# Shear Modulus (GPa) = 23.35081 25.69738 24.52410
#
# Velocity S-wave (km/s) = 3.19505 3.35174 3.27433
# Velocity P-wave (km/s) = 4.64688 4.88815 4.76904
#
# Compressibility (1/GPa) = 0.05476702
#
# Stress axis : x y z
#
# Youngs Moduli (GPa) = 56.54979 72.53369 45.05785
#
# Poissons Ratio (x) = 0.21943 -0.08555
# Poissons Ratio (y) = 0.17108 -0.07561
# Poissons Ratio (z) = -0.10737 -0.12172
#
# Static dielectric constant tensor:
#      x y z
#    x 1.873120 0.000000 0.000000 
#    y 0.000000 1.919000 0.000000 
#    z 0.000000 0.000000 2.033900 
# 
# From -- ./inp_files/8313.got.cif
#   From: 2010.05.17/outbox.cif.g08.bks.cpg/sg33_5_cif.got.tgz:8313.got - 2010.06.03 17:15:25.
