data_PCOD9344519
_publ_section_title
;
Structure prediction by ZEFSAII (Michael W. Deem and Ramdas Pophale) SiO2 
 PCOD9344519
Probable space group: P N A 21
;
_chemical_formula_sum "Si O2"
_cell_formula_units_Z 28
_cell_length_a 13.685358
_cell_length_b 8.107829
_cell_length_c 9.036051
_cell_angle_alpha 90.000000
_cell_angle_beta 90.000000
_cell_angle_gamma 90.000000
_cell_volume 1002.627049
_symmetry_space_group_name_H-M "P N A 21"
_symmetry_group_IT_number 33
_symmetry_cell_setting 'orthorhombic'
loop_
_space_group_symop_operation_xyz
x,y,z
-x,-y,1/2+z
1/2-x,1/2+y,1/2+z
1/2+x,1/2-y,z
loop_
_atom_site_type_symbol
_atom_site_label
_atom_site_fract_x
_atom_site_fract_y
_atom_site_fract_z
Si Si1 0.603657 0.184141 0.913900
Si Si2 0.200477 0.976123 0.917977
Si Si3 0.003630 0.783693 0.675189
Si Si4 0.212626 0.622984 0.918053
Si Si5 0.075534 0.005404 0.417970
Si Si6 0.574602 0.014528 0.528694
Si Si7 0.580495 0.728918 0.142631
O O1 0.646380 0.361073 0.855369
O O2 0.681629 0.053966 0.857799
O O3 0.502962 0.069558 0.912004
O O4 0.596269 0.226880 0.091002
O O5 0.989513 0.858828 0.834490
O O6 0.197707 0.798089 0.835949
O O7 0.315192 0.989791 0.964695
O O8 0.133587 0.924920 0.058850
O O9 0.044857 0.926878 0.571125
O O10 0.068753 0.623437 0.655928
O O11 0.325449 0.599636 0.940784
O O12 0.157093 0.637056 0.077736
O O13 0.076452 0.848670 0.305711
O O14 0.522737 0.180847 0.596488
#
# Coordination Sequence:
#
# PCOD9344519 Si02
#       7
#     4   4   4   4   4   4   4
#     4   9  19  44  64 106 150 189 260 325 371 475
#     4  10  18  40  73  98 145 205 250 317 392 455
#     4  10  23  44  71 109 156 201 257 335 387 489
#     4   9  22  41  71 100 143 201 255 323 387 461
#     4  12  23  46  75 112 157 204 268 331 402 488
#     4   9  20  42  70 109 150 203 260 320 404 468
#     4   9  21  43  68 102 149 193 260 323 375 474
#
# _framework density 27.926635999999998
#
# number of rings (size 3 to 8) (size 9 to 14) (size 15 to 20)
#    1.714    0.571    1.429    0.857    2.000    0.000 
#   10.286    2.857    0.000    0.000    0.000    0.000 
#    0.000    0.000    0.000    0.000    0.000    0.000 
#
# Total GULP energy -155909.410619 kJ/mol
# GULP energy per Si atom -5568.193236 kJ/mol
# Density = 2.786307 g / cm^3
# Si number density = 27.926636 Si / 1000 Ang^3
#
#
#
# Elastic Constant Matrix: (Units=GPa)
#
#
# Indices 1 2 3 4 5 6 
#
# 1 201.1404 86.4652 43.8740 0.0000 0.0000 0.0000
# 2 86.4652 206.6066 29.4431 0.0000 0.0000 0.0000
# 3 43.8740 29.4431 73.8652 0.0000 0.0000 0.0000
# 4 0.0000 0.0000 0.0000 43.6673 0.0000 0.0000
# 5 0.0000 0.0000 0.0000 0.0000 21.7171 0.0000
# 6 0.0000 0.0000 0.0000 0.0000 0.0000 69.1546
#
#
#
# Elastic Compliance Matrix: (Units=1/GPa)
#
#
# Indices 1 2 3 4 5 6 
#
# 1 0.006637 -0.002349 -0.003006 0.000000 0.000000 0.000000
# 2 -0.002349 0.005963 -0.000982 0.000000 0.000000 0.000000
# 3 -0.003006 -0.000982 0.015715 0.000000 0.000000 0.000000
# 4 0.000000 0.000000 0.000000 0.022900 0.000000 0.000000
# 5 0.000000 0.000000 0.000000 0.000000 0.046047 0.000000
# 6 0.000000 0.000000 0.000000 0.000000 0.000000 0.014460
#
#
# Mechanical properties :
#
#
# Convention : Reuss Voigt Hill
#
# Bulk Modulus (GPa) = 63.93136 89.01966 76.47551
# Shear Modulus (GPa) = 38.57723 48.36313 43.47018
#
# Velocity S-wave (km/s) = 3.72072 4.16600 3.94964
# Velocity P-wave (km/s) = 6.43433 7.42200 6.94575
#
# Compressibility (1/GPa) = 0.01564178
#
# Stress axis : x y z
#
# Youngs Moduli (GPa) = 150.66528 167.69549 63.63418
#
# Poissons Ratio (x) = 0.39397 0.19128
# Poissons Ratio (y) = 0.35396 0.06246
# Poissons Ratio (z) = 0.45288 0.16460
#
# Static dielectric constant tensor:
#      x y z
#    x 2.249540 0.000000 0.000000 
#    y 0.000000 2.247680 0.000000 
#    z 0.000000 0.000000 2.184610 
# 
# From -- ./inp_files/8119.got.cif
#   From: 2010.05.17/outbox.cif.g08.bks.cpg/sg33_5_cif.got.tgz:8119.got - 2010.06.03 17:15:25.
