data_PCOD9344697
_publ_section_title
;
Structure prediction by ZEFSAII (Michael W. Deem and Ramdas Pophale) SiO2 
 PCOD9344697
Probable space group: P N A 21
;
_chemical_formula_sum "Si O2"
_cell_formula_units_Z 32
_cell_length_a 8.486727
_cell_length_b 14.663422
_cell_length_c 11.916244
_cell_angle_alpha 90.000000
_cell_angle_beta 90.000000
_cell_angle_gamma 90.000000
_cell_volume 1482.910543
_symmetry_space_group_name_H-M "P N A 21"
_symmetry_group_IT_number 33
_symmetry_cell_setting 'orthorhombic'
loop_
_space_group_symop_operation_xyz
x,y,z
-x,-y,1/2+z
1/2-x,1/2+y,1/2+z
1/2+x,1/2-y,z
loop_
_atom_site_type_symbol
_atom_site_label
_atom_site_fract_x
_atom_site_fract_y
_atom_site_fract_z
Si Si1 0.584516 0.841420 0.982260
Si Si2 0.414057 0.339591 0.188343
Si Si3 0.098535 0.521661 0.437317
Si Si4 0.968343 0.803769 0.358257
Si Si5 0.915076 0.678217 0.568106
Si Si6 0.431292 0.656059 0.927280
Si Si7 0.161815 0.646180 0.239675
Si Si8 0.036381 0.034044 0.007314
O O1 0.490871 0.747013 0.986948
O O2 0.743838 0.834590 0.908561
O O3 0.472586 0.921590 0.940022
O O4 0.634430 0.863282 0.109264
O O5 0.236394 0.346273 0.142514
O O6 0.473413 0.241044 0.144999
O O7 0.458876 0.349695 0.317311
O O8 0.511461 0.419050 0.126301
O O9 0.093949 0.563036 0.312401
O O10 0.279677 0.525387 0.477118
O O11 0.999702 0.589653 0.517535
O O12 0.885323 0.744622 0.459092
O O13 0.843288 0.842721 0.271273
O O14 0.039752 0.891603 0.421387
O O15 0.082414 0.736682 0.292524
O O16 0.458314 0.563610 0.995464
#
# Coordination Sequence:
#
# PCOD9344697 Si02
#       8
#     4   4   4   4   4   4   4   4
#     4  12  26  43  60  89 125 164 211 259 315 381
#     4  11  22  39  65  92 127 168 203 261 320 363
#     4  10  23  41  64  94 124 161 213 260 310 379
#     4   9  18  36  62  93 121 153 204 251 303 369
#     4  10  19  37  64  95 124 159 209 258 310 376
#     4  12  27  43  61  90 126 166 213 260 313 381
#     4  10  21  38  64  89 122 162 195 254 313 356
#     4  10  22  41  62  92 123 159 210 259 308 379
#
# _framework density 21.579184000000001
#
# number of rings (size 3 to 8) (size 9 to 14) (size 15 to 20)
#    0.000    1.500    0.000    6.750    0.000    8.000 
#    0.000    0.000    0.000    0.000    0.000    0.000 
#    0.000    0.000    0.000    0.000    0.000    0.000 
#
# Total GULP energy -178976.259942 kJ/mol
# GULP energy per Si atom -5593.008123 kJ/mol
# Density = 2.153007 g / cm^3
# Si number density = 21.579184 Si / 1000 Ang^3
#
#
#
# Elastic Constant Matrix: (Units=GPa)
#
#
# Indices 1 2 3 4 5 6 
#
# 1 61.3378 20.6809 -0.9178 0.0000 0.0000 0.0000
# 2 20.6809 131.4635 21.5053 0.0000 0.0000 0.0000
# 3 -0.9178 21.5053 61.2860 0.0000 0.0000 0.0000
# 4 0.0000 0.0000 0.0000 7.9239 0.0000 0.0000
# 5 0.0000 0.0000 0.0000 0.0000 12.2832 0.0000
# 6 0.0000 0.0000 0.0000 0.0000 0.0000 23.0547
#
#
#
# Elastic Compliance Matrix: (Units=1/GPa)
#
#
# Indices 1 2 3 4 5 6 
#
# 1 0.017312 -0.002934 0.001289 0.000000 0.000000 0.000000
# 2 -0.002934 0.008567 -0.003050 0.000000 0.000000 0.000000
# 3 0.001289 -0.003050 0.017407 0.000000 0.000000 0.000000
# 4 0.000000 0.000000 0.000000 0.126201 0.000000 0.000000
# 5 0.000000 0.000000 0.000000 0.000000 0.081412 0.000000
# 6 0.000000 0.000000 0.000000 0.000000 0.000000 0.043375
#
#
# Mechanical properties :
#
#
# Convention : Reuss Voigt Hill
#
# Bulk Modulus (GPa) = 29.50332 37.40268 33.45300
# Shear Modulus (GPa) = 15.87489 22.84029 19.35759
#
# Velocity S-wave (km/s) = 2.71524 3.25690 2.99833
# Velocity P-wave (km/s) = 4.85097 5.61369 5.24621
#
# Compressibility (1/GPa) = 0.03389449
#
# Stress axis : x y z
#
# Youngs Moduli (GPa) = 57.76426 116.72393 57.44965
#
# Poissons Ratio (x) = 0.34249 -0.07405
# Poissons Ratio (y) = 0.16949 0.17523
# Poissons Ratio (z) = -0.07445 0.35603
#
# Static dielectric constant tensor:
#      x y z
#    x 1.775680 0.000000 0.000000 
#    y 0.000000 1.763440 0.000000 
#    z 0.000000 0.000000 1.782120 
# 
# From -- ./inp_files/6000.got.cif
#   From: 2010.05.17/outbox.cif.g08.bks.cpg/sg33_3_cif.got.tgz:6000.got - 2010.06.03 17:15:25.
