data_PCOD9344767
_publ_section_title
;
Structure prediction by ZEFSAII (Michael W. Deem and Ramdas Pophale) SiO2 
 PCOD9344767
Probable space group: P N A 21
;
_chemical_formula_sum "Si O2"
_cell_formula_units_Z 24
_cell_length_a 15.156396
_cell_length_b 11.936793
_cell_length_c 6.410816
_cell_angle_alpha 90.000000
_cell_angle_beta 90.000000
_cell_angle_gamma 90.000000
_cell_volume 1159.836892
_symmetry_space_group_name_H-M "P N A 21"
_symmetry_group_IT_number 33
_symmetry_cell_setting 'orthorhombic'
loop_
_space_group_symop_operation_xyz
x,y,z
-x,-y,1/2+z
1/2-x,1/2+y,1/2+z
1/2+x,1/2-y,z
loop_
_atom_site_type_symbol
_atom_site_label
_atom_site_fract_x
_atom_site_fract_y
_atom_site_fract_z
Si Si1 0.685411 0.695299 0.479180
Si Si2 0.943731 0.357472 0.232668
Si Si3 0.342686 0.131786 0.625330
Si Si4 0.866243 0.726699 0.725802
Si Si5 0.692322 0.459743 0.320518
Si Si6 0.160937 0.464478 0.509558
O O1 0.623750 0.767407 0.632492
O O2 0.679019 0.759172 0.259685
O O3 0.784629 0.700601 0.571509
O O4 0.657189 0.567364 0.443720
O O5 0.928390 0.353204 0.480694
O O6 0.040638 0.324831 0.159557
O O7 0.913366 0.480161 0.155968
O O8 0.264896 0.099657 0.467299
O O9 0.348760 0.032694 0.793662
O O10 0.871986 0.860266 0.753725
O O11 0.846014 0.663861 0.944702
O O12 0.747212 0.505536 0.121598
#
# Coordination Sequence:
#
# PCOD9344767 Si02
#       6
#     4   4   4   4   4   4
#     4  11  23  44  65  92 136 171 220 277 328 400
#     4  10  25  43  62 100 134 166 227 277 329 398
#     4  10  19  43  64  89 131 168 212 279 320 382
#     4  12  23  43  69  97 130 177 222 268 342 396
#     4  11  22  41  67  95 125 177 218 266 335 392
#     4  10  22  40  67  97 128 167 225 275 320 390
#
# _framework density 20.692564000000001
#
# number of rings (size 3 to 8) (size 9 to 14) (size 15 to 20)
#    0.000    1.333    6.667    1.000    2.333    0.000 
#   12.000    0.000    0.000    0.000    0.000    0.000 
#    0.000    0.000    0.000    0.000    0.000    0.000 
#
# Total GULP energy -134044.120434 kJ/mol
# GULP energy per Si atom -5585.171685 kJ/mol
# Density = 2.064547 g / cm^3
# Si number density = 20.692564 Si / 1000 Ang^3
#
#
#
# Elastic Constant Matrix: (Units=GPa)
#
#
# Indices 1 2 3 4 5 6 
#
# 1 74.6041 11.1800 24.0877 0.0000 0.0000 0.0000
# 2 11.1800 127.7088 22.0813 0.0000 0.0000 0.0000
# 3 24.0877 22.0813 86.6221 0.0000 0.0000 0.0000
# 4 0.0000 0.0000 0.0000 34.1798 0.0000 0.0000
# 5 0.0000 0.0000 0.0000 0.0000 7.0967 0.0000
# 6 0.0000 0.0000 0.0000 0.0000 0.0000 18.4572
#
#
#
# Elastic Compliance Matrix: (Units=1/GPa)
#
#
# Indices 1 2 3 4 5 6 
#
# 1 0.014772 -0.000610 -0.003952 0.000000 0.000000 0.000000
# 2 -0.000610 0.008217 -0.001925 0.000000 0.000000 0.000000
# 3 -0.003952 -0.001925 0.013134 0.000000 0.000000 0.000000
# 4 0.000000 0.000000 0.000000 0.029257 0.000000 0.000000
# 5 0.000000 0.000000 0.000000 0.000000 0.140910 0.000000
# 6 0.000000 0.000000 0.000000 0.000000 0.000000 0.054179
#
#
# Mechanical properties :
#
#
# Convention : Reuss Voigt Hill
#
# Bulk Modulus (GPa) = 43.19971 44.84812 44.02391
# Shear Modulus (GPa) = 17.78352 27.38581 22.58466
#
# Velocity S-wave (km/s) = 2.93476 3.64189 3.30728
# Velocity P-wave (km/s) = 5.69263 6.27734 5.99212
#
# Compressibility (1/GPa) = 0.02314830
#
# Stress axis : x y z
#
# Youngs Moduli (GPa) = 67.69775 121.70591 76.13760
#
# Poissons Ratio (x) = 0.07422 0.30091
# Poissons Ratio (y) = 0.04128 0.14656
# Poissons Ratio (z) = 0.26755 0.23428
#
# Static dielectric constant tensor:
#      x y z
#    x 1.752860 0.000000 0.000000 
#    y 0.000000 1.767440 0.000000 
#    z 0.000000 0.000000 1.755120 
# 
# From -- ./inp_files/1701.got.cif
#   From: 2010.05.17/outbox.cif.g08.bks.cpg/sg33_1_cif.got.tgz:1701.got - 2010.06.03 17:15:25.
