data_PCOD9344121
_publ_section_title
;
Structure prediction by ZEFSAII (Michael W. Deem and Ramdas Pophale) SiO2 
 PCOD9344121
Probable space group: P B A 2
;
_chemical_formula_sum "Si O2"
_cell_formula_units_Z 28
_cell_length_a 16.187260
_cell_length_b 13.322866
_cell_length_c 5.162233
_cell_angle_alpha 90.000000
_cell_angle_beta 90.000000
_cell_angle_gamma 90.000000
_cell_volume 1113.290761
_symmetry_space_group_name_H-M "P B A 2"
_symmetry_group_IT_number 32
_symmetry_cell_setting 'orthorhombic'
loop_
_space_group_symop_operation_xyz
x,y,z
-x,-y,z
1/2-x,1/2+y,z
1/2+x,1/2-y,z
loop_
_atom_site_type_symbol
_atom_site_label
_atom_site_fract_x
_atom_site_fract_y
_atom_site_fract_z
Si Si1 0.764175 0.483804 0.110860
Si Si2 0.729361 0.664417 0.381238
Si Si3 0.828433 0.802820 0.042786
Si Si4 0.424423 0.281295 0.674052
Si Si5 0.071800 0.558521 0.441244
Si Si6 0.002239 0.118268 0.184881
Si Si7 0.134737 0.381668 0.737161
O O1 0.704391 0.553114 0.288465
O O2 0.715583 0.402890 0.940377
O O3 0.842131 0.440479 0.277358
O O4 0.798926 0.566442 0.919715
O O5 0.748768 0.749194 0.171670
O O6 0.673162 0.705079 0.612506
O O7 0.823409 0.646711 0.468943
O O8 0.902757 0.846291 0.213110
O O9 0.878944 0.725216 0.865551
O O10 0.444975 0.167644 0.569937
O O11 0.463135 0.355228 0.460645
O O12 0.453737 0.316925 0.959179
O O13 0.079817 0.475566 0.667015
O O14 0.000000 0.500000 0.277101
O O15 0.000000 0.000000 0.121417
#
# Coordination Sequence:
#
# PCOD9344121 Si02
#       7
#     4   4   4   4   4   4   4
#     4  10  23  43  71 104 137 198 246 315 369 466
#     4  10  24  43  69 102 145 189 258 306 381 457
#     4  11  24  45  72 100 149 195 252 311 386 455
#     4  12  28  49  77 110 151 202 250 317 385 456
#     4  11  25  43  68 107 151 192 248 313 384 451
#     4  12  30  50  75 111 153 203 254 317 386 459
#     4  10  25  41  70 103 139 195 247 312 372 452
#
# _framework density 25.150660999999999
#
# number of rings (size 3 to 8) (size 9 to 14) (size 15 to 20)
#    0.000    1.143    1.429    2.143   18.000    0.571 
#    0.000    0.000    0.000    0.000    0.000    0.000 
#    0.000    0.000    0.000    0.000    0.000    0.000 
#
# Total GULP energy -156015.221896 kJ/mol
# GULP energy per Si atom -5571.972211 kJ/mol
# Density = 2.509342 g / cm^3
# Si number density = 25.150661 Si / 1000 Ang^3
#
#
#
# Elastic Constant Matrix: (Units=GPa)
#
#
# Indices 1 2 3 4 5 6 
#
# 1 65.6975 34.9382 -2.2056 0.0000 0.0000 0.0000
# 2 34.9382 145.2473 8.8626 0.0000 0.0000 0.0000
# 3 -2.2056 8.8626 55.2729 0.0000 0.0000 0.0000
# 4 0.0000 0.0000 0.0000 20.4320 0.0000 0.0000
# 5 0.0000 0.0000 0.0000 0.0000 16.1405 0.0000
# 6 0.0000 0.0000 0.0000 0.0000 0.0000 42.8672
#
#
#
# Elastic Compliance Matrix: (Units=1/GPa)
#
#
# Indices 1 2 3 4 5 6 
#
# 1 0.017559 -0.004309 0.001392 0.000000 0.000000 0.000000
# 2 -0.004309 0.008010 -0.001456 0.000000 0.000000 0.000000
# 3 0.001392 -0.001456 0.018381 0.000000 0.000000 0.000000
# 4 0.000000 0.000000 0.000000 0.048943 0.000000 0.000000
# 5 0.000000 0.000000 0.000000 0.000000 0.061956 0.000000
# 6 0.000000 0.000000 0.000000 0.000000 0.000000 0.023328
#
#
# Mechanical properties :
#
#
# Convention : Reuss Voigt Hill
#
# Bulk Modulus (GPa) = 28.40611 38.82312 33.61462
# Shear Modulus (GPa) = 25.16881 30.86278 28.01579
#
# Velocity S-wave (km/s) = 3.16685 3.50682 3.34116
# Velocity P-wave (km/s) = 4.96899 5.64507 5.31778
#
# Compressibility (1/GPa) = 0.03520369
#
# Stress axis : x y z
#
# Youngs Moduli (GPa) = 56.94962 124.84244 54.40380
#
# Poissons Ratio (x) = 0.53791 -0.07571
# Poissons Ratio (y) = 0.24538 0.07923
# Poissons Ratio (z) = -0.07925 0.18181
#
# Static dielectric constant tensor:
#      x y z
#    x 2.458200 0.000000 0.000000 
#    y 0.000000 2.035690 0.000000 
#    z 0.000000 0.000000 2.097840 
# 
# From -- ./inp_files/1566.got.cif
#   From: 2010.05.17/outbox.cif.g08.bks.cpg/sg32_1_cif.got.tgz:1566.got - 2010.06.03 17:12:27.
