data_PCOD9344574
_publ_section_title
;
Structure prediction by ZEFSAII (Michael W. Deem and Ramdas Pophale) SiO2 
 PCOD9344574
Probable space group: P N A 21
;
_chemical_formula_sum "Si O2"
_cell_formula_units_Z 32
_cell_length_a 8.437675
_cell_length_b 7.217545
_cell_length_c 19.797665
_cell_angle_alpha 90.000000
_cell_angle_beta 90.000000
_cell_angle_gamma 90.000000
_cell_volume 1205.663920
_symmetry_space_group_name_H-M "P N A 21"
_symmetry_group_IT_number 33
_symmetry_cell_setting 'orthorhombic'
loop_
_space_group_symop_operation_xyz
x,y,z
-x,-y,1/2+z
1/2-x,1/2+y,1/2+z
1/2+x,1/2-y,z
loop_
_atom_site_type_symbol
_atom_site_label
_atom_site_fract_x
_atom_site_fract_y
_atom_site_fract_z
Si Si1 0.211847 0.873398 0.078010
Si Si2 0.957332 0.198444 0.865140
Si Si3 0.805563 0.607808 0.450679
Si Si4 0.928052 0.525782 0.579946
Si Si5 0.571948 0.025782 0.229066
Si Si6 0.711847 0.626602 0.231002
Si Si7 0.042669 0.801556 0.943873
Si Si8 0.305563 0.892193 0.858334
O O1 0.165238 0.935950 0.154506
O O2 0.194626 0.648375 0.082462
O O3 0.392890 0.944735 0.065837
O O4 0.098307 0.901918 0.012776
O O5 0.877318 0.106499 0.931519
O O6 0.901693 0.098082 0.796237
O O7 0.886291 0.408604 0.859845
O O8 0.127156 0.265439 0.891086
O O9 0.886290 0.408605 0.449167
O O10 0.857170 0.667232 0.525345
O O11 0.936056 0.607819 0.654506
O O12 0.642830 0.167233 0.283667
O O13 0.694625 0.851625 0.226550
O O14 0.392890 0.944735 0.243176
O O15 0.122682 0.893502 0.877493
O O16 0.872845 0.734561 0.917926
#
# Coordination Sequence:
#
# PCOD9344574 Si02
#       8
#     4   4   4   4   4   4   4   4
#     4   9  16  28  50  76 102 134 174 218 258 302
#     4  10  19  34  53  78 108 139 178 222 267 316
#     4  10  21  35  53  77 108 141 177 219 265 315
#     4   9  18  34  54  77 106 139 177 221 266 315
#     4   9  18  34  54  77 106 139 177 221 266 315
#     4   9  16  28  50  76 102 134 174 218 258 302
#     4  10  19  34  53  78 108 139 178 222 267 316
#     4  10  21  35  53  77 108 141 177 219 265 315
#
# _framework density 26.541391999999998
#
# number of rings (size 3 to 8) (size 9 to 14) (size 15 to 20)
#    0.000    2.500    0.000    4.500    0.000    1.000 
#    0.000    6.250    0.000    3.000    0.000    0.000 
#    0.000    0.000    0.000    0.000    0.000    0.000 
#
# Total GULP energy -178279.504842 kJ/mol
# GULP energy per Si atom -5571.234526 kJ/mol
# Density = 2.648098 g / cm^3
# Si number density = 26.541392 Si / 1000 Ang^3
#
#
#
# Elastic Constant Matrix: (Units=GPa)
#
#
# Indices 1 2 3 4 5 6 
#
# 1 124.6788 -9.8607 84.0862 0.0000 0.0000 0.0000
# 2 -9.8607 54.4001 15.9254 0.0000 0.0000 0.0000
# 3 84.0862 15.9254 247.1140 0.0000 0.0000 0.0000
# 4 0.0000 0.0000 0.0000 25.7666 0.0000 0.0000
# 5 0.0000 0.0000 0.0000 0.0000 46.3965 0.0000
# 6 0.0000 0.0000 0.0000 0.0000 0.0000 26.6082
#
#
#
# Elastic Compliance Matrix: (Units=1/GPa)
#
#
# Indices 1 2 3 4 5 6 
#
# 1 0.010906 0.003122 -0.003912 0.000000 0.000000 0.000000
# 2 0.003122 0.019630 -0.002327 0.000000 0.000000 0.000000
# 3 -0.003912 -0.002327 0.005528 0.000000 0.000000 0.000000
# 4 0.000000 0.000000 0.000000 0.038810 0.000000 0.000000
# 5 0.000000 0.000000 0.000000 0.000000 0.021553 0.000000
# 6 0.000000 0.000000 0.000000 0.000000 0.000000 0.037582
#
#
# Mechanical properties :
#
#
# Convention : Reuss Voigt Hill
#
# Bulk Modulus (GPa) = 33.52495 67.38832 50.45663
# Shear Modulus (GPa) = 33.29182 42.15706 37.72444
#
# Velocity S-wave (km/s) = 3.54550 3.98974 3.77416
# Velocity P-wave (km/s) = 5.42397 6.83147 6.16800
#
# Compressibility (1/GPa) = 0.02982853
#
# Stress axis : x y z
#
# Youngs Moduli (GPa) = 91.69230 50.94351 180.89928
#
# Poissons Ratio (x) = -0.15905 0.70772
# Poissons Ratio (y) = -0.28628 0.42103
# Poissons Ratio (z) = 0.35872 0.11857
#
# Static dielectric constant tensor:
#      x y z
#    x 2.038420 0.000000 0.000000 
#    y 0.000000 2.203850 0.000000 
#    z 0.000000 0.000000 2.315480 
# 
# From -- ./inp_files/8956.got.cif
#   From: 2010.05.17/outbox.cif.g08.bks.cpg/sg33_5_cif.got.tgz:8956.got - 2010.06.03 17:15:25.
