data_PCOD9344793
_publ_section_title
;
Structure prediction by ZEFSAII (Michael W. Deem and Ramdas Pophale) SiO2 
 PCOD9344793
Probable space group: P N A 21
;
_chemical_formula_sum "Si O2"
_cell_formula_units_Z 32
_cell_length_a 5.046079
_cell_length_b 16.485044
_cell_length_c 17.979126
_cell_angle_alpha 90.000000
_cell_angle_beta 90.000000
_cell_angle_gamma 90.000000
_cell_volume 1495.590618
_symmetry_space_group_name_H-M "P N A 21"
_symmetry_group_IT_number 33
_symmetry_cell_setting 'orthorhombic'
loop_
_space_group_symop_operation_xyz
x,y,z
-x,-y,1/2+z
1/2-x,1/2+y,1/2+z
1/2+x,1/2-y,z
loop_
_atom_site_type_symbol
_atom_site_label
_atom_site_fract_x
_atom_site_fract_y
_atom_site_fract_z
Si Si1 0.322546 0.974774 0.074460
Si Si2 0.953548 0.209502 0.189607
Si Si3 0.102028 0.451682 0.825068
Si Si4 0.264192 0.697296 0.312952
Si Si5 0.130973 0.453557 0.201482
Si Si6 0.014445 0.893066 0.193275
Si Si7 0.311646 0.473840 0.984689
Si Si8 0.583772 0.709801 0.512721
O O1 0.205784 0.898241 0.121232
O O2 0.401154 0.041061 0.138708
O O3 0.589214 0.972562 0.026026
O O4 0.094355 0.002774 0.018391
O O5 0.747694 0.277229 0.219130
O O6 0.810678 0.124792 0.201071
O O7 0.964026 0.220280 0.100643
O O8 0.863604 0.387552 0.840629
O O9 0.984835 0.528576 0.782214
O O10 0.292544 0.410678 0.763366
O O11 0.263654 0.477006 0.897079
O O12 0.045738 0.764366 0.333417
O O13 0.324409 0.678645 0.224054
O O14 0.318797 0.530494 0.183264
O O15 0.288548 0.377836 0.002228
O O16 0.289767 0.723853 0.482214
#
# Coordination Sequence:
#
# PCOD9344793 Si02
#       8
#     4   4   4   4   4   4   4   4
#     4  11  22  37  62  82 119 155 207 254 308 343
#     4  10  21  32  56  85 114 147 194 237 291 349
#     4  10  25  38  62  86 129 161 211 249 319 361
#     4  11  22  39  62  90 126 164 210 252 305 375
#     4  10  21  40  60  85 120 161 201 264 297 358
#     4  10  21  42  62  90 118 168 205 269 302 364
#     4  12  24  37  56  87 118 164 203 255 298 378
#     4  10  20  33  48  75 116 158 189 226 282 352
#
# _framework density 21.396228000000001
#
# number of rings (size 3 to 8) (size 9 to 14) (size 15 to 20)
#    0.000    1.500    3.750    0.750   10.500    1.000 
#    0.000    0.000    0.000    0.000    0.000    5.250 
#    0.000    0.000    0.000    0.000    0.000    0.000 
#
# Total GULP energy -178540.335645 kJ/mol
# GULP energy per Si atom -5579.385489 kJ/mol
# Density = 2.134753 g / cm^3
# Si number density = 21.396228 Si / 1000 Ang^3
#
#
#
# Elastic Constant Matrix: (Units=GPa)
#
#
# Indices 1 2 3 4 5 6 
#
# 1 118.0111 19.0076 36.1189 0.0000 0.0000 0.0000
# 2 19.0076 19.3626 14.1170 0.0000 0.0000 0.0000
# 3 36.1189 14.1170 68.1663 0.0000 0.0000 0.0000
# 4 0.0000 0.0000 0.0000 20.9423 0.0000 0.0000
# 5 0.0000 0.0000 0.0000 0.0000 34.1172 0.0000
# 6 0.0000 0.0000 0.0000 0.0000 0.0000 28.3061
#
#
#
# Elastic Compliance Matrix: (Units=1/GPa)
#
#
# Indices 1 2 3 4 5 6 
#
# 1 0.011014 -0.007724 -0.004237 0.000000 0.000000 0.000000
# 2 -0.007724 0.066247 -0.009627 0.000000 0.000000 0.000000
# 3 -0.004237 -0.009627 0.018909 0.000000 0.000000 0.000000
# 4 0.000000 0.000000 0.000000 0.047750 0.000000 0.000000
# 5 0.000000 0.000000 0.000000 0.000000 0.029311 0.000000
# 6 0.000000 0.000000 0.000000 0.000000 0.000000 0.035328
#
#
# Mechanical properties :
#
#
# Convention : Reuss Voigt Hill
#
# Bulk Modulus (GPa) = 18.86957 38.22522 28.54740
# Shear Modulus (GPa) = 18.55983 25.75954 22.15969
#
# Velocity S-wave (km/s) = 2.94842 3.47353 3.22169
# Velocity P-wave (km/s) = 4.51986 5.83022 5.21635
#
# Compressibility (1/GPa) = 0.05299538
#
# Stress axis : x y z
#
# Youngs Moduli (GPa) = 90.78955 15.09502 52.88605
#
# Poissons Ratio (x) = 0.11659 0.22406
# Poissons Ratio (y) = 0.70123 0.50914
# Poissons Ratio (z) = 0.38464 0.14532
#
# Static dielectric constant tensor:
#      x y z
#    x 1.920450 0.000000 0.000000 
#    y 0.000000 1.788160 0.000000 
#    z 0.000000 0.000000 1.839010 
# 
# From -- ./inp_files/8383.got.cif
#   From: 2010.05.17/outbox.cif.g08.bks.cpg/sg33_5_cif.got.tgz:8383.got - 2010.06.03 17:15:25.
