data_PCOD9344270
_publ_section_title
;
Structure prediction by ZEFSAII (Michael W. Deem and Ramdas Pophale) SiO2 
 PCOD9344270
Probable space group: P B A 2
;
_chemical_formula_sum "Si O2"
_cell_formula_units_Z 26
_cell_length_a 12.325151
_cell_length_b 12.386146
_cell_length_c 7.481297
_cell_angle_alpha 90.000000
_cell_angle_beta 90.000000
_cell_angle_gamma 90.000000
_cell_volume 1142.103177
_symmetry_space_group_name_H-M "P B A 2"
_symmetry_group_IT_number 32
_symmetry_cell_setting 'orthorhombic'
loop_
_space_group_symop_operation_xyz
x,y,z
-x,-y,z
1/2-x,1/2+y,z
1/2+x,1/2-y,z
loop_
_atom_site_type_symbol
_atom_site_label
_atom_site_fract_x
_atom_site_fract_y
_atom_site_fract_z
Si Si1 0.746026 0.412532 0.804610
Si Si2 0.000000 0.500000 0.212473
Si Si3 0.921468 0.291062 0.999083
Si Si4 0.591250 0.573985 0.458397
Si Si5 0.947107 0.769896 0.644677
Si Si6 0.339566 0.950124 0.525606
Si Si7 0.109975 0.949038 0.064637
O O1 0.803498 0.331238 0.939404
O O2 0.653378 0.349816 0.693587
O O3 0.839972 0.455585 0.672803
O O4 0.700595 0.509842 0.928819
O O5 0.105444 0.486902 0.340779
O O6 0.019064 0.609061 0.096938
O O7 0.987812 0.250912 0.826733
O O8 0.901262 0.178297 0.098759
O O9 0.500000 0.500000 0.552583
O O10 0.529627 0.686391 0.492770
O O11 0.712163 0.579985 0.529925
O O12 0.614218 0.512762 0.269894
O O13 0.901339 0.656198 0.582884
O O14 0.000000 0.000000 0.989009
#
# Coordination Sequence:
#
# PCOD9344270 Si02
#       7
#     4   2   4   4   4   4   4
#     4  12  24  44  75 108 146 202 260 320 401 474
#     4  12  28  50  72 116 156 210 268 332 412 466
#     4  12  26  46  73 105 151 196 259 326 389 473
#     4  11  24  46  72 105 147 193 246 317 391 469
#     4  12  24  44  75 108 146 202 260 320 401 474
#     4  12  26  46  73 105 151 196 259 326 389 473
#     4  11  24  46  72 105 147 193 246 317 391 469
#
# _framework density 22.765018000000001
#
# number of rings (size 3 to 8) (size 9 to 14) (size 15 to 20)
#    0.000    0.308    3.077    6.462    0.000    2.462 
#    5.538    0.000    0.000    0.000    0.000    0.000 
#    0.000    0.000    0.000    0.000    0.000    0.000 
#
# Total GULP energy -145130.175138 kJ/mol
# GULP energy per Si atom -5581.929813 kJ/mol
# Density = 2.271320 g / cm^3
# Si number density = 22.765018 Si / 1000 Ang^3
#
#
#
# Elastic Constant Matrix: (Units=GPa)
#
#
# Indices 1 2 3 4 5 6 
#
# 1 95.0400 23.3164 17.0095 0.0000 0.0000 0.0000
# 2 23.3164 85.9039 12.7022 0.0000 0.0000 0.0000
# 3 17.0095 12.7022 78.1627 0.0000 0.0000 0.0000
# 4 0.0000 0.0000 0.0000 67.7342 0.0000 0.0000
# 5 0.0000 0.0000 0.0000 0.0000 140.0692 0.0000
# 6 0.0000 0.0000 0.0000 0.0000 0.0000 51.0225
#
#
#
# Elastic Compliance Matrix: (Units=1/GPa)
#
#
# Indices 1 2 3 4 5 6 
#
# 1 0.011587 -0.002841 -0.002060 0.000000 0.000000 0.000000
# 2 -0.002841 0.012624 -0.001433 0.000000 0.000000 0.000000
# 3 -0.002060 -0.001433 0.013475 0.000000 0.000000 0.000000
# 4 0.000000 0.000000 0.000000 0.014764 0.000000 0.000000
# 5 0.000000 0.000000 0.000000 0.000000 0.007139 0.000000
# 6 0.000000 0.000000 0.000000 0.000000 0.000000 0.019599
#
#
# Mechanical properties :
#
#
# Convention : Reuss Voigt Hill
#
# Bulk Modulus (GPa) = 39.97028 40.57365 40.27196
# Shear Modulus (GPa) = 49.90234 65.50375 57.70304
#
# Velocity S-wave (km/s) = 4.68703 5.36995 5.04007
# Velocity P-wave (km/s) = 6.84740 7.50399 7.18320
#
# Compressibility (1/GPa) = 0.02501859
#
# Stress axis : x y z
#
# Youngs Moduli (GPa) = 86.30041 79.21521 74.21120
#
# Poissons Ratio (x) = 0.22501 0.15288
# Poissons Ratio (y) = 0.24514 0.10637
# Poissons Ratio (z) = 0.17778 0.11354
#
# Static dielectric constant tensor:
#      x y z
#    x 1.872250 0.000000 0.000000 
#    y 0.000000 1.771700 0.000000 
#    z 0.000000 0.000000 1.877840 
# 
# From -- ./inp_files/2764.got.cif
#   From: 2010.05.17/outbox.cif.g08.bks.cpg/sg32_2_cif.got.tgz:2764.got - 2010.06.03 17:12:27.
