data_PCOD9344646
_publ_section_title
;
Structure prediction by ZEFSAII (Michael W. Deem and Ramdas Pophale) SiO2 
 PCOD9344646
Probable space group: P N A 21
;
_chemical_formula_sum "Si O2"
_cell_formula_units_Z 32
_cell_length_a 11.862124
_cell_length_b 16.656437
_cell_length_c 7.036793
_cell_angle_alpha 90.000000
_cell_angle_beta 90.000000
_cell_angle_gamma 90.000000
_cell_volume 1390.334635
_symmetry_space_group_name_H-M "P N A 21"
_symmetry_group_IT_number 33
_symmetry_cell_setting 'orthorhombic'
loop_
_space_group_symop_operation_xyz
x,y,z
-x,-y,1/2+z
1/2-x,1/2+y,1/2+z
1/2+x,1/2-y,z
loop_
_atom_site_type_symbol
_atom_site_label
_atom_site_fract_x
_atom_site_fract_y
_atom_site_fract_z
Si Si1 0.282747 0.478279 0.993660
Si Si2 0.728694 0.224321 0.257180
Si Si3 0.072419 0.415022 0.241666
Si Si4 0.178520 0.099586 0.203579
Si Si5 0.103396 0.267446 0.864547
Si Si6 0.943902 0.154860 0.113483
Si Si7 0.463326 0.090269 0.871663
Si Si8 0.219071 0.121631 0.757246
O O1 0.267810 0.520796 0.792859
O O2 0.170686 0.448417 0.099849
O O3 0.373625 0.408471 0.990544
O O4 0.325801 0.551494 0.125094
O O5 0.634228 0.161899 0.336431
O O6 0.724584 0.318616 0.299689
O O7 0.854992 0.191505 0.262653
O O8 0.695148 0.222790 0.031852
O O9 0.035622 0.493551 0.357617
O O10 0.971509 0.390977 0.098383
O O11 0.043801 0.108706 0.221536
O O12 0.195810 0.100684 0.977740
O O13 0.159384 0.206120 0.719211
O O14 0.063722 0.353723 0.793597
O O15 0.001429 0.220804 0.974883
O O16 0.354269 0.121415 0.758988
#
# Coordination Sequence:
#
# PCOD9344646 Si02
#       8
#     4   4   4   4   4   4   4   4
#     4  10  21  37  53  85 120 137 189 239 274 327
#     4   8  16  35  52  79 110 143 189 224 280 326
#     4   9  20  35  57  81 112 146 182 238 278 325
#     4  10  21  34  60  83 104 159 184 224 287 335
#     4   9  17  32  56  80 104 153 184 217 284 333
#     4   9  18  33  57  78 109 150 181 231 272 339
#     4  10  19  36  58  82 109 148 187 227 284 328
#     4   9  20  36  55  78 116 144 182 236 271 327
#
# _framework density 23.016041000000001
#
# number of rings (size 3 to 8) (size 9 to 14) (size 15 to 20)
#    0.000    3.000    0.000    1.500    5.250    0.000 
#    2.250    1.250    0.000    1.500    0.000    0.000 
#    0.000    0.000    0.000    0.000    0.000    0.000 
#
# Total GULP energy -178398.978564 kJ/mol
# GULP energy per Si atom -5574.968080 kJ/mol
# Density = 2.296366 g / cm^3
# Si number density = 23.016041 Si / 1000 Ang^3
#
#
#
# Elastic Constant Matrix: (Units=GPa)
#
#
# Indices 1 2 3 4 5 6 
#
# 1 36.4986 -0.2797 -12.7967 0.0000 0.0000 0.0000
# 2 -0.2797 94.8484 -7.9642 0.0000 0.0000 0.0000
# 3 -12.7967 -7.9642 29.0402 0.0000 0.0000 0.0000
# 4 0.0000 0.0000 0.0000 25.4321 0.0000 0.0000
# 5 0.0000 0.0000 0.0000 0.0000 11.5905 0.0000
# 6 0.0000 0.0000 0.0000 0.0000 0.0000 33.3960
#
#
#
# Elastic Compliance Matrix: (Units=1/GPa)
#
#
# Indices 1 2 3 4 5 6 
#
# 1 0.032568 0.001332 0.014717 0.000000 0.000000 0.000000
# 2 0.001332 0.010846 0.003561 0.000000 0.000000 0.000000
# 3 0.014717 0.003561 0.041897 0.000000 0.000000 0.000000
# 4 0.000000 0.000000 0.000000 0.039320 0.000000 0.000000
# 5 0.000000 0.000000 0.000000 0.000000 0.086278 0.000000
# 6 0.000000 0.000000 0.000000 0.000000 0.000000 0.029944
#
#
# Mechanical properties :
#
#
# Convention : Reuss Voigt Hill
#
# Bulk Modulus (GPa) = 8.03017 13.14511 10.58764
# Shear Modulus (GPa) = 20.56397 26.17889 23.37143
#
# Velocity S-wave (km/s) = 2.99233 3.37622 3.19006
# Velocity P-wave (km/s) = 3.92877 4.57408 4.26365
#
# Compressibility (1/GPa) = 0.12453039
#
# Stress axis : x y z
#
# Youngs Moduli (GPa) = 30.70472 92.19894 23.86827
#
# Poissons Ratio (x) = -0.12279 -0.35126
# Poissons Ratio (y) = -0.04089 -0.08500
# Poissons Ratio (z) = -0.45187 -0.32835
#
# Static dielectric constant tensor:
#      x y z
#    x 1.913460 0.000000 0.000000 
#    y 0.000000 1.940090 0.000000 
#    z 0.000000 0.000000 1.893180 
# 
# From -- ./inp_files/4054.got.cif
#   From: 2010.05.17/outbox.cif.g08.bks.cpg/sg33_3_cif.got.tgz:4054.got - 2010.06.03 17:15:25.
