data_PCOD9344489
_publ_section_title
;
Structure prediction by ZEFSAII (Michael W. Deem and Ramdas Pophale) SiO2 
 PCOD9344489
Probable space group: P N A 21
;
_chemical_formula_sum "Si O2"
_cell_formula_units_Z 32
_cell_length_a 9.247728
_cell_length_b 19.731718
_cell_length_c 8.316575
_cell_angle_alpha 90.000000
_cell_angle_beta 90.000000
_cell_angle_gamma 90.000000
_cell_volume 1517.555056
_symmetry_space_group_name_H-M "P N A 21"
_symmetry_group_IT_number 33
_symmetry_cell_setting 'orthorhombic'
loop_
_space_group_symop_operation_xyz
x,y,z
-x,-y,1/2+z
1/2-x,1/2+y,1/2+z
1/2+x,1/2-y,z
loop_
_atom_site_type_symbol
_atom_site_label
_atom_site_fract_x
_atom_site_fract_y
_atom_site_fract_z
Si Si1 0.727423 0.744939 0.368250
Si Si2 0.782207 0.479084 0.177938
Si Si3 0.002397 0.442971 0.907262
Si Si4 0.027748 0.306052 0.063557
Si Si5 0.829260 0.118208 0.643404
Si Si6 0.302266 0.159907 0.317229
Si Si7 0.411118 0.708891 0.070185
Si Si8 0.003189 0.359675 0.588849
O O1 0.582702 0.778847 0.428876
O O2 0.698101 0.669918 0.293904
O O3 0.809151 0.787686 0.229162
O O4 0.829199 0.735941 0.525240
O O5 0.661464 0.537811 0.171854
O O6 0.738242 0.401073 0.208850
O O7 0.884130 0.507193 0.322687
O O8 0.876332 0.477044 0.012290
O O9 0.960670 0.398706 0.750571
O O10 0.061783 0.385314 0.029846
O O11 0.931276 0.302289 0.222627
O O12 0.673489 0.126100 0.554635
O O13 0.973604 0.148263 0.566692
O O14 0.185809 0.205087 0.410178
O O15 0.388271 0.121176 0.457298
O O16 0.500130 0.778153 0.088390
#
# Coordination Sequence:
#
# PCOD9344489 Si02
#       8
#     4   4   4   4   4   4   4   4
#     4  11  20  40  64  89 118 163 211 255 319 377
#     4  10  20  35  59  88 124 161 211 260 306 380
#     4  10  18  36  61  88 121 157 212 258 308 371
#     4  11  22  38  60  94 123 159 208 268 319 369
#     4  10  19  36  65  85 118 165 210 248 311 378
#     4  11  25  37  58  92 127 161 205 263 315 378
#     4  11  21  38  61  86 123 163 206 254 317 391
#     4  10  19  38  62  88 112 159 211 258 317 366
#
# _framework density 21.086549000000002
#
# number of rings (size 3 to 8) (size 9 to 14) (size 15 to 20)
#    0.000    1.500    5.000    3.750    1.750    0.000 
#    0.000    3.750    0.000    0.000    0.000    0.000 
#    0.000    0.000    0.000    0.000    0.000    0.000 
#
# Total GULP energy -178204.668305 kJ/mol
# GULP energy per Si atom -5568.895885 kJ/mol
# Density = 2.103856 g / cm^3
# Si number density = 21.086549 Si / 1000 Ang^3
#
#
#
# Elastic Constant Matrix: (Units=GPa)
#
#
# Indices 1 2 3 4 5 6 
#
# 1 46.7042 9.0883 22.7621 0.0000 0.0000 0.0000
# 2 9.0883 73.9230 8.5492 0.0000 0.0000 0.0000
# 3 22.7621 8.5492 70.2051 0.0000 0.0000 0.0000
# 4 0.0000 0.0000 0.0000 28.2455 0.0000 0.0000
# 5 0.0000 0.0000 0.0000 0.0000 35.2516 0.0000
# 6 0.0000 0.0000 0.0000 0.0000 0.0000 24.7460
#
#
#
# Elastic Compliance Matrix: (Units=1/GPa)
#
#
# Indices 1 2 3 4 5 6 
#
# 1 0.025789 -0.002235 -0.008089 0.000000 0.000000 0.000000
# 2 -0.002235 0.013915 -0.000970 0.000000 0.000000 0.000000
# 3 -0.008089 -0.000970 0.016985 0.000000 0.000000 0.000000
# 4 0.000000 0.000000 0.000000 0.035404 0.000000 0.000000
# 5 0.000000 0.000000 0.000000 0.000000 0.028368 0.000000
# 6 0.000000 0.000000 0.000000 0.000000 0.000000 0.040411
#
#
# Mechanical properties :
#
#
# Convention : Reuss Voigt Hill
#
# Bulk Modulus (GPa) = 29.32545 30.18129 29.75337
# Shear Modulus (GPa) = 25.66414 27.67747 26.67080
#
# Velocity S-wave (km/s) = 3.49246 3.62686 3.56030
# Velocity P-wave (km/s) = 5.49549 5.64650 5.57151
#
# Compressibility (1/GPa) = 0.03410007
#
# Stress axis : x y z
#
# Youngs Moduli (GPa) = 38.77675 71.86738 58.87632
#
# Poissons Ratio (x) = 0.16063 0.47626
# Poissons Ratio (y) = 0.08667 0.05710
# Poissons Ratio (z) = 0.31367 0.06970
#
# Static dielectric constant tensor:
#      x y z
#    x 1.754540 0.000000 0.000000 
#    y 0.000000 1.832740 0.000000 
#    z 0.000000 0.000000 1.843510 
# 
# From -- ./inp_files/3537.got.cif
#   From: 2010.05.17/outbox.cif.g08.bks.cpg/sg33_2_cif.got.tgz:3537.got - 2010.06.03 17:15:25.
