data_PCOD9344618
_publ_section_title
;
Structure prediction by ZEFSAII (Michael W. Deem and Ramdas Pophale) SiO2 
 PCOD9344618
Probable space group: P N A 21
;
_chemical_formula_sum "Si O2"
_cell_formula_units_Z 24
_cell_length_a 9.145309
_cell_length_b 23.457901
_cell_length_c 5.387655
_cell_angle_alpha 90.000000
_cell_angle_beta 90.000000
_cell_angle_gamma 90.000000
_cell_volume 1155.812297
_symmetry_space_group_name_H-M "P N A 21"
_symmetry_group_IT_number 33
_symmetry_cell_setting 'orthorhombic'
loop_
_space_group_symop_operation_xyz
x,y,z
-x,-y,1/2+z
1/2-x,1/2+y,1/2+z
1/2+x,1/2-y,z
loop_
_atom_site_type_symbol
_atom_site_label
_atom_site_fract_x
_atom_site_fract_y
_atom_site_fract_z
Si Si1 0.223023 0.815366 0.169660
Si Si2 0.979248 0.750270 0.458050
Si Si3 0.855130 0.448179 0.998289
Si Si4 0.332358 0.111861 0.506628
Si Si5 0.628163 0.074037 0.689420
Si Si6 0.733938 0.777581 0.795994
O O1 0.075024 0.790187 0.283310
O O2 0.362500 0.788169 0.313501
O O3 0.238484 0.882646 0.205061
O O4 0.231291 0.786985 0.897586
O O5 0.096680 0.713875 0.614241
O O6 0.883187 0.785967 0.651064
O O7 0.799251 0.414136 0.237754
O O8 0.836518 0.514415 0.060499
O O9 0.783383 0.425320 0.743360
O O10 0.030010 0.439163 0.936167
O O11 0.508014 0.108090 0.526914
O O12 0.281174 0.176902 0.515488
#
# Coordination Sequence:
#
# PCOD9344618 Si02
#       6
#     4   4   4   4   4   4
#     4  11  22  39  62  94 131 167 207 276 323 396
#     4  10  23  38  59  96 129 169 214 254 339 393
#     4  10  20  35  57  94 120 165 206 272 318 376
#     4  10  20  34  59  87 124 162 207 260 320 386
#     4  10  19  35  59  91 134 149 222 263 334 367
#     4  11  22  39  60  94 128 170 212 261 334 386
#
# _framework density 20.764617999999999
#
# number of rings (size 3 to 8) (size 9 to 14) (size 15 to 20)
#    1.000    0.667    1.667    4.000    4.667    1.333 
#    0.000    0.000    0.000    0.000    8.667    0.000 
#    0.000    0.000    0.000    0.000    0.000    0.000 
#
# Total GULP energy -133866.847764 kJ/mol
# GULP energy per Si atom -5577.785324 kJ/mol
# Density = 2.071736 g / cm^3
# Si number density = 20.764618 Si / 1000 Ang^3
#
#
#
# Elastic Constant Matrix: (Units=GPa)
#
#
# Indices 1 2 3 4 5 6 
#
# 1 64.3848 6.5969 13.7815 0.0000 0.0000 0.0000
# 2 6.5969 87.5127 12.9722 0.0000 0.0000 0.0000
# 3 13.7815 12.9722 94.8905 0.0000 0.0000 0.0000
# 4 0.0000 0.0000 0.0000 26.3708 0.0000 0.0000
# 5 0.0000 0.0000 0.0000 0.0000 21.1828 0.0000
# 6 0.0000 0.0000 0.0000 0.0000 0.0000 20.0913
#
#
#
# Elastic Compliance Matrix: (Units=1/GPa)
#
#
# Indices 1 2 3 4 5 6 
#
# 1 0.016097 -0.000885 -0.002217 0.000000 0.000000 0.000000
# 2 -0.000885 0.011712 -0.001473 0.000000 0.000000 0.000000
# 3 -0.002217 -0.001473 0.011062 0.000000 0.000000 0.000000
# 4 0.000000 0.000000 0.000000 0.037921 0.000000 0.000000
# 5 0.000000 0.000000 0.000000 0.000000 0.047208 0.000000
# 6 0.000000 0.000000 0.000000 0.000000 0.000000 0.049773
#
#
# Mechanical properties :
#
#
# Convention : Reuss Voigt Hill
#
# Bulk Modulus (GPa) = 33.64524 34.83215 34.23869
# Shear Modulus (GPa) = 25.92985 27.75814 26.84400
#
# Velocity S-wave (km/s) = 3.53760 3.66019 3.59942
# Velocity P-wave (km/s) = 5.73799 5.88845 5.81371
#
# Compressibility (1/GPa) = 0.02972189
#
# Stress axis : x y z
#
# Youngs Moduli (GPa) = 62.12421 85.38325 90.40165
#
# Poissons Ratio (x) = 0.07555 0.20041
# Poissons Ratio (y) = 0.05497 0.13312
# Poissons Ratio (z) = 0.13772 0.12573
#
# Static dielectric constant tensor:
#      x y z
#    x 1.732260 0.000000 0.000000 
#    y 0.000000 1.771900 0.000000 
#    z 0.000000 0.000000 1.822550 
# 
# From -- ./inp_files/458.got.cif
#   From: 2010.05.17/outbox.cif.g08.bks.cpg/sg33_1_cif.got.tgz:458.got - 2010.06.03 17:15:25.
