data_PCOD9344007
_publ_section_title
;
Structure prediction by ZEFSAII (Michael W. Deem and Ramdas Pophale) SiO2 
 PCOD9344007
Probable space group: P B A 2
;
_chemical_formula_sum "Si O2"
_cell_formula_units_Z 20
_cell_length_a 28.673125
_cell_length_b 4.419509
_cell_length_c 5.715900
_cell_angle_alpha 90.000000
_cell_angle_beta 90.000000
_cell_angle_gamma 90.000000
_cell_volume 724.325330
_symmetry_space_group_name_H-M "P B A 2"
_symmetry_group_IT_number 32
_symmetry_cell_setting 'orthorhombic'
loop_
_space_group_symop_operation_xyz
x,y,z
-x,-y,z
1/2-x,1/2+y,z
1/2+x,1/2-y,z
loop_
_atom_site_type_symbol
_atom_site_label
_atom_site_fract_x
_atom_site_fract_y
_atom_site_fract_z
Si Si1 0.546516 0.796323 0.201560
Si Si2 0.640078 0.198663 0.200125
Si Si3 0.453484 0.203677 0.699947
Si Si4 0.359922 0.801337 0.701382
Si Si5 0.215750 0.638124 0.950753
O O1 0.592410 0.005817 0.202964
O O2 0.547407 0.624058 0.450753
O O3 0.500000 0.000000 0.203275
O O4 0.546466 0.630048 0.950753
O O5 0.644453 0.356840 0.450753
O O6 0.639088 0.374506 0.950753
O O7 0.683749 0.971281 0.165563
O O8 0.407590 0.994183 0.698543
O O9 0.500000 0.000000 0.698232
O O10 0.316251 0.028719 0.735944
O O11 0.266137 0.475893 0.950753
#
# Coordination Sequence:
#
# PCOD9344007 Si02
#       5
#     4   4   4   4   4
#     4   8  12  20  38  66  98 130 165 207 257 313
#     4   8  16  30  48  74 104 137 176 219 267 320
#     4   8  12  20  38  66  98 130 165 207 257 313
#     4   8  16  30  48  74 104 137 176 219 267 320
#     4  10  22  38  57  80 109 144 186 230 276 322
#
# _framework density 27.611902000000001
#
# number of rings (size 3 to 8) (size 9 to 14) (size 15 to 20)
#    1.200    2.400    0.000    0.000    0.000    1.600 
#    0.000    0.000    0.000    0.000    0.000    5.600 
#    0.000   12.800    0.000    0.000    0.000    1.600 
#
# Total GULP energy -111657.564381 kJ/mol
# GULP energy per Si atom -5582.878219 kJ/mol
# Density = 2.754906 g / cm^3
# Si number density = 27.611902 Si / 1000 Ang^3
#
#
#
# Elastic Constant Matrix: (Units=GPa)
#
#
# Indices 1 2 3 4 5 6 
#
# 1 236.8914 46.7048 -0.9563 0.0000 0.0000 0.0000
# 2 46.7048 59.6174 25.4412 0.0000 0.0000 0.0000
# 3 -0.9563 25.4412 359.2073 0.0000 0.0000 0.0000
# 4 0.0000 0.0000 0.0000 18.0800 0.0000 0.0000
# 5 0.0000 0.0000 0.0000 0.0000 174.6079 0.0000
# 6 0.0000 0.0000 0.0000 0.0000 0.0000 66.7567
#
#
#
# Elastic Compliance Matrix: (Units=1/GPa)
#
#
# Indices 1 2 3 4 5 6 
#
# 1 0.005024 -0.004064 0.000301 0.000000 0.000000 0.000000
# 2 -0.004064 0.020584 -0.001469 0.000000 0.000000 0.000000
# 3 0.000301 -0.001469 0.002889 0.000000 0.000000 0.000000
# 4 0.000000 0.000000 0.000000 0.055310 0.000000 0.000000
# 5 0.000000 0.000000 0.000000 0.000000 0.005727 0.000000
# 6 0.000000 0.000000 0.000000 0.000000 0.000000 0.014980
#
#
# Mechanical properties :
#
#
# Convention : Reuss Voigt Hill
#
# Bulk Modulus (GPa) = 55.45263 88.67730 72.06496
# Shear Modulus (GPa) = 41.32633 90.85734 66.09184
#
# Velocity S-wave (km/s) = 3.87290 5.74252 4.89775
# Velocity P-wave (km/s) = 6.33448 8.72663 7.62495
#
# Compressibility (1/GPa) = 0.01803341
#
# Stress axis : x y z
#
# Youngs Moduli (GPa) = 199.05002 48.58052 346.17243
#
# Poissons Ratio (x) = 0.19745 -0.10428
# Poissons Ratio (y) = 0.80900 0.50843
# Poissons Ratio (z) = -0.05996 0.07135
#
# Static dielectric constant tensor:
#      x y z
#    x 2.064970 0.000000 0.000000 
#    y 0.000000 2.019770 0.000000 
#    z 0.000000 0.000000 2.204900 
# 
# From -- ./inp_files/1779.got.cif
#   From: 2010.05.17/outbox.cif.g08.bks.cpg/sg32_1_cif.got.tgz:1779.got - 2010.06.03 17:12:27.
