data_PCOD9344194
_publ_section_title
;
Structure prediction by ZEFSAII (Michael W. Deem and Ramdas Pophale) SiO2 
 PCOD9344194
Probable space group: P B A 2
;
_chemical_formula_sum "Si O2"
_cell_formula_units_Z 20
_cell_length_a 8.413573
_cell_length_b 16.938524
_cell_length_c 4.843703
_cell_angle_alpha 90.000000
_cell_angle_beta 90.000000
_cell_angle_gamma 90.000000
_cell_volume 690.293107
_symmetry_space_group_name_H-M "P B A 2"
_symmetry_group_IT_number 32
_symmetry_cell_setting 'orthorhombic'
loop_
_space_group_symop_operation_xyz
x,y,z
-x,-y,z
1/2-x,1/2+y,z
1/2+x,1/2-y,z
loop_
_atom_site_type_symbol
_atom_site_label
_atom_site_fract_x
_atom_site_fract_y
_atom_site_fract_z
Si Si1 0.362059 0.271040 0.538350
Si Si2 0.252490 0.110885 0.438513
Si Si3 0.239962 0.901493 0.110296
Si Si4 0.000000 0.500000 0.430491
Si Si5 0.963277 0.310263 0.033470
Si Si6 0.000000 0.000000 0.721956
O O1 0.235509 0.198393 0.555908
O O2 0.321281 0.348981 0.368806
O O3 0.423201 0.265480 0.847940
O O4 0.606638 0.443856 0.524385
O O5 0.358301 0.964789 0.249485
O O6 0.315903 0.130951 0.124837
O O7 0.486432 0.226591 0.335822
O O8 0.370562 0.848857 0.946688
O O9 0.112891 0.946346 0.919610
O O10 0.907290 0.430467 0.580723
#
# Coordination Sequence:
#
# PCOD9344194 Si02
#       6
#     4   4   4   2   4   2
#     4  10  24  54  87 119 172 246 318 366 442 578
#     4   9  25  50  82 130 183 233 310 368 476 553
#     4  11  27  53  91 132 190 243 315 386 486 570
#     4  10  24  52  82 122 178 260 290 372 488 578
#     4   9  24  52  89 117 175 250 305 361 460 572
#     4  12  28  48  96 152 198 222 312 426 482 542
#
# _framework density 28.973201
#
# number of rings (size 3 to 8) (size 9 to 14) (size 15 to 20)
#    1.200    0.800    0.000    0.000    8.400    4.000 
#   14.400    0.000    4.400    0.000    0.000    0.000 
#    0.000    0.000    0.000    0.000    0.000    0.000 
#
# Total GULP energy -111678.700677 kJ/mol
# GULP energy per Si atom -5583.935034 kJ/mol
# Density = 2.890726 g / cm^3
# Si number density = 28.973201 Si / 1000 Ang^3
#
#
#
# Elastic Constant Matrix: (Units=GPa)
#
#
# Indices 1 2 3 4 5 6 
#
# 1 207.1659 108.1627 82.5380 0.0000 0.0000 0.0000
# 2 108.1627 174.5740 72.7014 0.0000 0.0000 0.0000
# 3 82.5380 72.7014 169.6013 0.0000 0.0000 0.0000
# 4 0.0000 0.0000 0.0000 45.9917 0.0000 0.0000
# 5 0.0000 0.0000 0.0000 0.0000 53.2538 0.0000
# 6 0.0000 0.0000 0.0000 0.0000 0.0000 66.8384
#
#
#
# Elastic Compliance Matrix: (Units=1/GPa)
#
#
# Indices 1 2 3 4 5 6 
#
# 1 0.007689 -0.003902 -0.002069 0.000000 0.000000 0.000000
# 2 -0.003902 0.008953 -0.001939 0.000000 0.000000 0.000000
# 3 -0.002069 -0.001939 0.007734 0.000000 0.000000 0.000000
# 4 0.000000 0.000000 0.000000 0.021743 0.000000 0.000000
# 5 0.000000 0.000000 0.000000 0.000000 0.018778 0.000000
# 6 0.000000 0.000000 0.000000 0.000000 0.000000 0.014961
#
#
# Mechanical properties :
#
#
# Convention : Reuss Voigt Hill
#
# Bulk Modulus (GPa) = 116.87653 119.79391 118.33522
# Shear Modulus (GPa) = 50.74528 52.41271 51.57900
#
# Velocity S-wave (km/s) = 4.18958 4.25786 4.22386
# Velocity P-wave (km/s) = 7.98940 8.09992 8.04485
#
# Compressibility (1/GPa) = 0.00855604
#
# Stress axis : x y z
#
# Youngs Moduli (GPa) = 130.06043 111.68958 129.29433
#
# Poissons Ratio (x) = 0.43583 0.26752
# Poissons Ratio (y) = 0.50751 0.25070
# Poissons Ratio (z) = 0.26911 0.21656
#
# Static dielectric constant tensor:
#      x y z
#    x 1.449280 0.000000 0.000000 
#    y 0.000000 2.702010 0.000000 
#    z 0.000000 0.000000 2.216520 
# 
# From -- ./inp_files/784.got.cif
#   From: 2010.05.17/outbox.cif.g08.bks.cpg/sg32_1_cif.got.tgz:784.got - 2010.06.03 17:12:27.
