data_PCOD9344054
_publ_section_title
;
Structure prediction by ZEFSAII (Michael W. Deem and Ramdas Pophale) SiO2 
 PCOD9344054
Probable space group: P B A 2
;
_chemical_formula_sum "Si O2"
_cell_formula_units_Z 28
_cell_length_a 20.366440
_cell_length_b 9.603576
_cell_length_c 5.544138
_cell_angle_alpha 90.000000
_cell_angle_beta 90.000000
_cell_angle_gamma 90.000000
_cell_volume 1084.381579
_symmetry_space_group_name_H-M "P B A 2"
_symmetry_group_IT_number 32
_symmetry_cell_setting 'orthorhombic'
loop_
_space_group_symop_operation_xyz
x,y,z
-x,-y,z
1/2-x,1/2+y,z
1/2+x,1/2-y,z
loop_
_atom_site_type_symbol
_atom_site_label
_atom_site_fract_x
_atom_site_fract_y
_atom_site_fract_z
Si Si1 0.588861 0.197090 0.240500
Si Si2 0.443673 0.885580 0.737562
Si Si3 0.436624 0.295614 0.667855
Si Si4 0.743885 0.595875 0.794442
Si Si5 0.685304 0.849481 0.516166
Si Si6 0.459167 0.368574 0.171451
Si Si7 0.710745 0.355807 0.109805
O O1 0.595867 0.115522 0.488860
O O2 0.513692 0.249920 0.223663
O O3 0.643909 0.316876 0.248127
O O4 0.594466 0.113271 0.989554
O O5 0.487159 0.743346 0.715525
O O6 0.500000 0.000000 0.747070
O O7 0.391919 0.172328 0.557108
O O8 0.432154 0.400724 0.440746
O O9 0.414667 0.323784 0.944455
O O10 0.710223 0.693278 0.593126
O O11 0.789352 0.475157 0.682366
O O12 0.699111 0.494788 0.957366
O O13 0.775844 0.717335 0.954073
O O14 0.723425 0.877011 0.267392
O O15 0.500000 0.500000 0.082293
#
# Coordination Sequence:
#
# PCOD9344054 Si02
#       7
#     4   4   4   4   4   4   4
#     4  10  24  40  67  96 134 175 228 283 346 418
#     4  10  22  42  64 100 132 178 224 281 349 415
#     4  10  24  40  67  96 134 175 228 283 346 418
#     4  10  26  44  66 102 136 184 236 286 358 416
#     4  11  25  45  69 103 138 186 237 293 355 426
#     4  10  22  42  64 100 132 178 224 281 349 415
#     4  11  25  45  69 103 138 186 237 293 355 426
#
# _framework density 25.821166000000002
#
# number of rings (size 3 to 8) (size 9 to 14) (size 15 to 20)
#    0.000    1.714    0.000    1.714   12.000    2.286 
#    0.000    0.000    0.000    0.000    0.000    0.000 
#    0.000    0.000    0.000    0.000    0.000    0.000 
#
# Total GULP energy -156232.180100 kJ/mol
# GULP energy per Si atom -5579.720718 kJ/mol
# Density = 2.576240 g / cm^3
# Si number density = 25.821166 Si / 1000 Ang^3
#
#
#
# Elastic Constant Matrix: (Units=GPa)
#
#
# Indices 1 2 3 4 5 6 
#
# 1 66.2522 5.5400 -5.7358 0.0000 0.0000 0.0000
# 2 5.5400 121.1505 10.7021 0.0000 0.0000 0.0000
# 3 -5.7358 10.7021 110.2200 0.0000 0.0000 0.0000
# 4 0.0000 0.0000 0.0000 29.3755 0.0000 0.0000
# 5 0.0000 0.0000 0.0000 0.0000 32.8081 0.0000
# 6 0.0000 0.0000 0.0000 0.0000 0.0000 40.5418
#
#
#
# Elastic Compliance Matrix: (Units=1/GPa)
#
#
# Indices 1 2 3 4 5 6 
#
# 1 0.015234 -0.000773 0.000868 0.000000 0.000000 0.000000
# 2 -0.000773 0.008365 -0.000852 0.000000 0.000000 0.000000
# 3 0.000868 -0.000852 0.009201 0.000000 0.000000 0.000000
# 4 0.000000 0.000000 0.000000 0.034042 0.000000 0.000000
# 5 0.000000 0.000000 0.000000 0.000000 0.030480 0.000000
# 6 0.000000 0.000000 0.000000 0.000000 0.000000 0.024666
#
#
# Mechanical properties :
#
#
# Convention : Reuss Voigt Hill
#
# Bulk Modulus (GPa) = 31.96583 35.40393 33.68488
# Shear Modulus (GPa) = 37.33268 39.68617 38.50943
#
# Velocity S-wave (km/s) = 3.80652 3.92466 3.86604
# Velocity P-wave (km/s) = 5.63258 5.85477 5.74475
#
# Compressibility (1/GPa) = 0.03128341
#
# Stress axis : x y z
#
# Youngs Moduli (GPa) = 65.64426 119.54772 108.68742
#
# Poissons Ratio (x) = 0.09244 -0.09432
# Poissons Ratio (y) = 0.05076 0.09265
# Poissons Ratio (z) = -0.05697 0.10191
#
# Static dielectric constant tensor:
#      x y z
#    x 2.058560 0.000000 0.000000 
#    y 0.000000 1.904820 0.000000 
#    z 0.000000 0.000000 2.135430 
# 
# From -- ./inp_files/1562.got.cif
#   From: 2010.05.17/outbox.cif.g08.bks.cpg/sg32_1_cif.got.tgz:1562.got - 2010.06.03 17:12:27.
