data_PCOD9344255
_publ_section_title
;
Structure prediction by ZEFSAII (Michael W. Deem and Ramdas Pophale) SiO2 
 PCOD9344255
Probable space group: P B A 2
;
_chemical_formula_sum "Si O2"
_cell_formula_units_Z 22
_cell_length_a 9.827292
_cell_length_b 16.535300
_cell_length_c 5.429424
_cell_angle_alpha 90.000000
_cell_angle_beta 90.000000
_cell_angle_gamma 90.000000
_cell_volume 882.266314
_symmetry_space_group_name_H-M "P B A 2"
_symmetry_group_IT_number 32
_symmetry_cell_setting 'orthorhombic'
loop_
_space_group_symop_operation_xyz
x,y,z
-x,-y,z
1/2-x,1/2+y,z
1/2+x,1/2-y,z
loop_
_atom_site_type_symbol
_atom_site_label
_atom_site_fract_x
_atom_site_fract_y
_atom_site_fract_z
Si Si1 0.199478 0.841772 0.442350
Si Si2 0.066996 0.114280 0.216958
Si Si3 0.259672 0.019030 0.530592
Si Si4 0.500000 0.500000 0.848436
Si Si5 0.405889 0.790067 0.083765
Si Si6 0.076812 0.679977 0.588136
O O1 0.263688 0.828045 0.171222
O O2 0.191029 0.753431 0.577962
O O3 0.039917 0.866629 0.435359
O O4 0.282554 0.922199 0.528828
O O5 0.188890 0.053832 0.282387
O O6 0.122385 0.195263 0.103690
O O7 0.968394 0.074171 0.022423
O O8 0.367356 0.087962 0.598245
O O9 0.132996 0.025550 0.709990
O O10 0.502823 0.810005 0.321573
O O11 0.479954 0.808326 0.826676
#
# Coordination Sequence:
#
# PCOD9344255 Si02
#       6
#     4   4   4   2   4   4
#     4  11  23  48  73 105 151 196 256 311 380 457
#     4  11  23  43  69 109 137 191 253 322 372 439
#     4  12  24  45  71 112 147 192 257 319 373 450
#     4  12  22  38  78 104 140 182 256 320 380 426
#     4  11  27  47  73 106 154 200 247 302 394 458
#     4  11  28  48  73 111 151 201 248 312 377 461
#
# _framework density 24.935784000000002
#
# number of rings (size 3 to 8) (size 9 to 14) (size 15 to 20)
#    0.000    0.727    5.455    1.091    5.091    5.091 
#    0.000    1.818    0.000    0.000    0.000    0.000 
#    0.000    0.000    0.000    0.000    0.000    0.000 
#
# Total GULP energy -122689.981621 kJ/mol
# GULP energy per Si atom -5576.817346 kJ/mol
# Density = 2.487903 g / cm^3
# Si number density = 24.935784 Si / 1000 Ang^3
#
#
#
# Elastic Constant Matrix: (Units=GPa)
#
#
# Indices 1 2 3 4 5 6 
#
# 1 76.7919 45.1683 40.0691 0.0000 0.0000 0.0000
# 2 45.1683 164.1032 34.6541 0.0000 0.0000 0.0000
# 3 40.0691 34.6541 115.4216 0.0000 0.0000 0.0000
# 4 0.0000 0.0000 0.0000 24.4601 0.0000 0.0000
# 5 0.0000 0.0000 0.0000 0.0000 31.1222 0.0000
# 6 0.0000 0.0000 0.0000 0.0000 0.0000 43.0925
#
#
#
# Elastic Compliance Matrix: (Units=1/GPa)
#
#
# Indices 1 2 3 4 5 6 
#
# 1 0.017941 -0.003868 -0.005067 0.000000 0.000000 0.000000
# 2 -0.003868 0.007340 -0.000861 0.000000 0.000000 0.000000
# 3 -0.005067 -0.000861 0.010681 0.000000 0.000000 0.000000
# 4 0.000000 0.000000 0.000000 0.040883 0.000000 0.000000
# 5 0.000000 0.000000 0.000000 0.000000 0.032131 0.000000
# 6 0.000000 0.000000 0.000000 0.000000 0.000000 0.023206
#
#
# Mechanical properties :
#
#
# Convention : Reuss Voigt Hill
#
# Bulk Modulus (GPa) = 61.08506 66.23330 63.65918
# Shear Modulus (GPa) = 31.80002 35.49663 33.64832
#
# Velocity S-wave (km/s) = 3.57498 3.77705 3.67740
# Velocity P-wave (km/s) = 6.44909 6.75579 6.60422
#
# Compressibility (1/GPa) = 0.01637061
#
# Stress axis : x y z
#
# Youngs Moduli (GPa) = 55.73703 136.23528 93.62049
#
# Poissons Ratio (x) = 0.52699 0.47438
# Poissons Ratio (y) = 0.21560 0.08060
# Poissons Ratio (z) = 0.28242 0.11729
#
# Static dielectric constant tensor:
#      x y z
#    x 1.926430 0.000000 0.000000 
#    y 0.000000 2.048620 0.000000 
#    z 0.000000 0.000000 2.039650 
# 
# From -- ./inp_files/835.got.cif
#   From: 2010.05.17/outbox.cif.g08.bks.cpg/sg32_1_cif.got.tgz:835.got - 2010.06.03 17:12:27.
