data_PCOD9344304
_publ_section_title
;
Structure prediction by ZEFSAII (Michael W. Deem and Ramdas Pophale) SiO2 
 PCOD9344304
Probable space group: P B A 2
;
_chemical_formula_sum "Si O2"
_cell_formula_units_Z 22
_cell_length_a 8.355547
_cell_length_b 14.242848
_cell_length_c 8.132000
_cell_angle_alpha 90.000000
_cell_angle_beta 90.000000
_cell_angle_gamma 90.000000
_cell_volume 967.763183
_symmetry_space_group_name_H-M "P B A 2"
_symmetry_group_IT_number 32
_symmetry_cell_setting 'orthorhombic'
loop_
_space_group_symop_operation_xyz
x,y,z
-x,-y,z
1/2-x,1/2+y,z
1/2+x,1/2-y,z
loop_
_atom_site_type_symbol
_atom_site_label
_atom_site_fract_x
_atom_site_fract_y
_atom_site_fract_z
Si Si1 0.317899 0.158760 0.639330
Si Si2 0.506783 0.681259 0.819098
Si Si3 0.218182 0.944334 0.059770
Si Si4 0.955405 0.707774 0.135557
Si Si5 0.500000 0.000000 0.814527
Si Si6 0.280176 0.626922 0.265848
O O1 0.378339 0.263590 0.690499
O O2 0.453321 0.088076 0.703069
O O3 0.282758 0.134421 0.450743
O O4 0.149311 0.141729 0.730764
O O5 0.590769 0.605582 0.939053
O O6 0.444644 0.759184 0.947845
O O7 0.351009 0.982369 0.933426
O O8 0.313505 0.865650 0.164212
O O9 0.174327 0.027607 0.185287
O O10 0.923724 0.799255 0.244782
O O11 0.128765 0.664333 0.161104
#
# Coordination Sequence:
#
# PCOD9344304 Si02
#       6
#     4   4   4   4   2   4
#     4  12  26  46  72 114 150 196 245 338 389 446
#     4  12  23  49  76 103 148 199 261 302 382 468
#     4  12  24  46  76 105 143 203 258 301 369 479
#     4  12  22  46  74 103 141 202 248 300 372 481
#     4  12  24  44  72 104 140 196 254 298 386 460
#     4  12  27  45  74 112 153 188 254 321 396 436
#
# _framework density 22.732834
#
# number of rings (size 3 to 8) (size 9 to 14) (size 15 to 20)
#    0.000    0.000    7.273    2.182    2.545    2.909 
#    0.000    1.818    0.000    0.000    0.000    0.000 
#    0.000    0.000    0.000    0.000    0.000    0.000 
#
# Total GULP energy -123109.487337 kJ/mol
# GULP energy per Si atom -5595.885788 kJ/mol
# Density = 2.268109 g / cm^3
# Si number density = 22.732834 Si / 1000 Ang^3
#
#
#
# Elastic Constant Matrix: (Units=GPa)
#
#
# Indices 1 2 3 4 5 6 
#
# 1 80.0576 39.1488 10.1160 0.0000 0.0000 0.0000
# 2 39.1488 140.3395 45.0332 0.0000 0.0000 0.0000
# 3 10.1160 45.0332 109.7457 0.0000 0.0000 0.0000
# 4 0.0000 0.0000 0.0000 25.3582 0.0000 0.0000
# 5 0.0000 0.0000 0.0000 0.0000 32.1686 0.0000
# 6 0.0000 0.0000 0.0000 0.0000 0.0000 46.5285
#
#
#
# Elastic Compliance Matrix: (Units=1/GPa)
#
#
# Indices 1 2 3 4 5 6 
#
# 1 0.014477 -0.004158 0.000372 0.000000 0.000000 0.000000
# 2 -0.004158 0.009400 -0.003474 0.000000 0.000000 0.000000
# 3 0.000372 -0.003474 0.010503 0.000000 0.000000 0.000000
# 4 0.000000 0.000000 0.000000 0.039435 0.000000 0.000000
# 5 0.000000 0.000000 0.000000 0.000000 0.031086 0.000000
# 6 0.000000 0.000000 0.000000 0.000000 0.000000 0.021492
#
#
# Mechanical properties :
#
#
# Convention : Reuss Voigt Hill
#
# Bulk Modulus (GPa) = 50.35163 57.63765 53.99464
# Shear Modulus (GPa) = 33.89036 36.53405 35.21221
#
# Velocity S-wave (km/s) = 3.86529 4.01322 3.93995
# Velocity P-wave (km/s) = 6.48984 6.84719 6.67091
#
# Compressibility (1/GPa) = 0.01986033
#
# Stress axis : x y z
#
# Youngs Moduli (GPa) = 69.07391 106.38064 95.20850
#
# Poissons Ratio (x) = 0.44231 -0.03538
# Poissons Ratio (y) = 0.28720 0.33076
# Poissons Ratio (z) = -0.02567 0.36957
#
# Static dielectric constant tensor:
#      x y z
#    x 1.857980 0.000000 0.000000 
#    y 0.000000 1.912790 0.000000 
#    z 0.000000 0.000000 1.810660 
# 
# From -- ./inp_files/2303.got.cif
#   From: 2010.05.17/outbox.cif.g08.bks.cpg/sg32_2_cif.got.tgz:2303.got - 2010.06.03 17:12:27.
