data_PCOD9344965
_publ_section_title
;
Structure prediction by ZEFSAII (Michael W. Deem and Ramdas Pophale) SiO2 
 PCOD9344965
Probable space group: P N A 21
;
_chemical_formula_sum "Si O2"
_cell_formula_units_Z 32
_cell_length_a 18.915634
_cell_length_b 6.755030
_cell_length_c 12.075313
_cell_angle_alpha 90.000000
_cell_angle_beta 90.000000
_cell_angle_gamma 90.000000
_cell_volume 1542.931271
_symmetry_space_group_name_H-M "P N A 21"
_symmetry_group_IT_number 33
_symmetry_cell_setting 'orthorhombic'
loop_
_space_group_symop_operation_xyz
x,y,z
-x,-y,1/2+z
1/2-x,1/2+y,1/2+z
1/2+x,1/2-y,z
loop_
_atom_site_type_symbol
_atom_site_label
_atom_site_fract_x
_atom_site_fract_y
_atom_site_fract_z
Si Si1 0.983929 0.333282 0.674840
Si Si2 0.803020 0.861433 0.416748
Si Si3 0.821542 0.661624 0.979078
Si Si4 0.921639 0.319340 0.915773
Si Si5 0.483589 0.278856 0.122586
Si Si6 0.299038 0.462696 0.839979
Si Si7 0.115983 0.986113 0.121474
Si Si8 0.127150 0.080222 0.682176
O O1 0.949177 0.353070 0.794173
O O2 0.924975 0.221745 0.599027
O O3 0.005287 0.550889 0.642594
O O4 0.055320 0.208073 0.685727
O O5 0.772324 0.644567 0.382970
O O6 0.833249 0.933295 0.298778
O O7 0.741082 0.002532 0.465286
O O8 0.859249 0.889131 0.515390
O O9 0.891411 0.525848 0.964348
O O10 0.808008 0.813825 0.879190
O O11 0.827468 0.803375 0.087796
O O12 0.858073 0.165655 0.902564
O O13 0.980139 0.210393 0.989566
O O14 0.550272 0.392017 0.174447
O O15 0.406824 0.365137 0.155599
O O16 0.321009 0.453426 0.710106
#
# Coordination Sequence:
#
# PCOD9344965 Si02
#       8
#     4   4   4   4   4   4   4   4
#     4  10  22  38  63  91 125 163 204 277 310 384
#     4  11  25  40  62  93 126 168 209 264 310 383
#     4  11  22  40  64  88 125 171 207 262 314 382
#     4  10  20  38  61  90 123 163 215 249 330 372
#     4  11  21  38  66  90 123 169 199 271 319 372
#     4  10  22  41  62  86 126 168 205 261 310 380
#     4  10  23  41  60  95 127 159 219 257 319 377
#     4  11  23  40  60  95 127 159 220 261 320 378
#
# _framework density 20.739744000000002
#
# number of rings (size 3 to 8) (size 9 to 14) (size 15 to 20)
#    0.000    1.500    2.500    2.250    0.000    4.000 
#    0.000    0.000    0.000    0.000    0.000    0.000 
#    0.000    0.000    0.000    0.000    0.000    0.000 
#
# Total GULP energy -178182.961110 kJ/mol
# GULP energy per Si atom -5568.217535 kJ/mol
# Density = 2.069254 g / cm^3
# Si number density = 20.739744 Si / 1000 Ang^3
#
#
#
# Elastic Constant Matrix: (Units=GPa)
#
#
# Indices 1 2 3 4 5 6 
#
# 1 59.0553 0.9670 15.8594 0.0000 0.0000 0.0000
# 2 0.9670 50.7134 -13.0832 0.0000 0.0000 0.0000
# 3 15.8594 -13.0832 45.3935 0.0000 0.0000 0.0000
# 4 0.0000 0.0000 0.0000 28.0717 0.0000 0.0000
# 5 0.0000 0.0000 0.0000 0.0000 28.9110 0.0000
# 6 0.0000 0.0000 0.0000 0.0000 0.0000 24.3212
#
#
#
# Elastic Compliance Matrix: (Units=1/GPa)
#
#
# Indices 1 2 3 4 5 6 
#
# 1 0.018918 -0.002232 -0.007253 0.000000 0.000000 0.000000
# 2 -0.002232 0.021566 0.006995 0.000000 0.000000 0.000000
# 3 -0.007253 0.006995 0.026580 0.000000 0.000000 0.000000
# 4 0.000000 0.000000 0.000000 0.035623 0.000000 0.000000
# 5 0.000000 0.000000 0.000000 0.000000 0.034589 0.000000
# 6 0.000000 0.000000 0.000000 0.000000 0.000000 0.041116
#
#
# Mechanical properties :
#
#
# Convention : Reuss Voigt Hill
#
# Bulk Modulus (GPa) = 16.10690 18.07208 17.08949
# Shear Modulus (GPa) = 24.50208 26.35538 25.42873
#
# Velocity S-wave (km/s) = 3.44089 3.56865 3.50535
# Velocity P-wave (km/s) = 4.85483 5.07080 4.96399
#
# Compressibility (1/GPa) = 0.06208518
#
# Stress axis : x y z
#
# Youngs Moduli (GPa) = 52.86108 46.36953 37.62278
#
# Poissons Ratio (x) = 0.10348 0.27286
# Poissons Ratio (y) = 0.11797 -0.26319
# Poissons Ratio (z) = 0.38338 -0.32437
#
# Static dielectric constant tensor:
#      x y z
#    x 1.812150 0.000000 0.000000 
#    y 0.000000 1.785970 0.000000 
#    z 0.000000 0.000000 1.771850 
# 
# From -- ./inp_files/7238.got.cif
#   From: 2010.05.17/outbox.cif.g08.bks.cpg/sg33_4_cif.got.tgz:7238.got - 2010.06.03 17:15:25.
