data_PCOD9344882
_publ_section_title
;
Structure prediction by ZEFSAII (Michael W. Deem and Ramdas Pophale) SiO2 
 PCOD9344882
Probable space group: P N A 21
;
_chemical_formula_sum "Si O2"
_cell_formula_units_Z 28
_cell_length_a 16.881288
_cell_length_b 7.728386
_cell_length_c 8.380709
_cell_angle_alpha 90.000000
_cell_angle_beta 90.000000
_cell_angle_gamma 90.000000
_cell_volume 1093.390120
_symmetry_space_group_name_H-M "P N A 21"
_symmetry_group_IT_number 33
_symmetry_cell_setting 'orthorhombic'
loop_
_space_group_symop_operation_xyz
x,y,z
-x,-y,1/2+z
1/2-x,1/2+y,1/2+z
1/2+x,1/2-y,z
loop_
_atom_site_type_symbol
_atom_site_label
_atom_site_fract_x
_atom_site_fract_y
_atom_site_fract_z
Si Si1 0.022167 0.974857 0.502140
Si Si2 0.908215 0.557673 0.005719
Si Si3 0.122743 0.029843 0.804843
Si Si4 0.538892 0.131346 0.180140
Si Si5 0.348158 0.299532 0.841336
Si Si6 0.305617 0.789284 0.521584
Si Si7 0.731289 0.598917 0.037538
O O1 0.080340 0.047578 0.636777
O O2 0.078147 0.927573 0.352814
O O3 0.992682 0.798191 0.587716
O O4 0.941627 0.046325 0.429781
O O5 0.953339 0.659433 0.867537
O O6 0.879938 0.377749 0.918884
O O7 0.823473 0.637741 0.043222
O O8 0.972996 0.513382 0.139992
O O9 0.198883 0.911866 0.853949
O O10 0.147882 0.218465 0.865718
O O11 0.629096 0.105354 0.117936
O O12 0.276178 0.365355 0.955450
O O13 0.315048 0.284868 0.663642
O O14 0.283571 0.600956 0.598190
#
# Coordination Sequence:
#
# PCOD9344882 Si02
#       7
#     4   4   4   4   4   4   4
#     4  10  20  36  62  85 116 155 191 240 300 337
#     4  10  23  40  59  87 124 153 203 236 301 360
#     4   9  19  37  56  87 116 144 193 246 276 351
#     4  10  22  40  58  85 119 159 190 249 294 357
#     4  10  20  37  63  83 119 163 185 245 297 343
#     4   8  20  37  58  83 121 144 196 246 291 333
#     4   9  20  39  58  88 119 148 204 244 283 359
#
# _framework density 25.608426000000001
#
# number of rings (size 3 to 8) (size 9 to 14) (size 15 to 20)
#    0.857    1.714    0.000    0.857    4.000    1.143 
#    2.571    1.429    0.000    0.000    0.000    0.000 
#    0.000    0.000    0.000    0.000    0.000    0.000 
#
# Total GULP energy -156243.083601 kJ/mol
# GULP energy per Si atom -5580.110129 kJ/mol
# Density = 2.555014 g / cm^3
# Si number density = 25.608426 Si / 1000 Ang^3
#
#
#
# Elastic Constant Matrix: (Units=GPa)
#
#
# Indices 1 2 3 4 5 6 
#
# 1 150.7597 35.1497 21.6659 0.0000 0.0000 0.0000
# 2 35.1497 26.7972 2.6341 0.0000 0.0000 0.0000
# 3 21.6659 2.6341 68.3180 0.0000 0.0000 0.0000
# 4 0.0000 0.0000 0.0000 25.0522 0.0000 0.0000
# 5 0.0000 0.0000 0.0000 0.0000 51.8227 0.0000
# 6 0.0000 0.0000 0.0000 0.0000 0.0000 23.8248
#
#
#
# Elastic Compliance Matrix: (Units=1/GPa)
#
#
# Indices 1 2 3 4 5 6 
#
# 1 0.010022 -0.012882 -0.002682 0.000000 0.000000 0.000000
# 2 -0.012882 0.054018 0.002003 0.000000 0.000000 0.000000
# 3 -0.002682 0.002003 0.015411 0.000000 0.000000 0.000000
# 4 0.000000 0.000000 0.000000 0.039917 0.000000 0.000000
# 5 0.000000 0.000000 0.000000 0.000000 0.019297 0.000000
# 6 0.000000 0.000000 0.000000 0.000000 0.000000 0.041973
#
#
# Mechanical properties :
#
#
# Convention : Reuss Voigt Hill
#
# Bulk Modulus (GPa) = 19.11016 40.53047 29.82031
# Shear Modulus (GPa) = 22.20233 32.56829 27.38531
#
# Velocity S-wave (km/s) = 2.94767 3.57007 3.27370
# Velocity P-wave (km/s) = 4.36619 5.73195 5.09504
#
# Compressibility (1/GPa) = 0.05232820
#
# Stress axis : x y z
#
# Youngs Moduli (GPa) = 99.78137 18.51242 64.89026
#
# Poissons Ratio (x) = 0.23848 0.17401
# Poissons Ratio (y) = 1.28539 -0.12995
# Poissons Ratio (z) = 0.26757 -0.03707
#
# Static dielectric constant tensor:
#      x y z
#    x 1.985970 0.000000 0.000000 
#    y 0.000000 2.091030 0.000000 
#    z 0.000000 0.000000 2.049910 
# 
# From -- ./inp_files/4836.got.cif
#   From: 2010.05.17/outbox.cif.g08.bks.cpg/sg33_3_cif.got.tgz:4836.got - 2010.06.03 17:15:25.
