data_PCOD9344163
_publ_section_title
;
Structure prediction by ZEFSAII (Michael W. Deem and Ramdas Pophale) SiO2 
 PCOD9344163
Probable space group: P B A 2
;
_chemical_formula_sum "Si O2"
_cell_formula_units_Z 18
_cell_length_a 9.248546
_cell_length_b 16.348817
_cell_length_c 4.811713
_cell_angle_alpha 90.000000
_cell_angle_beta 90.000000
_cell_angle_gamma 90.000000
_cell_volume 727.544411
_symmetry_space_group_name_H-M "P B A 2"
_symmetry_group_IT_number 32
_symmetry_cell_setting 'orthorhombic'
loop_
_space_group_symop_operation_xyz
x,y,z
-x,-y,z
1/2-x,1/2+y,z
1/2+x,1/2-y,z
loop_
_atom_site_type_symbol
_atom_site_label
_atom_site_fract_x
_atom_site_fract_y
_atom_site_fract_z
Si Si1 0.672219 0.787577 0.229640
Si Si2 0.126329 0.349128 0.026757
Si Si3 0.812476 0.548920 0.494522
Si Si4 0.736922 0.387161 0.740292
Si Si5 0.500000 0.500000 0.538507
O O1 0.738883 0.702008 0.141175
O O2 0.510088 0.793717 0.112392
O O3 0.710956 0.812135 0.545380
O O4 0.749307 0.859610 0.054074
O O5 0.107069 0.429093 0.215542
O O6 0.154540 0.379236 0.715487
O O7 0.838519 0.462717 0.646951
O O8 0.642776 0.539078 0.404063
O O9 0.577108 0.424545 0.698139
#
# Coordination Sequence:
#
# PCOD9344163 Si02
#       5
#     4   4   4   4   2
#     4  12  27  42  67  97 135 173 215 272 325 384
#     4  12  27  42  67  97 135 173 215 272 325 384
#     4  10  24  43  70  94 129 173 220 262 322 390
#     4  10  24  43  70  94 129 173 220 262 322 390
#     4   8  24  42  74  94 132 170 212 274 320 394
#
# _framework density 24.740755
#
# number of rings (size 3 to 8) (size 9 to 14) (size 15 to 20)
#    1.333    0.000    0.000    4.000    6.222    7.111 
#    0.000    0.000    0.000    0.000    0.000    0.000 
#    0.000    0.000    0.000    0.000    0.000    0.000 
#
# Total GULP energy -100462.524760 kJ/mol
# GULP energy per Si atom -5581.251376 kJ/mol
# Density = 2.468444 g / cm^3
# Si number density = 24.740755 Si / 1000 Ang^3
#
#
#
# Elastic Constant Matrix: (Units=GPa)
#
#
# Indices 1 2 3 4 5 6 
#
# 1 100.1643 34.1410 9.7454 0.0000 0.0000 0.0000
# 2 34.1410 76.5138 10.2058 0.0000 0.0000 0.0000
# 3 9.7454 10.2058 89.1926 0.0000 0.0000 0.0000
# 4 0.0000 0.0000 0.0000 25.7162 0.0000 0.0000
# 5 0.0000 0.0000 0.0000 0.0000 8.4743 0.0000
# 6 0.0000 0.0000 0.0000 0.0000 0.0000 24.6755
#
#
#
# Elastic Compliance Matrix: (Units=1/GPa)
#
#
# Indices 1 2 3 4 5 6 
#
# 1 0.011817 -0.005180 -0.000698 0.000000 0.000000 0.000000
# 2 -0.005180 0.015542 -0.001212 0.000000 0.000000 0.000000
# 3 -0.000698 -0.001212 0.011427 0.000000 0.000000 0.000000
# 4 0.000000 0.000000 0.000000 0.038886 0.000000 0.000000
# 5 0.000000 0.000000 0.000000 0.000000 0.118004 0.000000
# 6 0.000000 0.000000 0.000000 0.000000 0.000000 0.040526
#
#
# Mechanical properties :
#
#
# Convention : Reuss Voigt Hill
#
# Bulk Modulus (GPa) = 40.64220 41.56168 41.10194
# Shear Modulus (GPa) = 19.33597 25.89174 22.61386
#
# Velocity S-wave (km/s) = 2.79864 3.23851 3.02658
# Velocity P-wave (km/s) = 5.18711 5.55151 5.37240
#
# Compressibility (1/GPa) = 0.02460497
#
# Stress axis : x y z
#
# Youngs Moduli (GPa) = 84.62351 64.33978 87.51391
#
# Poissons Ratio (x) = 0.33326 0.06113
# Poissons Ratio (y) = 0.43832 0.10611
# Poissons Ratio (z) = 0.05911 0.07801
#
# Static dielectric constant tensor:
#      x y z
#    x 2.077310 0.000000 0.000000 
#    y 0.000000 1.993420 0.000000 
#    z 0.000000 0.000000 1.921470 
# 
# From -- ./inp_files/470.got.cif
#   From: 2010.05.17/outbox.cif.g08.bks.cpg/sg32_1_cif.got.tgz:470.got - 2010.06.03 17:12:27.
