data_PCOD9344033
_publ_section_title
;
Structure prediction by ZEFSAII (Michael W. Deem and Ramdas Pophale) SiO2 
 PCOD9344033
Probable space group: P B A 2
;
_chemical_formula_sum "Si O2"
_cell_formula_units_Z 30
_cell_length_a 15.218910
_cell_length_b 8.563529
_cell_length_c 11.061792
_cell_angle_alpha 90.000000
_cell_angle_beta 90.000000
_cell_angle_gamma 90.000000
_cell_volume 1441.656550
_symmetry_space_group_name_H-M "P B A 2"
_symmetry_group_IT_number 32
_symmetry_cell_setting 'orthorhombic'
loop_
_space_group_symop_operation_xyz
x,y,z
-x,-y,z
1/2-x,1/2+y,z
1/2+x,1/2-y,z
loop_
_atom_site_type_symbol
_atom_site_label
_atom_site_fract_x
_atom_site_fract_y
_atom_site_fract_z
Si Si1 0.649016 0.310032 0.931480
Si Si2 0.036776 0.655934 0.944423
Si Si3 0.718296 0.587413 0.781798
Si Si4 0.029026 0.176852 0.351154
Si Si5 0.133882 0.622538 0.693215
Si Si6 0.868684 0.229457 0.171507
Si Si7 0.500000 0.000000 0.497611
Si Si8 0.800697 0.886996 0.200509
O O1 0.547357 0.263013 0.920048
O O2 0.664289 0.479796 0.873709
O O3 0.713459 0.194185 0.857971
O O4 0.675514 0.308050 0.071841
O O5 0.082424 0.603979 0.820402
O O6 0.000000 0.500000 0.006999
O O7 0.106842 0.728803 0.034695
O O8 0.776535 0.472849 0.701869
O O9 0.658288 0.695393 0.697670
O O10 0.127747 0.163692 0.299421
O O11 0.959600 0.206365 0.242477
O O12 0.022971 0.337862 0.427856
O O13 0.000000 0.000000 0.399148
O O14 0.078465 0.555365 0.584705
O O15 0.801114 0.353805 0.227281
O O16 0.816704 0.068741 0.179867
#
# Coordination Sequence:
#
# PCOD9344033 Si02
#       8
#     4   4   4   4   4   4   2   4
#     4  11  20  37  63 100 143 177 212 277 349 429
#     4  12  23  37  66 100 142 182 222 278 355 426
#     4  10  22  40  65 100 138 172 225 280 349 424
#     4  10  26  50  68 100 138 180 242 294 340 416
#     4  11  23  46  65  99 132 177 228 285 343 421
#     4  11  25  41  68 102 136 174 222 282 356 423
#     4  12  26  52  72  90 136 188 240 294 352 390
#     4  11  23  41  66 101 139 177 222 280 349 424
#
# _framework density 20.809394999999999
#
# number of rings (size 3 to 8) (size 9 to 14) (size 15 to 20)
#    0.000    1.067    3.333    3.200    4.667    1.600 
#    9.600    0.000    0.000    0.000    0.000    0.000 
#    0.000    0.000    0.000    0.000    0.000    0.000 
#
# Total GULP energy -167575.493425 kJ/mol
# GULP energy per Si atom -5585.849781 kJ/mol
# Density = 2.076203 g / cm^3
# Si number density = 20.809395 Si / 1000 Ang^3
#
#
#
# Elastic Constant Matrix: (Units=GPa)
#
#
# Indices 1 2 3 4 5 6 
#
# 1 91.6287 42.1959 8.3070 0.0000 0.0000 0.0000
# 2 42.1959 137.0519 47.4094 0.0000 0.0000 0.0000
# 3 8.3070 47.4094 53.7976 0.0000 0.0000 0.0000
# 4 0.0000 0.0000 0.0000 17.4192 0.0000 0.0000
# 5 0.0000 0.0000 0.0000 0.0000 -5.9543 0.0000
# 6 0.0000 0.0000 0.0000 0.0000 0.0000 36.7684
#
#
#
# Elastic Compliance Matrix: (Units=1/GPa)
#
#
# Indices 1 2 3 4 5 6 
#
# 1 0.012890 -0.004719 0.002168 0.000000 0.000000 0.000000
# 2 -0.004719 0.012224 -0.010043 0.000000 0.000000 0.000000
# 3 0.002168 -0.010043 0.027104 0.000000 0.000000 0.000000
# 4 0.000000 0.000000 0.000000 0.057408 0.000000 0.000000
# 5 0.000000 0.000000 0.000000 0.000000 -0.167947 0.000000
# 6 0.000000 0.000000 0.000000 0.000000 0.000000 0.027197
#
#
# Mechanical properties :
#
#
# Convention : Reuss Voigt Hill
#
# Bulk Modulus (GPa) = 36.99651 53.14477 45.07064
# Shear Modulus (GPa) = 1626.54160 21.95104 824.24632
#
# Velocity S-wave (km/s) = 27.98812 3.25139 19.92369
# Velocity P-wave (km/s) = 32.59239 6.29997 23.47290
#
# Compressibility (1/GPa) = 0.02702958
#
# Stress axis : x y z
#
# Youngs Moduli (GPa) = 77.57950 81.80952 36.89455
#
# Poissons Ratio (x) = 0.38602 -0.07998
# Poissons Ratio (y) = 0.36606 0.37055
# Poissons Ratio (z) = -0.16818 0.82165
#
# Static dielectric constant tensor:
#      x y z
#    x 1.766340 0.000000 0.000000 
#    y 0.000000 1.829870 0.000000 
#    z 0.000000 0.000000 1.721310 
# 
# From -- ./inp_files/3739.got.cif
#   From: 2010.05.17/outbox.cif.g08.bks.cpg/sg32_2_cif.got.tgz:3739.got - 2010.06.03 17:12:27.
