data_PCOD9344878
_publ_section_title
;
Structure prediction by ZEFSAII (Michael W. Deem and Ramdas Pophale) SiO2 
 PCOD9344878
Probable space group: P N A 21
;
_chemical_formula_sum "Si O2"
_cell_formula_units_Z 20
_cell_length_a 24.775721
_cell_length_b 5.210518
_cell_length_c 6.737979
_cell_angle_alpha 90.000000
_cell_angle_beta 90.000000
_cell_angle_gamma 90.000000
_cell_volume 869.834954
_symmetry_space_group_name_H-M "P N A 21"
_symmetry_group_IT_number 33
_symmetry_cell_setting 'orthorhombic'
loop_
_space_group_symop_operation_xyz
x,y,z
-x,-y,1/2+z
1/2-x,1/2+y,1/2+z
1/2+x,1/2-y,z
loop_
_atom_site_type_symbol
_atom_site_label
_atom_site_fract_x
_atom_site_fract_y
_atom_site_fract_z
Si Si1 0.295134 0.364271 0.051410
Si Si2 0.688184 0.132706 0.812999
Si Si3 0.097977 0.797128 0.379672
Si Si4 0.541394 0.205299 0.396732
Si Si5 0.574229 0.968692 0.778612
O O1 0.299889 0.083370 0.147142
O O2 0.308563 0.590282 0.207180
O O3 0.234612 0.395202 0.974351
O O4 0.339172 0.370202 0.871782
O O5 0.628052 0.062023 0.886025
O O6 0.059569 0.025001 0.309134
O O7 0.077323 0.523851 0.302070
O O8 0.089422 0.750525 0.617194
O O9 0.557274 0.196633 0.628367
O O10 0.479292 0.127609 0.383921
#
# Coordination Sequence:
#
# PCOD9344878 Si02
#       5
#     4   4   4   4   4
#     4  11  21  43  63  87 124 163 200 255 304 352
#     4  11  23  41  64  89 125 160 203 253 301 362
#     4   9  20  36  58  79 119 152 187 238 296 338
#     4  10  20  36  61  82 116 156 187 240 292 354
#     4   9  22  38  60  83 122 149 195 240 299 344
#
# _framework density 22.992864999999998
#
# number of rings (size 3 to 8) (size 9 to 14) (size 15 to 20)
#    1.200    0.800    2.000    1.200    2.800    0.000 
#    7.200    0.000    0.000    0.000    0.000    0.000 
#    0.000    0.000    0.000    0.000    0.000    0.000 
#
# Total GULP energy -111519.405545 kJ/mol
# GULP energy per Si atom -5575.970277 kJ/mol
# Density = 2.294053 g / cm^3
# Si number density = 22.992865 Si / 1000 Ang^3
#
#
#
# Elastic Constant Matrix: (Units=GPa)
#
#
# Indices 1 2 3 4 5 6 
#
# 1 147.6561 12.8407 36.9132 0.0000 0.0000 0.0000
# 2 12.8407 106.7158 -2.5051 0.0000 0.0000 0.0000
# 3 36.9132 -2.5051 21.8651 0.0000 0.0000 0.0000
# 4 0.0000 0.0000 0.0000 1.3965 0.0000 0.0000
# 5 0.0000 0.0000 0.0000 0.0000 35.1158 0.0000
# 6 0.0000 0.0000 0.0000 0.0000 0.0000 27.3085
#
#
#
# Elastic Compliance Matrix: (Units=1/GPa)
#
#
# Indices 1 2 3 4 5 6 
#
# 1 0.012106 -0.001942 -0.020661 0.000000 0.000000 0.000000
# 2 -0.001942 0.009707 0.004390 0.000000 0.000000 0.000000
# 3 -0.020661 0.004390 0.081118 0.000000 0.000000 0.000000
# 4 0.000000 0.000000 0.000000 0.716099 0.000000 0.000000
# 5 0.000000 0.000000 0.000000 0.000000 0.028477 0.000000
# 6 0.000000 0.000000 0.000000 0.000000 0.000000 0.036619
#
#
# Mechanical properties :
#
#
# Convention : Reuss Voigt Hill
#
# Bulk Modulus (GPa) = 15.03597 41.19271 28.11434
# Shear Modulus (GPa) = 5.30380 28.03004 16.66692
#
# Velocity S-wave (km/s) = 1.52044 3.49531 2.69527
# Velocity P-wave (km/s) = 3.10417 5.85183 4.68401
#
# Compressibility (1/GPa) = 0.06650720
#
# Stress axis : x y z
#
# Youngs Moduli (GPa) = 82.60064 103.01435 12.32772
#
# Poissons Ratio (x) = 0.20003 0.25470
# Poissons Ratio (y) = 0.16039 -0.05412
# Poissons Ratio (z) = 1.70660 -0.45226
#
# Static dielectric constant tensor:
#      x y z
#    x 1.921000 0.000000 0.000000 
#    y 0.000000 1.837630 0.000000 
#    z 0.000000 0.000000 1.901230 
# 
# From -- ./inp_files/4895.got.cif
#   From: 2010.05.17/outbox.cif.g08.bks.cpg/sg33_3_cif.got.tgz:4895.got - 2010.06.03 17:15:25.
