data_PCOD9344587
_publ_section_title
;
Structure prediction by ZEFSAII (Michael W. Deem and Ramdas Pophale) SiO2 
 PCOD9344587
Probable space group: P N A 21
;
_chemical_formula_sum "Si O2"
_cell_formula_units_Z 32
_cell_length_a 9.234763
_cell_length_b 11.305807
_cell_length_c 11.764704
_cell_angle_alpha 90.000000
_cell_angle_beta 90.000000
_cell_angle_gamma 90.000000
_cell_volume 1228.310958
_symmetry_space_group_name_H-M "P N A 21"
_symmetry_group_IT_number 33
_symmetry_cell_setting 'orthorhombic'
loop_
_space_group_symop_operation_xyz
x,y,z
-x,-y,1/2+z
1/2-x,1/2+y,1/2+z
1/2+x,1/2-y,z
loop_
_atom_site_type_symbol
_atom_site_label
_atom_site_fract_x
_atom_site_fract_y
_atom_site_fract_z
Si Si1 0.341671 0.675813 0.606010
Si Si2 0.582770 0.279561 0.588245
Si Si3 0.065573 0.668376 0.730048
Si Si4 0.051194 0.524492 0.077469
Si Si5 0.251515 0.378682 0.953792
Si Si6 0.652629 0.685901 0.937953
Si Si7 0.512188 0.751974 0.322006
Si Si8 0.293084 0.045735 0.904721
O O1 0.229409 0.629266 0.699067
O O2 0.488133 0.723383 0.661315
O O3 0.261435 0.793326 0.561790
O O4 0.326820 0.597212 0.493316
O O5 0.483263 0.360723 0.509970
O O6 0.727537 0.237606 0.525351
O O7 0.565531 0.317304 0.718226
O O8 0.490831 0.157236 0.602104
O O9 0.081494 0.715248 0.857070
O O10 0.971101 0.556268 0.689703
O O11 0.926657 0.479661 0.990924
O O12 0.200867 0.501650 0.010109
O O13 0.399804 0.349520 0.891186
O O14 0.120111 0.327931 0.875514
O O15 0.730136 0.581118 0.867591
O O16 0.641556 0.852995 0.322952
#
# Coordination Sequence:
#
# PCOD9344587 Si02
#       8
#     4   4   4   4   4   4   4   4
#     4   9  17  34  57  85 112 144 195 247 293 348
#     4  11  23  39  58  86 124 162 199 244 301 368
#     4  10  19  34  60  86 112 154 197 242 296 356
#     4   8  18  35  58  84 111 150 201 242 288 359
#     4   9  17  33  57  85 110 143 197 252 289 340
#     4  11  23  40  58  86 126 160 197 250 307 366
#     4  10  19  35  58  83 113 154 193 235 296 357
#     4   8  18  36  56  79 116 155 193 244 298 356
#
# _framework density 26.052033000000002
#
# number of rings (size 3 to 8) (size 9 to 14) (size 15 to 20)
#    0.000    2.500    0.000    3.750    0.000    5.000 
#    0.000   10.000    0.000    3.000    0.000    0.000 
#    0.000    0.000    0.000    0.000    0.000    0.000 
#
# Total GULP energy -178310.511330 kJ/mol
# GULP energy per Si atom -5572.203479 kJ/mol
# Density = 2.599274 g / cm^3
# Si number density = 26.052033 Si / 1000 Ang^3
#
#
#
# Elastic Constant Matrix: (Units=GPa)
#
#
# Indices 1 2 3 4 5 6 
#
# 1 146.2266 11.0796 52.3904 0.0000 0.0000 0.0000
# 2 11.0796 62.3370 -7.5295 0.0000 0.0000 0.0000
# 3 52.3904 -7.5295 75.4766 0.0000 0.0000 0.0000
# 4 0.0000 0.0000 0.0000 13.2878 0.0000 0.0000
# 5 0.0000 0.0000 0.0000 0.0000 42.8952 0.0000
# 6 0.0000 0.0000 0.0000 0.0000 0.0000 24.6242
#
#
#
# Elastic Compliance Matrix: (Units=1/GPa)
#
#
# Indices 1 2 3 4 5 6 
#
# 1 0.009475 -0.002509 -0.006827 0.000000 0.000000 0.000000
# 2 -0.002509 0.016902 0.003427 0.000000 0.000000 0.000000
# 3 -0.006827 0.003427 0.018330 0.000000 0.000000 0.000000
# 4 0.000000 0.000000 0.000000 0.075257 0.000000 0.000000
# 5 0.000000 0.000000 0.000000 0.000000 0.023313 0.000000
# 6 0.000000 0.000000 0.000000 0.000000 0.000000 0.040610
#
#
# Mechanical properties :
#
#
# Convention : Reuss Voigt Hill
#
# Bulk Modulus (GPa) = 30.40440 43.99124 37.19782
# Shear Modulus (GPa) = 24.19359 31.36807 27.78083
#
# Velocity S-wave (km/s) = 3.05071 3.47371 3.26906
# Velocity P-wave (km/s) = 4.90969 5.74556 5.34399
#
# Compressibility (1/GPa) = 0.03288997
#
# Stress axis : x y z
#
# Youngs Moduli (GPa) = 105.54356 59.16562 54.55584
#
# Poissons Ratio (x) = 0.14842 0.37245
# Poissons Ratio (y) = 0.26477 -0.18699
# Poissons Ratio (z) = 0.72054 -0.20279
#
# Static dielectric constant tensor:
#      x y z
#    x 2.079690 0.000000 0.000000 
#    y 0.000000 2.140620 0.000000 
#    z 0.000000 0.000000 2.139530 
# 
# From -- ./inp_files/6017.got.cif
#   From: 2010.05.17/outbox.cif.g08.bks.cpg/sg33_4_cif.got.tgz:6017.got - 2010.06.03 17:15:25.
