data_PCOD9344200
_publ_section_title
;
Structure prediction by ZEFSAII (Michael W. Deem and Ramdas Pophale) SiO2 
 PCOD9344200
Probable space group: P B A 2
;
_chemical_formula_sum "Si O2"
_cell_formula_units_Z 32
_cell_length_a 15.505514
_cell_length_b 9.168492
_cell_length_c 10.401325
_cell_angle_alpha 90.000000
_cell_angle_beta 90.000000
_cell_angle_gamma 90.000000
_cell_volume 1478.675048
_symmetry_space_group_name_H-M "P B A 2"
_symmetry_group_IT_number 32
_symmetry_cell_setting 'orthorhombic'
loop_
_space_group_symop_operation_xyz
x,y,z
-x,-y,z
1/2-x,1/2+y,z
1/2+x,1/2-y,z
loop_
_atom_site_type_symbol
_atom_site_label
_atom_site_fract_x
_atom_site_fract_y
_atom_site_fract_z
Si Si1 0.570028 0.127614 0.884140
Si Si2 0.787637 0.577275 0.690738
Si Si3 0.001957 0.162179 0.661143
Si Si4 0.693856 0.443987 0.268084
Si Si5 0.915612 0.396367 0.510552
Si Si6 0.857931 0.278673 0.236723
Si Si7 0.678330 0.377376 0.563175
Si Si8 0.531356 0.338265 0.109833
O O1 0.662148 0.074857 0.826207
O O2 0.531809 0.225031 0.768714
O O3 0.500000 0.000000 0.907252
O O4 0.575332 0.235249 0.004187
O O5 0.845987 0.486406 0.590646
O O6 0.696563 0.500577 0.670535
O O7 0.782326 0.736091 0.630281
O O8 0.076774 0.148529 0.554746
O O9 0.927362 0.244149 0.585755
O O10 0.000000 0.000000 0.716205
O O11 0.777869 0.381289 0.193296
O O12 0.682956 0.618129 0.258594
O O13 0.706815 0.406451 0.418402
O O14 0.604781 0.371980 0.216746
O O15 0.891614 0.354518 0.366630
O O16 0.000000 0.500000 0.512844
O O17 0.944356 0.246202 0.154650
O O18 0.500000 0.500000 0.065093
#
# Coordination Sequence:
#
# PCOD9344200 Si02
#       8
#     4   4   4   4   4   4   4   4
#     4  11  22  44  65  90 127 176 227 285 329 404
#     4  11  23  39  62  96 136 170 217 281 345 414
#     4  11  22  37  64  93 124 175 219 275 343 403
#     4  11  23  43  65 102 144 175 234 291 354 418
#     4  12  21  40  63  95 137 165 226 276 349 424
#     4  11  25  40  70  98 133 183 222 296 352 427
#     4  11  22  37  61  95 134 170 207 280 354 410
#     4  10  25  47  66  95 136 187 248 285 342 419
#
# _framework density 21.640995
#
# number of rings (size 3 to 8) (size 9 to 14) (size 15 to 20)
#    0.000    1.000    5.000    2.625    1.750    2.500 
#    0.000    8.750    0.000    0.000    0.000    0.000 
#    0.000    0.000    0.000    0.000    0.000    0.000 
#
# Total GULP energy -178549.899114 kJ/mol
# GULP energy per Si atom -5579.684347 kJ/mol
# Density = 2.159174 g / cm^3
# Si number density = 21.640995 Si / 1000 Ang^3
#
#
#
# Elastic Constant Matrix: (Units=GPa)
#
#
# Indices 1 2 3 4 5 6 
#
# 1 87.9969 35.9517 20.5978 0.0000 0.0000 0.0000
# 2 35.9517 108.9927 31.2030 0.0000 0.0000 0.0000
# 3 20.5978 31.2030 68.6737 0.0000 0.0000 0.0000
# 4 0.0000 0.0000 0.0000 30.4027 0.0000 0.0000
# 5 0.0000 0.0000 0.0000 0.0000 -15.3511 0.0000
# 6 0.0000 0.0000 0.0000 0.0000 0.0000 34.1623
#
#
#
# Elastic Compliance Matrix: (Units=1/GPa)
#
#
# Indices 1 2 3 4 5 6 
#
# 1 0.013448 -0.003772 -0.002320 0.000000 0.000000 0.000000
# 2 -0.003772 0.011605 -0.004141 0.000000 0.000000 0.000000
# 3 -0.002320 -0.004141 0.017139 0.000000 0.000000 0.000000
# 4 0.000000 0.000000 0.000000 0.032892 0.000000 0.000000
# 5 0.000000 0.000000 0.000000 0.000000 -0.065142 0.000000
# 6 0.000000 0.000000 0.000000 0.000000 0.000000 0.029272
#
#
# Mechanical properties :
#
#
# Convention : Reuss Voigt Hill
#
# Bulk Modulus (GPa) = 46.02828 49.01871 47.52349
# Shear Modulus (GPa) = 74.71401 21.70350 48.20876
#
# Velocity S-wave (km/s) = 5.88211 3.17028 4.72493
# Velocity P-wave (km/s) = 8.21264 6.00840 7.19543
#
# Compressibility (1/GPa) = 0.02172577
#
# Stress axis : x y z
#
# Youngs Moduli (GPa) = 74.36035 86.17190 58.34593
#
# Poissons Ratio (x) = 0.32502 0.13535
# Poissons Ratio (y) = 0.28047 0.24164
# Poissons Ratio (z) = 0.17250 0.35688
#
# Static dielectric constant tensor:
#      x y z
#    x 1.943890 0.000000 0.000000 
#    y 0.000000 1.801540 0.000000 
#    z 0.000000 0.000000 1.739080 
# 
# From -- ./inp_files/3942.got.cif
#   From: 2010.05.17/outbox.cif.g08.bks.cpg/sg32_2_cif.got.tgz:3942.got - 2010.06.03 17:12:27.
