data_PCOD9344556
_publ_section_title
;
Structure prediction by ZEFSAII (Michael W. Deem and Ramdas Pophale) SiO2 
 PCOD9344556
Probable space group: P N A 21
;
_chemical_formula_sum "Si O2"
_cell_formula_units_Z 28
_cell_length_a 7.018261
_cell_length_b 29.405749
_cell_length_c 4.953302
_cell_angle_alpha 90.000000
_cell_angle_beta 90.000000
_cell_angle_gamma 90.000000
_cell_volume 1022.248703
_symmetry_space_group_name_H-M "P N A 21"
_symmetry_group_IT_number 33
_symmetry_cell_setting 'orthorhombic'
loop_
_space_group_symop_operation_xyz
x,y,z
-x,-y,1/2+z
1/2-x,1/2+y,1/2+z
1/2+x,1/2-y,z
loop_
_atom_site_type_symbol
_atom_site_label
_atom_site_fract_x
_atom_site_fract_y
_atom_site_fract_z
Si Si1 0.394345 0.480598 0.823990
Si Si2 0.646650 0.124663 0.577954
Si Si3 0.011484 0.780357 0.536678
Si Si4 0.067855 0.320838 0.092501
Si Si5 0.565306 0.332716 0.547074
Si Si6 0.671031 0.410606 0.935767
Si Si7 0.379189 0.051602 0.447792
O O1 0.472995 0.488627 0.523652
O O2 0.453715 0.430441 0.923929
O O3 0.182373 0.500977 0.857273
O O4 0.530576 0.158351 0.382632
O O5 0.864305 0.139599 0.529790
O O6 0.586419 0.074553 0.475553
O O7 0.574552 0.138257 0.875208
O O8 0.038446 0.726785 0.568495
O O9 0.217851 0.802267 0.568535
O O10 0.951988 0.787859 0.229491
O O11 0.895654 0.811717 0.752742
O O12 0.676812 0.365174 0.757305
O O13 0.794629 0.443750 0.747351
O O14 0.754493 0.416896 0.235693
#
# Coordination Sequence:
#
# PCOD9344556 Si02
#       7
#     4   4   4   4   4   4   4
#     4   8  16  30  50  76 106 132 166 218 262 296
#     4  10  21  36  53  76 108 138 168 216 270 314
#     4  10  21  36  53  74 102 136 172 215 264 312
#     4  10  21  36  53  74 102 136 172 215 264 312
#     4  10  21  36  53  76 108 138 168 216 270 314
#     4  10  19  33  55  81 105 138 180 219 260 314
#     4  10  19  33  55  81 105 138 180 219 260 314
#
# _framework density 27.390591000000001
#
# number of rings (size 3 to 8) (size 9 to 14) (size 15 to 20)
#    0.000    2.286    0.000    2.571    0.000    3.429 
#    0.000    0.000    0.000   15.429    0.000    0.000 
#    0.000    0.000    0.000    0.000    0.000    0.000 
#
# Total GULP energy -156320.604222 kJ/mol
# GULP energy per Si atom -5582.878722 kJ/mol
# Density = 2.732825 g / cm^3
# Si number density = 27.390591 Si / 1000 Ang^3
#
#
#
# Elastic Constant Matrix: (Units=GPa)
#
#
# Indices 1 2 3 4 5 6 
#
# 1 61.1731 24.6106 12.1201 0.0000 0.0000 0.0000
# 2 24.6106 89.6900 18.5042 0.0000 0.0000 0.0000
# 3 12.1201 18.5042 146.9926 0.0000 0.0000 0.0000
# 4 0.0000 0.0000 0.0000 67.7024 0.0000 0.0000
# 5 0.0000 0.0000 0.0000 0.0000 8.1034 0.0000
# 6 0.0000 0.0000 0.0000 0.0000 0.0000 -17.7963
#
#
#
# Elastic Compliance Matrix: (Units=1/GPa)
#
#
# Indices 1 2 3 4 5 6 
#
# 1 0.018493 -0.004887 -0.000910 0.000000 0.000000 0.000000
# 2 -0.004887 0.012738 -0.001201 0.000000 0.000000 0.000000
# 3 -0.000910 -0.001201 0.007029 0.000000 0.000000 0.000000
# 4 0.000000 0.000000 0.000000 0.014771 0.000000 0.000000
# 5 0.000000 0.000000 0.000000 0.000000 0.123406 0.000000
# 6 0.000000 0.000000 0.000000 0.000000 0.000000 -0.056191
#
#
# Mechanical properties :
#
#
# Convention : Reuss Voigt Hill
#
# Bulk Modulus (GPa) = 41.20913 45.36949 43.28931
# Shear Modulus (GPa) = 35.13004 27.77662 31.45333
#
# Velocity S-wave (km/s) = 3.58517 3.18794 3.39237
# Velocity P-wave (km/s) = 5.67588 5.49094 5.58417
#
# Compressibility (1/GPa) = 0.02426647
#
# Stress axis : x y z
#
# Youngs Moduli (GPa) = 54.07364 78.50437 142.26354
#
# Poissons Ratio (x) = 0.38364 0.12941
# Poissons Ratio (y) = 0.26425 0.17080
# Poissons Ratio (z) = 0.04919 0.09425
#
# Static dielectric constant tensor:
#      x y z
#    x 2.234350 0.000000 0.000000 
#    y 0.000000 1.655050 0.000000 
#    z 0.000000 0.000000 2.034600 
# 
# From -- ./inp_files/571.got.cif
#   From: 2010.05.17/outbox.cif.g08.bks.cpg/sg33_1_cif.got.tgz:571.got - 2010.06.03 17:15:25.
