data_PCOD9344963
_publ_section_title
;
Structure prediction by ZEFSAII (Michael W. Deem and Ramdas Pophale) SiO2 
 PCOD9344963
Probable space group: P N A 21
;
_chemical_formula_sum "Si O2"
_cell_formula_units_Z 32
_cell_length_a 7.925661
_cell_length_b 8.790083
_cell_length_c 20.950576
_cell_angle_alpha 90.000000
_cell_angle_beta 90.000000
_cell_angle_gamma 90.000000
_cell_volume 1459.568346
_symmetry_space_group_name_H-M "P N A 21"
_symmetry_group_IT_number 33
_symmetry_cell_setting 'orthorhombic'
loop_
_space_group_symop_operation_xyz
x,y,z
-x,-y,1/2+z
1/2-x,1/2+y,1/2+z
1/2+x,1/2-y,z
loop_
_atom_site_type_symbol
_atom_site_label
_atom_site_fract_x
_atom_site_fract_y
_atom_site_fract_z
Si Si1 0.724973 0.986159 0.319200
Si Si2 0.619069 0.168995 0.437605
Si Si3 0.251532 0.015716 0.582720
Si Si4 0.625655 0.158321 0.582761
Si Si5 0.771058 0.986277 0.699803
Si Si6 0.636727 0.666042 0.701181
Si Si7 0.143656 0.332642 0.818508
Si Si8 0.249387 0.515066 0.937671
O O1 0.857270 0.848703 0.318425
O O2 0.542271 0.905043 0.315324
O O3 0.723203 0.082116 0.383943
O O4 0.760505 0.095452 0.260050
O O5 0.686372 0.144777 0.509467
O O6 0.620748 0.348852 0.423984
O O7 0.431196 0.101728 0.436765
O O8 0.439463 0.086385 0.587386
O O9 0.131266 0.161114 0.595988
O O10 0.224109 0.959529 0.510113
O O11 0.220067 0.887540 0.634822
O O12 0.739733 0.071996 0.633595
O O13 0.638979 0.847376 0.705881
O O14 0.951529 0.906061 0.703325
O O15 0.741145 0.103709 0.756962
O O16 0.235436 0.390013 0.883055
#
# Coordination Sequence:
#
# PCOD9344963 Si02
#       8
#     4   4   4   4   4   4   4   4
#     4  11  23  40  60  86 117 153 193 238 287 341
#     4   9  20  37  60  87 117 151 191 234 284 340
#     4  10  20  38  61  88 119 154 192 235 284 340
#     4  10  20  38  61  88 119 154 192 235 284 340
#     4  12  25  41  60  85 115 152 193 239 289 343
#     4  12  25  41  60  85 115 152 193 239 289 343
#     4  11  23  40  60  86 117 153 193 238 287 341
#     4   9  20  37  60  87 117 151 191 234 284 340
#
# _framework density 21.924287
#
# number of rings (size 3 to 8) (size 9 to 14) (size 15 to 20)
#    0.000    1.500    0.000    5.250    0.000    6.000 
#    0.000    2.500    0.000    0.000    0.000    0.000 
#    0.000    0.000    0.000    0.000    0.000    0.000 
#
# Total GULP energy -179111.729656 kJ/mol
# GULP energy per Si atom -5597.241552 kJ/mol
# Density = 2.187439 g / cm^3
# Si number density = 21.924287 Si / 1000 Ang^3
#
#
#
# Elastic Constant Matrix: (Units=GPa)
#
#
# Indices 1 2 3 4 5 6 
#
# 1 61.2333 -11.9882 18.3621 0.0000 0.0000 0.0000
# 2 -11.9882 52.3508 39.4393 0.0000 0.0000 0.0000
# 3 18.3621 39.4393 87.2791 0.0000 0.0000 0.0000
# 4 0.0000 0.0000 0.0000 38.0733 0.0000 0.0000
# 5 0.0000 0.0000 0.0000 0.0000 8.3771 0.0000
# 6 0.0000 0.0000 0.0000 0.0000 0.0000 25.8511
#
#
#
# Elastic Compliance Matrix: (Units=1/GPa)
#
#
# Indices 1 2 3 4 5 6 
#
# 1 0.022001 0.012925 -0.010469 0.000000 0.000000 0.000000
# 2 0.012925 0.036554 -0.019237 0.000000 0.000000 0.000000
# 3 -0.010469 -0.019237 0.022353 0.000000 0.000000 0.000000
# 4 0.000000 0.000000 0.000000 0.026265 0.000000 0.000000
# 5 0.000000 0.000000 0.000000 0.000000 0.119373 0.000000
# 6 0.000000 0.000000 0.000000 0.000000 0.000000 0.038683
#
#
# Mechanical properties :
#
#
# Convention : Reuss Voigt Hill
#
# Bulk Modulus (GPa) = 21.12121 32.49885 26.81003
# Shear Modulus (GPa) = 15.89453 24.79697 20.34575
#
# Velocity S-wave (km/s) = 2.69545 3.36672 3.04961
# Velocity P-wave (km/s) = 4.39794 5.47435 4.96540
#
# Compressibility (1/GPa) = 0.04734576
#
# Stress axis : x y z
#
# Youngs Moduli (GPa) = 45.45264 27.35643 44.73686
#
# Poissons Ratio (x) = -0.35359 0.46836
# Poissons Ratio (y) = -0.58749 0.86062
# Poissons Ratio (z) = 0.47586 0.52626
#
# Static dielectric constant tensor:
#      x y z
#    x 1.846090 0.000000 0.000000 
#    y 0.000000 1.743580 0.000000 
#    z 0.000000 0.000000 1.760260 
# 
# From -- ./inp_files/8976.got.cif
#   From: 2010.05.17/outbox.cif.g08.bks.cpg/sg33_5_cif.got.tgz:8976.got - 2010.06.03 17:15:25.
