data_PCOD9344290
_publ_section_title
;
Structure prediction by ZEFSAII (Michael W. Deem and Ramdas Pophale) SiO2 
 PCOD9344290
Probable space group: P B A 2
;
_chemical_formula_sum "Si O2"
_cell_formula_units_Z 24
_cell_length_a 13.419571
_cell_length_b 14.178398
_cell_length_c 4.895161
_cell_angle_alpha 90.000000
_cell_angle_beta 90.000000
_cell_angle_gamma 90.000000
_cell_volume 931.392584
_symmetry_space_group_name_H-M "P B A 2"
_symmetry_group_IT_number 32
_symmetry_cell_setting 'orthorhombic'
loop_
_space_group_symop_operation_xyz
x,y,z
-x,-y,z
1/2-x,1/2+y,z
1/2+x,1/2-y,z
loop_
_atom_site_type_symbol
_atom_site_label
_atom_site_fract_x
_atom_site_fract_y
_atom_site_fract_z
Si Si1 0.642210 0.939914 0.174670
Si Si2 0.512487 0.304587 0.082135
Si Si3 0.954166 0.344493 0.698709
Si Si4 0.351622 0.844252 0.364275
Si Si5 0.865414 0.112234 0.507976
Si Si6 0.645365 0.474443 0.012944
O O1 0.643643 0.049650 0.249479
O O2 0.749394 0.921095 0.037513
O O3 0.434508 0.082095 0.937731
O O4 0.611440 0.877822 0.438932
O O5 0.602218 0.234290 0.164942
O O6 0.454102 0.329328 0.360817
O O7 0.560561 0.398189 0.956889
O O8 0.439271 0.253276 0.866868
O O9 0.068384 0.344542 0.606840
O O10 0.237759 0.831510 0.454024
O O11 0.868423 0.019708 0.310065
O O12 0.855371 0.060439 0.799945
#
# Coordination Sequence:
#
# PCOD9344290 Si02
#       6
#     4   4   4   4   4   4
#     4  11  26  49  81 120 162 224 261 350 422 497
#     4  12  30  50  83 123 161 224 278 352 405 514
#     4  12  27  46  79 120 165 206 277 337 422 490
#     4  11  28  48  79 119 164 205 281 341 411 497
#     4  11  29  54  80 113 167 220 275 347 421 494
#     4  11  28  54  82 113 166 219 281 334 424 503
#
# _framework density 25.767868
#
# number of rings (size 3 to 8) (size 9 to 14) (size 15 to 20)
#    0.000    0.667    1.667    3.000   16.333    1.333 
#    3.000    0.000    0.000    0.000    0.000    0.000 
#    0.000    0.000    0.000    0.000    0.000    0.000 
#
# Total GULP energy -134406.446728 kJ/mol
# GULP energy per Si atom -5600.268614 kJ/mol
# Density = 2.570922 g / cm^3
# Si number density = 25.767868 Si / 1000 Ang^3
#
#
#
# Elastic Constant Matrix: (Units=GPa)
#
#
# Indices 1 2 3 4 5 6 
#
# 1 145.0506 63.3482 41.7229 0.0000 0.0000 0.0000
# 2 63.3482 119.0998 27.6562 0.0000 0.0000 0.0000
# 3 41.7229 27.6562 139.2732 0.0000 0.0000 0.0000
# 4 0.0000 0.0000 0.0000 36.8078 0.0000 0.0000
# 5 0.0000 0.0000 0.0000 0.0000 26.5349 0.0000
# 6 0.0000 0.0000 0.0000 0.0000 0.0000 48.5959
#
#
#
# Elastic Compliance Matrix: (Units=1/GPa)
#
#
# Indices 1 2 3 4 5 6 
#
# 1 0.009446 -0.004578 -0.001921 0.000000 0.000000 0.000000
# 2 -0.004578 0.011021 -0.000817 0.000000 0.000000 0.000000
# 3 -0.001921 -0.000817 0.007918 0.000000 0.000000 0.000000
# 4 0.000000 0.000000 0.000000 0.027168 0.000000 0.000000
# 5 0.000000 0.000000 0.000000 0.000000 0.037686 0.000000
# 6 0.000000 0.000000 0.000000 0.000000 0.000000 0.020578
#
#
# Mechanical properties :
#
#
# Convention : Reuss Voigt Hill
#
# Bulk Modulus (GPa) = 72.71085 74.31980 73.51533
# Shear Modulus (GPa) = 37.58446 40.43413 39.00930
#
# Velocity S-wave (km/s) = 3.82328 3.96557 3.89507
# Velocity P-wave (km/s) = 6.91150 7.06203 6.98717
#
# Compressibility (1/GPa) = 0.01375310
#
# Stress axis : x y z
#
# Youngs Moduli (GPa) = 105.86364 90.73427 126.29835
#
# Poissons Ratio (x) = 0.41541 0.24258
# Poissons Ratio (y) = 0.48468 0.10318
# Poissons Ratio (z) = 0.20333 0.07413
#
# Static dielectric constant tensor:
#      x y z
#    x 2.095470 0.000000 0.000000 
#    y 0.000000 2.212780 0.000000 
#    z 0.000000 0.000000 2.012840 
# 
# From -- ./inp_files/1493.got.cif
#   From: 2010.05.17/outbox.cif.g08.bks.cpg/sg32_1_cif.got.tgz:1493.got - 2010.06.03 17:12:27.
