data_PCOD9344446
_publ_section_title
;
Structure prediction by ZEFSAII (Michael W. Deem and Ramdas Pophale) SiO2 
 PCOD9344446
Probable space group: P N A 21
;
_chemical_formula_sum "Si O2"
_cell_formula_units_Z 32
_cell_length_a 7.773144
_cell_length_b 14.188966
_cell_length_c 11.396617
_cell_angle_alpha 90.000000
_cell_angle_beta 90.000000
_cell_angle_gamma 90.000000
_cell_volume 1256.965665
_symmetry_space_group_name_H-M "P N A 21"
_symmetry_group_IT_number 33
_symmetry_cell_setting 'orthorhombic'
loop_
_space_group_symop_operation_xyz
x,y,z
-x,-y,1/2+z
1/2-x,1/2+y,1/2+z
1/2+x,1/2-y,z
loop_
_atom_site_type_symbol
_atom_site_label
_atom_site_fract_x
_atom_site_fract_y
_atom_site_fract_z
Si Si1 0.381173 0.177957 0.701840
Si Si2 0.796114 0.164472 0.065285
Si Si3 0.740522 0.617335 0.157897
Si Si4 0.404954 0.776564 0.800728
Si Si5 0.599248 0.937527 0.705726
Si Si6 0.200057 0.009517 0.702136
Si Si7 0.396024 0.394013 0.408101
Si Si8 0.550322 0.845670 0.467402
O O1 0.346544 0.288504 0.706384
O O2 0.560214 0.152233 0.638202
O O3 0.387203 0.144224 0.836869
O O4 0.222554 0.114940 0.654874
O O5 0.189914 0.284139 0.172730
O O6 0.878401 0.071220 0.118903
O O7 0.651809 0.134914 0.973003
O O8 0.920570 0.238229 0.006787
O O9 0.771544 0.522071 0.232981
O O10 0.627220 0.590065 0.045159
O O11 0.574965 0.843523 0.783012
O O12 0.460254 0.676615 0.854207
O O13 0.277008 0.832868 0.883404
O O14 0.402643 0.977016 0.707430
O O15 0.632169 0.908082 0.570336
O O16 0.117425 0.987416 0.828253
#
# Coordination Sequence:
#
# PCOD9344446 Si02
#       8
#     4   4   4   4   4   4   4   4
#     4  11  22  36  51  74 108 141 174 212 255 312
#     4   9  17  32  56  82 103 128 172 223 262 303
#     4  11  22  36  51  74 108 141 174 212 255 312
#     4   9  17  32  56  82 103 128 172 223 262 303
#     4   8  17  33  55  77  98 130 175 216 252 303
#     4   8  17  33  55  77  98 130 175 216 252 303
#     4  10  18  33  55  79 103 137 171 211 263 310
#     4  10  18  33  55  79 103 137 171 211 263 310
#
# _framework density 25.458134999999999
#
# number of rings (size 3 to 8) (size 9 to 14) (size 15 to 20)
#    0.000    3.000    0.000    5.250    0.000    0.000 
#    0.000    7.500    0.000    0.000    0.000    0.000 
#    0.000    0.000    0.000    0.000    0.000    0.000 
#
# Total GULP energy -178557.625107 kJ/mol
# GULP energy per Si atom -5579.925785 kJ/mol
# Density = 2.540019 g / cm^3
# Si number density = 25.458135 Si / 1000 Ang^3
#
#
#
# Elastic Constant Matrix: (Units=GPa)
#
#
# Indices 1 2 3 4 5 6 
#
# 1 73.7574 24.4041 23.7661 0.0000 0.0000 0.0000
# 2 24.4041 78.0659 10.6690 0.0000 0.0000 0.0000
# 3 23.7661 10.6690 49.2650 0.0000 0.0000 0.0000
# 4 0.0000 0.0000 0.0000 7.8652 0.0000 0.0000
# 5 0.0000 0.0000 0.0000 0.0000 10.9179 0.0000
# 6 0.0000 0.0000 0.0000 0.0000 0.0000 39.6336
#
#
#
# Elastic Compliance Matrix: (Units=1/GPa)
#
#
# Indices 1 2 3 4 5 6 
#
# 1 0.017422 -0.004429 -0.007446 0.000000 0.000000 0.000000
# 2 -0.004429 0.014326 -0.000966 0.000000 0.000000 0.000000
# 3 -0.007446 -0.000966 0.024099 0.000000 0.000000 0.000000
# 4 0.000000 0.000000 0.000000 0.127143 0.000000 0.000000
# 5 0.000000 0.000000 0.000000 0.000000 0.091593 0.000000
# 6 0.000000 0.000000 0.000000 0.000000 0.000000 0.025231
#
#
# Mechanical properties :
#
#
# Convention : Reuss Voigt Hill
#
# Bulk Modulus (GPa) = 33.14874 35.41853 34.28363
# Shear Modulus (GPa) = 14.90084 21.16660 18.03372
#
# Velocity S-wave (km/s) = 2.42194 2.88658 2.66441
# Velocity P-wave (km/s) = 4.56839 5.00524 4.79180
#
# Compressibility (1/GPa) = 0.03016706
#
# Stress axis : x y z
#
# Youngs Moduli (GPa) = 57.39710 69.80211 41.49466
#
# Poissons Ratio (x) = 0.30914 0.30896
# Poissons Ratio (y) = 0.25420 0.04008
# Poissons Ratio (z) = 0.42736 0.06743
#
# Static dielectric constant tensor:
#      x y z
#    x 2.091540 0.000000 0.000000 
#    y 0.000000 2.068490 0.000000 
#    z 0.000000 0.000000 2.081490 
# 
# From -- ./inp_files/6009.got.cif
#   From: 2010.05.17/outbox.cif.g08.bks.cpg/sg33_4_cif.got.tgz:6009.got - 2010.06.03 17:15:25.
