data_PCOD9344676
_publ_section_title
;
Structure prediction by ZEFSAII (Michael W. Deem and Ramdas Pophale) SiO2 
 PCOD9344676
Probable space group: P N A 21
;
_chemical_formula_sum "Si O2"
_cell_formula_units_Z 28
_cell_length_a 13.055271
_cell_length_b 13.993354
_cell_length_c 6.847056
_cell_angle_alpha 90.000000
_cell_angle_beta 90.000000
_cell_angle_gamma 90.000000
_cell_volume 1250.868316
_symmetry_space_group_name_H-M "P N A 21"
_symmetry_group_IT_number 33
_symmetry_cell_setting 'orthorhombic'
loop_
_space_group_symop_operation_xyz
x,y,z
-x,-y,1/2+z
1/2-x,1/2+y,1/2+z
1/2+x,1/2-y,z
loop_
_atom_site_type_symbol
_atom_site_label
_atom_site_fract_x
_atom_site_fract_y
_atom_site_fract_z
Si Si1 0.929070 0.876462 0.596070
Si Si2 0.317422 0.913280 0.315033
Si Si3 0.851779 0.219815 0.660908
Si Si4 0.480109 0.578509 0.148909
Si Si5 0.486188 0.186761 0.996911
Si Si6 0.203540 0.563839 0.522321
Si Si7 0.752678 0.905233 0.063430
O O1 0.952155 0.885391 0.364284
O O2 0.972292 0.771001 0.637298
O O3 0.807620 0.892985 0.615548
O O4 0.990866 0.967696 0.674323
O O5 0.232769 0.830560 0.299058
O O6 0.418832 0.871806 0.410813
O O7 0.318456 0.956571 0.095899
O O8 0.286663 0.005469 0.440646
O O9 0.797517 0.300844 0.531209
O O10 0.921156 0.135665 0.569288
O O11 0.929223 0.272797 0.805483
O O12 0.375330 0.597228 0.035044
O O13 0.397232 0.121696 0.086685
O O14 0.224622 0.570730 0.290549
#
# Coordination Sequence:
#
# PCOD9344676 Si02
#       7
#     4   4   4   4   4   4   4
#     4  10  20  40  63  90 125 167 211 262 312 380
#     4  12  23  43  69  91 131 174 208 266 329 380
#     4  10  20  41  64  93 129 171 213 269 318 386
#     4  10  19  36  66  88 120 170 208 261 316 370
#     4  10  22  38  66  88 128 169 204 261 328 370
#     4  10  23  41  62  96 129 160 217 265 311 386
#     4  10  23  41  64  96 130 167 217 262 326 382
#
# _framework density 22.384450000000001
#
# number of rings (size 3 to 8) (size 9 to 14) (size 15 to 20)
#    0.000    1.714    1.429    5.143    4.000    0.000 
#    2.571    4.286    3.143    0.000    0.000    0.000 
#    0.000    0.000    0.000    0.000    0.000    0.000 
#
# Total GULP energy -156319.353701 kJ/mol
# GULP energy per Si atom -5582.834061 kJ/mol
# Density = 2.233350 g / cm^3
# Si number density = 22.384450 Si / 1000 Ang^3
#
#
#
# Elastic Constant Matrix: (Units=GPa)
#
#
# Indices 1 2 3 4 5 6 
#
# 1 195.9824 87.8469 12.3468 0.0000 0.0000 0.0000
# 2 87.8469 107.8018 11.1694 0.0000 0.0000 0.0000
# 3 12.3468 11.1694 39.3016 0.0000 0.0000 0.0000
# 4 0.0000 0.0000 0.0000 35.9938 0.0000 0.0000
# 5 0.0000 0.0000 0.0000 0.0000 44.1695 0.0000
# 6 0.0000 0.0000 0.0000 0.0000 0.0000 53.2428
#
#
#
# Elastic Compliance Matrix: (Units=1/GPa)
#
#
# Indices 1 2 3 4 5 6 
#
# 1 0.008057 -0.006494 -0.000685 0.000000 0.000000 0.000000
# 2 -0.006494 0.014793 -0.002164 0.000000 0.000000 0.000000
# 3 -0.000685 -0.002164 0.026275 0.000000 0.000000 0.000000
# 4 0.000000 0.000000 0.000000 0.027783 0.000000 0.000000
# 5 0.000000 0.000000 0.000000 0.000000 0.022640 0.000000
# 6 0.000000 0.000000 0.000000 0.000000 0.000000 0.018782
#
#
# Mechanical properties :
#
#
# Convention : Reuss Voigt Hill
#
# Bulk Modulus (GPa) = 32.85489 62.86798 47.86143
# Shear Modulus (GPa) = 33.97640 42.12942 38.05291
#
# Velocity S-wave (km/s) = 3.90020 4.34301 4.12754
# Velocity P-wave (km/s) = 5.91536 7.30037 6.64405
#
# Compressibility (1/GPa) = 0.03043687
#
# Stress axis : x y z
#
# Youngs Moduli (GPa) = 124.12055 67.60113 38.05966
#
# Poissons Ratio (x) = 0.43902 0.02609
# Poissons Ratio (y) = 0.80608 0.08235
# Poissons Ratio (z) = 0.08507 0.14628
#
# Static dielectric constant tensor:
#      x y z
#    x 1.825750 0.000000 0.000000 
#    y 0.000000 1.990800 0.000000 
#    z 0.000000 0.000000 1.911540 
# 
# From -- ./inp_files/3834.got.cif
#   From: 2010.05.17/outbox.cif.g08.bks.cpg/sg33_2_cif.got.tgz:3834.got - 2010.06.03 17:15:25.
