data_PCOD9344919
_publ_section_title
;
Structure prediction by ZEFSAII (Michael W. Deem and Ramdas Pophale) SiO2 
 PCOD9344919
Probable space group: P N A 21
;
_chemical_formula_sum "Si O2"
_cell_formula_units_Z 28
_cell_length_a 15.753024
_cell_length_b 15.684300
_cell_length_c 5.386066
_cell_angle_alpha 90.000000
_cell_angle_beta 90.000000
_cell_angle_gamma 90.000000
_cell_volume 1330.763088
_symmetry_space_group_name_H-M "P N A 21"
_symmetry_group_IT_number 33
_symmetry_cell_setting 'orthorhombic'
loop_
_space_group_symop_operation_xyz
x,y,z
-x,-y,1/2+z
1/2-x,1/2+y,1/2+z
1/2+x,1/2-y,z
loop_
_atom_site_type_symbol
_atom_site_label
_atom_site_fract_x
_atom_site_fract_y
_atom_site_fract_z
Si Si1 0.542540 0.967051 0.356570
Si Si2 0.208057 0.680361 0.768338
Si Si3 0.106776 0.185839 0.293692
Si Si4 0.220191 0.572487 0.261611
Si Si5 0.953647 0.272721 0.029052
Si Si6 0.029972 0.870010 0.174689
Si Si7 0.895488 0.976033 0.449574
O O1 0.641842 0.989514 0.321058
O O2 0.538715 0.865773 0.409783
O O3 0.505278 0.010693 0.602515
O O4 0.299113 0.723954 0.821185
O O5 0.217298 0.640013 0.491029
O O6 0.116901 0.725718 0.746598
O O7 0.202025 0.613394 0.994001
O O8 0.118480 0.090729 0.176626
O O9 0.045720 0.241419 0.119462
O O10 0.049613 0.173496 0.536266
O O11 0.314491 0.535290 0.272515
O O12 0.924743 0.201396 0.834728
O O13 0.983857 0.942426 0.338902
O O14 0.092661 0.925168 0.008847
#
# Coordination Sequence:
#
# PCOD9344919 Si02
#       7
#     4   4   4   4   4   4   4
#     4  11  24  45  69  92 126 178 232 281 336 396
#     4  10  21  41  65  94 130 179 223 267 343 408
#     4  10  21  38  65  90 135 176 219 273 333 414
#     4  10  21  40  68  93 127 172 226 272 332 411
#     4  10  25  40  65  98 130 181 228 285 344 399
#     4  11  20  37  64  98 139 170 224 276 340 411
#     4  10  20  37  62  99 131 178 218 266 342 411
#
# _framework density 21.040561
#
# number of rings (size 3 to 8) (size 9 to 14) (size 15 to 20)
#    0.000    1.714    2.857    1.714    6.000    0.000 
#    2.571    1.429    0.000    0.000    0.000    0.000 
#    0.000    0.000    0.000    0.000    0.000    0.000 
#
# Total GULP energy -156156.714284 kJ/mol
# GULP energy per Si atom -5577.025510 kJ/mol
# Density = 2.099267 g / cm^3
# Si number density = 21.040561 Si / 1000 Ang^3
#
#
#
# Elastic Constant Matrix: (Units=GPa)
#
#
# Indices 1 2 3 4 5 6 
#
# 1 120.3240 44.7108 31.7029 0.0000 0.0000 0.0000
# 2 44.7108 74.2183 29.9103 0.0000 0.0000 0.0000
# 3 31.7029 29.9103 88.7681 0.0000 0.0000 0.0000
# 4 0.0000 0.0000 0.0000 34.5151 0.0000 0.0000
# 5 0.0000 0.0000 0.0000 0.0000 2.9048 0.0000
# 6 0.0000 0.0000 0.0000 0.0000 0.0000 21.4805
#
#
#
# Elastic Compliance Matrix: (Units=1/GPa)
#
#
# Indices 1 2 3 4 5 6 
#
# 1 0.010995 -0.005833 -0.001961 0.000000 0.000000 0.000000
# 2 -0.005833 0.018686 -0.004213 0.000000 0.000000 0.000000
# 3 -0.001961 -0.004213 0.013385 0.000000 0.000000 0.000000
# 4 0.000000 0.000000 0.000000 0.028973 0.000000 0.000000
# 5 0.000000 0.000000 0.000000 0.000000 0.344253 0.000000
# 6 0.000000 0.000000 0.000000 0.000000 0.000000 0.046554
#
#
# Mechanical properties :
#
#
# Convention : Reuss Voigt Hill
#
# Bulk Modulus (GPa) = 52.48991 55.10646 53.79819
# Shear Modulus (GPa) = 10.13765 23.57919 16.85842
#
# Velocity S-wave (km/s) = 2.19741 3.35125 2.83368
# Velocity P-wave (km/s) = 5.60708 6.42043 6.02749
#
# Compressibility (1/GPa) = 0.01905128
#
# Stress axis : x y z
#
# Youngs Moduli (GPa) = 90.94817 53.51692 74.70897
#
# Poissons Ratio (x) = 0.31218 0.14653
# Poissons Ratio (y) = 0.53053 0.31473
# Poissons Ratio (z) = 0.17838 0.22545
#
# Static dielectric constant tensor:
#      x y z
#    x 1.814160 0.000000 0.000000 
#    y 0.000000 1.757950 0.000000 
#    z 0.000000 0.000000 1.828320 
# 
# From -- ./inp_files/1410.got.cif
#   From: 2010.05.17/outbox.cif.g08.bks.cpg/sg33_1_cif.got.tgz:1410.got - 2010.06.03 17:15:25.
