data_PCOD9344720
_publ_section_title
;
Structure prediction by ZEFSAII (Michael W. Deem and Ramdas Pophale) SiO2 
 PCOD9344720
Probable space group: P N A 21
;
_chemical_formula_sum "Si O2"
_cell_formula_units_Z 24
_cell_length_a 7.600916
_cell_length_b 13.626906
_cell_length_c 9.883414
_cell_angle_alpha 90.000000
_cell_angle_beta 90.000000
_cell_angle_gamma 90.000000
_cell_volume 1023.694054
_symmetry_space_group_name_H-M "P N A 21"
_symmetry_group_IT_number 33
_symmetry_cell_setting 'orthorhombic'
loop_
_space_group_symop_operation_xyz
x,y,z
-x,-y,1/2+z
1/2-x,1/2+y,1/2+z
1/2+x,1/2-y,z
loop_
_atom_site_type_symbol
_atom_site_label
_atom_site_fract_x
_atom_site_fract_y
_atom_site_fract_z
Si Si1 0.878993 0.445321 0.220530
Si Si2 0.217685 0.352563 0.215560
Si Si3 0.078265 0.161843 0.075919
Si Si4 0.341790 0.227325 0.445156
Si Si5 0.905649 0.064648 0.844764
Si Si6 0.085168 0.105981 0.567724
O O1 0.745815 0.410481 0.100427
O O2 0.867584 0.352101 0.323803
O O3 0.790921 0.540716 0.289120
O O4 0.087665 0.444346 0.193296
O O5 0.423495 0.364060 0.182960
O O6 0.215086 0.305184 0.365102
O O7 0.144459 0.269754 0.113370
O O8 0.975828 0.154912 0.934456
O O9 0.472548 0.301845 0.515834
O O10 0.275446 0.154926 0.562334
O O11 0.022071 0.069394 0.711142
O O12 0.933911 0.977040 0.952932
#
# Coordination Sequence:
#
# PCOD9344720 Si02
#       6
#     4   4   4   4   4   4
#     4  10  20  41  62  92 124 174 212 256 322 393
#     4  11  19  38  70  91 123 174 226 247 322 400
#     4  11  21  37  66  95 123 167 216 268 306 391
#     4  10  19  38  65  91 119 172 219 251 317 401
#     4  11  24  41  62  97 134 163 214 276 337 361
#     4  11  23  41  69  90 131 172 215 270 328 388
#
# _framework density 23.444503999999998
#
# number of rings (size 3 to 8) (size 9 to 14) (size 15 to 20)
#    0.000    1.333    6.667    2.000    0.000    1.333 
#    3.000    0.000    0.000    0.000    0.000    0.000 
#    0.000    0.000    0.000    0.000    0.000    0.000 
#
# Total GULP energy -133657.182046 kJ/mol
# GULP energy per Si atom -5569.049252 kJ/mol
# Density = 2.339114 g / cm^3
# Si number density = 23.444504 Si / 1000 Ang^3
#
#
#
# Elastic Constant Matrix: (Units=GPa)
#
#
# Indices 1 2 3 4 5 6 
#
# 1 36.7292 -6.9934 -8.5519 0.0000 0.0000 0.0000
# 2 -6.9934 41.1373 8.5703 0.0000 0.0000 0.0000
# 3 -8.5519 8.5703 79.1275 0.0000 0.0000 0.0000
# 4 0.0000 0.0000 0.0000 27.6113 0.0000 0.0000
# 5 0.0000 0.0000 0.0000 0.0000 11.6968 0.0000
# 6 0.0000 0.0000 0.0000 0.0000 0.0000 29.6737
#
#
#
# Elastic Compliance Matrix: (Units=1/GPa)
#
#
# Indices 1 2 3 4 5 6 
#
# 1 0.028662 0.004325 0.002629 0.000000 0.000000 0.000000
# 2 0.004325 0.025523 -0.002297 0.000000 0.000000 0.000000
# 3 0.002629 -0.002297 0.013171 0.000000 0.000000 0.000000
# 4 0.000000 0.000000 0.000000 0.036217 0.000000 0.000000
# 5 0.000000 0.000000 0.000000 0.000000 0.085493 0.000000
# 6 0.000000 0.000000 0.000000 0.000000 0.000000 0.033700
#
#
# Mechanical properties :
#
#
# Convention : Reuss Voigt Hill
#
# Bulk Modulus (GPa) = 13.04298 15.89378 14.46838
# Shear Modulus (GPa) = 20.91981 24.72763 22.82372
#
# Velocity S-wave (km/s) = 2.99040 3.25118 3.12351
# Velocity P-wave (km/s) = 4.18315 4.57030 4.38100
#
# Compressibility (1/GPa) = 0.07666961
#
# Stress axis : x y z
#
# Youngs Moduli (GPa) = 34.88948 39.18094 75.92567
#
# Poissons Ratio (x) = -0.16945 -0.19963
# Poissons Ratio (y) = -0.15089 0.17440
# Poissons Ratio (z) = -0.09173 0.09000
#
# Static dielectric constant tensor:
#      x y z
#    x 2.118400 0.000000 0.000000 
#    y 0.000000 1.924470 0.000000 
#    z 0.000000 0.000000 1.883730 
# 
# From -- ./inp_files/3239.got.cif
#   From: 2010.05.17/outbox.cif.g08.bks.cpg/sg33_2_cif.got.tgz:3239.got - 2010.06.03 17:15:25.
