data_PCOD9344398
_publ_section_title
;
Structure prediction by ZEFSAII (Michael W. Deem and Ramdas Pophale) SiO2 
 PCOD9344398
Probable space group: P N A 21
;
_chemical_formula_sum "Si O2"
_cell_formula_units_Z 20
_cell_length_a 15.440843
_cell_length_b 8.464827
_cell_length_c 5.717707
_cell_angle_alpha 90.000000
_cell_angle_beta 90.000000
_cell_angle_gamma 90.000000
_cell_volume 747.327546
_symmetry_space_group_name_H-M "P N A 21"
_symmetry_group_IT_number 33
_symmetry_cell_setting 'orthorhombic'
loop_
_space_group_symop_operation_xyz
x,y,z
-x,-y,1/2+z
1/2-x,1/2+y,1/2+z
1/2+x,1/2-y,z
loop_
_atom_site_type_symbol
_atom_site_label
_atom_site_fract_x
_atom_site_fract_y
_atom_site_fract_z
Si Si1 0.469865 0.812374 0.449210
Si Si2 0.411733 0.784799 0.962216
Si Si3 0.575563 0.555214 0.965092
Si Si4 0.285735 0.524217 0.828966
Si Si5 0.165412 0.744559 0.563472
O O1 0.429330 0.861844 0.703627
O O2 0.444786 0.627346 0.432344
O O3 0.574915 0.814854 0.449548
O O4 0.430949 0.877828 0.204665
O O5 0.323543 0.679709 0.962026
O O6 0.488862 0.655156 0.969332
O O7 0.632430 0.550789 0.195830
O O8 0.630808 0.641172 0.768352
O O9 0.216900 0.592676 0.651152
O O10 0.260970 0.364084 0.960680
#
# Coordination Sequence:
#
# PCOD9344398 Si02
#       5
#     4   4   4   4   4
#     4  10  17  34  61  89 119 168 239 273 323 440
#     4  10  17  34  61  89 119 168 239 273 323 440
#     4  10  18  36  62  88 120 176 248 268 342 450
#     4  11  22  36  60 100 138 171 232 313 368 421
#     4  11  22  36  60 100 138 171 232 313 368 421
#
# _framework density 26.762027
#
# number of rings (size 3 to 8) (size 9 to 14) (size 15 to 20)
#    0.000    1.600    6.000    1.200    0.000    1.600 
#    0.000    0.000    0.000    0.000   46.800    0.000 
#    0.000    0.000    0.000    0.000    0.000    0.000 
#
# Total GULP energy -111653.023660 kJ/mol
# GULP energy per Si atom -5582.651183 kJ/mol
# Density = 2.670112 g / cm^3
# Si number density = 26.762027 Si / 1000 Ang^3
#
#
#
# Elastic Constant Matrix: (Units=GPa)
#
#
# Indices 1 2 3 4 5 6 
#
# 1 82.2028 17.0815 23.9701 0.0000 0.0000 0.0000
# 2 17.0815 98.2892 25.8813 0.0000 0.0000 0.0000
# 3 23.9701 25.8813 156.7073 0.0000 0.0000 0.0000
# 4 0.0000 0.0000 0.0000 0.9930 0.0000 0.0000
# 5 0.0000 0.0000 0.0000 0.0000 34.5825 0.0000
# 6 0.0000 0.0000 0.0000 0.0000 0.0000 20.2112
#
#
#
# Elastic Compliance Matrix: (Units=1/GPa)
#
#
# Indices 1 2 3 4 5 6 
#
# 1 0.013037 -0.001820 -0.001694 0.000000 0.000000 0.000000
# 2 -0.001820 0.010891 -0.001520 0.000000 0.000000 0.000000
# 3 -0.001694 -0.001520 0.006891 0.000000 0.000000 0.000000
# 4 0.000000 0.000000 0.000000 1.007025 0.000000 0.000000
# 5 0.000000 0.000000 0.000000 0.000000 0.028916 0.000000
# 6 0.000000 0.000000 0.000000 0.000000 0.000000 0.049478
#
#
# Mechanical properties :
#
#
# Convention : Reuss Voigt Hill
#
# Bulk Modulus (GPa) = 48.18855 52.34056 50.26455
# Shear Modulus (GPa) = 4.41220 29.17508 16.79364
#
# Velocity S-wave (km/s) = 1.28540 3.30535 2.50775
# Velocity P-wave (km/s) = 4.49982 5.84528 5.21612
#
# Compressibility (1/GPa) = 0.02075182
#
# Stress axis : x y z
#
# Youngs Moduli (GPa) = 76.70463 91.82200 145.10686
#
# Poissons Ratio (x) = 0.16709 0.24576
# Poissons Ratio (y) = 0.13958 0.22061
# Poissons Ratio (z) = 0.12991 0.13960
#
# Static dielectric constant tensor:
#      x y z
#    x 2.131250 0.000000 0.000000 
#    y 0.000000 2.192210 0.000000 
#    z 0.000000 0.000000 2.529910 
# 
# From -- ./inp_files/1212.got.cif
#   From: 2010.05.17/outbox.cif.g08.bks.cpg/sg33_1_cif.got.tgz:1212.got - 2010.06.03 17:15:25.
