data_PCOD9344491
_publ_section_title
;
Structure prediction by ZEFSAII (Michael W. Deem and Ramdas Pophale) SiO2 
 PCOD9344491
Probable space group: P N A 21
;
_chemical_formula_sum "Si O2"
_cell_formula_units_Z 28
_cell_length_a 13.371430
_cell_length_b 10.944259
_cell_length_c 8.394708
_cell_angle_alpha 90.000000
_cell_angle_beta 90.000000
_cell_angle_gamma 90.000000
_cell_volume 1228.484869
_symmetry_space_group_name_H-M "P N A 21"
_symmetry_group_IT_number 33
_symmetry_cell_setting 'orthorhombic'
loop_
_space_group_symop_operation_xyz
x,y,z
-x,-y,1/2+z
1/2-x,1/2+y,1/2+z
1/2+x,1/2-y,z
loop_
_atom_site_type_symbol
_atom_site_label
_atom_site_fract_x
_atom_site_fract_y
_atom_site_fract_z
Si Si1 0.262920 0.364106 0.681640
Si Si2 0.117276 0.997556 0.923467
Si Si3 0.588213 0.642845 0.452306
Si Si4 0.361403 0.046807 0.369541
Si Si5 0.753086 0.514102 0.663277
Si Si6 0.802746 0.755345 0.856650
Si Si7 0.976533 0.242832 0.272782
O O1 0.327217 0.469180 0.588387
O O2 0.346507 0.310499 0.803086
O O3 0.171015 0.423309 0.780872
O O4 0.217573 0.280497 0.541184
O O5 0.197434 0.058136 0.803444
O O6 0.090536 0.860972 0.858953
O O7 0.015207 0.072803 0.917757
O O8 0.665091 0.548775 0.538303
O O9 0.554739 0.738460 0.587794
O O10 0.279077 0.145228 0.312114
O O11 0.462230 0.119130 0.334121
O O12 0.342388 0.035849 0.557548
O O13 0.790099 0.636125 0.748678
O O14 0.912841 0.799897 0.815922
#
# Coordination Sequence:
#
# PCOD9344491 Si02
#       7
#     4   4   4   4   4   4   4
#     4  10  21  37  62  92 131 163 208 277 317 389
#     4  10  18  38  62  96 118 158 221 268 317 362
#     4  10  18  36  62  95 120 158 222 266 311 368
#     4  11  21  42  63  86 128 171 208 262 324 379
#     4   9  20  37  60  87 127 165 199 264 318 378
#     4  11  22  42  60  93 130 166 214 266 327 382
#     4  11  22  38  67  87 128 173 204 263 326 388
#
# _framework density 22.792303
#
# number of rings (size 3 to 8) (size 9 to 14) (size 15 to 20)
#    0.000    1.714    4.286    4.286    0.000    1.143 
#    5.143    4.286    0.000    0.000    0.000    0.000 
#    0.000    0.000    0.000    0.000    0.000    0.000 
#
# Total GULP energy -156225.605066 kJ/mol
# GULP energy per Si atom -5579.485895 kJ/mol
# Density = 2.274043 g / cm^3
# Si number density = 22.792303 Si / 1000 Ang^3
#
#
#
# Elastic Constant Matrix: (Units=GPa)
#
#
# Indices 1 2 3 4 5 6 
#
# 1 32.4856 -8.7117 9.0986 0.0000 0.0000 0.0000
# 2 -8.7117 27.5653 11.9910 0.0000 0.0000 0.0000
# 3 9.0986 11.9910 107.7584 0.0000 0.0000 0.0000
# 4 0.0000 0.0000 0.0000 36.8516 0.0000 0.0000
# 5 0.0000 0.0000 0.0000 0.0000 20.2191 0.0000
# 6 0.0000 0.0000 0.0000 0.0000 0.0000 34.5156
#
#
#
# Elastic Compliance Matrix: (Units=1/GPa)
#
#
# Indices 1 2 3 4 5 6 
#
# 1 0.035571 0.013187 -0.004471 0.000000 0.000000 0.000000
# 2 0.013187 0.043011 -0.005900 0.000000 0.000000 0.000000
# 3 -0.004471 -0.005900 0.010314 0.000000 0.000000 0.000000
# 4 0.000000 0.000000 0.000000 0.027136 0.000000 0.000000
# 5 0.000000 0.000000 0.000000 0.000000 0.049458 0.000000
# 6 0.000000 0.000000 0.000000 0.000000 0.000000 0.028972
#
#
# Mechanical properties :
#
#
# Convention : Reuss Voigt Hill
#
# Bulk Modulus (GPa) = 10.57873 21.39614 15.98743
# Shear Modulus (GPa) = 22.69219 28.67937 25.68578
#
# Velocity S-wave (km/s) = 3.15875 3.55109 3.36065
# Velocity P-wave (km/s) = 4.23734 5.12069 4.69981
#
# Compressibility (1/GPa) = 0.09452930
#
# Stress axis : x y z
#
# Youngs Moduli (GPa) = 28.11250 23.24971 96.95559
#
# Poissons Ratio (x) = -0.30659 0.43348
# Poissons Ratio (y) = -0.37071 0.57200
# Poissons Ratio (z) = 0.12569 0.13716
#
# Static dielectric constant tensor:
#      x y z
#    x 1.873580 0.000000 0.000000 
#    y 0.000000 1.913520 0.000000 
#    z 0.000000 0.000000 1.889610 
# 
# From -- ./inp_files/4360.got.cif
#   From: 2010.05.17/outbox.cif.g08.bks.cpg/sg33_3_cif.got.tgz:4360.got - 2010.06.03 17:15:25.
