data_PCOD9344155
_publ_section_title
;
Structure prediction by ZEFSAII (Michael W. Deem and Ramdas Pophale) SiO2 
 PCOD9344155
Probable space group: P B A 2
;
_chemical_formula_sum "Si O2"
_cell_formula_units_Z 20
_cell_length_a 8.310904
_cell_length_b 11.396171
_cell_length_c 9.913016
_cell_angle_alpha 90.000000
_cell_angle_beta 90.000000
_cell_angle_gamma 90.000000
_cell_volume 938.886361
_symmetry_space_group_name_H-M "P B A 2"
_symmetry_group_IT_number 32
_symmetry_cell_setting 'orthorhombic'
loop_
_space_group_symop_operation_xyz
x,y,z
-x,-y,z
1/2-x,1/2+y,z
1/2+x,1/2-y,z
loop_
_atom_site_type_symbol
_atom_site_label
_atom_site_fract_x
_atom_site_fract_y
_atom_site_fract_z
Si Si1 0.154119 0.251933 0.976470
Si Si2 0.160626 0.873990 0.506103
Si Si3 0.409844 0.382059 0.822546
Si Si4 0.597090 0.879462 0.133674
Si Si5 0.798312 0.871694 0.408734
O O1 0.262164 0.357972 0.922349
O O2 0.038048 0.218993 0.854654
O O3 0.273983 0.147379 0.016360
O O4 0.042780 0.283799 0.104245
O O5 0.129207 0.882415 0.665555
O O6 0.248324 0.750384 0.480354
O O7 0.993177 0.870479 0.420808
O O8 0.244501 0.998326 0.468132
O O9 0.500000 0.500000 0.859319
O O10 0.701248 0.868410 0.268510
O O11 0.500000 0.000000 0.128967
#
# Coordination Sequence:
#
# PCOD9344155 Si02
#       5
#     4   4   4   4   4
#     4  10  24  42  68  94 132 176 227 279 341 394
#     4  11  25  45  69 102 135 183 225 281 346 404
#     4  11  21  43  67  95 133 172 227 282 335 409
#     4  11  24  44  65  99 131 178 229 276 340 407
#     4  11  25  44  69  98 140 176 229 278 338 413
#
# _framework density 21.301833999999999
#
# number of rings (size 3 to 8) (size 9 to 14) (size 15 to 20)
#    0.000    1.200    2.000    3.600    5.600    0.000 
#    7.200    0.000    0.000    0.000    0.000    0.000 
#    0.000    0.000    0.000    0.000    0.000    0.000 
#
# Total GULP energy -111506.099073 kJ/mol
# GULP energy per Si atom -5575.304954 kJ/mol
# Density = 2.125335 g / cm^3
# Si number density = 21.301834 Si / 1000 Ang^3
#
#
#
# Elastic Constant Matrix: (Units=GPa)
#
#
# Indices 1 2 3 4 5 6 
#
# 1 85.4424 45.5191 38.9931 0.0000 0.0000 0.0000
# 2 45.5191 136.5668 37.5627 0.0000 0.0000 0.0000
# 3 38.9931 37.5627 99.0899 0.0000 0.0000 0.0000
# 4 0.0000 0.0000 0.0000 22.6550 0.0000 0.0000
# 5 0.0000 0.0000 0.0000 0.0000 15.3194 0.0000
# 6 0.0000 0.0000 0.0000 0.0000 0.0000 24.0841
#
#
#
# Elastic Compliance Matrix: (Units=1/GPa)
#
#
# Indices 1 2 3 4 5 6 
#
# 1 0.016032 -0.004028 -0.004782 0.000000 0.000000 0.000000
# 2 -0.004028 0.009187 -0.001897 0.000000 0.000000 0.000000
# 3 -0.004782 -0.001897 0.012693 0.000000 0.000000 0.000000
# 4 0.000000 0.000000 0.000000 0.044140 0.000000 0.000000
# 5 0.000000 0.000000 0.000000 0.000000 0.065277 0.000000
# 6 0.000000 0.000000 0.000000 0.000000 0.000000 0.041521
#
#
# Mechanical properties :
#
#
# Convention : Reuss Voigt Hill
#
# Bulk Modulus (GPa) = 60.61769 62.80543 61.71156
# Shear Modulus (GPa) = 23.17342 25.67996 24.42669
#
# Velocity S-wave (km/s) = 3.30185 3.47584 3.38996
# Velocity P-wave (km/s) = 6.56160 6.75694 6.65999
#
# Compressibility (1/GPa) = 0.01649683
#
# Stress axis : x y z
#
# Youngs Moduli (GPa) = 62.37453 108.84930 78.78498
#
# Poissons Ratio (x) = 0.43849 0.37673
# Poissons Ratio (y) = 0.25127 0.14948
# Poissons Ratio (z) = 0.29826 0.20652
#
# Static dielectric constant tensor:
#      x y z
#    x 1.795370 0.000000 0.000000 
#    y 0.000000 1.807970 0.000000 
#    z 0.000000 0.000000 1.743530 
# 
# From -- ./inp_files/2184.got.cif
#   From: 2010.05.17/outbox.cif.g08.bks.cpg/sg32_2_cif.got.tgz:2184.got - 2010.06.03 17:12:27.
