data_PCOD9344905
_publ_section_title
;
Structure prediction by ZEFSAII (Michael W. Deem and Ramdas Pophale) SiO2 
 PCOD9344905
Probable space group: P N A 21
;
_chemical_formula_sum "Si O2"
_cell_formula_units_Z 32
_cell_length_a 17.231493
_cell_length_b 7.808631
_cell_length_c 9.088100
_cell_angle_alpha 90.000000
_cell_angle_beta 90.000000
_cell_angle_gamma 90.000000
_cell_volume 1222.843574
_symmetry_space_group_name_H-M "P N A 21"
_symmetry_group_IT_number 33
_symmetry_cell_setting 'orthorhombic'
loop_
_space_group_symop_operation_xyz
x,y,z
-x,-y,1/2+z
1/2-x,1/2+y,1/2+z
1/2+x,1/2-y,z
loop_
_atom_site_type_symbol
_atom_site_label
_atom_site_fract_x
_atom_site_fract_y
_atom_site_fract_z
Si Si1 0.767400 0.928076 0.412340
Si Si2 0.349365 0.046924 0.138606
Si Si3 0.851269 0.853567 0.127400
Si Si4 0.010565 0.987242 0.256758
Si Si5 0.731086 0.841978 0.919400
Si Si6 0.419284 0.161152 0.619250
Si Si7 0.064918 0.186055 0.014437
Si Si8 0.512998 0.963308 0.843049
O O1 0.688149 0.873839 0.493109
O O2 0.782755 0.868907 0.247963
O O3 0.844435 0.856762 0.493419
O O4 0.767645 0.135200 0.410588
O O5 0.285515 0.075245 0.263569
O O6 0.365168 0.847809 0.114124
O O7 0.425834 0.107229 0.222524
O O8 0.925220 0.950973 0.187086
O O9 0.812065 0.913385 0.978515
O O10 0.988661 0.952328 0.425886
O O11 0.069964 0.842618 0.197910
O O12 0.044236 0.159600 0.185729
O O13 0.659611 0.875961 0.031531
O O14 0.440211 0.025582 0.747281
O O15 0.483171 0.155756 0.485947
O O16 0.045295 0.360257 0.924503
#
# Coordination Sequence:
#
# PCOD9344905 Si02
#       8
#     4   4   4   4   4   4   4   4
#     4  10  20  37  60  81 115 152 193 236 285 340
#     4  10  20  38  60  80 117 154 187 238 290 339
#     4  10  21  41  57  81 119 152 187 242 289 339
#     4  10  20  38  60  82 117 149 190 241 290 341
#     4  10  22  37  58  85 113 151 191 237 280 347
#     4  10  20  38  59  82 116 148 191 235 289 344
#     4  10  20  38  59  85 115 152 191 240 290 341
#     4  10  21  39  59  84 118 152 188 241 295 339
#
# _framework density 26.168512
#
# number of rings (size 3 to 8) (size 9 to 14) (size 15 to 20)
#    0.000    2.000    5.000    0.000    0.000    4.000 
#    4.500    0.000    0.000    0.000    0.000    0.000 
#    0.000    0.000    0.000    0.000    0.000    0.000 
#
# Total GULP energy -178866.837962 kJ/mol
# GULP energy per Si atom -5589.588686 kJ/mol
# Density = 2.610895 g / cm^3
# Si number density = 26.168512 Si / 1000 Ang^3
#
#
#
# Elastic Constant Matrix: (Units=GPa)
#
#
# Indices 1 2 3 4 5 6 
#
# 1 25.9124 3.5276 38.3852 0.0000 0.0000 0.0000
# 2 3.5276 77.1745 -17.7740 0.0000 0.0000 0.0000
# 3 38.3852 -17.7740 48.7393 0.0000 0.0000 0.0000
# 4 0.0000 0.0000 0.0000 27.5898 0.0000 0.0000
# 5 0.0000 0.0000 0.0000 0.0000 84.4224 0.0000
# 6 0.0000 0.0000 0.0000 0.0000 0.0000 3.5228
#
#
#
# Elastic Compliance Matrix: (Units=1/GPa)
#
#
# Indices 1 2 3 4 5 6 
#
# 1 -0.115431 0.028617 0.101345 0.000000 0.000000 0.000000
# 2 0.028617 0.007051 -0.019966 0.000000 0.000000 0.000000
# 3 0.101345 -0.019966 -0.066579 0.000000 0.000000 0.000000
# 4 0.000000 0.000000 0.000000 0.036245 0.000000 0.000000
# 5 0.000000 0.000000 0.000000 0.000000 0.011845 0.000000
# 6 0.000000 0.000000 0.000000 0.000000 0.000000 0.283867
#
#
# Mechanical properties :
#
#
# Convention : Reuss Voigt Hill
#
# Bulk Modulus (GPa) = 22.20632 22.23376 22.22004
# Shear Modulus (GPa) = -104.20693 31.61946 -36.29373
#
# Velocity S-wave (km/s) = -6.31727 3.47983 -3.72818
# Velocity P-wave (km/s) = 6.68628 4.96593 3.16589
#
# Compressibility (1/GPa) = 0.04503222
#
# Stress axis : x y z
#
# Youngs Moduli (GPa) = -8.66319 141.81940 -15.01975
#
# Poissons Ratio (x) = -4.05842 1.52217
# Poissons Ratio (y) = 0.24791 -0.29989
# Poissons Ratio (z) = 0.87797 2.83158
#
# Static dielectric constant tensor:
#      x y z
#    x 1.916220 0.000000 0.000000 
#    y 0.000000 2.079490 0.000000 
#    z 0.000000 0.000000 2.042200 
# 
# From -- ./inp_files/5054.got.cif
#   From: 2010.05.17/outbox.cif.g08.bks.cpg/sg33_3_cif.got.tgz:5054.got - 2010.06.03 17:15:25.
