data_PCOD9344837
_publ_section_title
;
Structure prediction by ZEFSAII (Michael W. Deem and Ramdas Pophale) SiO2 
 PCOD9344837
Probable space group: P N A 21
;
_chemical_formula_sum "Si O2"
_cell_formula_units_Z 20
_cell_length_a 12.049403
_cell_length_b 7.084789
_cell_length_c 7.750492
_cell_angle_alpha 90.000000
_cell_angle_beta 90.000000
_cell_angle_gamma 90.000000
_cell_volume 661.639954
_symmetry_space_group_name_H-M "P N A 21"
_symmetry_group_IT_number 33
_symmetry_cell_setting 'orthorhombic'
loop_
_space_group_symop_operation_xyz
x,y,z
-x,-y,1/2+z
1/2-x,1/2+y,1/2+z
1/2+x,1/2-y,z
loop_
_atom_site_type_symbol
_atom_site_label
_atom_site_fract_x
_atom_site_fract_y
_atom_site_fract_z
Si Si1 0.875493 0.932695 0.569790
Si Si2 0.222587 0.195393 0.385241
Si Si3 0.082142 0.630440 0.102176
Si Si4 0.135367 0.024662 0.708768
Si Si5 0.386397 0.148280 0.010297
O O1 0.882668 0.853639 0.764378
O O2 0.923326 0.144662 0.572804
O O3 0.907004 0.866425 0.378126
O O4 0.738140 0.903612 0.575501
O O5 0.172379 0.187426 0.578449
O O6 0.329288 0.068942 0.450071
O O7 0.276451 0.382354 0.304173
O O8 0.115381 0.634420 0.303556
O O9 0.979414 0.493584 0.077660
O O10 0.085591 0.857818 0.586704
#
# Coordination Sequence:
#
# PCOD9344837 Si02
#       5
#     4   4   4   4   4
#     4  10  20  36  58  86 124 154 206 264 322 374
#     4  10  20  35  58  88 119 163 204 262 322 384
#     4  11  21  37  62  91 120 162 216 261 322 396
#     4  10  20  35  58  88 119 163 204 262 322 384
#     4  11  21  37  62  91 120 162 216 261 322 396
#
# _framework density 30.227919
#
# number of rings (size 3 to 8) (size 9 to 14) (size 15 to 20)
#    0.000    1.600    4.000    3.600    0.000    0.000 
#    0.000    0.000    0.000   16.800    0.000    0.000 
#    0.000    0.000    0.000    0.000    0.000    0.000 
#
# Total GULP energy -111494.811951 kJ/mol
# GULP energy per Si atom -5574.740598 kJ/mol
# Density = 3.015912 g / cm^3
# Si number density = 30.227919 Si / 1000 Ang^3
#
#
#
# Elastic Constant Matrix: (Units=GPa)
#
#
# Indices 1 2 3 4 5 6 
#
# 1 78.0859 26.7218 33.8974 0.0000 0.0000 0.0000
# 2 26.7218 136.3220 43.5582 0.0000 0.0000 0.0000
# 3 33.8974 43.5582 214.8157 0.0000 0.0000 0.0000
# 4 0.0000 0.0000 0.0000 28.8725 0.0000 0.0000
# 5 0.0000 0.0000 0.0000 0.0000 71.8321 0.0000
# 6 0.0000 0.0000 0.0000 0.0000 0.0000 53.0754
#
#
#
# Elastic Compliance Matrix: (Units=1/GPa)
#
#
# Indices 1 2 3 4 5 6 
#
# 1 0.014358 -0.002235 -0.001812 0.000000 0.000000 0.000000
# 2 -0.002235 0.008192 -0.001308 0.000000 0.000000 0.000000
# 3 -0.001812 -0.001308 0.005206 0.000000 0.000000 0.000000
# 4 0.000000 0.000000 0.000000 0.034635 0.000000 0.000000
# 5 0.000000 0.000000 0.000000 0.000000 0.013921 0.000000
# 6 0.000000 0.000000 0.000000 0.000000 0.000000 0.018841
#
#
# Mechanical properties :
#
#
# Convention : Reuss Voigt Hill
#
# Bulk Modulus (GPa) = 58.67106 70.84203 64.75655
# Shear Modulus (GPa) = 44.82400 52.42577 48.62488
#
# Velocity S-wave (km/s) = 3.85498 4.16907 4.01510
# Velocity P-wave (km/s) = 6.26627 6.83094 6.55469
#
# Compressibility (1/GPa) = 0.01704418
#
# Stress axis : x y z
#
# Youngs Moduli (GPa) = 69.64690 122.07346 192.07006
#
# Poissons Ratio (x) = 0.27288 0.34811
# Poissons Ratio (y) = 0.15569 0.25129
# Poissons Ratio (z) = 0.12623 0.15971
#
# Static dielectric constant tensor:
#      x y z
#    x 3.080670 0.000000 0.000000 
#    y 0.000000 2.542810 0.000000 
#    z 0.000000 0.000000 2.678010 
# 
# From -- ./inp_files/3736.got.cif
#   From: 2010.05.17/outbox.cif.g08.bks.cpg/sg33_2_cif.got.tgz:3736.got - 2010.06.03 17:15:25.
