data_PCOD9344521
_publ_section_title
;
Structure prediction by ZEFSAII (Michael W. Deem and Ramdas Pophale) SiO2 
 PCOD9344521
Probable space group: P N A 21
;
_chemical_formula_sum "Si O2"
_cell_formula_units_Z 24
_cell_length_a 10.338912
_cell_length_b 11.402224
_cell_length_c 7.385250
_cell_angle_alpha 90.000000
_cell_angle_beta 90.000000
_cell_angle_gamma 90.000000
_cell_volume 870.621943
_symmetry_space_group_name_H-M "P N A 21"
_symmetry_group_IT_number 33
_symmetry_cell_setting 'orthorhombic'
loop_
_space_group_symop_operation_xyz
x,y,z
-x,-y,1/2+z
1/2-x,1/2+y,1/2+z
1/2+x,1/2-y,z
loop_
_atom_site_type_symbol
_atom_site_label
_atom_site_fract_x
_atom_site_fract_y
_atom_site_fract_z
Si Si1 0.535223 0.942416 0.188100
Si Si2 0.817947 0.988999 0.340770
Si Si3 0.862734 0.235515 0.480118
Si Si4 0.184890 0.851068 0.394298
Si Si5 0.275379 0.081093 0.232698
Si Si6 0.571926 0.272886 0.913268
O O1 0.676096 0.991030 0.247950
O O2 0.486179 0.848310 0.334460
O O3 0.421527 0.037963 0.177797
O O4 0.546139 0.850345 0.019129
O O5 0.800406 0.939157 0.546122
O O6 0.896797 0.876554 0.264822
O O7 0.887663 0.112021 0.379555
O O8 0.819680 0.199155 0.685298
O O9 0.764274 0.299656 0.344325
O O10 0.297251 0.779750 0.488494
O O11 0.054017 0.828396 0.501622
O O12 0.218986 0.984549 0.370319
#
# Coordination Sequence:
#
# PCOD9344521 Si02
#       6
#     4   4   4   4   4   4
#     4  10  21  44  73  89 136 186 217 285 347 405
#     4  11  22  42  65 101 134 175 225 286 341 407
#     4  10  21  43  65  99 131 178 223 282 337 410
#     4   9  20  40  68  88 132 175 217 273 339 396
#     4  10  22  42  63 101 132 170 232 274 342 408
#     4  10  18  41  66  94 125 180 218 268 338 402
#
# _framework density 27.566499
#
# number of rings (size 3 to 8) (size 9 to 14) (size 15 to 20)
#    0.000    2.000    3.333    1.000    0.000    1.333 
#   27.000    3.333    0.000    0.000    0.000    0.000 
#    0.000    0.000    0.000    0.000    0.000    0.000 
#
# Total GULP energy -133771.747588 kJ/mol
# GULP energy per Si atom -5573.822816 kJ/mol
# Density = 2.750376 g / cm^3
# Si number density = 27.566499 Si / 1000 Ang^3
#
#
#
# Elastic Constant Matrix: (Units=GPa)
#
#
# Indices 1 2 3 4 5 6 
#
# 1 138.2329 1.8654 18.3561 0.0000 0.0000 0.0000
# 2 1.8654 125.6138 47.8502 0.0000 0.0000 0.0000
# 3 18.3561 47.8502 107.4307 0.0000 0.0000 0.0000
# 4 0.0000 0.0000 0.0000 19.5422 0.0000 0.0000
# 5 0.0000 0.0000 0.0000 0.0000 7.5091 0.0000
# 6 0.0000 0.0000 0.0000 0.0000 0.0000 27.9400
#
#
#
# Elastic Compliance Matrix: (Units=1/GPa)
#
#
# Indices 1 2 3 4 5 6 
#
# 1 0.007423 0.000449 -0.001468 0.000000 0.000000 0.000000
# 2 0.000449 0.009615 -0.004359 0.000000 0.000000 0.000000
# 3 -0.001468 -0.004359 0.011501 0.000000 0.000000 0.000000
# 4 0.000000 0.000000 0.000000 0.051171 0.000000 0.000000
# 5 0.000000 0.000000 0.000000 0.000000 0.133172 0.000000
# 6 0.000000 0.000000 0.000000 0.000000 0.000000 0.035791
#
#
# Mechanical properties :
#
#
# Convention : Reuss Voigt Hill
#
# Bulk Modulus (GPa) = 56.23738 56.38007 56.30872
# Shear Modulus (GPa) = 18.84255 31.21197 25.02726
#
# Velocity S-wave (km/s) = 2.61728 3.36853 3.01638
# Velocity P-wave (km/s) = 5.43861 5.96876 5.70984
#
# Compressibility (1/GPa) = 0.01778177
#
# Stress axis : x y z
#
# Youngs Moduli (GPa) = 134.71469 104.00633 86.95020
#
# Poissons Ratio (x) = -0.04671 0.12768
# Poissons Ratio (y) = -0.06050 0.37903
# Poissons Ratio (z) = 0.19781 0.45339
#
# Static dielectric constant tensor:
#      x y z
#    x 2.336580 0.000000 0.000000 
#    y 0.000000 2.261080 0.000000 
#    z 0.000000 0.000000 2.276980 
# 
# From -- ./inp_files/3777.got.cif
#   From: 2010.05.17/outbox.cif.g08.bks.cpg/sg33_2_cif.got.tgz:3777.got - 2010.06.03 17:15:25.
