data_PCOD9344422
_publ_section_title
;
Structure prediction by ZEFSAII (Michael W. Deem and Ramdas Pophale) SiO2 
 PCOD9344422
Probable space group: P N A 21
;
_chemical_formula_sum "Si O2"
_cell_formula_units_Z 32
_cell_length_a 7.514404
_cell_length_b 11.674945
_cell_length_c 16.215607
_cell_angle_alpha 90.000000
_cell_angle_beta 90.000000
_cell_angle_gamma 90.000000
_cell_volume 1422.599311
_symmetry_space_group_name_H-M "P N A 21"
_symmetry_group_IT_number 33
_symmetry_cell_setting 'orthorhombic'
loop_
_space_group_symop_operation_xyz
x,y,z
-x,-y,1/2+z
1/2-x,1/2+y,1/2+z
1/2+x,1/2-y,z
loop_
_atom_site_type_symbol
_atom_site_label
_atom_site_fract_x
_atom_site_fract_y
_atom_site_fract_z
Si Si1 0.460505 0.622028 0.227280
Si Si2 0.531160 0.919619 0.839834
Si Si3 0.141627 0.639314 0.655133
Si Si4 0.894786 0.801694 0.883528
Si Si5 0.468842 0.919619 0.093565
Si Si6 0.960505 0.122028 0.206118
Si Si7 0.105216 0.801694 0.049870
Si Si8 0.141627 0.360686 0.778266
O O1 0.365494 0.500000 0.216699
O O2 0.506835 0.661708 0.134441
O O3 0.651429 0.603622 0.272177
O O4 0.365126 0.722827 0.277961
O O5 0.553162 0.890031 0.743201
O O6 0.378278 0.836980 0.873984
O O7 0.708316 0.866290 0.880474
O O8 0.542271 0.057294 0.843648
O O9 0.042270 0.557294 0.589752
O O10 0.134873 0.777172 0.655437
O O11 0.348571 0.603622 0.661221
O O12 0.993165 0.838292 0.798957
O O13 0.000001 0.828041 0.966699
O O14 0.621724 0.836980 0.059415
O O15 0.446840 0.890031 0.190198
O O16 0.291686 0.866289 0.052925
#
# Coordination Sequence:
#
# PCOD9344422 Si02
#       8
#     4   4   4   4   4   4   4   4
#     4  10  18  35  52  76 104 132 170 211 256 302
#     4   9  17  32  48  74 107 128 163 214 252 299
#     4   9  17  33  51  74 101 131 168 213 250 295
#     4  10  18  30  53  77 104 134 169 210 258 298
#     4   9  17  32  48  74 107 128 163 214 252 299
#     4  10  18  35  52  76 104 132 170 211 256 302
#     4  10  18  30  53  77 104 134 169 210 258 298
#     4   9  17  33  51  74 101 131 168 213 250 295
#
# _framework density 22.494036000000001
#
# number of rings (size 3 to 8) (size 9 to 14) (size 15 to 20)
#    0.000    2.500    5.000    0.750    0.000    0.000 
#   18.000    0.000    0.000    3.000    0.000    0.000 
#    0.000    0.000    0.000    0.000    0.000    0.000 
#
# Total GULP energy -178406.825322 kJ/mol
# GULP energy per Si atom -5575.213291 kJ/mol
# Density = 2.244284 g / cm^3
# Si number density = 22.494036 Si / 1000 Ang^3
#
#
#
# Elastic Constant Matrix: (Units=GPa)
#
#
# Indices 1 2 3 4 5 6 
#
# 1 42.2629 23.3255 7.8373 0.0000 0.0000 0.0000
# 2 23.3255 203.1048 17.2250 0.0000 0.0000 0.0000
# 3 7.8373 17.2250 57.8237 0.0000 0.0000 0.0000
# 4 0.0000 0.0000 0.0000 5.6816 0.0000 0.0000
# 5 0.0000 0.0000 0.0000 0.0000 6.9757 0.0000
# 6 0.0000 0.0000 0.0000 0.0000 0.0000 27.0828
#
#
#
# Elastic Compliance Matrix: (Units=1/GPa)
#
#
# Indices 1 2 3 4 5 6 
#
# 1 0.025657 -0.002720 -0.002667 0.000000 0.000000 0.000000
# 2 -0.002720 0.005340 -0.001222 0.000000 0.000000 0.000000
# 3 -0.002667 -0.001222 0.018019 0.000000 0.000000 0.000000
# 4 0.000000 0.000000 0.000000 0.176006 0.000000 0.000000
# 5 0.000000 0.000000 0.000000 0.000000 0.143355 0.000000
# 6 0.000000 0.000000 0.000000 0.000000 0.000000 0.036924
#
#
# Mechanical properties :
#
#
# Convention : Reuss Voigt Hill
#
# Bulk Modulus (GPa) = 27.93489 44.44078 36.18783
# Shear Modulus (GPa) = 11.61568 24.93492 18.27530
#
# Velocity S-wave (km/s) = 2.27488 3.33305 2.85344
# Velocity P-wave (km/s) = 4.39840 5.88318 5.19412
#
# Compressibility (1/GPa) = 0.03579753
#
# Stress axis : x y z
#
# Youngs Moduli (GPa) = 38.97501 187.27927 55.49567
#
# Poissons Ratio (x) = 0.50948 0.14802
# Poissons Ratio (y) = 0.10603 0.06781
# Poissons Ratio (z) = 0.10395 0.22883
#
# Static dielectric constant tensor:
#      x y z
#    x 1.927320 0.000000 0.000000 
#    y 0.000000 1.998400 0.000000 
#    z 0.000000 0.000000 1.805230 
# 
# From -- ./inp_files/8548.got.cif
#   From: 2010.05.17/outbox.cif.g08.bks.cpg/sg33_5_cif.got.tgz:8548.got - 2010.06.03 17:15:25.
