data_PCOD9344239
_publ_section_title
;
Structure prediction by ZEFSAII (Michael W. Deem and Ramdas Pophale) SiO2 
 PCOD9344239
Probable space group: P B A 2
;
_chemical_formula_sum "Si O2"
_cell_formula_units_Z 32
_cell_length_a 13.903332
_cell_length_b 7.867375
_cell_length_c 12.846958
_cell_angle_alpha 90.000000
_cell_angle_beta 90.000000
_cell_angle_gamma 90.000000
_cell_volume 1405.235294
_symmetry_space_group_name_H-M "P B A 2"
_symmetry_group_IT_number 32
_symmetry_cell_setting 'orthorhombic'
loop_
_space_group_symop_operation_xyz
x,y,z
-x,-y,z
1/2-x,1/2+y,z
1/2+x,1/2-y,z
loop_
_atom_site_type_symbol
_atom_site_label
_atom_site_fract_x
_atom_site_fract_y
_atom_site_fract_z
Si Si1 0.044077 0.812433 0.135750
Si Si2 0.098086 0.305996 0.532410
Si Si3 0.449761 0.312244 0.371932
Si Si4 0.810071 0.087319 0.757843
Si Si5 0.198892 0.935081 0.527730
Si Si6 0.687563 0.782511 0.969481
Si Si7 0.103325 0.342054 0.980703
Si Si8 0.100741 0.290001 0.760466
O O1 0.061790 0.753844 0.253595
O O2 0.138754 0.816722 0.064676
O O3 0.966390 0.698366 0.074947
O O4 0.000000 0.000000 0.139348
O O5 0.185986 0.435978 0.519323
O O6 0.053380 0.316481 0.648478
O O7 0.019628 0.301674 0.442739
O O8 0.153491 0.123255 0.529852
O O9 0.500000 0.500000 0.369951
O O10 0.350211 0.337803 0.432682
O O11 0.828439 0.148571 0.639730
O O12 0.693774 0.086072 0.762613
O O13 0.857533 0.902205 0.763476
O O14 0.837301 0.197674 0.858074
O O15 0.802885 0.778463 0.979549
O O16 0.647304 0.971039 0.981235
O O17 0.049418 0.315970 0.870133
#
# Coordination Sequence:
#
# PCOD9344239 Si02
#       8
#     4   4   4   4   4   4   4   4
#     4  11  23  40  59  80 110 149 194 237 278 327
#     4   9  18  34  56  82 111 143 178 220 271 326
#     4   9  20  38  57  78 106 143 186 227 270 325
#     4   9  16  29  53  83 113 143 178 220 272 333
#     4   9  18  34  56  82 111 143 178 220 271 326
#     4  11  22  38  59  84 115 148 186 231 281 334
#     4  11  22  38  59  84 115 148 186 231 281 334
#     4   9  16  29  53  83 113 143 178 220 272 333
#
# _framework density 22.771986999999999
#
# number of rings (size 3 to 8) (size 9 to 14) (size 15 to 20)
#    0.000    2.250    0.000    4.875    0.000    3.000 
#    0.000    8.125    0.000    0.000    0.000    0.000 
#    0.000    0.000    0.000    0.000    0.000    0.000 
#
# Total GULP energy -178867.725333 kJ/mol
# GULP energy per Si atom -5589.616417 kJ/mol
# Density = 2.272016 g / cm^3
# Si number density = 22.771987 Si / 1000 Ang^3
#
#
#
# Elastic Constant Matrix: (Units=GPa)
#
#
# Indices 1 2 3 4 5 6 
#
# 1 54.2536 10.5802 27.9412 0.0000 0.0000 0.0000
# 2 10.5802 69.9634 30.5163 0.0000 0.0000 0.0000
# 3 27.9412 30.5163 195.1860 0.0000 0.0000 0.0000
# 4 0.0000 0.0000 0.0000 13.1571 0.0000 0.0000
# 5 0.0000 0.0000 0.0000 0.0000 31.2033 0.0000
# 6 0.0000 0.0000 0.0000 0.0000 0.0000 33.6798
#
#
#
# Elastic Compliance Matrix: (Units=1/GPa)
#
#
# Indices 1 2 3 4 5 6 
#
# 1 0.020136 -0.001919 -0.002583 0.000000 0.000000 0.000000
# 2 -0.001919 0.015522 -0.002152 0.000000 0.000000 0.000000
# 3 -0.002583 -0.002152 0.005829 0.000000 0.000000 0.000000
# 4 0.000000 0.000000 0.000000 0.076005 0.000000 0.000000
# 5 0.000000 0.000000 0.000000 0.000000 0.032048 0.000000
# 6 0.000000 0.000000 0.000000 0.000000 0.000000 0.029691
#
#
# Mechanical properties :
#
#
# Convention : Reuss Voigt Hill
#
# Bulk Modulus (GPa) = 35.48483 50.83093 43.15788
# Shear Modulus (GPa) = 24.76082 32.29905 28.52993
#
# Velocity S-wave (km/s) = 3.30106 3.77021 3.54341
# Velocity P-wave (km/s) = 5.49052 6.42828 5.97782
#
# Compressibility (1/GPa) = 0.02818106
#
# Stress axis : x y z
#
# Youngs Moduli (GPa) = 49.66186 64.42451 171.54157
#
# Poissons Ratio (x) = 0.12361 0.44302
# Poissons Ratio (y) = 0.09528 0.36918
# Poissons Ratio (z) = 0.12825 0.13865
#
# Static dielectric constant tensor:
#      x y z
#    x 1.857760 0.000000 0.000000 
#    y 0.000000 1.893310 0.000000 
#    z 0.000000 0.000000 1.847690 
# 
# From -- ./inp_files/3958.got.cif
#   From: 2010.05.17/outbox.cif.g08.bks.cpg/sg32_2_cif.got.tgz:3958.got - 2010.06.03 17:12:27.
