data_PCOD9344278
_publ_section_title
;
Structure prediction by ZEFSAII (Michael W. Deem and Ramdas Pophale) SiO2 
 PCOD9344278
Probable space group: P B A 2
;
_chemical_formula_sum "Si O2"
_cell_formula_units_Z 26
_cell_length_a 8.869934
_cell_length_b 11.791418
_cell_length_c 10.790073
_cell_angle_alpha 90.000000
_cell_angle_beta 90.000000
_cell_angle_gamma 90.000000
_cell_volume 1128.524018
_symmetry_space_group_name_H-M "P B A 2"
_symmetry_group_IT_number 32
_symmetry_cell_setting 'orthorhombic'
loop_
_space_group_symop_operation_xyz
x,y,z
-x,-y,z
1/2-x,1/2+y,z
1/2+x,1/2-y,z
loop_
_atom_site_type_symbol
_atom_site_label
_atom_site_fract_x
_atom_site_fract_y
_atom_site_fract_z
Si Si1 0.000000 0.500000 0.621191
Si Si2 0.439265 0.622026 0.833382
Si Si3 0.451090 0.631392 0.118909
Si Si4 0.359765 0.176488 0.238660
Si Si5 0.966163 0.177982 0.459294
Si Si6 0.249281 0.024589 0.415910
Si Si7 0.137796 0.714146 0.716655
O O1 0.857299 0.502245 0.530752
O O2 0.976053 0.391122 0.705189
O O3 0.500000 0.500000 0.790772
O O4 0.303119 0.667684 0.748346
O O5 0.581369 0.704952 0.824566
O O6 0.395647 0.617947 0.977325
O O7 0.500000 0.500000 0.152830
O O8 0.569375 0.734855 0.139190
O O9 0.314906 0.679910 0.200559
O O10 0.437666 0.220166 0.365446
O O11 0.342433 0.045230 0.289149
O O12 0.897506 0.215291 0.591156
O O13 0.136369 0.128867 0.456812
O O14 0.861335 0.080474 0.403503
#
# Coordination Sequence:
#
# PCOD9344278 Si02
#       7
#     2   4   4   4   4   4   4
#     4  12  26  42  68 112 150 186 238 304 362 468
#     4  11  28  49  78 103 145 202 256 318 373 442
#     4  11  26  51  72 103 143 196 261 316 374 438
#     4  12  23  44  72 103 143 195 237 307 367 443
#     4  11  25  44  68 108 149 194 232 301 375 454
#     4  11  25  42  66 106 152 188 237 286 374 442
#     4  12  26  46  75 110 151 192 249 306 383 456
#
# _framework density 23.038941999999999
#
# number of rings (size 3 to 8) (size 9 to 14) (size 15 to 20)
#    0.000    0.615    3.077    3.692   10.769    0.000 
#    0.000    0.769    0.000    0.000    0.000    0.000 
#    0.000    0.000    0.000    0.000    0.000    0.000 
#
# Total GULP energy -144775.817021 kJ/mol
# GULP energy per Si atom -5568.300655 kJ/mol
# Density = 2.298650 g / cm^3
# Si number density = 23.038942 Si / 1000 Ang^3
#
#
#
# Elastic Constant Matrix: (Units=GPa)
#
#
# Indices 1 2 3 4 5 6 
#
# 1 131.3898 34.7028 14.4382 0.0000 0.0000 0.0000
# 2 34.7028 77.8762 -0.4661 0.0000 0.0000 0.0000
# 3 14.4382 -0.4661 72.7262 0.0000 0.0000 0.0000
# 4 0.0000 0.0000 0.0000 20.5755 0.0000 0.0000
# 5 0.0000 0.0000 0.0000 0.0000 18.7296 0.0000
# 6 0.0000 0.0000 0.0000 0.0000 0.0000 42.9147
#
#
#
# Elastic Compliance Matrix: (Units=1/GPa)
#
#
# Indices 1 2 3 4 5 6 
#
# 1 0.008851 -0.003955 -0.001783 0.000000 0.000000 0.000000
# 2 -0.003955 0.014609 0.000879 0.000000 0.000000 0.000000
# 3 -0.001783 0.000879 0.014110 0.000000 0.000000 0.000000
# 4 0.000000 0.000000 0.000000 0.048602 0.000000 0.000000
# 5 0.000000 0.000000 0.000000 0.000000 0.053391 0.000000
# 6 0.000000 0.000000 0.000000 0.000000 0.000000 0.023302
#
#
# Mechanical properties :
#
#
# Convention : Reuss Voigt Hill
#
# Bulk Modulus (GPa) = 35.90390 42.14910 39.02650
# Shear Modulus (GPa) = 27.49275 31.99846 29.74560
#
# Velocity S-wave (km/s) = 3.45819 3.73082 3.59709
# Velocity P-wave (km/s) = 5.61812 6.07397 5.85049
#
# Compressibility (1/GPa) = 0.02785212
#
# Stress axis : x y z
#
# Youngs Moduli (GPa) = 112.97616 68.45304 70.87308
#
# Poissons Ratio (x) = 0.27073 0.12634
# Poissons Ratio (y) = 0.44682 -0.06228
# Poissons Ratio (z) = 0.20139 -0.06016
#
# Static dielectric constant tensor:
#      x y z
#    x 1.902990 0.000000 0.000000 
#    y 0.000000 2.013790 0.000000 
#    z 0.000000 0.000000 1.921500 
# 
# From -- ./inp_files/3691.got.cif
#   From: 2010.05.17/outbox.cif.g08.bks.cpg/sg32_2_cif.got.tgz:3691.got - 2010.06.03 17:12:27.
