data_PCOD9344260
_publ_section_title
;
Structure prediction by ZEFSAII (Michael W. Deem and Ramdas Pophale) SiO2 
 PCOD9344260
Probable space group: P B A 2
;
_chemical_formula_sum "Si O2"
_cell_formula_units_Z 26
_cell_length_a 23.068240
_cell_length_b 8.373707
_cell_length_c 5.773853
_cell_angle_alpha 90.000000
_cell_angle_beta 90.000000
_cell_angle_gamma 90.000000
_cell_volume 1115.316031
_symmetry_space_group_name_H-M "P B A 2"
_symmetry_group_IT_number 32
_symmetry_cell_setting 'orthorhombic'
loop_
_space_group_symop_operation_xyz
x,y,z
-x,-y,z
1/2-x,1/2+y,z
1/2+x,1/2-y,z
loop_
_atom_site_type_symbol
_atom_site_label
_atom_site_fract_x
_atom_site_fract_y
_atom_site_fract_z
Si Si1 0.316533 0.368368 0.092090
Si Si2 0.686044 0.251670 0.086525
Si Si3 0.594133 0.283485 0.471260
Si Si4 0.626038 0.626715 0.602244
Si Si5 0.500000 0.500000 0.226735
Si Si6 0.463807 0.248290 0.901449
Si Si7 0.916839 0.590176 0.858769
O O1 0.314166 0.558555 0.060466
O O2 0.251245 0.305187 0.110208
O O3 0.347348 0.335032 0.346272
O O4 0.341244 0.312950 0.838001
O O5 0.645877 0.229578 0.308994
O O6 0.647891 0.149984 0.904892
O O7 0.620203 0.434112 0.615599
O O8 0.539812 0.375652 0.362267
O O9 0.574869 0.117223 0.586079
O O10 0.562144 0.699819 0.652666
O O11 0.455540 0.399300 0.066758
O O12 0.532228 0.213051 0.930242
O O13 0.432847 0.081121 0.955698
#
# Coordination Sequence:
#
# PCOD9344260 Si02
#       7
#     4   4   4   4   2   4   4
#     4  11  27  44  76 100 148 195 257 317 381 460
#     4  11  25  48  69 107 145 197 257 316 386 459
#     4  11  23  45  75 102 152 194 256 312 387 463
#     4  11  24  47  71 108 141 201 259 306 385 466
#     4  12  22  46  82 110 154 214 248 318 390 492
#     4  11  24  44  74 109 151 196 254 311 395 459
#     4  11  24  46  69 108 152 191 249 326 383 460
#
# _framework density 23.311778
#
# number of rings (size 3 to 8) (size 9 to 14) (size 15 to 20)
#    0.000    0.923    3.077    3.692    4.308    1.231 
#    8.308    0.000    0.000    0.000    0.000    0.000 
#    0.000    0.000    0.000    0.000    0.000    0.000 
#
# Total GULP energy -144822.428086 kJ/mol
# GULP energy per Si atom -5570.093388 kJ/mol
# Density = 2.325872 g / cm^3
# Si number density = 23.311778 Si / 1000 Ang^3
#
#
#
# Elastic Constant Matrix: (Units=GPa)
#
#
# Indices 1 2 3 4 5 6 
#
# 1 136.1490 22.3061 82.6319 0.0000 0.0000 0.0000
# 2 22.3061 41.3446 39.5090 0.0000 0.0000 0.0000
# 3 82.6319 39.5090 122.5141 0.0000 0.0000 0.0000
# 4 0.0000 0.0000 0.0000 -100.0826 0.0000 0.0000
# 5 0.0000 0.0000 0.0000 0.0000 67.3101 0.0000
# 6 0.0000 0.0000 0.0000 0.0000 0.0000 40.8074
#
#
#
# Elastic Compliance Matrix: (Units=1/GPa)
#
#
# Indices 1 2 3 4 5 6 
#
# 1 0.012538 0.001903 -0.009070 0.000000 0.000000 0.000000
# 2 0.001903 0.035249 -0.012651 0.000000 0.000000 0.000000
# 3 -0.009070 -0.012651 0.018360 0.000000 0.000000 0.000000
# 4 0.000000 0.000000 0.000000 -0.009992 0.000000 0.000000
# 5 0.000000 0.000000 0.000000 0.000000 0.014857 0.000000
# 6 0.000000 0.000000 0.000000 0.000000 0.000000 0.024505
#
#
# Mechanical properties :
#
#
# Convention : Reuss Voigt Hill
#
# Bulk Modulus (GPa) = 37.72037 65.43350 51.57694
# Shear Modulus (GPa) = 34.72451 11.97769 23.35110
#
# Velocity S-wave (km/s) = 3.86368 2.26918 3.16838
# Velocity P-wave (km/s) = 6.00999 5.91569 5.96303
#
# Compressibility (1/GPa) = 0.02651088
#
# Stress axis : x y z
#
# Youngs Moduli (GPa) = 79.75745 28.36921 54.46737
#
# Poissons Ratio (x) = -0.05399 0.49403
# Poissons Ratio (y) = -0.15178 0.68906
# Poissons Ratio (z) = 0.72341 0.35890
#
# Static dielectric constant tensor:
#      x y z
#    x 1.794850 0.000000 0.000000 
#    y 0.000000 2.471470 0.000000 
#    z 0.000000 0.000000 2.083800 
# 
# From -- ./inp_files/1648.got.cif
#   From: 2010.05.17/outbox.cif.g08.bks.cpg/sg32_1_cif.got.tgz:1648.got - 2010.06.03 17:12:27.
