data_PCOD9344433
_publ_section_title
;
Structure prediction by ZEFSAII (Michael W. Deem and Ramdas Pophale) SiO2 
 PCOD9344433
Probable space group: P N A 21
;
_chemical_formula_sum "Si O2"
_cell_formula_units_Z 32
_cell_length_a 23.313136
_cell_length_b 5.066414
_cell_length_c 10.904377
_cell_angle_alpha 90.000000
_cell_angle_beta 90.000000
_cell_angle_gamma 90.000000
_cell_volume 1287.959570
_symmetry_space_group_name_H-M "P N A 21"
_symmetry_group_IT_number 33
_symmetry_cell_setting 'orthorhombic'
loop_
_space_group_symop_operation_xyz
x,y,z
-x,-y,1/2+z
1/2-x,1/2+y,1/2+z
1/2+x,1/2-y,z
loop_
_atom_site_type_symbol
_atom_site_label
_atom_site_fract_x
_atom_site_fract_y
_atom_site_fract_z
Si Si1 0.433556 0.562972 0.005480
Si Si2 0.783202 0.604682 0.805206
Si Si3 0.132687 0.720211 0.678811
Si Si4 0.773178 0.615731 0.228655
Si Si5 0.175055 0.036107 0.914966
Si Si6 0.448159 0.565914 0.471032
Si Si7 0.912387 0.438134 0.848059
Si Si8 0.527885 0.935811 0.803451
O O1 0.384465 0.465240 0.096056
O O2 0.497158 0.492593 0.058209
O O3 0.428023 0.857220 0.957087
O O4 0.421673 0.360094 0.892011
O O5 0.754668 0.400251 0.706620
O O6 0.741036 0.565910 0.924860
O O7 0.847801 0.509717 0.816625
O O8 0.775491 0.903850 0.762376
O O9 0.183669 0.530431 0.638017
O O10 0.076256 0.549240 0.701869
O O11 0.153007 0.849156 0.805569
O O12 0.812413 0.682226 0.350180
O O13 0.119772 0.042664 0.004553
O O14 0.463543 0.349005 0.365993
O O15 0.457100 0.848626 0.407528
O O16 0.963891 0.508675 0.755251
#
# Coordination Sequence:
#
# PCOD9344433 Si02
#       8
#     4   4   4   4   4   4   4   4
#     4  10  22  29  50  74 107 134 155 215 267 311
#     4   9  17  30  49  72  93 124 168 210 247 289
#     4  10  18  32  50  80  99 127 173 212 264 293
#     4   9  17  28  51  74  90 124 168 218 239 284
#     4   8  17  29  53  72  94 127 172 213 231 290
#     4   9  16  31  44  73  97 125 163 200 251 291
#     4  10  20  34  46  75 106 134 167 204 262 308
#     4   9  17  29  49  66  98 129 160 204 239 302
#
# _framework density 24.845500999999999
#
# number of rings (size 3 to 8) (size 9 to 14) (size 15 to 20)
#    0.750    2.000    1.250    0.750    1.750    0.000 
#    0.000    0.000    0.000    3.000    3.250    0.000 
#    0.000    0.000    0.000    0.000    0.000    0.000 
#
# Total GULP energy -178225.947447 kJ/mol
# GULP energy per Si atom -5569.560858 kJ/mol
# Density = 2.478895 g / cm^3
# Si number density = 24.845501 Si / 1000 Ang^3
#
#
#
# Elastic Constant Matrix: (Units=GPa)
#
#
# Indices 1 2 3 4 5 6 
#
# 1 175.3156 4.4181 16.5012 0.0000 0.0000 0.0000
# 2 4.4181 113.5025 10.4692 0.0000 0.0000 0.0000
# 3 16.5012 10.4692 15.4184 0.0000 0.0000 0.0000
# 4 0.0000 0.0000 0.0000 11.0665 0.0000 0.0000
# 5 0.0000 0.0000 0.0000 0.0000 15.5317 0.0000
# 6 0.0000 0.0000 0.0000 0.0000 0.0000 30.3507
#
#
#
# Elastic Compliance Matrix: (Units=1/GPa)
#
#
# Indices 1 2 3 4 5 6 
#
# 1 0.006360 0.000406 -0.007083 0.000000 0.000000 0.000000
# 2 0.000406 0.009425 -0.006834 0.000000 0.000000 0.000000
# 3 -0.007083 -0.006834 0.077077 0.000000 0.000000 0.000000
# 4 0.000000 0.000000 0.000000 0.090363 0.000000 0.000000
# 5 0.000000 0.000000 0.000000 0.000000 0.064385 0.000000
# 6 0.000000 0.000000 0.000000 0.000000 0.000000 0.032948
#
#
# Mechanical properties :
#
#
# Convention : Reuss Voigt Hill
#
# Bulk Modulus (GPa) = 15.18797 40.77930 27.98364
# Shear Modulus (GPa) = 15.17328 29.57964 22.37646
#
# Velocity S-wave (km/s) = 2.47393 3.45417 3.00430
# Velocity P-wave (km/s) = 3.77977 5.68833 4.82928
#
# Compressibility (1/GPa) = 0.06584157
#
# Stress axis : x y z
#
# Youngs Moduli (GPa) = 157.22284 106.10171 12.97397
#
# Poissons Ratio (x) = -0.04304 0.09189
# Poissons Ratio (y) = -0.06378 0.08866
# Poissons Ratio (z) = 1.11353 0.72507
#
# Static dielectric constant tensor:
#      x y z
#    x 2.156090 0.000000 0.000000 
#    y 0.000000 1.937310 0.000000 
#    z 0.000000 0.000000 2.056790 
# 
# From -- ./inp_files/8316.got.cif
#   From: 2010.05.17/outbox.cif.g08.bks.cpg/sg33_5_cif.got.tgz:8316.got - 2010.06.03 17:15:25.
