data_PCOD9344554
_publ_section_title
;
Structure prediction by ZEFSAII (Michael W. Deem and Ramdas Pophale) SiO2 
 PCOD9344554
Probable space group: P N A 21
;
_chemical_formula_sum "Si O2"
_cell_formula_units_Z 32
_cell_length_a 14.086767
_cell_length_b 13.344120
_cell_length_c 9.941631
_cell_angle_alpha 90.000000
_cell_angle_beta 90.000000
_cell_angle_gamma 90.000000
_cell_volume 1868.783150
_symmetry_space_group_name_H-M "P N A 21"
_symmetry_group_IT_number 33
_symmetry_cell_setting 'orthorhombic'
loop_
_space_group_symop_operation_xyz
x,y,z
-x,-y,1/2+z
1/2-x,1/2+y,1/2+z
1/2+x,1/2-y,z
loop_
_atom_site_type_symbol
_atom_site_label
_atom_site_fract_x
_atom_site_fract_y
_atom_site_fract_z
Si Si1 0.360346 0.405733 0.748410
Si Si2 0.422113 0.390133 0.037182
Si Si3 0.899487 0.268350 0.279311
Si Si4 0.718463 0.628855 0.978565
Si Si5 0.281537 0.628855 0.704535
Si Si6 0.639654 0.405733 0.934691
Si Si7 0.422113 0.609867 0.145919
Si Si8 0.399488 0.768351 0.903790
O O1 0.297821 0.350938 0.636409
O O2 0.323088 0.520122 0.742303
O O3 0.468082 0.400780 0.692138
O O4 0.363559 0.368303 0.901119
O O5 0.413156 0.307135 0.152983
O O6 0.393395 0.500000 0.091551
O O7 0.531918 0.400781 0.990963
O O8 0.843238 0.206457 0.393061
O O9 0.828722 0.357275 0.238413
O O10 1.000000 0.298695 0.341551
O O11 0.676912 0.520121 0.940798
O O12 0.828723 0.642725 0.944688
O O13 0.297822 0.649062 0.546691
O O14 0.343238 0.706458 0.790040
O O15 0.636441 0.368303 0.781982
O O16 0.413156 0.692865 0.030117
#
# Coordination Sequence:
#
# PCOD9344554 Si02
#       8
#     4   4   4   4   4   4   4   4
#     4  10  19  33  53  81 106 142 185 225 275 326
#     4  11  18  30  55  80 110 139 178 234 277 317
#     4  11  20  34  52  82 111 142 178 227 278 322
#     4  10  20  32  54  79 109 140 181 225 274 329
#     4  10  20  32  54  79 109 140 181 225 274 329
#     4  10  19  33  53  81 106 142 185 225 275 326
#     4  11  18  30  55  80 110 139 178 234 277 317
#     4  11  20  34  52  82 111 142 178 227 278 322
#
# _framework density 17.123442000000001
#
# number of rings (size 3 to 8) (size 9 to 14) (size 15 to 20)
#    0.000    1.500    7.500    0.000    0.000    1.000 
#    0.000    0.000    0.000   12.000    6.500    0.000 
#    0.000    0.000    0.000    0.000    0.000    0.000 
#
# Total GULP energy -178358.071957 kJ/mol
# GULP energy per Si atom -5573.689749 kJ/mol
# Density = 1.708447 g / cm^3
# Si number density = 17.123442 Si / 1000 Ang^3
#
#
#
# Elastic Constant Matrix: (Units=GPa)
#
#
# Indices 1 2 3 4 5 6 
#
# 1 111.6188 20.6275 40.2904 0.0000 0.0000 0.0000
# 2 20.6275 25.6023 10.7147 0.0000 0.0000 0.0000
# 3 40.2904 10.7147 117.9621 0.0000 0.0000 0.0000
# 4 0.0000 0.0000 0.0000 8.1328 0.0000 0.0000
# 5 0.0000 0.0000 0.0000 0.0000 17.4881 0.0000
# 6 0.0000 0.0000 0.0000 0.0000 0.0000 18.0439
#
#
#
# Elastic Compliance Matrix: (Units=1/GPa)
#
#
# Indices 1 2 3 4 5 6 
#
# 1 0.011605 -0.007995 -0.003238 0.000000 0.000000 0.000000
# 2 -0.007995 0.046111 -0.001457 0.000000 0.000000 0.000000
# 3 -0.003238 -0.001457 0.009715 0.000000 0.000000 0.000000
# 4 0.000000 0.000000 0.000000 0.122960 0.000000 0.000000
# 5 0.000000 0.000000 0.000000 0.000000 0.057182 0.000000
# 6 0.000000 0.000000 0.000000 0.000000 0.000000 0.055420
#
#
# Mechanical properties :
#
#
# Convention : Reuss Voigt Hill
#
# Bulk Modulus (GPa) = 23.78084 44.27205 34.02644
# Shear Modulus (GPa) = 14.60320 20.96967 17.78644
#
# Velocity S-wave (km/s) = 2.92348 3.50325 3.22641
# Velocity P-wave (km/s) = 5.03127 6.50188 5.81326
#
# Compressibility (1/GPa) = 0.04205066
#
# Stress axis : x y z
#
# Youngs Moduli (GPa) = 86.16761 21.68696 102.92833
#
# Poissons Ratio (x) = 0.17339 0.33324
# Poissons Ratio (y) = 0.68894 0.15001
# Poissons Ratio (z) = 0.27898 0.03161
#
# Static dielectric constant tensor:
#      x y z
#    x 1.582840 0.000000 0.000000 
#    y 0.000000 1.560050 0.000000 
#    z 0.000000 0.000000 1.621110 
# 
# From -- ./inp_files/4488.got.cif
#   From: 2010.05.17/outbox.cif.g08.bks.cpg/sg33_3_cif.got.tgz:4488.got - 2010.06.03 17:15:25.
