data_PCOD9344312
_publ_section_title
;
Structure prediction by ZEFSAII (Michael W. Deem and Ramdas Pophale) SiO2 
 PCOD9344312
Probable space group: P B A 2
;
_chemical_formula_sum "Si O2"
_cell_formula_units_Z 22
_cell_length_a 5.624955
_cell_length_b 13.660395
_cell_length_c 11.213183
_cell_angle_alpha 90.000000
_cell_angle_beta 90.000000
_cell_angle_gamma 90.000000
_cell_volume 861.610970
_symmetry_space_group_name_H-M "P B A 2"
_symmetry_group_IT_number 32
_symmetry_cell_setting 'orthorhombic'
loop_
_space_group_symop_operation_xyz
x,y,z
-x,-y,z
1/2-x,1/2+y,z
1/2+x,1/2-y,z
loop_
_atom_site_type_symbol
_atom_site_label
_atom_site_fract_x
_atom_site_fract_y
_atom_site_fract_z
Si Si1 0.101511 0.721561 0.200160
Si Si2 0.283745 0.665181 0.609232
Si Si3 0.154989 0.846874 0.442542
Si Si4 0.409834 0.696950 0.876879
Si Si5 0.500000 0.000000 0.536690
Si Si6 0.000000 0.000000 0.020491
Si Si7 0.000000 0.500000 0.162699
O O1 0.859068 0.761193 0.140858
O O2 0.120211 0.788108 0.320551
O O3 0.062658 0.606128 0.219809
O O4 0.208900 0.764098 0.542362
O O5 0.417317 0.610717 0.499493
O O6 0.411314 0.683291 0.732981
O O7 0.083346 0.584691 0.628827
O O8 0.343450 0.931975 0.449284
O O9 0.643780 0.762536 0.903219
O O10 0.448167 0.593538 0.939311
O O11 0.753545 0.019020 0.093923
#
# Coordination Sequence:
#
# PCOD9344312 Si02
#       7
#     4   4   4   4   2   2   2
#     4  12  27  50  83 116 156 207 270 321 406 481
#     4  12  24  46  72 113 170 210 255 308 389 489
#     4  12  24  47  70 115 164 212 258 307 390 484
#     4  12  27  48  83 121 162 210 261 326 406 476
#     4  12  26  42  74 104 172 224 253 315 378 462
#     4  12  30  54  86 118 152 208 286 336 408 470
#     4  12  30  58  80 116 156 208 277 355 398 454
#
# _framework density 25.533566
#
# number of rings (size 3 to 8) (size 9 to 14) (size 15 to 20)
#    0.000    0.000    5.455    2.727    2.545    8.000 
#    3.273    0.000    0.000    0.000    0.000    0.000 
#    0.000    0.000    0.000    0.000    0.000    0.000 
#
# Total GULP energy -122885.286924 kJ/mol
# GULP energy per Si atom -5585.694860 kJ/mol
# Density = 2.547545 g / cm^3
# Si number density = 25.533566 Si / 1000 Ang^3
#
#
#
# Elastic Constant Matrix: (Units=GPa)
#
#
# Indices 1 2 3 4 5 6 
#
# 1 163.1403 59.1039 39.3209 0.0000 0.0000 0.0000
# 2 59.1039 212.8203 39.6620 0.0000 0.0000 0.0000
# 3 39.3209 39.6620 85.9564 0.0000 0.0000 0.0000
# 4 0.0000 0.0000 0.0000 14.8621 0.0000 0.0000
# 5 0.0000 0.0000 0.0000 0.0000 35.3096 0.0000
# 6 0.0000 0.0000 0.0000 0.0000 0.0000 65.8366
#
#
#
# Elastic Compliance Matrix: (Units=1/GPa)
#
#
# Indices 1 2 3 4 5 6 
#
# 1 0.007325 -0.001542 -0.002639 0.000000 0.000000 0.000000
# 2 -0.001542 0.005466 -0.001816 0.000000 0.000000 0.000000
# 3 -0.002639 -0.001816 0.013679 0.000000 0.000000 0.000000
# 4 0.000000 0.000000 0.000000 0.067285 0.000000 0.000000
# 5 0.000000 0.000000 0.000000 0.000000 0.028321 0.000000
# 6 0.000000 0.000000 0.000000 0.000000 0.000000 0.015189
#
#
# Mechanical properties :
#
#
# Convention : Reuss Voigt Hill
#
# Bulk Modulus (GPa) = 69.08990 82.01005 75.54998
# Shear Modulus (GPa) = 32.44968 44.79033 38.62000
#
# Velocity S-wave (km/s) = 3.56878 4.19283 3.89333
# Velocity P-wave (km/s) = 6.64070 7.45842 7.06140
#
# Compressibility (1/GPa) = 0.01447390
#
# Stress axis : x y z
#
# Youngs Moduli (GPa) = 136.52777 182.96091 73.10408
#
# Poissons Ratio (x) = 0.28219 0.19292
# Poissons Ratio (y) = 0.21057 0.13279
# Poissons Ratio (z) = 0.36029 0.33233
#
# Static dielectric constant tensor:
#      x y z
#    x 2.570010 0.000000 0.000000 
#    y 0.000000 1.952720 0.000000 
#    z 0.000000 0.000000 2.096410 
# 
# From -- ./inp_files/3514.got.cif
#   From: 2010.05.17/outbox.cif.g08.bks.cpg/sg32_2_cif.got.tgz:3514.got - 2010.06.03 17:12:27.
