data_PCOD9344977
_publ_section_title
;
Structure prediction by ZEFSAII (Michael W. Deem and Ramdas Pophale) SiO2 
 PCOD9344977
Probable space group: P N A 21
;
_chemical_formula_sum "Si O2"
_cell_formula_units_Z 32
_cell_length_a 17.972709
_cell_length_b 6.651001
_cell_length_c 10.255275
_cell_angle_alpha 90.000000
_cell_angle_beta 90.000000
_cell_angle_gamma 90.000000
_cell_volume 1225.879737
_symmetry_space_group_name_H-M "P N A 21"
_symmetry_group_IT_number 33
_symmetry_cell_setting 'orthorhombic'
loop_
_space_group_symop_operation_xyz
x,y,z
-x,-y,1/2+z
1/2-x,1/2+y,1/2+z
1/2+x,1/2-y,z
loop_
_atom_site_type_symbol
_atom_site_label
_atom_site_fract_x
_atom_site_fract_y
_atom_site_fract_z
Si Si1 0.814666 0.939398 0.359300
Si Si2 0.855061 0.579169 0.241249
Si Si3 0.803405 0.912683 0.811672
Si Si4 0.650900 0.034868 0.444459
Si Si5 0.125797 0.313613 0.097839
Si Si6 0.593181 0.813733 0.945479
Si Si7 0.437015 0.307457 0.847978
Si Si8 0.999087 0.003923 0.105247
O O1 0.839956 0.819646 0.231722
O O2 0.728447 0.941928 0.394440
O O3 0.855174 0.801736 0.465741
O O4 0.848722 0.157380 0.382450
O O5 0.777655 0.506378 0.309203
O O6 0.918916 0.476130 0.329925
O O7 0.860624 0.497280 0.096380
O O8 0.834548 0.772249 0.926193
O O9 0.809375 0.750852 0.694790
O O10 0.863000 0.087473 0.789949
O O11 0.584372 0.927681 0.365551
O O12 0.051092 0.198240 0.140983
O O13 0.121094 0.545884 0.063976
O O14 0.532001 0.673246 0.011693
O O15 0.501091 0.385669 0.746868
O O16 0.446353 0.390966 0.996226
#
# Coordination Sequence:
#
# PCOD9344977 Si02
#       8
#     4   4   4   4   4   4   4   4
#     4  10  20  38  62  98 132 172 217 277 352 428
#     4  11  23  38  63 101 140 172 226 285 349 437
#     4  11  22  40  65 100 136 177 219 288 355 421
#     4  12  24  39  64 101 137 181 229 284 355 440
#     4   9  20  40  67  93 128 177 226 273 349 417
#     4  10  21  41  68  97 132 184 216 290 362 416
#     4  11  26  46  68 100 139 186 245 298 353 426
#     4  10  24  46  71  94 136 187 244 297 349 419
#
# _framework density 26.103702999999999
#
# number of rings (size 3 to 8) (size 9 to 14) (size 15 to 20)
#    0.000    1.500    3.750    0.750    1.750    3.000 
#    4.500    0.000    0.000    0.000    0.000    0.000 
#    0.000    0.000    0.000    0.000    0.000    0.000 
#
# Total GULP energy -178491.110474 kJ/mol
# GULP energy per Si atom -5577.847202 kJ/mol
# Density = 2.604429 g / cm^3
# Si number density = 26.103703 Si / 1000 Ang^3
#
#
#
# Elastic Constant Matrix: (Units=GPa)
#
#
# Indices 1 2 3 4 5 6 
#
# 1 58.0122 23.0826 4.9459 0.0000 0.0000 0.0000
# 2 23.0826 124.5459 30.5486 0.0000 0.0000 0.0000
# 3 4.9459 30.5486 121.1273 0.0000 0.0000 0.0000
# 4 0.0000 0.0000 0.0000 33.5718 0.0000 0.0000
# 5 0.0000 0.0000 0.0000 0.0000 15.5874 0.0000
# 6 0.0000 0.0000 0.0000 0.0000 0.0000 27.9432
#
#
#
# Elastic Compliance Matrix: (Units=1/GPa)
#
#
# Indices 1 2 3 4 5 6 
#
# 1 0.018612 -0.003478 0.000117 0.000000 0.000000 0.000000
# 2 -0.003478 0.009209 -0.002180 0.000000 0.000000 0.000000
# 3 0.000117 -0.002180 0.008801 0.000000 0.000000 0.000000
# 4 0.000000 0.000000 0.000000 0.029787 0.000000 0.000000
# 5 0.000000 0.000000 0.000000 0.000000 0.064154 0.000000
# 6 0.000000 0.000000 0.000000 0.000000 0.000000 0.035787
#
#
# Mechanical properties :
#
#
# Convention : Reuss Voigt Hill
#
# Bulk Modulus (GPa) = 39.15648 46.75994 42.95821
# Shear Modulus (GPa) = 26.88973 31.76105 29.32539
#
# Velocity S-wave (km/s) = 3.21302 3.49194 3.35538
# Velocity P-wave (km/s) = 5.36634 5.84895 5.61283
#
# Compressibility (1/GPa) = 0.02553856
#
# Stress axis : x y z
#
# Youngs Moduli (GPa) = 53.72972 108.59417 113.62481
#
# Poissons Ratio (x) = 0.37771 -0.01332
# Poissons Ratio (y) = 0.18688 0.24775
# Poissons Ratio (z) = -0.00630 0.23678
#
# Static dielectric constant tensor:
#      x y z
#    x 2.061220 0.000000 0.000000 
#    y 0.000000 2.199470 0.000000 
#    z 0.000000 0.000000 2.179950 
# 
# From -- ./inp_files/7329.got.cif
#   From: 2010.05.17/outbox.cif.g08.bks.cpg/sg33_4_cif.got.tgz:7329.got - 2010.06.03 17:15:25.
