data_PCOD9344000
_publ_section_title
;
Structure prediction by ZEFSAII (Michael W. Deem and Ramdas Pophale) SiO2 
 PCOD9344000
Probable space group: P B A 2
;
_chemical_formula_sum "Si O2"
_cell_formula_units_Z 28
_cell_length_a 26.074355
_cell_length_b 8.813007
_cell_length_c 5.311014
_cell_angle_alpha 90.000000
_cell_angle_beta 90.000000
_cell_angle_gamma 90.000000
_cell_volume 1220.436353
_symmetry_space_group_name_H-M "P B A 2"
_symmetry_group_IT_number 32
_symmetry_cell_setting 'orthorhombic'
loop_
_space_group_symop_operation_xyz
x,y,z
-x,-y,z
1/2-x,1/2+y,z
1/2+x,1/2-y,z
loop_
_atom_site_type_symbol
_atom_site_label
_atom_site_fract_x
_atom_site_fract_y
_atom_site_fract_z
Si Si1 0.163817 0.411648 0.309670
Si Si2 0.000000 0.000000 0.619720
Si Si3 0.175745 0.825782 0.814971
Si Si4 0.938879 0.748655 0.333506
Si Si5 0.025445 0.750456 0.988690
Si Si6 0.277493 0.988403 0.807457
Si Si7 0.617998 0.749618 0.316837
Si Si8 0.500000 0.000000 0.653852
O O1 0.121157 0.280776 0.318978
O O2 0.198604 0.413299 0.557749
O O3 0.133720 0.573094 0.313421
O O4 0.197743 0.414348 0.057531
O O5 0.959985 0.902362 0.457332
O O6 0.031185 0.890616 0.805854
O O7 0.217054 0.959002 0.803467
O O8 0.206916 0.665504 0.807267
O O9 0.138110 0.819478 0.575753
O O10 0.145854 0.826444 0.077827
O O11 0.965617 0.612036 0.489132
O O12 0.965666 0.742166 0.061458
O O13 0.058386 0.760288 0.241708
O O14 0.037004 0.599737 0.831849
#
# Coordination Sequence:
#
# PCOD9344000 Si02
#       8
#     4   2   4   4   4   4   4   2
#     4  10  22  38  69  94 125 166 215 267 320 380
#     4  10  26  42  60  84 146 178 210 270 326 394
#     4  10  22  42  64  94 126 162 210 268 325 385
#     4  11  23  41  62  94 132 171 218 266 326 387
#     4  11  23  41  62  94 132 171 218 266 326 387
#     4  10  22  42  64  94 126 162 210 268 325 385
#     4  10  22  38  69  94 125 166 215 267 320 380
#     4  10  22  34  68  92 130 166 222 266 322 382
#
# _framework density 22.942616999999998
#
# number of rings (size 3 to 8) (size 9 to 14) (size 15 to 20)
#    0.000    1.714    0.000    3.429   14.000    0.000 
#    2.571    0.000    0.000    0.000    0.000    0.000 
#    0.000    0.000    0.000    0.000    0.000    0.000 
#
# Total GULP energy -156792.559053 kJ/mol
# GULP energy per Si atom -5599.734252 kJ/mol
# Density = 2.289040 g / cm^3
# Si number density = 22.942617 Si / 1000 Ang^3
#
#
#
# Elastic Constant Matrix: (Units=GPa)
#
#
# Indices 1 2 3 4 5 6 
#
# 1 58.2174 1.9836 16.6700 0.0000 0.0000 0.0000
# 2 1.9836 62.3246 24.5373 0.0000 0.0000 0.0000
# 3 16.6700 24.5373 131.3970 0.0000 0.0000 0.0000
# 4 0.0000 0.0000 0.0000 19.2357 0.0000 0.0000
# 5 0.0000 0.0000 0.0000 0.0000 31.9995 0.0000
# 6 0.0000 0.0000 0.0000 0.0000 0.0000 25.2987
#
#
#
# Elastic Compliance Matrix: (Units=1/GPa)
#
#
# Indices 1 2 3 4 5 6 
#
# 1 0.017832 0.000349 -0.002327 0.000000 0.000000 0.000000
# 2 0.000349 0.017325 -0.003280 0.000000 0.000000 0.000000
# 3 -0.002327 -0.003280 0.008518 0.000000 0.000000 0.000000
# 4 0.000000 0.000000 0.000000 0.051987 0.000000 0.000000
# 5 0.000000 0.000000 0.000000 0.000000 0.031250 0.000000
# 6 0.000000 0.000000 0.000000 0.000000 0.000000 0.039528
#
#
# Mechanical properties :
#
#
# Convention : Reuss Voigt Hill
#
# Bulk Modulus (GPa) = 30.15816 37.59120 33.87468
# Shear Modulus (GPa) = 26.59449 29.22333 27.90891
#
# Velocity S-wave (km/s) = 3.40836 3.57285 3.49157
# Velocity P-wave (km/s) = 5.35376 5.78280 5.57241
#
# Compressibility (1/GPa) = 0.03315852
#
# Stress axis : x y z
#
# Youngs Moduli (GPa) = 56.08042 57.71968 117.39536
#
# Poissons Ratio (x) = -0.02013 0.27322
# Poissons Ratio (y) = -0.01956 0.38501
# Poissons Ratio (z) = 0.13052 0.18930
#
# Static dielectric constant tensor:
#      x y z
#    x 1.841030 0.000000 0.000000 
#    y 0.000000 1.875640 0.000000 
#    z 0.000000 0.000000 1.837680 
# 
# From -- ./inp_files/582.got.cif
#   From: 2010.05.17/outbox.cif.g08.bks.cpg/sg32_1_cif.got.tgz:582.got - 2010.06.03 17:12:27.
