data_PCOD9344672
_publ_section_title
;
Structure prediction by ZEFSAII (Michael W. Deem and Ramdas Pophale) SiO2 
 PCOD9344672
Probable space group: P N A 21
;
_chemical_formula_sum "Si O2"
_cell_formula_units_Z 32
_cell_length_a 5.396875
_cell_length_b 17.286789
_cell_length_c 13.900787
_cell_angle_alpha 90.000000
_cell_angle_beta 90.000000
_cell_angle_gamma 90.000000
_cell_volume 1296.868910
_symmetry_space_group_name_H-M "P N A 21"
_symmetry_group_IT_number 33
_symmetry_cell_setting 'orthorhombic'
loop_
_space_group_symop_operation_xyz
x,y,z
-x,-y,1/2+z
1/2-x,1/2+y,1/2+z
1/2+x,1/2-y,z
loop_
_atom_site_type_symbol
_atom_site_label
_atom_site_fract_x
_atom_site_fract_y
_atom_site_fract_z
Si Si1 0.090182 0.444256 0.267320
Si Si2 0.171124 0.045908 0.600565
Si Si3 0.434121 0.208739 0.613716
Si Si4 0.818778 0.721531 0.829935
Si Si5 0.706235 0.443176 0.106456
Si Si6 0.007306 0.710839 0.346216
Si Si7 0.084981 0.216938 0.113584
Si Si8 0.589527 0.049944 0.937847
O O1 0.225530 0.369039 0.309993
O O2 0.870449 0.417618 0.197185
O O3 0.980290 0.491206 0.354631
O O4 0.233991 0.502454 0.196787
O O5 0.310335 0.125979 0.588430
O O6 0.211456 0.993283 0.505404
O O7 0.878990 0.032249 0.617197
O O8 0.715286 0.230658 0.583356
O O9 0.468228 0.207647 0.730120
O O10 0.085363 0.736808 0.878279
O O11 0.875640 0.758877 0.724806
O O12 0.512182 0.372388 0.103976
O O13 0.864202 0.439741 0.011214
O O14 0.297176 0.725319 0.372891
O O15 0.883540 0.632799 0.387795
O O16 0.857605 0.265753 0.072183
#
# Coordination Sequence:
#
# PCOD9344672 Si02
#       8
#     4   4   4   4   4   4   4   4
#     4  11  23  44  69  94 143 188 231 295 354 429
#     4  11  25  45  70 103 142 187 238 296 363 430
#     4  10  23  45  78 100 133 193 253 298 356 420
#     4  10  19  37  63  97 129 178 232 271 340 423
#     4  11  25  40  69 100 140 189 230 292 363 428
#     4  10  23  45  71 104 142 189 240 301 363 431
#     4  10  19  36  63  96 135 177 225 273 341 429
#     4  11  27  44  65 110 142 185 239 296 366 430
#
# _framework density 24.674814000000001
#
# number of rings (size 3 to 8) (size 9 to 14) (size 15 to 20)
#    0.000    1.500    3.750    1.500    7.000    3.000 
#    0.000    1.250    0.000    0.000    0.000    0.000 
#    0.000    0.000    0.000    0.000    0.000    0.000 
#
# Total GULP energy -178605.056406 kJ/mol
# GULP energy per Si atom -5581.408013 kJ/mol
# Density = 2.461865 g / cm^3
# Si number density = 24.674814 Si / 1000 Ang^3
#
#
#
# Elastic Constant Matrix: (Units=GPa)
#
#
# Indices 1 2 3 4 5 6 
#
# 1 91.3468 -1.2105 -2.1231 0.0000 0.0000 0.0000
# 2 -1.2105 87.0139 -7.6455 0.0000 0.0000 0.0000
# 3 -2.1231 -7.6455 56.5930 0.0000 0.0000 0.0000
# 4 0.0000 0.0000 0.0000 24.8536 0.0000 0.0000
# 5 0.0000 0.0000 0.0000 0.0000 -152.8221 0.0000
# 6 0.0000 0.0000 0.0000 0.0000 0.0000 33.6995
#
#
#
# Elastic Compliance Matrix: (Units=1/GPa)
#
#
# Indices 1 2 3 4 5 6 
#
# 1 0.010960 0.000191 0.000437 0.000000 0.000000 0.000000
# 2 0.000191 0.011634 0.001579 0.000000 0.000000 0.000000
# 3 0.000437 0.001579 0.017900 0.000000 0.000000 0.000000
# 4 0.000000 0.000000 0.000000 0.040236 0.000000 0.000000
# 5 0.000000 0.000000 0.000000 0.000000 -0.006544 0.000000
# 6 0.000000 0.000000 0.000000 0.000000 0.000000 0.029674
#
#
# Mechanical properties :
#
#
# Convention : Reuss Voigt Hill
#
# Bulk Modulus (GPa) = 22.26833 23.66616 22.96725
# Shear Modulus (GPa) = 43.70047 -2.45829 20.62109
#
# Velocity S-wave (km/s) = 4.21296 -0.99922 2.89401
# Velocity P-wave (km/s) = 5.71924 2.87764 4.52716
#
# Compressibility (1/GPa) = 0.04490682
#
# Stress axis : x y z
#
# Youngs Moduli (GPa) = 91.24106 85.95646 55.86679
#
# Poissons Ratio (x) = -0.01641 -0.02441
# Poissons Ratio (y) = -0.01742 -0.08820
# Poissons Ratio (z) = -0.03987 -0.13571
#
# Static dielectric constant tensor:
#      x y z
#    x 2.280250 0.000000 0.000000 
#    y 0.000000 1.970910 0.000000 
#    z 0.000000 0.000000 1.943590 
# 
# From -- ./inp_files/7456.got.cif
#   From: 2010.05.17/outbox.cif.g08.bks.cpg/sg33_4_cif.got.tgz:7456.got - 2010.06.03 17:15:25.
