data_PCOD9344486
_publ_section_title
;
Structure prediction by ZEFSAII (Michael W. Deem and Ramdas Pophale) SiO2 
 PCOD9344486
Probable space group: P N A 21
;
_chemical_formula_sum "Si O2"
_cell_formula_units_Z 28
_cell_length_a 9.995360
_cell_length_b 9.375187
_cell_length_c 15.679858
_cell_angle_alpha 90.000000
_cell_angle_beta 90.000000
_cell_angle_gamma 90.000000
_cell_volume 1469.333921
_symmetry_space_group_name_H-M "P N A 21"
_symmetry_group_IT_number 33
_symmetry_cell_setting 'orthorhombic'
loop_
_space_group_symop_operation_xyz
x,y,z
-x,-y,1/2+z
1/2-x,1/2+y,1/2+z
1/2+x,1/2-y,z
loop_
_atom_site_type_symbol
_atom_site_label
_atom_site_fract_x
_atom_site_fract_y
_atom_site_fract_z
Si Si1 0.364336 0.273195 0.472830
Si Si2 0.806264 0.499068 0.540219
Si Si3 0.678344 0.732622 0.638035
Si Si4 0.557036 0.506912 0.414459
Si Si5 0.909659 0.819268 0.744606
Si Si6 0.450081 0.177572 0.963355
Si Si7 0.898769 0.609531 0.884663
O O1 0.450626 0.417220 0.470866
O O2 0.217509 0.318286 0.441612
O O3 0.455147 0.172850 0.410278
O O4 0.351890 0.165025 0.552187
O O5 0.744119 0.578299 0.620608
O O6 0.696655 0.493160 0.464619
O O7 0.923268 0.601645 0.506970
O O8 0.781184 0.839194 0.684468
O O9 0.543151 0.705996 0.690494
O O10 0.645818 0.790049 0.543386
O O11 0.569071 0.434682 0.320728
O O12 0.520324 0.673424 0.416963
O O13 0.875325 0.670443 0.791721
O O14 0.393845 0.057988 0.899783
#
# Coordination Sequence:
#
# PCOD9344486 Si02
#       7
#     4   4   4   4   4   4   4
#     4  10  18  36  60  95 113 157 212 257 288 362
#     4  10  20  40  60  93 120 167 211 254 299 386
#     4  11  23  39  63  91 130 164 204 256 329 371
#     4  10  22  36  67  92 119 165 217 253 304 375
#     4  11  21  40  64  92 126 167 205 259 319 379
#     4  10  23  40  65  92 126 165 215 261 305 374
#     4  10  21  37  67  91 120 163 218 250 306 375
#
# _framework density 19.056256000000001
#
# number of rings (size 3 to 8) (size 9 to 14) (size 15 to 20)
#    0.000    1.714    4.286    1.714    6.000    0.000 
#    0.000    0.000   12.571    0.000    0.000    0.000 
#    0.000    0.000    0.000    0.000    0.000    0.000 
#
# Total GULP energy -155925.880144 kJ/mol
# GULP energy per Si atom -5568.781434 kJ/mol
# Density = 1.901288 g / cm^3
# Si number density = 19.056256 Si / 1000 Ang^3
#
#
#
# Elastic Constant Matrix: (Units=GPa)
#
#
# Indices 1 2 3 4 5 6 
#
# 1 58.9829 26.0076 13.9534 0.0000 0.0000 0.0000
# 2 26.0076 165.9440 43.7887 0.0000 0.0000 0.0000
# 3 13.9534 43.7887 61.3538 0.0000 0.0000 0.0000
# 4 0.0000 0.0000 0.0000 8.3519 0.0000 0.0000
# 5 0.0000 0.0000 0.0000 0.0000 20.7344 0.0000
# 6 0.0000 0.0000 0.0000 0.0000 0.0000 21.6957
#
#
#
# Elastic Compliance Matrix: (Units=1/GPa)
#
#
# Indices 1 2 3 4 5 6 
#
# 1 0.018554 -0.002211 -0.002642 0.000000 0.000000 0.000000
# 2 -0.002211 0.007688 -0.004984 0.000000 0.000000 0.000000
# 3 -0.002642 -0.004984 0.020457 0.000000 0.000000 0.000000
# 4 0.000000 0.000000 0.000000 0.119733 0.000000 0.000000
# 5 0.000000 0.000000 0.000000 0.000000 0.048229 0.000000
# 6 0.000000 0.000000 0.000000 0.000000 0.000000 0.046092
#
#
# Mechanical properties :
#
#
# Convention : Reuss Voigt Hill
#
# Bulk Modulus (GPa) = 37.00235 50.42001 43.71118
# Shear Modulus (GPa) = 17.27508 23.65847 20.46678
#
# Velocity S-wave (km/s) = 3.01413 3.52732 3.28078
# Velocity P-wave (km/s) = 5.61898 6.56546 6.11057
#
# Compressibility (1/GPa) = 0.02702531
#
# Stress axis : x y z
#
# Youngs Moduli (GPa) = 53.89725 130.07651 48.88327
#
# Poissons Ratio (x) = 0.28756 0.12914
# Poissons Ratio (y) = 0.11915 0.24364
# Poissons Ratio (z) = 0.14239 0.64831
#
# Static dielectric constant tensor:
#      x y z
#    x 1.727630 0.000000 0.000000 
#    y 0.000000 1.715370 0.000000 
#    z 0.000000 0.000000 1.654730 
# 
# From -- ./inp_files/7911.got.cif
#   From: 2010.05.17/outbox.cif.g08.bks.cpg/sg33_4_cif.got.tgz:7911.got - 2010.06.03 17:15:25.
