data_PCOD9344557
_publ_section_title
;
Structure prediction by ZEFSAII (Michael W. Deem and Ramdas Pophale) SiO2 
 PCOD9344557
Probable space group: P N A 21
;
_chemical_formula_sum "Si O2"
_cell_formula_units_Z 24
_cell_length_a 7.824294
_cell_length_b 15.961268
_cell_length_c 8.178553
_cell_angle_alpha 90.000000
_cell_angle_beta 90.000000
_cell_angle_gamma 90.000000
_cell_volume 1021.383936
_symmetry_space_group_name_H-M "P N A 21"
_symmetry_group_IT_number 33
_symmetry_cell_setting 'orthorhombic'
loop_
_space_group_symop_operation_xyz
x,y,z
-x,-y,1/2+z
1/2-x,1/2+y,1/2+z
1/2+x,1/2-y,z
loop_
_atom_site_type_symbol
_atom_site_label
_atom_site_fract_x
_atom_site_fract_y
_atom_site_fract_z
Si Si1 0.353514 0.109269 0.357110
Si Si2 0.603515 0.798031 0.568683
Si Si3 0.555324 0.461301 0.545758
Si Si4 0.755744 0.132622 0.951295
Si Si5 0.797684 0.932848 0.378032
Si Si6 0.554515 0.055689 0.677476
O O1 0.373206 0.196558 0.263778
O O2 0.487446 0.086511 0.501463
O O3 0.163782 0.099742 0.430245
O O4 0.378945 0.037919 0.217104
O O5 0.420151 0.839760 0.537614
O O6 0.617364 0.708272 0.485266
O O7 0.756408 0.852120 0.486185
O O8 0.665340 0.548324 0.529732
O O9 0.566243 0.427209 0.729474
O O10 0.370560 0.488648 0.480802
O O11 0.690530 0.115445 0.767310
O O12 0.619688 0.944491 0.284628
#
# Coordination Sequence:
#
# PCOD9344557 Si02
#       6
#     4   4   4   4   4   4
#     4  10  19  35  60  82 110 148 193 236 285 340
#     4  11  21  37  57  80 113 152 186 235 290 343
#     4  10  20  35  57  86 111 145 190 235 280 341
#     4  10  22  38  56  79 113 149 188 232 291 343
#     4  10  19  33  55  81 112 143 186 232 278 331
#     4   9  19  36  57  84 111 147 191 236 284 342
#
# _framework density 23.497527999999999
#
# number of rings (size 3 to 8) (size 9 to 14) (size 15 to 20)
#    0.000    2.000    0.000    6.000    0.000    1.333 
#    0.000    6.667    0.000    0.000    0.000    0.000 
#    0.000    0.000    0.000    0.000    0.000    0.000 
#
# Total GULP energy -133996.355208 kJ/mol
# GULP energy per Si atom -5583.181467 kJ/mol
# Density = 2.344405 g / cm^3
# Si number density = 23.497528 Si / 1000 Ang^3
#
#
#
# Elastic Constant Matrix: (Units=GPa)
#
#
# Indices 1 2 3 4 5 6 
#
# 1 103.5159 9.5738 47.3305 0.0000 0.0000 0.0000
# 2 9.5738 46.0326 40.8233 0.0000 0.0000 0.0000
# 3 47.3305 40.8233 104.6726 0.0000 0.0000 0.0000
# 4 0.0000 0.0000 0.0000 27.7331 0.0000 0.0000
# 5 0.0000 0.0000 0.0000 0.0000 30.3354 0.0000
# 6 0.0000 0.0000 0.0000 0.0000 0.0000 25.2654
#
#
#
# Elastic Compliance Matrix: (Units=1/GPa)
#
#
# Indices 1 2 3 4 5 6 
#
# 1 0.012580 0.003712 -0.007136 0.000000 0.000000 0.000000
# 2 0.003712 0.034306 -0.015058 0.000000 0.000000 0.000000
# 3 -0.007136 -0.015058 0.018653 0.000000 0.000000 0.000000
# 4 0.000000 0.000000 0.000000 0.036058 0.000000 0.000000
# 5 0.000000 0.000000 0.000000 0.000000 0.032965 0.000000
# 6 0.000000 0.000000 0.000000 0.000000 0.000000 0.039580
#
#
# Mechanical properties :
#
#
# Convention : Reuss Voigt Hill
#
# Bulk Modulus (GPa) = 34.99597 49.96402 42.48000
# Shear Modulus (GPa) = 22.66235 27.09969 24.88102
#
# Velocity S-wave (km/s) = 3.10894 3.39971 3.25757
# Velocity P-wave (km/s) = 5.27382 6.05974 5.68038
#
# Compressibility (1/GPa) = 0.02857472
#
# Stress axis : x y z
#
# Youngs Moduli (GPa) = 79.49211 29.14967 53.61015
#
# Poissons Ratio (x) = -0.10821 0.38257
# Poissons Ratio (y) = -0.29509 0.80727
# Poissons Ratio (z) = 0.56726 0.43894
#
# Static dielectric constant tensor:
#      x y z
#    x 1.963180 0.000000 0.000000 
#    y 0.000000 1.914890 0.000000 
#    z 0.000000 0.000000 1.926640 
# 
# From -- ./inp_files/3261.got.cif
#   From: 2010.05.17/outbox.cif.g08.bks.cpg/sg33_2_cif.got.tgz:3261.got - 2010.06.03 17:15:25.
