data_PCOD9344564
_publ_section_title
;
Structure prediction by ZEFSAII (Michael W. Deem and Ramdas Pophale) SiO2 
 PCOD9344564
Probable space group: P N A 21
;
_chemical_formula_sum "Si O2"
_cell_formula_units_Z 24
_cell_length_a 16.445441
_cell_length_b 6.991908
_cell_length_c 8.585709
_cell_angle_alpha 90.000000
_cell_angle_beta 90.000000
_cell_angle_gamma 90.000000
_cell_volume 987.227839
_symmetry_space_group_name_H-M "P N A 21"
_symmetry_group_IT_number 33
_symmetry_cell_setting 'orthorhombic'
loop_
_space_group_symop_operation_xyz
x,y,z
-x,-y,1/2+z
1/2-x,1/2+y,1/2+z
1/2+x,1/2-y,z
loop_
_atom_site_type_symbol
_atom_site_label
_atom_site_fract_x
_atom_site_fract_y
_atom_site_fract_z
Si Si1 0.397316 0.792379 0.586170
Si Si2 0.934760 0.245193 0.578606
Si Si3 0.770375 0.181282 0.415169
Si Si4 0.267719 0.406021 0.051267
Si Si5 0.401687 0.848020 0.940623
Si Si6 0.058971 0.788222 0.429388
O O1 0.307500 0.762992 0.514510
O O2 0.393856 0.757071 0.770292
O O3 0.471430 0.681188 0.507291
O O4 0.414121 0.024337 0.578740
O O5 0.861309 0.157428 0.478678
O O6 0.932496 0.159600 0.750148
O O7 0.028551 0.230883 0.526662
O O8 0.753914 0.409588 0.445087
O O9 0.763932 0.089948 0.241685
O O10 0.688733 0.116589 0.507827
O O11 0.360232 0.354508 0.016238
O O12 0.436698 0.058407 0.924597
#
# Coordination Sequence:
#
# PCOD9344564 Si02
#       6
#     4   4   4   4   4   4
#     4   8  17  34  54  76 108 152 194 236 300 375
#     4   9  18  32  54  81 111 149 194 241 304 377
#     4  10  21  39  58  82 117 160 201 249 311 376
#     4  10  21  37  58  84 117 156 201 254 311 374
#     4   9  18  35  56  77 107 151 197 243 299 371
#     4  10  19  33  56  84 110 146 197 251 303 369
#
# _framework density 24.310499
#
# number of rings (size 3 to 8) (size 9 to 14) (size 15 to 20)
#    0.000    2.667    0.000    2.000    0.000    6.667 
#    0.000    6.667    0.000    0.000    0.000    0.000 
#    0.000    0.000    0.000    0.000    0.000    0.000 
#
# Total GULP energy -133771.003165 kJ/mol
# GULP energy per Si atom -5573.791799 kJ/mol
# Density = 2.425517 g / cm^3
# Si number density = 24.310499 Si / 1000 Ang^3
#
#
#
# Elastic Constant Matrix: (Units=GPa)
#
#
# Indices 1 2 3 4 5 6 
#
# 1 220.0253 16.7838 46.9550 0.0000 0.0000 0.0000
# 2 16.7838 79.8385 -0.0022 0.0000 0.0000 0.0000
# 3 46.9550 -0.0022 48.6828 0.0000 0.0000 0.0000
# 4 0.0000 0.0000 0.0000 6.9770 0.0000 0.0000
# 5 0.0000 0.0000 0.0000 0.0000 40.3036 0.0000
# 6 0.0000 0.0000 0.0000 0.0000 0.0000 40.2261
#
#
#
# Elastic Compliance Matrix: (Units=1/GPa)
#
#
# Indices 1 2 3 4 5 6 
#
# 1 0.005841 -0.001228 -0.005634 0.000000 0.000000 0.000000
# 2 -0.001228 0.012783 0.001185 0.000000 0.000000 0.000000
# 3 -0.005634 0.001185 0.025975 0.000000 0.000000 0.000000
# 4 0.000000 0.000000 0.000000 0.143329 0.000000 0.000000
# 5 0.000000 0.000000 0.000000 0.000000 0.024812 0.000000
# 6 0.000000 0.000000 0.000000 0.000000 0.000000 0.024859
#
#
# Mechanical properties :
#
#
# Convention : Reuss Voigt Hill
#
# Bulk Modulus (GPa) = 30.07885 52.89108 41.48497
# Shear Modulus (GPa) = 19.22825 36.48868 27.85846
#
# Velocity S-wave (km/s) = 2.81542 3.87840 3.38885
# Velocity P-wave (km/s) = 4.79254 6.46991 5.69334
#
# Compressibility (1/GPa) = 0.03324595
#
# Stress axis : x y z
#
# Youngs Moduli (GPa) = 171.20760 78.22597 38.49879
#
# Poissons Ratio (x) = 0.09606 0.21689
# Poissons Ratio (y) = 0.21025 -0.04562
# Poissons Ratio (z) = 0.96452 -0.09270
#
# Static dielectric constant tensor:
#      x y z
#    x 2.008150 0.000000 0.000000 
#    y 0.000000 2.115820 0.000000 
#    z 0.000000 0.000000 1.896180 
# 
# From -- ./inp_files/4225.got.cif
#   From: 2010.05.17/outbox.cif.g08.bks.cpg/sg33_3_cif.got.tgz:4225.got - 2010.06.03 17:15:25.
