data_PCOD9344105
_publ_section_title
;
Structure prediction by ZEFSAII (Michael W. Deem and Ramdas Pophale) SiO2 
 PCOD9344105
Probable space group: P B A 2
;
_chemical_formula_sum "Si O2"
_cell_formula_units_Z 32
_cell_length_a 10.093544
_cell_length_b 12.836495
_cell_length_c 10.996330
_cell_angle_alpha 90.000000
_cell_angle_beta 90.000000
_cell_angle_gamma 90.000000
_cell_volume 1424.747492
_symmetry_space_group_name_H-M "P B A 2"
_symmetry_group_IT_number 32
_symmetry_cell_setting 'orthorhombic'
loop_
_space_group_symop_operation_xyz
x,y,z
-x,-y,z
1/2-x,1/2+y,z
1/2+x,1/2-y,z
loop_
_atom_site_type_symbol
_atom_site_label
_atom_site_fract_x
_atom_site_fract_y
_atom_site_fract_z
Si Si1 0.231650 0.854990 0.854830
Si Si2 0.144519 0.782378 0.355847
Si Si3 0.656144 0.509636 0.255122
Si Si4 0.403363 0.098561 0.182887
Si Si5 0.926593 0.902788 0.493316
Si Si6 0.240616 0.229046 0.613347
Si Si7 0.490075 0.222235 0.947862
Si Si8 0.631765 0.943543 0.761346
O O1 0.232603 0.810231 0.717310
O O2 0.352936 0.791103 0.920458
O O3 0.092134 0.828340 0.920046
O O4 0.275660 0.974518 0.833363
O O5 0.109642 0.673215 0.298244
O O6 0.225940 0.767105 0.479062
O O7 0.012095 0.839305 0.397079
O O8 0.202315 0.869463 0.264266
O O9 0.500000 0.500000 0.220788
O O10 0.754774 0.447466 0.167592
O O11 0.669196 0.462477 0.394612
O O12 0.500000 0.000000 0.195662
O O13 0.456536 0.174455 0.078270
O O14 0.906137 0.815854 0.596955
O O15 0.000000 0.000000 0.552945
O O16 0.307813 0.119486 0.649523
O O17 0.419391 0.142051 0.855578
O O18 0.500000 0.000000 0.716906
#
# Coordination Sequence:
#
# PCOD9344105 Si02
#       8
#     4   4   4   4   4   4   4   4
#     4  10  23  41  68  89 130 167 215 275 331 391
#     4  10  24  38  60  95 133 171 221 266 340 406
#     4   9  22  44  60  89 135 174 212 267 326 402
#     4  12  25  41  69  96 129 173 223 277 333 397
#     4   9  21  39  55  84 135 167 207 267 316 397
#     4  11  22  35  63  95 125 170 217 263 335 406
#     4  10  24  46  63  95 123 170 224 273 328 386
#     4   9  21  40  59  89 127 164 211 272 327 388
#
# _framework density 22.460121000000001
#
# number of rings (size 3 to 8) (size 9 to 14) (size 15 to 20)
#    0.000    2.250    1.250    1.125   10.500    4.500 
#    0.000    1.875    0.000    0.000    0.000    0.000 
#    0.000    0.000    0.000    0.000    0.000    0.000 
#
# Total GULP energy -178206.389970 kJ/mol
# GULP energy per Si atom -5568.949687 kJ/mol
# Density = 2.240900 g / cm^3
# Si number density = 22.460121 Si / 1000 Ang^3
#
#
#
# Elastic Constant Matrix: (Units=GPa)
#
#
# Indices 1 2 3 4 5 6 
#
# 1 42.9821 9.3002 2.4818 0.0000 0.0000 0.0000
# 2 9.3002 55.8844 -8.7818 0.0000 0.0000 0.0000
# 3 2.4818 -8.7818 40.8291 0.0000 0.0000 0.0000
# 4 0.0000 0.0000 0.0000 -4.4490 0.0000 0.0000
# 5 0.0000 0.0000 0.0000 0.0000 21.8242 0.0000
# 6 0.0000 0.0000 0.0000 0.0000 0.0000 51.1848
#
#
#
# Elastic Compliance Matrix: (Units=1/GPa)
#
#
# Indices 1 2 3 4 5 6 
#
# 1 0.024366 -0.004438 -0.002436 0.000000 0.000000 0.000000
# 2 -0.004438 0.019328 0.004427 0.000000 0.000000 0.000000
# 3 -0.002436 0.004427 0.025593 0.000000 0.000000 0.000000
# 4 0.000000 0.000000 0.000000 -0.224772 0.000000 0.000000
# 5 0.000000 0.000000 0.000000 0.000000 0.045821 0.000000
# 6 0.000000 0.000000 0.000000 0.000000 0.000000 0.019537
#
#
# Mechanical properties :
#
#
# Convention : Reuss Voigt Hill
#
# Bulk Modulus (GPa) = 15.52926 16.18843 15.85885
# Shear Modulus (GPa) = -78.40758 22.82504 -27.79127
#
# Velocity S-wave (km/s) = -5.91485 3.19132 -3.52143
# Velocity P-wave (km/s) = 6.30223 4.56099 3.07534
#
# Compressibility (1/GPa) = 0.06439457
#
# Stress axis : x y z
#
# Youngs Moduli (GPa) = 41.04022 51.73765 39.07377
#
# Poissons Ratio (x) = 0.22960 0.09517
# Poissons Ratio (y) = 0.18213 -0.17298
# Poissons Ratio (z) = 0.09996 -0.22904
#
# Static dielectric constant tensor:
#      x y z
#    x 2.096690 0.000000 0.000000 
#    y 0.000000 1.992610 0.000000 
#    z 0.000000 0.000000 1.893790 
# 
# From -- ./inp_files/3889.got.cif
#   From: 2010.05.17/outbox.cif.g08.bks.cpg/sg32_2_cif.got.tgz:3889.got - 2010.06.03 17:12:27.
