data_PCOD9344595
_publ_section_title
;
Structure prediction by ZEFSAII (Michael W. Deem and Ramdas Pophale) SiO2 
 PCOD9344595
Probable space group: P N A 21
;
_chemical_formula_sum "Si O2"
_cell_formula_units_Z 28
_cell_length_a 29.872830
_cell_length_b 9.505660
_cell_length_c 5.020257
_cell_angle_alpha 90.000000
_cell_angle_beta 90.000000
_cell_angle_gamma 90.000000
_cell_volume 1425.557023
_symmetry_space_group_name_H-M "P N A 21"
_symmetry_group_IT_number 33
_symmetry_cell_setting 'orthorhombic'
loop_
_space_group_symop_operation_xyz
x,y,z
-x,-y,1/2+z
1/2-x,1/2+y,1/2+z
1/2+x,1/2-y,z
loop_
_atom_site_type_symbol
_atom_site_label
_atom_site_fract_x
_atom_site_fract_y
_atom_site_fract_z
Si Si1 0.471512 0.968851 0.625000
Si Si2 0.220283 0.569946 0.134051
Si Si3 0.060162 0.006058 0.425630
Si Si4 0.369031 0.321793 0.184429
Si Si5 0.470622 0.658359 0.423207
Si Si6 0.882117 0.353967 0.678773
Si Si7 0.234265 0.766898 0.646257
O O1 0.463034 0.814876 0.512804
O O2 0.505691 0.037704 0.413964
O O3 0.425306 0.052470 0.633842
O O4 0.166046 0.576975 0.115106
O O5 0.234092 0.666857 0.386396
O O6 0.234966 0.406452 0.142791
O O7 0.240829 0.656482 0.886353
O O8 0.057189 0.058639 0.124258
O O9 0.106266 0.952333 0.548601
O O10 0.042639 0.128115 0.621031
O O11 0.022842 0.883357 0.456243
O O12 0.384724 0.280013 0.479564
O O13 0.315666 0.330990 0.180751
O O14 0.380883 0.194091 0.984629
#
# Coordination Sequence:
#
# PCOD9344595 Si02
#       7
#     4   4   4   4   4   4   4
#     4  12  23  37  56  81 111 147 194 230 282 341
#     4  10  21  40  61  90 122 157 197 249 299 360
#     4  10  19  35  51  74 107 140 178 225 270 316
#     4  10  20  37  60  82 108 151 194 220 282 355
#     4  10  21  33  51  75 107 140 178 226 272 318
#     4  10  21  37  58  82 114 149 187 234 283 338
#     4  10  21  39  63  90 119 156 202 240 302 360
#
# _framework density 19.641445999999998
#
# number of rings (size 3 to 8) (size 9 to 14) (size 15 to 20)
#    0.000    1.714    0.000    5.143    0.000    2.286 
#    5.143    0.000    0.000    0.000    0.000    0.000 
#    0.000    0.000    0.000    0.000    0.000    0.000 
#
# Total GULP energy -156332.315628 kJ/mol
# GULP energy per Si atom -5583.296987 kJ/mol
# Density = 1.959674 g / cm^3
# Si number density = 19.641446 Si / 1000 Ang^3
#
#
#
# Elastic Constant Matrix: (Units=GPa)
#
#
# Indices 1 2 3 4 5 6 
#
# 1 62.0936 41.3068 12.8559 0.0000 0.0000 0.0000
# 2 41.3068 68.1862 8.4755 0.0000 0.0000 0.0000
# 3 12.8559 8.4755 92.6137 0.0000 0.0000 0.0000
# 4 0.0000 0.0000 0.0000 24.0015 0.0000 0.0000
# 5 0.0000 0.0000 0.0000 0.0000 15.7197 0.0000
# 6 0.0000 0.0000 0.0000 0.0000 0.0000 31.9463
#
#
#
# Elastic Compliance Matrix: (Units=1/GPa)
#
#
# Indices 1 2 3 4 5 6 
#
# 1 0.027458 -0.016346 -0.002316 0.000000 0.000000 0.000000
# 2 -0.016346 0.024566 0.000021 0.000000 0.000000 0.000000
# 3 -0.002316 0.000021 0.011117 0.000000 0.000000 0.000000
# 4 0.000000 0.000000 0.000000 0.041664 0.000000 0.000000
# 5 0.000000 0.000000 0.000000 0.000000 0.063614 0.000000
# 6 0.000000 0.000000 0.000000 0.000000 0.000000 0.031302
#
#
# Mechanical properties :
#
#
# Convention : Reuss Voigt Hill
#
# Bulk Modulus (GPa) = 38.67116 38.68557 38.67836
# Shear Modulus (GPa) = 20.35638 25.01719 22.68678
#
# Velocity S-wave (km/s) = 3.22281 3.57276 3.40228
# Velocity P-wave (km/s) = 5.79482 6.06285 5.93035
#
# Compressibility (1/GPa) = 0.02585906
#
# Stress axis : x y z
#
# Youngs Moduli (GPa) = 36.41902 40.70744 89.95189
#
# Poissons Ratio (x) = 0.66541 0.20829
# Poissons Ratio (y) = 0.59531 -0.00188
# Poissons Ratio (z) = 0.08433 -0.00085
#
# Static dielectric constant tensor:
#      x y z
#    x 1.700670 0.000000 0.000000 
#    y 0.000000 1.669680 0.000000 
#    z 0.000000 0.000000 1.696180 
# 
# From -- ./inp_files/2223.got.cif
#   From: 2010.05.17/outbox.cif.g08.bks.cpg/sg33_2_cif.got.tgz:2223.got - 2010.06.03 17:15:25.
