data_PCOD9344546
_publ_section_title
;
Structure prediction by ZEFSAII (Michael W. Deem and Ramdas Pophale) SiO2 
 PCOD9344546
Probable space group: P N A 21
;
_chemical_formula_sum "Si O2"
_cell_formula_units_Z 32
_cell_length_a 9.016677
_cell_length_b 9.559025
_cell_length_c 18.662918
_cell_angle_alpha 90.000000
_cell_angle_beta 90.000000
_cell_angle_gamma 90.000000
_cell_volume 1608.568863
_symmetry_space_group_name_H-M "P N A 21"
_symmetry_group_IT_number 33
_symmetry_cell_setting 'orthorhombic'
loop_
_space_group_symop_operation_xyz
x,y,z
-x,-y,1/2+z
1/2-x,1/2+y,1/2+z
1/2+x,1/2-y,z
loop_
_atom_site_type_symbol
_atom_site_label
_atom_site_fract_x
_atom_site_fract_y
_atom_site_fract_z
Si Si1 0.043838 0.146439 0.171370
Si Si2 0.964092 0.716587 0.870945
Si Si3 0.475374 0.453612 0.907814
Si Si4 0.531787 0.581408 0.057063
Si Si5 0.275788 0.756090 0.438742
Si Si6 0.367790 0.848765 0.030541
Si Si7 0.476710 0.139198 0.042834
Si Si8 0.709634 0.744352 0.772014
O O1 0.015447 0.264818 0.110720
O O2 0.194889 0.170930 0.214469
O O3 0.908947 0.156264 0.227233
O O4 0.050633 0.003578 0.128929
O O5 0.115458 0.673041 0.832156
O O6 0.832871 0.666983 0.819077
O O7 0.969721 0.888749 0.876081
O O8 0.931094 0.661308 0.949619
O O9 0.625414 0.361510 0.897860
O O10 0.333207 0.355391 0.892783
O O11 0.473008 0.481098 0.993848
O O12 0.417992 0.706348 0.066641
O O13 0.691136 0.636488 0.030329
O O14 0.392147 0.847107 0.484806
O O15 0.170787 0.682940 0.498521
O O16 0.444383 0.981782 0.066429
#
# Coordination Sequence:
#
# PCOD9344546 Si02
#       8
#     4   4   4   4   4   4   4   4
#     4  11  21  40  63  89 123 154 220 250 298 376
#     4  10  22  40  58  90 126 155 213 253 306 376
#     4  10  20  35  57  87 131 151 196 262 314 368
#     4  11  22  36  56  93 126 156 191 267 325 361
#     4  10  19  32  56  94 121 162 183 246 336 366
#     4  11  23  35  61  95 125 153 191 267 340 365
#     4  11  20  34  60  94 119 151 200 253 321 371
#     4  10  23  38  61  82 111 180 202 250 276 365
#
# _framework density 19.893460000000001
#
# number of rings (size 3 to 8) (size 9 to 14) (size 15 to 20)
#    0.000    1.500    3.750    3.000    5.250    0.000 
#    0.000    0.000    0.000   12.000    0.000    0.000 
#    0.000    0.000    0.000    0.000    0.000    0.000 
#
# Total GULP energy -178590.748500 kJ/mol
# GULP energy per Si atom -5580.960891 kJ/mol
# Density = 1.984818 g / cm^3
# Si number density = 19.893460 Si / 1000 Ang^3
#
#
#
# Elastic Constant Matrix: (Units=GPa)
#
#
# Indices 1 2 3 4 5 6 
#
# 1 110.3076 27.2199 13.6061 0.0000 0.0000 0.0000
# 2 27.2199 78.9045 13.7244 0.0000 0.0000 0.0000
# 3 13.6061 13.7244 59.3727 0.0000 0.0000 0.0000
# 4 0.0000 0.0000 0.0000 11.7982 0.0000 0.0000
# 5 0.0000 0.0000 0.0000 0.0000 25.3900 0.0000
# 6 0.0000 0.0000 0.0000 0.0000 0.0000 24.9636
#
#
#
# Elastic Compliance Matrix: (Units=1/GPa)
#
#
# Indices 1 2 3 4 5 6 
#
# 1 0.010047 -0.003194 -0.001564 0.000000 0.000000 0.000000
# 2 -0.003194 0.014220 -0.002555 0.000000 0.000000 0.000000
# 3 -0.001564 -0.002555 0.017792 0.000000 0.000000 0.000000
# 4 0.000000 0.000000 0.000000 0.084759 0.000000 0.000000
# 5 0.000000 0.000000 0.000000 0.000000 0.039386 0.000000
# 6 0.000000 0.000000 0.000000 0.000000 0.000000 0.040058
#
#
# Mechanical properties :
#
#
# Convention : Reuss Voigt Hill
#
# Bulk Modulus (GPa) = 36.45334 39.74284 38.09809
# Shear Modulus (GPa) = 21.73620 25.36597 23.55108
#
# Velocity S-wave (km/s) = 3.30908 3.57472 3.44446
# Velocity P-wave (km/s) = 5.74144 6.08764 5.91707
#
# Compressibility (1/GPa) = 0.02743233
#
# Stress axis : x y z
#
# Youngs Moduli (GPa) = 99.53629 70.32486 56.20561
#
# Poissons Ratio (x) = 0.22460 0.08791
# Poissons Ratio (y) = 0.31789 0.14361
# Poissons Ratio (z) = 0.15568 0.17969
#
# Static dielectric constant tensor:
#      x y z
#    x 1.751490 0.000000 0.000000 
#    y 0.000000 1.736540 0.000000 
#    z 0.000000 0.000000 1.700640 
# 
# From -- ./inp_files/8555.got.cif
#   From: 2010.05.17/outbox.cif.g08.bks.cpg/sg33_5_cif.got.tgz:8555.got - 2010.06.03 17:15:25.
