data_PCOD9344514
_publ_section_title
;
Structure prediction by ZEFSAII (Michael W. Deem and Ramdas Pophale) SiO2 
 PCOD9344514
Probable space group: P N A 21
;
_chemical_formula_sum "Si O2"
_cell_formula_units_Z 32
_cell_length_a 8.817716
_cell_length_b 14.991696
_cell_length_c 11.784671
_cell_angle_alpha 90.000000
_cell_angle_beta 90.000000
_cell_angle_gamma 90.000000
_cell_volume 1557.845330
_symmetry_space_group_name_H-M "P N A 21"
_symmetry_group_IT_number 33
_symmetry_cell_setting 'orthorhombic'
loop_
_space_group_symop_operation_xyz
x,y,z
-x,-y,1/2+z
1/2-x,1/2+y,1/2+z
1/2+x,1/2-y,z
loop_
_atom_site_type_symbol
_atom_site_label
_atom_site_fract_x
_atom_site_fract_y
_atom_site_fract_z
Si Si1 0.591660 0.049602 0.630250
Si Si2 0.644974 0.623301 0.576588
Si Si3 0.717834 0.016941 0.253842
Si Si4 0.174971 0.213804 0.108116
Si Si5 0.309246 0.950115 0.373681
Si Si6 0.294465 0.161579 0.351609
Si Si7 0.650363 0.904395 0.451002
Si Si8 0.117535 0.324644 0.421632
O O1 0.690200 0.071711 0.740786
O O2 0.574803 0.131602 0.542760
O O3 0.434632 0.008087 0.681336
O O4 0.670433 0.974751 0.553228
O O5 0.348503 0.458153 0.165630
O O6 0.791473 0.681516 0.615383
O O7 0.493972 0.680479 0.587517
O O8 0.678339 0.590305 0.450573
O O9 0.696254 0.098947 0.343583
O O10 0.739330 0.934141 0.338555
O O11 0.228903 0.171389 0.226032
O O12 0.281990 0.184296 0.003510
O O13 0.472495 0.914108 0.419366
O O14 0.302064 0.057819 0.385666
O O15 0.206574 0.232152 0.429899
O O16 0.465666 0.195717 0.352527
#
# Coordination Sequence:
#
# PCOD9344514 Si02
#       8
#     4   4   4   4   4   4   4   4
#     4  10  18  40  66  90 121 175 211 253 326 397
#     4  12  25  40  61  98 127 170 217 277 319 396
#     4  10  19  36  66  92 123 159 214 260 322 383
#     4  12  25  40  65  93 132 163 225 273 327 384
#     4  11  22  41  69  88 132 172 222 262 336 397
#     4  12  22  40  63  98 126 170 207 280 320 392
#     4  10  19  38  67  90 117 171 213 260 328 394
#     4  11  22  37  65  97 128 162 219 267 328 389
#
# _framework density 20.541191999999999
#
# number of rings (size 3 to 8) (size 9 to 14) (size 15 to 20)
#    0.000    1.000    7.500    1.500    0.000    1.000 
#    2.250    5.000    0.000    0.000    0.000    0.000 
#    0.000    0.000    0.000    0.000    0.000    0.000 
#
# Total GULP energy -178539.641223 kJ/mol
# GULP energy per Si atom -5579.363788 kJ/mol
# Density = 2.049444 g / cm^3
# Si number density = 20.541192 Si / 1000 Ang^3
#
#
#
# Elastic Constant Matrix: (Units=GPa)
#
#
# Indices 1 2 3 4 5 6 
#
# 1 28.8714 12.0206 9.6100 0.0000 0.0000 0.0000
# 2 12.0206 39.3562 12.2714 0.0000 0.0000 0.0000
# 3 9.6100 12.2714 118.2631 0.0000 0.0000 0.0000
# 4 0.0000 0.0000 0.0000 34.3513 0.0000 0.0000
# 5 0.0000 0.0000 0.0000 0.0000 21.8394 0.0000
# 6 0.0000 0.0000 0.0000 0.0000 0.0000 25.7331
#
#
#
# Elastic Compliance Matrix: (Units=1/GPa)
#
#
# Indices 1 2 3 4 5 6 
#
# 1 0.040161 -0.011625 -0.002057 0.000000 0.000000 0.000000
# 2 -0.011625 0.029624 -0.002129 0.000000 0.000000 0.000000
# 3 -0.002057 -0.002129 0.008844 0.000000 0.000000 0.000000
# 4 0.000000 0.000000 0.000000 0.029111 0.000000 0.000000
# 5 0.000000 0.000000 0.000000 0.000000 0.045789 0.000000
# 6 0.000000 0.000000 0.000000 0.000000 0.000000 0.038861
#
#
# Mechanical properties :
#
#
# Convention : Reuss Voigt Hill
#
# Bulk Modulus (GPa) = 21.27407 28.25499 24.76453
# Shear Modulus (GPa) = 20.86111 26.55732 23.70921
#
# Velocity S-wave (km/s) = 3.19026 3.59957 3.40108
# Velocity P-wave (km/s) = 4.89384 5.57324 5.24455
#
# Compressibility (1/GPa) = 0.04700559
#
# Stress axis : x y z
#
# Youngs Moduli (GPa) = 24.89963 33.75692 113.07328
#
# Poissons Ratio (x) = 0.39243 0.23262
# Poissons Ratio (y) = 0.28946 0.24076
# Poissons Ratio (z) = 0.05122 0.07188
#
# Static dielectric constant tensor:
#      x y z
#    x 1.755710 0.000000 0.000000 
#    y 0.000000 1.743330 0.000000 
#    z 0.000000 0.000000 1.742750 
# 
# From -- ./inp_files/5959.got.cif
#   From: 2010.05.17/outbox.cif.g08.bks.cpg/sg33_3_cif.got.tgz:5959.got - 2010.06.03 17:15:25.
