data_PCOD9344452
_publ_section_title
;
Structure prediction by ZEFSAII (Michael W. Deem and Ramdas Pophale) SiO2 
 PCOD9344452
Probable space group: P N A 21
;
_chemical_formula_sum "Si O2"
_cell_formula_units_Z 28
_cell_length_a 5.411231
_cell_length_b 24.108072
_cell_length_c 10.046758
_cell_angle_alpha 90.000000
_cell_angle_beta 90.000000
_cell_angle_gamma 90.000000
_cell_volume 1310.643250
_symmetry_space_group_name_H-M "P N A 21"
_symmetry_group_IT_number 33
_symmetry_cell_setting 'orthorhombic'
loop_
_space_group_symop_operation_xyz
x,y,z
-x,-y,1/2+z
1/2-x,1/2+y,1/2+z
1/2+x,1/2-y,z
loop_
_atom_site_type_symbol
_atom_site_label
_atom_site_fract_x
_atom_site_fract_y
_atom_site_fract_z
Si Si1 0.005683 0.754910 0.063610
Si Si2 0.963958 0.563683 0.015996
Si Si3 0.027694 0.118567 0.600860
Si Si4 0.479110 0.216222 0.858951
Si Si5 0.954138 0.406546 0.988985
Si Si6 0.129422 0.531581 0.734269
Si Si7 0.538482 0.548653 0.362205
O O1 0.256562 0.752346 0.983801
O O2 0.989951 0.816572 0.118478
O O3 0.010691 0.716043 0.195602
O O4 0.211798 0.599459 0.040214
O O5 0.710998 0.597617 0.021720
O O6 0.957297 0.518502 0.136407
O O7 0.982874 0.538713 0.869846
O O8 0.993403 0.091468 0.743418
O O9 0.736587 0.247174 0.895638
O O10 0.455301 0.154945 0.923436
O O11 0.713728 0.441915 0.941230
O O12 0.217579 0.433739 0.946368
O O13 0.911552 0.413175 0.147284
O O14 0.395600 0.509825 0.790167
#
# Coordination Sequence:
#
# PCOD9344452 Si02
#       7
#     4   4   4   4   4   4   4
#     4  10  18  33  60  92 128 158 215 279 325 374
#     4  11  26  43  65  95 140 178 223 270 329 408
#     4  11  23  39  65  97 133 172 222 275 339 385
#     4  10  20  36  61  93 128 162 218 281 328 377
#     4  12  24  41  67  98 136 177 223 278 338 387
#     4  11  26  44  66  97 139 182 220 272 331 406
#     4  11  23  38  64  94 134 175 219 269 328 397
#
# _framework density 21.363558000000001
#
# number of rings (size 3 to 8) (size 9 to 14) (size 15 to 20)
#    0.000    1.143    1.429    6.857    4.000    3.429 
#    0.000    0.000    0.000    5.143    0.000    0.000 
#    0.000    0.000    0.000    0.000    0.000    0.000 
#
# Total GULP energy -156180.542681 kJ/mol
# GULP energy per Si atom -5577.876524 kJ/mol
# Density = 2.131493 g / cm^3
# Si number density = 21.363558 Si / 1000 Ang^3
#
#
#
# Elastic Constant Matrix: (Units=GPa)
#
#
# Indices 1 2 3 4 5 6 
#
# 1 204.4325 43.4187 43.2393 0.0000 0.0000 0.0000
# 2 43.4187 50.2851 15.1099 0.0000 0.0000 0.0000
# 3 43.2393 15.1099 79.7310 0.0000 0.0000 0.0000
# 4 0.0000 0.0000 0.0000 22.5386 0.0000 0.0000
# 5 0.0000 0.0000 0.0000 0.0000 14.6446 0.0000
# 6 0.0000 0.0000 0.0000 0.0000 0.0000 5.9396
#
#
#
# Elastic Compliance Matrix: (Units=1/GPa)
#
#
# Indices 1 2 3 4 5 6 
#
# 1 0.006459 -0.004798 -0.002594 0.000000 0.000000 0.000000
# 2 -0.004798 0.024651 -0.002070 0.000000 0.000000 0.000000
# 3 -0.002594 -0.002070 0.014341 0.000000 0.000000 0.000000
# 4 0.000000 0.000000 0.000000 0.044368 0.000000 0.000000
# 5 0.000000 0.000000 0.000000 0.000000 0.068284 0.000000
# 6 0.000000 0.000000 0.000000 0.000000 0.000000 0.168363
#
#
# Mechanical properties :
#
#
# Convention : Reuss Voigt Hill
#
# Bulk Modulus (GPa) = 37.69472 59.77604 48.73538
# Shear Modulus (GPa) = 14.11503 24.13659 19.12581
#
# Velocity S-wave (km/s) = 2.57321 3.36490 2.99533
# Velocity P-wave (km/s) = 5.14891 6.56794 5.90123
#
# Compressibility (1/GPa) = 0.02652891
#
# Stress axis : x y z
#
# Youngs Moduli (GPa) = 154.81880 40.56594 69.73018
#
# Poissons Ratio (x) = 0.19463 0.18086
# Poissons Ratio (y) = 0.74279 0.14432
# Poissons Ratio (z) = 0.40155 0.08396
#
# Static dielectric constant tensor:
#      x y z
#    x 1.966300 0.000000 0.000000 
#    y 0.000000 1.862680 0.000000 
#    z 0.000000 0.000000 1.798370 
# 
# From -- ./inp_files/2739.got.cif
#   From: 2010.05.17/outbox.cif.g08.bks.cpg/sg33_2_cif.got.tgz:2739.got - 2010.06.03 17:15:25.
