data_PCOD9344288
_publ_section_title
;
Structure prediction by ZEFSAII (Michael W. Deem and Ramdas Pophale) SiO2 
 PCOD9344288
Probable space group: P B A 2
;
_chemical_formula_sum "Si O2"
_cell_formula_units_Z 18
_cell_length_a 9.559657
_cell_length_b 9.559713
_cell_length_c 8.149739
_cell_angle_alpha 90.000000
_cell_angle_beta 90.000000
_cell_angle_gamma 90.000000
_cell_volume 744.784903
_symmetry_space_group_name_H-M "P B A 2"
_symmetry_group_IT_number 32
_symmetry_cell_setting 'orthorhombic'
loop_
_space_group_symop_operation_xyz
x,y,z
-x,-y,z
1/2-x,1/2+y,z
1/2+x,1/2-y,z
loop_
_atom_site_type_symbol
_atom_site_label
_atom_site_fract_x
_atom_site_fract_y
_atom_site_fract_z
Si Si1 0.028498 0.189919 0.248870
Si Si2 0.189919 0.971502 0.065565
Si Si3 0.826161 0.883060 0.589025
Si Si4 0.883060 0.173839 0.725410
Si Si5 0.500000 0.000000 0.157217
O O1 0.118930 0.152167 0.408061
O O2 0.877500 0.116440 0.217932
O O3 0.003700 0.354393 0.253038
O O4 0.116440 0.122499 0.096503
O O5 0.354393 0.996300 0.061397
O O6 0.152168 0.881070 0.906374
O O7 0.686697 0.813302 0.657218
O O8 0.950911 0.825426 0.704404
O O9 0.825424 0.049090 0.610032
#
# Coordination Sequence:
#
# PCOD9344288 Si02
#       5
#     4   4   4   4   2
#     4  11  26  48  75 106 154 193 247 311 372 446
#     4  11  26  48  75 106 154 193 247 311 372 446
#     4  11  27  48  74 109 155 197 246 312 385 446
#     4  11  27  48  74 109 155 197 246 312 385 446
#     4  12  28  40  82 112 132 196 258 296 364 440
#
# _framework density 24.168051999999999
#
# number of rings (size 3 to 8) (size 9 to 14) (size 15 to 20)
#    0.000    0.889    0.000    6.667   18.667    0.889 
#    0.000    0.000    0.000    0.000    0.000    0.000 
#    0.000    0.000    0.000    0.000    0.000    0.000 
#
# Total GULP energy -100657.271567 kJ/mol
# GULP energy per Si atom -5592.070643 kJ/mol
# Density = 2.411304 g / cm^3
# Si number density = 24.168052 Si / 1000 Ang^3
#
#
#
# Elastic Constant Matrix: (Units=GPa)
#
#
# Indices 1 2 3 4 5 6 
#
# 1 87.2983 -14.5542 -0.7034 0.0000 0.0000 0.0000
# 2 -14.5542 87.2998 -0.7029 0.0000 0.0000 0.0000
# 3 -0.7034 -0.7029 123.0420 0.0000 0.0000 0.0000
# 4 0.0000 0.0000 0.0000 16.6955 0.0000 0.0000
# 5 0.0000 0.0000 0.0000 0.0000 16.6954 0.0000
# 6 0.0000 0.0000 0.0000 0.0000 0.0000 29.7508
#
#
#
# Elastic Compliance Matrix: (Units=1/GPa)
#
#
# Indices 1 2 3 4 5 6 
#
# 1 0.011783 0.001965 0.000079 0.000000 0.000000 0.000000
# 2 0.001965 0.011783 0.000079 0.000000 0.000000 0.000000
# 3 0.000079 0.000079 0.008128 0.000000 0.000000 0.000000
# 4 0.000000 0.000000 0.000000 0.059896 0.000000 0.000000
# 5 0.000000 0.000000 0.000000 0.000000 0.059897 0.000000
# 6 0.000000 0.000000 0.000000 0.000000 0.000000 0.033612
#
#
# Mechanical properties :
#
#
# Convention : Reuss Voigt Hill
#
# Bulk Modulus (GPa) = 27.82504 29.52435 28.67469
# Shear Modulus (GPa) = 25.92887 33.53506 29.73197
#
# Velocity S-wave (km/s) = 3.27900 3.72906 3.51125
# Velocity P-wave (km/s) = 5.08665 5.54833 5.32250
#
# Compressibility (1/GPa) = 0.03593886
#
# Stress axis : x y z
#
# Youngs Moduli (GPa) = 84.86644 84.86790 123.02841
#
# Poissons Ratio (x) = -0.16677 -0.00967
# Poissons Ratio (y) = -0.16677 -0.00966
# Poissons Ratio (z) = -0.00667 -0.00667
#
# Static dielectric constant tensor:
#      x y z
#    x 1.932120 0.000000 0.000000 
#    y 0.000000 1.932120 0.000000 
#    z 0.000000 0.000000 1.996320 
# 
# From -- ./inp_files/2680.got.cif
#   From: 2010.05.17/outbox.cif.g08.bks.cpg/sg32_2_cif.got.tgz:2680.got - 2010.06.03 17:12:27.
