data_PCOD9344942
_publ_section_title
;
Structure prediction by ZEFSAII (Michael W. Deem and Ramdas Pophale) SiO2 
 PCOD9344942
Probable space group: P N A 21
;
_chemical_formula_sum "Si O2"
_cell_formula_units_Z 32
_cell_length_a 9.507714
_cell_length_b 28.472335
_cell_length_c 5.087790
_cell_angle_alpha 90.000000
_cell_angle_beta 90.000000
_cell_angle_gamma 90.000000
_cell_volume 1377.299442
_symmetry_space_group_name_H-M "P N A 21"
_symmetry_group_IT_number 33
_symmetry_cell_setting 'orthorhombic'
loop_
_space_group_symop_operation_xyz
x,y,z
-x,-y,1/2+z
1/2-x,1/2+y,1/2+z
1/2+x,1/2-y,z
loop_
_atom_site_type_symbol
_atom_site_label
_atom_site_fract_x
_atom_site_fract_y
_atom_site_fract_z
Si Si1 0.981833 0.163107 0.788130
Si Si2 0.170021 0.098386 0.490468
Si Si3 0.579016 0.802525 0.283098
Si Si4 0.893348 0.094326 0.139143
Si Si5 0.937377 0.355130 0.304310
Si Si6 0.647582 0.257908 0.021282
Si Si7 0.769498 0.677015 0.917446
Si Si8 0.903874 0.996318 0.243032
O O1 0.850559 0.186293 0.636717
O O2 0.121253 0.146889 0.631706
O O3 0.923469 0.110078 0.843470
O O4 0.044251 0.196300 0.020324
O O5 0.322727 0.105538 0.363961
O O6 0.045539 0.092011 0.278584
O O7 0.171113 0.052382 0.674926
O O8 0.556382 0.845278 0.493852
O O9 0.434064 0.774086 0.308492
O O10 0.704027 0.775047 0.421116
O O11 0.617595 0.811346 0.981290
O O12 0.815256 0.140971 0.231047
O O13 0.820615 0.044765 0.186480
O O14 0.089589 0.355369 0.448643
O O15 0.676022 0.223332 0.265217
O O16 0.967200 0.999265 0.533773
#
# Coordination Sequence:
#
# PCOD9344942 Si02
#       8
#     4   4   4   4   4   4   4   4
#     4  11  21  42  70  92 130 179 230 289 342 403
#     4  10  21  40  69 100 133 173 223 290 344 413
#     4  11  26  41  64  88 132 170 223 274 330 390
#     4  10  21  41  67  99 131 174 227 284 347 406
#     4  11  25  43  62  95 132 175 216 276 339 400
#     4  11  24  42  60  94 126 176 227 279 328 407
#     4  10  26  42  65  92 138 182 226 282 349 414
#     4  10  20  37  69 106 134 167 226 288 349 405
#
# _framework density 23.233872000000002
#
# number of rings (size 3 to 8) (size 9 to 14) (size 15 to 20)
#    0.000    1.500    2.500    1.500    7.000    2.000 
#    2.250    0.000    2.750    0.000    0.000    0.000 
#    0.000    0.000    0.000    0.000    0.000    0.000 
#
# Total GULP energy -178244.663734 kJ/mol
# GULP energy per Si atom -5570.145742 kJ/mol
# Density = 2.318099 g / cm^3
# Si number density = 23.233872 Si / 1000 Ang^3
#
#
#
# Elastic Constant Matrix: (Units=GPa)
#
#
# Indices 1 2 3 4 5 6 
#
# 1 92.0914 31.9611 19.6394 0.0000 0.0000 0.0000
# 2 31.9611 106.5034 34.7181 0.0000 0.0000 0.0000
# 3 19.6394 34.7181 70.5789 0.0000 0.0000 0.0000
# 4 0.0000 0.0000 0.0000 32.5514 0.0000 0.0000
# 5 0.0000 0.0000 0.0000 0.0000 20.4026 0.0000
# 6 0.0000 0.0000 0.0000 0.0000 0.0000 20.6871
#
#
#
# Elastic Compliance Matrix: (Units=1/GPa)
#
#
# Indices 1 2 3 4 5 6 
#
# 1 0.012336 -0.003076 -0.001919 0.000000 0.000000 0.000000
# 2 -0.003076 0.011950 -0.005022 0.000000 0.000000 0.000000
# 3 -0.001919 -0.005022 0.017173 0.000000 0.000000 0.000000
# 4 0.000000 0.000000 0.000000 0.030721 0.000000 0.000000
# 5 0.000000 0.000000 0.000000 0.000000 0.049013 0.000000
# 6 0.000000 0.000000 0.000000 0.000000 0.000000 0.048339
#
#
# Mechanical properties :
#
#
# Convention : Reuss Voigt Hill
#
# Bulk Modulus (GPa) = 46.67868 49.09010 47.88439
# Shear Modulus (GPa) = 25.41838 26.91855 26.16846
#
# Velocity S-wave (km/s) = 3.31119 3.40750 3.35969
# Velocity P-wave (km/s) = 5.89517 6.05442 5.97532
#
# Compressibility (1/GPa) = 0.02142306
#
# Stress axis : x y z
#
# Youngs Moduli (GPa) = 81.06534 83.68457 58.23086
#
# Poissons Ratio (x) = 0.25743 0.11177
# Poissons Ratio (y) = 0.24937 0.29244
# Poissons Ratio (z) = 0.15559 0.42027
#
# Static dielectric constant tensor:
#      x y z
#    x 1.976110 0.000000 0.000000 
#    y 0.000000 1.992080 0.000000 
#    z 0.000000 0.000000 2.064390 
# 
# From -- ./inp_files/576.got.cif
#   From: 2010.05.17/outbox.cif.g08.bks.cpg/sg33_1_cif.got.tgz:576.got - 2010.06.03 17:15:25.
