data_PCOD9344535
_publ_section_title
;
Structure prediction by ZEFSAII (Michael W. Deem and Ramdas Pophale) SiO2 
 PCOD9344535
Probable space group: P N A 21
;
_chemical_formula_sum "Si O2"
_cell_formula_units_Z 28
_cell_length_a 8.992001
_cell_length_b 19.425299
_cell_length_c 5.585785
_cell_angle_alpha 90.000000
_cell_angle_beta 90.000000
_cell_angle_gamma 90.000000
_cell_volume 975.681958
_symmetry_space_group_name_H-M "P N A 21"
_symmetry_group_IT_number 33
_symmetry_cell_setting 'orthorhombic'
loop_
_space_group_symop_operation_xyz
x,y,z
-x,-y,1/2+z
1/2-x,1/2+y,1/2+z
1/2+x,1/2-y,z
loop_
_atom_site_type_symbol
_atom_site_label
_atom_site_fract_x
_atom_site_fract_y
_atom_site_fract_z
Si Si1 0.400362 0.230117 0.673430
Si Si2 0.623178 0.666091 0.580131
Si Si3 0.580252 0.432489 0.248465
Si Si4 0.146753 0.249284 0.337409
Si Si5 0.738554 0.401903 0.751389
Si Si6 0.594246 0.048150 0.221713
Si Si7 0.687308 0.037339 0.721571
O O1 0.299473 0.217629 0.436993
O O2 0.342143 0.163866 0.812436
O O3 0.566802 0.227990 0.581112
O O4 0.381965 0.303344 0.809188
O O5 0.588788 0.591165 0.701368
O O6 0.780734 0.693305 0.674194
O O7 0.479401 0.706826 0.698444
O O8 0.642693 0.510901 0.239367
O O9 0.640120 0.402960 0.503755
O O10 0.641368 0.407635 0.989650
O O11 0.832959 0.471420 0.726684
O O12 0.640298 0.075747 0.481213
O O13 0.417393 0.031887 0.223209
O O14 0.640959 0.075309 0.962454
#
# Coordination Sequence:
#
# PCOD9344535 Si02
#       7
#     4   4   4   4   4   4   4
#     4  11  21  35  50  71  99 137 171 215 253 302
#     4  11  21  35  50  71  99 137 171 215 253 302
#     4  10  19  31  49  73 101 133 166 206 256 309
#     4  10  22  34  50  68  98 128 178 208 254 294
#     4  10  19  31  49  73 101 133 166 206 256 309
#     4   8  14  25  42  66  97 126 154 196 252 306
#     4   8  14  25  42  66  97 126 154 196 252 306
#
# _framework density 28.697875
#
# number of rings (size 3 to 8) (size 9 to 14) (size 15 to 20)
#    0.000    2.286    1.429    2.571    4.000    0.000 
#    0.000    0.000    0.000    0.000    0.000    0.000 
#    8.571    0.000    0.000    0.000    0.000    0.000 
#
# Total GULP energy -156312.076475 kJ/mol
# GULP energy per Si atom -5582.574160 kJ/mol
# Density = 2.863256 g / cm^3
# Si number density = 28.697875 Si / 1000 Ang^3
#
#
#
# Elastic Constant Matrix: (Units=GPa)
#
#
# Indices 1 2 3 4 5 6 
#
# 1 85.4324 5.2022 45.5455 0.0000 0.0000 0.0000
# 2 5.2022 62.8986 24.1216 0.0000 0.0000 0.0000
# 3 45.5455 24.1216 205.2666 0.0000 0.0000 0.0000
# 4 0.0000 0.0000 0.0000 39.7102 0.0000 0.0000
# 5 0.0000 0.0000 0.0000 0.0000 62.7915 0.0000
# 6 0.0000 0.0000 0.0000 0.0000 0.0000 36.1205
#
#
#
# Elastic Compliance Matrix: (Units=1/GPa)
#
#
# Indices 1 2 3 4 5 6 
#
# 1 0.013276 0.000033 -0.002950 0.000000 0.000000 0.000000
# 2 0.000033 0.016649 -0.001964 0.000000 0.000000 0.000000
# 3 -0.002950 -0.001964 0.005757 0.000000 0.000000 0.000000
# 4 0.000000 0.000000 0.000000 0.025182 0.000000 0.000000
# 5 0.000000 0.000000 0.000000 0.000000 0.015926 0.000000
# 6 0.000000 0.000000 0.000000 0.000000 0.000000 0.027685
#
#
# Mechanical properties :
#
#
# Convention : Reuss Voigt Hill
#
# Bulk Modulus (GPa) = 38.57863 55.92624 47.25244
# Shear Modulus (GPa) = 40.69157 46.30634 43.49896
#
# Velocity S-wave (km/s) = 3.76963 4.02130 3.89749
# Velocity P-wave (km/s) = 5.69377 6.41025 6.06260
#
# Compressibility (1/GPa) = 0.02592108
#
# Stress axis : x y z
#
# Youngs Moduli (GPa) = 75.32620 60.06370 173.70306
#
# Poissons Ratio (x) = -0.00199 0.51235
# Poissons Ratio (y) = -0.00250 0.34113
# Poissons Ratio (z) = 0.22218 0.11796
#
# Static dielectric constant tensor:
#      x y z
#    x 2.341760 0.000000 0.000000 
#    y 0.000000 2.443290 0.000000 
#    z 0.000000 0.000000 2.264350 
# 
# From -- ./inp_files/544.got.cif
#   From: 2010.05.17/outbox.cif.g08.bks.cpg/sg33_1_cif.got.tgz:544.got - 2010.06.03 17:15:25.
