data_PCOD9344807
_publ_section_title
;
Structure prediction by ZEFSAII (Michael W. Deem and Ramdas Pophale) SiO2 
 PCOD9344807
Probable space group: P N A 21
;
_chemical_formula_sum "Si O2"
_cell_formula_units_Z 32
_cell_length_a 13.296420
_cell_length_b 8.017789
_cell_length_c 13.338370
_cell_angle_alpha 90.000000
_cell_angle_beta 90.000000
_cell_angle_gamma 90.000000
_cell_volume 1421.975482
_symmetry_space_group_name_H-M "P N A 21"
_symmetry_group_IT_number 33
_symmetry_cell_setting 'orthorhombic'
loop_
_space_group_symop_operation_xyz
x,y,z
-x,-y,1/2+z
1/2-x,1/2+y,1/2+z
1/2+x,1/2-y,z
loop_
_atom_site_type_symbol
_atom_site_label
_atom_site_fract_x
_atom_site_fract_y
_atom_site_fract_z
Si Si1 0.453172 0.363955 0.346730
Si Si2 0.041738 0.512065 0.345030
Si Si3 0.953173 0.136045 0.565759
Si Si4 0.851156 0.993752 0.155677
Si Si5 0.850142 0.629202 0.666316
Si Si6 0.649858 0.129201 0.746171
Si Si7 0.541739 0.987935 0.567457
Si Si8 0.148843 0.006248 0.256811
O O1 0.491001 0.172786 0.345399
O O2 0.408491 0.398021 0.456245
O O3 0.381834 0.398428 0.253025
O O4 0.552582 0.476518 0.328303
O O5 0.950674 0.631611 0.312720
O O6 0.124085 0.498097 0.257932
O O7 0.079952 0.547859 0.456243
O O8 0.052582 0.023481 0.584186
O O9 0.991003 0.327214 0.567088
O O10 0.881836 0.101574 0.659464
O O11 0.833379 0.808046 0.197210
O O12 0.749029 0.065959 0.111002
O O13 0.833381 0.808047 0.715277
O O14 0.950674 0.631611 0.599767
O O15 0.624086 0.001901 0.654555
O O16 0.749029 0.065958 0.801486
#
# Coordination Sequence:
#
# PCOD9344807 Si02
#       8
#     4   4   4   4   4   4   4   4
#     4   9  19  36  55  74 100 136 175 214 257 305
#     4   9  19  36  55  74 100 136 175 214 257 305
#     4   9  19  36  55  74 100 136 175 214 257 305
#     4  10  20  34  53  78 106 136 171 212 258 307
#     4  10  20  34  53  78 106 136 171 212 258 307
#     4  10  20  34  53  78 106 136 171 212 258 307
#     4   9  19  36  55  74 100 136 175 214 257 305
#     4  10  20  34  53  78 106 136 171 212 258 307
#
# _framework density 22.503905
#
# number of rings (size 3 to 8) (size 9 to 14) (size 15 to 20)
#    0.000    2.500    0.000    1.500    0.000    5.000 
#    0.000    5.000    0.000    0.000    0.000    0.000 
#    0.000    0.000    0.000    0.000    0.000    0.000 
#
# Total GULP energy -178777.269342 kJ/mol
# GULP energy per Si atom -5586.789667 kJ/mol
# Density = 2.245269 g / cm^3
# Si number density = 22.503905 Si / 1000 Ang^3
#
#
#
# Elastic Constant Matrix: (Units=GPa)
#
#
# Indices 1 2 3 4 5 6 
#
# 1 52.7591 13.5107 -15.6875 0.0000 0.0000 0.0000
# 2 13.5107 44.8877 -3.3773 0.0000 0.0000 0.0000
# 3 -15.6875 -3.3773 63.0254 0.0000 0.0000 0.0000
# 4 0.0000 0.0000 0.0000 12.9556 0.0000 0.0000
# 5 0.0000 0.0000 0.0000 0.0000 4.0962 0.0000
# 6 0.0000 0.0000 0.0000 0.0000 0.0000 29.5292
#
#
#
# Elastic Compliance Matrix: (Units=1/GPa)
#
#
# Indices 1 2 3 4 5 6 
#
# 1 0.022093 -0.006261 0.005164 0.000000 0.000000 0.000000
# 2 -0.006261 0.024142 -0.000265 0.000000 0.000000 0.000000
# 3 0.005164 -0.000265 0.017138 0.000000 0.000000 0.000000
# 4 0.000000 0.000000 0.000000 0.077187 0.000000 0.000000
# 5 0.000000 0.000000 0.000000 0.000000 0.244127 0.000000
# 6 0.000000 0.000000 0.000000 0.000000 0.000000 0.033865
#
#
# Mechanical properties :
#
#
# Convention : Reuss Voigt Hill
#
# Bulk Modulus (GPa) = 16.48855 16.61822 16.55338
# Shear Modulus (GPa) = 11.32524 20.39796 15.86160
#
# Velocity S-wave (km/s) = 2.24577 3.01395 2.65776
# Velocity P-wave (km/s) = 3.75067 4.41729 4.09756
#
# Compressibility (1/GPa) = 0.06064815
#
# Stress axis : x y z
#
# Youngs Moduli (GPa) = 45.26366 41.42080 58.35101
#
# Poissons Ratio (x) = 0.25934 -0.30130
# Poissons Ratio (y) = 0.28340 0.01545
# Poissons Ratio (z) = -0.23372 0.01097
#
# Static dielectric constant tensor:
#      x y z
#    x 1.802070 0.000000 0.000000 
#    y 0.000000 1.850950 0.000000 
#    z 0.000000 0.000000 1.814900 
# 
# From -- ./inp_files/3976.got.cif
#   From: 2010.05.17/outbox.cif.g08.bks.cpg/sg33_2_cif.got.tgz:3976.got - 2010.06.03 17:15:25.
