data_PCOD9344189
_publ_section_title
;
Structure prediction by ZEFSAII (Michael W. Deem and Ramdas Pophale) SiO2 
 PCOD9344189
Probable space group: P B A 2
;
_chemical_formula_sum "Si O2"
_cell_formula_units_Z 22
_cell_length_a 13.645292
_cell_length_b 9.115177
_cell_length_c 7.353680
_cell_angle_alpha 90.000000
_cell_angle_beta 90.000000
_cell_angle_gamma 90.000000
_cell_volume 914.645216
_symmetry_space_group_name_H-M "P B A 2"
_symmetry_group_IT_number 32
_symmetry_cell_setting 'orthorhombic'
loop_
_space_group_symop_operation_xyz
x,y,z
-x,-y,z
1/2-x,1/2+y,z
1/2+x,1/2-y,z
loop_
_atom_site_type_symbol
_atom_site_label
_atom_site_fract_x
_atom_site_fract_y
_atom_site_fract_z
Si Si1 0.864846 0.109318 0.666450
Si Si2 0.000000 0.500000 0.123455
Si Si3 0.988058 0.229510 0.957096
Si Si4 0.357510 0.436083 0.252340
Si Si5 0.349767 0.786669 0.313727
Si Si6 0.172304 0.226434 0.734679
O O1 0.961364 0.153957 0.769340
O O2 0.886755 0.117244 0.453673
O O3 0.782367 0.215511 0.748019
O O4 0.828167 0.947711 0.711341
O O5 0.061126 0.385503 0.242214
O O6 0.058667 0.611593 0.995545
O O7 0.103062 0.260516 0.907897
O O8 0.934935 0.125809 0.106466
O O9 0.352698 0.613939 0.258193
O O10 0.249474 0.363657 0.239419
O O11 0.355387 0.790781 0.534406
#
# Coordination Sequence:
#
# PCOD9344189 Si02
#       6
#     4   2   4   4   4   4
#     4  10  25  48  73 107 146 198 245 318 385 459
#     4  12  30  42  70 114 148 204 250 312 386 452
#     4  12  28  45  73 114 150 199 256 313 386 460
#     4  10  24  49  81 103 152 200 260 315 389 462
#     4  10  24  50  77 112 151 206 257 324 387 463
#     4  10  25  48  77 109 148 197 257 318 391 458
#
# _framework density 24.053042999999999
#
# number of rings (size 3 to 8) (size 9 to 14) (size 15 to 20)
#    0.000    1.455    0.000    1.636   12.727    2.182 
#    0.000    0.000    0.000    0.000    0.000    0.000 
#    0.000    0.000    0.000    0.000    0.000    0.000 
#
# Total GULP energy -122899.566234 kJ/mol
# GULP energy per Si atom -5586.343920 kJ/mol
# Density = 2.399830 g / cm^3
# Si number density = 24.053043 Si / 1000 Ang^3
#
#
#
# Elastic Constant Matrix: (Units=GPa)
#
#
# Indices 1 2 3 4 5 6 
#
# 1 95.8817 53.6445 61.1711 0.0000 0.0000 0.0000
# 2 53.6445 119.0997 45.8870 0.0000 0.0000 0.0000
# 3 61.1711 45.8870 100.4113 0.0000 0.0000 0.0000
# 4 0.0000 0.0000 0.0000 33.4621 0.0000 0.0000
# 5 0.0000 0.0000 0.0000 0.0000 14.8126 0.0000
# 6 0.0000 0.0000 0.0000 0.0000 0.0000 45.1102
#
#
#
# Elastic Compliance Matrix: (Units=1/GPa)
#
#
# Indices 1 2 3 4 5 6 
#
# 1 0.019271 -0.005045 -0.009435 0.000000 0.000000 0.000000
# 2 -0.005045 0.011511 -0.002187 0.000000 0.000000 0.000000
# 3 -0.009435 -0.002187 0.016706 0.000000 0.000000 0.000000
# 4 0.000000 0.000000 0.000000 0.029885 0.000000 0.000000
# 5 0.000000 0.000000 0.000000 0.000000 0.067510 0.000000
# 6 0.000000 0.000000 0.000000 0.000000 0.000000 0.022168
#
#
# Mechanical properties :
#
#
# Convention : Reuss Voigt Hill
#
# Bulk Modulus (GPa) = 70.64545 70.75533 70.70039
# Shear Modulus (GPa) = 24.37793 28.98966 26.68379
#
# Velocity S-wave (km/s) = 3.18702 3.47542 3.33434
# Velocity P-wave (km/s) = 6.55570 6.75166 6.65440
#
# Compressibility (1/GPa) = 0.01415519
#
# Stress axis : x y z
#
# Youngs Moduli (GPa) = 51.89047 86.87056 59.85826
#
# Poissons Ratio (x) = 0.43827 0.56474
# Poissons Ratio (y) = 0.26179 0.13091
# Poissons Ratio (z) = 0.48957 0.18999
#
# Static dielectric constant tensor:
#      x y z
#    x 2.030240 0.000000 0.000000 
#    y 0.000000 1.968720 0.000000 
#    z 0.000000 0.000000 1.998650 
# 
# From -- ./inp_files/2972.got.cif
#   From: 2010.05.17/outbox.cif.g08.bks.cpg/sg32_2_cif.got.tgz:2972.got - 2010.06.03 17:12:27.
