data_PCOD9344588
_publ_section_title
;
Structure prediction by ZEFSAII (Michael W. Deem and Ramdas Pophale) SiO2 
 PCOD9344588
Probable space group: P N A 21
;
_chemical_formula_sum "Si O2"
_cell_formula_units_Z 32
_cell_length_a 13.921413
_cell_length_b 11.906783
_cell_length_c 8.313493
_cell_angle_alpha 90.000000
_cell_angle_beta 90.000000
_cell_angle_gamma 90.000000
_cell_volume 1378.038312
_symmetry_space_group_name_H-M "P N A 21"
_symmetry_group_IT_number 33
_symmetry_cell_setting 'orthorhombic'
loop_
_space_group_symop_operation_xyz
x,y,z
-x,-y,1/2+z
1/2-x,1/2+y,1/2+z
1/2+x,1/2-y,z
loop_
_atom_site_type_symbol
_atom_site_label
_atom_site_fract_x
_atom_site_fract_y
_atom_site_fract_z
Si Si1 0.950539 0.516658 0.073420
Si Si2 0.341987 0.793801 0.868809
Si Si3 0.970858 0.274207 0.960908
Si Si4 0.336576 0.896165 0.364629
Si Si5 0.998477 0.128790 0.272129
Si Si6 0.005838 0.872170 0.151245
Si Si7 0.282321 0.704117 0.164578
Si Si8 0.675183 0.002106 0.157336
O O1 0.895703 0.528903 0.240484
O O2 0.063009 0.517341 0.118403
O O3 0.916638 0.624399 0.969898
O O4 0.926484 0.398286 0.990157
O O5 0.400583 0.694476 0.788384
O O6 0.302278 0.884529 0.748145
O O7 0.261570 0.743287 0.983990
O O8 0.084361 0.313302 0.948439
O O9 0.951702 0.210686 0.791116
O O10 0.952056 0.197469 0.119647
O O11 0.269987 0.813554 0.269249
O O12 0.280353 0.976311 0.482668
O O13 0.961628 0.133407 0.461340
O O14 0.009980 0.999958 0.216273
O O15 0.893363 0.834867 0.152371
O O16 0.222722 0.603824 0.233406
#
# Coordination Sequence:
#
# PCOD9344588 Si02
#       8
#     4   4   4   4   4   4   4   4
#     4  10  20  38  66  99 118 151 214 271 310 369
#     4  10  21  39  63  87 124 156 205 269 305 368
#     4  10  19  34  60  91 119 159 198 258 318 350
#     4   9  19  38  64  86 122 156 201 266 306 368
#     4  11  19  35  61  88 120 164 205 258 305 364
#     4  10  21  37  60  89 129 163 208 252 315 382
#     4   9  22  40  56  85 129 162 196 252 317 383
#     4  11  19  37  66  87 117 165 205 248 324 374
#
# _framework density 23.221415
#
# number of rings (size 3 to 8) (size 9 to 14) (size 15 to 20)
#    0.000    2.000    3.750    2.250    0.000    0.000 
#    2.250    5.000    5.500    0.000    0.000    0.000 
#    0.000    0.000    0.000    0.000    0.000    0.000 
#
# Total GULP energy -178393.940777 kJ/mol
# GULP energy per Si atom -5574.810649 kJ/mol
# Density = 2.316856 g / cm^3
# Si number density = 23.221415 Si / 1000 Ang^3
#
#
#
# Elastic Constant Matrix: (Units=GPa)
#
#
# Indices 1 2 3 4 5 6 
#
# 1 26.3780 16.7550 18.1185 0.0000 0.0000 0.0000
# 2 16.7550 148.0272 46.9834 0.0000 0.0000 0.0000
# 3 18.1185 46.9834 134.7958 0.0000 0.0000 0.0000
# 4 0.0000 0.0000 0.0000 103.9962 0.0000 0.0000
# 5 0.0000 0.0000 0.0000 0.0000 -18.3084 0.0000
# 6 0.0000 0.0000 0.0000 0.0000 0.0000 28.8765
#
#
#
# Elastic Compliance Matrix: (Units=1/GPa)
#
#
# Indices 1 2 3 4 5 6 
#
# 1 0.043262 -0.003431 -0.004619 0.000000 0.000000 0.000000
# 2 -0.003431 0.007868 -0.002281 0.000000 0.000000 0.000000
# 3 -0.004619 -0.002281 0.008835 0.000000 0.000000 0.000000
# 4 0.000000 0.000000 0.000000 0.009616 0.000000 0.000000
# 5 0.000000 0.000000 0.000000 0.000000 -0.054620 0.000000
# 6 0.000000 0.000000 0.000000 0.000000 0.000000 0.034630
#
#
# Mechanical properties :
#
#
# Convention : Reuss Voigt Hill
#
# Bulk Modulus (GPa) = 25.44368 52.54609 38.99488
# Shear Modulus (GPa) = 59.98467 38.06911 49.02689
#
# Velocity S-wave (km/s) = 5.08800 4.05334 4.59985
# Velocity P-wave (km/s) = 6.74520 6.67709 6.71123
#
# Compressibility (1/GPa) = 0.03930249
#
# Stress axis : x y z
#
# Youngs Moduli (GPa) = 23.11477 127.09898 113.19049
#
# Poissons Ratio (x) = 0.43603 0.52286
# Poissons Ratio (y) = 0.07930 0.25821
# Poissons Ratio (z) = 0.10677 0.28994
#
# Static dielectric constant tensor:
#      x y z
#    x 1.898770 0.000000 0.000000 
#    y 0.000000 1.802310 0.000000 
#    z 0.000000 0.000000 2.003920 
# 
# From -- ./inp_files/4857.got.cif
#   From: 2010.05.17/outbox.cif.g08.bks.cpg/sg33_3_cif.got.tgz:4857.got - 2010.06.03 17:15:25.
