data_PCOD9344755
_publ_section_title
;
Structure prediction by ZEFSAII (Michael W. Deem and Ramdas Pophale) SiO2 
 PCOD9344755
Probable space group: P N A 21
;
_chemical_formula_sum "Si O2"
_cell_formula_units_Z 24
_cell_length_a 10.602168
_cell_length_b 9.626386
_cell_length_c 9.233272
_cell_angle_alpha 90.000000
_cell_angle_beta 90.000000
_cell_angle_gamma 90.000000
_cell_volume 942.352926
_symmetry_space_group_name_H-M "P N A 21"
_symmetry_group_IT_number 33
_symmetry_cell_setting 'orthorhombic'
loop_
_space_group_symop_operation_xyz
x,y,z
-x,-y,1/2+z
1/2-x,1/2+y,1/2+z
1/2+x,1/2-y,z
loop_
_atom_site_type_symbol
_atom_site_label
_atom_site_fract_x
_atom_site_fract_y
_atom_site_fract_z
Si Si1 0.355539 0.635862 0.283530
Si Si2 0.583984 0.930746 0.826696
Si Si3 0.011414 0.129463 0.357055
Si Si4 0.274274 0.680438 0.618898
Si Si5 0.916141 0.316358 0.786297
Si Si6 0.684890 0.569380 0.494026
O O1 0.418868 0.485889 0.292045
O O2 0.323176 0.655272 0.456542
O O3 0.218729 0.659793 0.209755
O O4 0.454911 0.749594 0.226553
O O5 0.551550 0.777593 0.886118
O O6 0.649380 0.903188 0.669360
O O7 0.463405 0.030725 0.830351
O O8 0.693172 0.009425 0.913386
O O9 0.116808 0.150888 0.233381
O O10 0.083641 0.054257 0.490070
O O11 0.240139 0.842371 0.625146
O O12 0.883270 0.194425 0.903007
#
# Coordination Sequence:
#
# PCOD9344755 Si02
#       6
#     4   4   4   4   4   4
#     4  10  22  42  72  99 151 193 234 309 370 440
#     4  11  22  38  71 105 134 189 255 297 363 458
#     4  10  24  38  71 107 139 189 256 305 362 454
#     4  10  22  42  74  99 139 204 243 292 390 444
#     4  10  19  40  70  97 136 198 235 297 373 429
#     4   9  21  44  68  97 147 195 231 306 374 427
#
# _framework density 25.468164999999999
#
# number of rings (size 3 to 8) (size 9 to 14) (size 15 to 20)
#    0.000    2.000    3.333    0.000   11.667    0.000 
#    0.000    0.000   40.333    0.000    0.000    0.000 
#    0.000    0.000    0.000    0.000    0.000    0.000 
#
# Total GULP energy -133995.276752 kJ/mol
# GULP energy per Si atom -5583.136531 kJ/mol
# Density = 2.541020 g / cm^3
# Si number density = 25.468165 Si / 1000 Ang^3
#
#
#
# Elastic Constant Matrix: (Units=GPa)
#
#
# Indices 1 2 3 4 5 6 
#
# 1 186.1253 88.8094 29.3996 0.0000 0.0000 0.0000
# 2 88.8094 207.2192 33.8432 0.0000 0.0000 0.0000
# 3 29.3996 33.8432 73.3884 0.0000 0.0000 0.0000
# 4 0.0000 0.0000 0.0000 40.0461 0.0000 0.0000
# 5 0.0000 0.0000 0.0000 0.0000 19.3294 0.0000
# 6 0.0000 0.0000 0.0000 0.0000 0.0000 69.5589
#
#
#
# Elastic Compliance Matrix: (Units=1/GPa)
#
#
# Indices 1 2 3 4 5 6 
#
# 1 0.006906 -0.002712 -0.001516 0.000000 0.000000 0.000000
# 2 -0.002712 0.006284 -0.001811 0.000000 0.000000 0.000000
# 3 -0.001516 -0.001811 0.015069 0.000000 0.000000 0.000000
# 4 0.000000 0.000000 0.000000 0.024971 0.000000 0.000000
# 5 0.000000 0.000000 0.000000 0.000000 0.051735 0.000000
# 6 0.000000 0.000000 0.000000 0.000000 0.000000 0.014376
#
#
# Mechanical properties :
#
#
# Convention : Reuss Voigt Hill
#
# Bulk Modulus (GPa) = 61.80480 85.64860 73.72670
# Shear Modulus (GPa) = 36.54600 46.76560 41.65580
#
# Velocity S-wave (km/s) = 3.79221 4.28978 4.04865
# Velocity P-wave (km/s) = 6.59504 7.63145 7.13210
#
# Compressibility (1/GPa) = 0.01617997
#
# Stress axis : x y z
#
# Youngs Moduli (GPa) = 144.79417 159.13227 66.36267
#
# Poissons Ratio (x) = 0.43162 0.10060
# Poissons Ratio (y) = 0.39273 0.12021
# Poissons Ratio (z) = 0.21949 0.28824
#
# Static dielectric constant tensor:
#      x y z
#    x 2.040930 0.000000 0.000000 
#    y 0.000000 2.029920 0.000000 
#    z 0.000000 0.000000 2.197850 
# 
# From -- ./inp_files/6268.got.cif
#   From: 2010.05.17/outbox.cif.g08.bks.cpg/sg33_4_cif.got.tgz:6268.got - 2010.06.03 17:15:25.
