data_PCOD9344647
_publ_section_title
;
Structure prediction by ZEFSAII (Michael W. Deem and Ramdas Pophale) SiO2 
 PCOD9344647
Probable space group: P N A 21
;
_chemical_formula_sum "Si O2"
_cell_formula_units_Z 28
_cell_length_a 7.120943
_cell_length_b 21.149475
_cell_length_c 9.450469
_cell_angle_alpha 90.000000
_cell_angle_beta 90.000000
_cell_angle_gamma 90.000000
_cell_volume 1423.280380
_symmetry_space_group_name_H-M "P N A 21"
_symmetry_group_IT_number 33
_symmetry_cell_setting 'orthorhombic'
loop_
_space_group_symop_operation_xyz
x,y,z
-x,-y,1/2+z
1/2-x,1/2+y,1/2+z
1/2+x,1/2-y,z
loop_
_atom_site_type_symbol
_atom_site_label
_atom_site_fract_x
_atom_site_fract_y
_atom_site_fract_z
Si Si1 0.734626 0.797022 0.483110
Si Si2 0.716399 0.490918 0.024104
Si Si3 0.174471 0.341791 0.006929
Si Si4 0.644216 0.426494 0.460824
Si Si5 0.177047 0.090683 0.778064
Si Si6 0.975656 0.869996 0.681904
Si Si7 0.761963 0.545790 0.301308
O O1 0.733715 0.723154 0.448411
O O2 0.537566 0.823146 0.540704
O O3 0.796739 0.841699 0.352967
O O4 0.881327 0.810208 0.607710
O O5 0.557518 0.540650 0.983542
O O6 0.612049 0.432284 0.104673
O O7 0.835110 0.525869 0.145773
O O8 0.787402 0.459840 0.878118
O O9 0.161921 0.394601 0.885809
O O10 0.305816 0.366750 0.135328
O O11 0.721471 0.406203 0.612722
O O12 0.594244 0.374886 0.342172
O O13 0.769556 0.482410 0.394866
O O14 0.960709 0.065619 0.786684
#
# Coordination Sequence:
#
# PCOD9344647 Si02
#       7
#     4   4   4   4   4   4   4
#     4  11  22  36  60  80 109 154 203 238 279 349
#     4   8  15  29  59  85 111 149 181 217 290 342
#     4  12  20  36  62  81 110 152 201 234 290 340
#     4   9  16  30  62  81 118 147 179 230 298 335
#     4   9  16  33  55  85 112 148 185 228 280 342
#     4  10  19  36  58  84 113 149 186 240 276 344
#     4   9  16  30  56  86 111 149 183 227 285 342
#
# _framework density 19.672864000000001
#
# number of rings (size 3 to 8) (size 9 to 14) (size 15 to 20)
#    0.000    2.286    5.714    0.857    0.000    0.000 
#    0.000    4.286   15.714    0.000    0.000    0.000 
#    0.000    0.000    0.000    0.000    0.000    0.000 
#
# Total GULP energy -155907.663705 kJ/mol
# GULP energy per Si atom -5568.130847 kJ/mol
# Density = 1.962809 g / cm^3
# Si number density = 19.672864 Si / 1000 Ang^3
#
#
#
# Elastic Constant Matrix: (Units=GPa)
#
#
# Indices 1 2 3 4 5 6 
#
# 1 57.4326 5.9273 16.4752 0.0000 0.0000 0.0000
# 2 5.9273 86.9874 54.1103 0.0000 0.0000 0.0000
# 3 16.4752 54.1103 159.4130 0.0000 0.0000 0.0000
# 4 0.0000 0.0000 0.0000 10.1256 0.0000 0.0000
# 5 0.0000 0.0000 0.0000 0.0000 9.1060 0.0000
# 6 0.0000 0.0000 0.0000 0.0000 0.0000 25.9549
#
#
#
# Elastic Compliance Matrix: (Units=1/GPa)
#
#
# Indices 1 2 3 4 5 6 
#
# 1 0.017944 -0.000088 -0.001825 0.000000 0.000000 0.000000
# 2 -0.000088 0.014573 -0.004938 0.000000 0.000000 0.000000
# 3 -0.001825 -0.004938 0.008138 0.000000 0.000000 0.000000
# 4 0.000000 0.000000 0.000000 0.098760 0.000000 0.000000
# 5 0.000000 0.000000 0.000000 0.000000 0.109818 0.000000
# 6 0.000000 0.000000 0.000000 0.000000 0.000000 0.038528
#
#
# Mechanical properties :
#
#
# Convention : Reuss Voigt Hill
#
# Bulk Modulus (GPa) = 37.09878 50.76208 43.93043
# Shear Modulus (GPa) = 16.10587 24.19198 20.14893
#
# Velocity S-wave (km/s) = 2.86437 3.51053 3.20378
# Velocity P-wave (km/s) = 5.46244 6.50314 6.00538
#
# Compressibility (1/GPa) = 0.02695507
#
# Stress axis : x y z
#
# Youngs Moduli (GPa) = 55.72829 68.61854 122.88626
#
# Poissons Ratio (x) = 0.00601 0.22424
# Poissons Ratio (y) = 0.00488 0.60677
# Poissons Ratio (z) = 0.10169 0.33881
#
# Static dielectric constant tensor:
#      x y z
#    x 1.776200 0.000000 0.000000 
#    y 0.000000 1.697520 0.000000 
#    z 0.000000 0.000000 1.744220 
# 
# From -- ./inp_files/3540.got.cif
#   From: 2010.05.17/outbox.cif.g08.bks.cpg/sg33_2_cif.got.tgz:3540.got - 2010.06.03 17:15:25.
