data_PCOD9344201
_publ_section_title
;
Structure prediction by ZEFSAII (Michael W. Deem and Ramdas Pophale) SiO2 
 PCOD9344201
Probable space group: P B A 2
;
_chemical_formula_sum "Si O2"
_cell_formula_units_Z 26
_cell_length_a 14.943451
_cell_length_b 11.307723
_cell_length_c 6.966745
_cell_angle_alpha 90.000000
_cell_angle_beta 90.000000
_cell_angle_gamma 90.000000
_cell_volume 1177.215522
_symmetry_space_group_name_H-M "P B A 2"
_symmetry_group_IT_number 32
_symmetry_cell_setting 'orthorhombic'
loop_
_space_group_symop_operation_xyz
x,y,z
-x,-y,z
1/2-x,1/2+y,z
1/2+x,1/2-y,z
loop_
_atom_site_type_symbol
_atom_site_label
_atom_site_fract_x
_atom_site_fract_y
_atom_site_fract_z
Si Si1 0.355674 0.999521 0.924610
Si Si2 0.301936 0.492524 0.216480
Si Si3 0.380520 0.369491 0.863506
Si Si4 0.420393 0.701869 0.387039
Si Si5 0.490580 0.812033 0.012479
Si Si6 0.500000 0.500000 0.623833
Si Si7 0.221177 0.372892 0.592881
O O1 0.318656 0.985690 0.710096
O O2 0.396288 0.868405 0.955424
O O3 0.280381 0.026925 0.079631
O O4 0.433979 0.090690 0.967557
O O5 0.357916 0.607891 0.273470
O O6 0.269015 0.423918 0.404163
O O7 0.354668 0.402479 0.078911
O O8 0.411641 0.486028 0.751225
O O9 0.296693 0.320471 0.740278
O O10 0.470894 0.294364 0.886570
O O11 0.476082 0.778224 0.233631
O O12 0.488819 0.616716 0.497707
O O13 0.356356 0.783538 0.519844
#
# Coordination Sequence:
#
# PCOD9344201 Si02
#       7
#     4   4   4   4   4   2   4
#     4  10  25  47  67 101 144 182 235 285 355 419
#     4  11  24  46  69 102 140 185 233 290 347 435
#     4  11  25  42  71  98 142 185 236 285 366 403
#     4  12  25  43  77 101 144 183 242 286 367 413
#     4  11  24  45  69 103 139 187 228 299 350 418
#     4  12  24  44  64 108 140 182 236 306 340 430
#     4  11  25  46  69 105 135 192 231 287 351 434
#
# _framework density 22.086013000000001
#
# number of rings (size 3 to 8) (size 9 to 14) (size 15 to 20)
#    0.000    0.923    3.077    2.769    4.308    0.000 
#    5.538    0.000    0.000    0.000    0.000    0.000 
#    0.000    0.000    0.000    0.000    0.000    0.000 
#
# Total GULP energy -145185.787780 kJ/mol
# GULP energy per Si atom -5584.068761 kJ/mol
# Density = 2.203574 g / cm^3
# Si number density = 22.086013 Si / 1000 Ang^3
#
#
#
# Elastic Constant Matrix: (Units=GPa)
#
#
# Indices 1 2 3 4 5 6 
#
# 1 76.0330 17.6867 46.8962 0.0000 0.0000 0.0000
# 2 17.6867 51.2808 45.6959 0.0000 0.0000 0.0000
# 3 46.8962 45.6959 164.7225 0.0000 0.0000 0.0000
# 4 0.0000 0.0000 0.0000 24.9880 0.0000 0.0000
# 5 0.0000 0.0000 0.0000 0.0000 43.3473 0.0000
# 6 0.0000 0.0000 0.0000 0.0000 0.0000 39.8529
#
#
#
# Elastic Compliance Matrix: (Units=1/GPa)
#
#
# Indices 1 2 3 4 5 6 
#
# 1 0.016099 -0.001951 -0.004042 0.000000 0.000000 0.000000
# 2 -0.001951 0.026140 -0.006696 0.000000 0.000000 0.000000
# 3 -0.004042 -0.006696 0.009079 0.000000 0.000000 0.000000
# 4 0.000000 0.000000 0.000000 0.040019 0.000000 0.000000
# 5 0.000000 0.000000 0.000000 0.000000 0.023070 0.000000
# 6 0.000000 0.000000 0.000000 0.000000 0.000000 0.025092
#
#
# Mechanical properties :
#
#
# Convention : Reuss Voigt Hill
#
# Bulk Modulus (GPa) = 38.54989 56.95487 47.75238
# Shear Modulus (GPa) = 28.81436 33.75480 31.28458
#
# Velocity S-wave (km/s) = 3.61590 3.91363 3.76771
# Velocity P-wave (km/s) = 5.90977 6.80189 6.37146
#
# Compressibility (1/GPa) = 0.02594041
#
# Stress axis : x y z
#
# Youngs Moduli (GPa) = 62.11506 38.25527 110.14102
#
# Poissons Ratio (x) = 0.07462 0.44522
# Poissons Ratio (y) = 0.12116 0.73753
# Poissons Ratio (z) = 0.25109 0.25617
#
# Static dielectric constant tensor:
#      x y z
#    x 1.878860 0.000000 0.000000 
#    y 0.000000 1.907490 0.000000 
#    z 0.000000 0.000000 1.828500 
# 
# From -- ./inp_files/1431.got.cif
#   From: 2010.05.17/outbox.cif.g08.bks.cpg/sg32_1_cif.got.tgz:1431.got - 2010.06.03 17:12:27.
