data_PCOD9344682
_publ_section_title
;
Structure prediction by ZEFSAII (Michael W. Deem and Ramdas Pophale) SiO2 
 PCOD9344682
Probable space group: P N A 21
;
_chemical_formula_sum "Si O2"
_cell_formula_units_Z 20
_cell_length_a 9.067711
_cell_length_b 7.963074
_cell_length_c 10.550705
_cell_angle_alpha 90.000000
_cell_angle_beta 90.000000
_cell_angle_gamma 90.000000
_cell_volume 761.833212
_symmetry_space_group_name_H-M "P N A 21"
_symmetry_group_IT_number 33
_symmetry_cell_setting 'orthorhombic'
loop_
_space_group_symop_operation_xyz
x,y,z
-x,-y,1/2+z
1/2-x,1/2+y,1/2+z
1/2+x,1/2-y,z
loop_
_atom_site_type_symbol
_atom_site_label
_atom_site_fract_x
_atom_site_fract_y
_atom_site_fract_z
Si Si1 0.299533 0.365309 0.989420
Si Si2 0.536391 0.573972 0.893774
Si Si3 0.748474 0.271625 0.254938
Si Si4 0.079857 0.624935 0.072509
Si Si5 0.547193 0.072063 0.841699
O O1 0.463132 0.399162 0.939836
O O2 0.192589 0.319570 0.873980
O O3 0.258893 0.249937 0.105929
O O4 0.240885 0.548131 0.041291
O O5 0.405414 0.655986 0.806132
O O6 0.689736 0.599447 0.818707
O O7 0.559608 0.691142 0.016516
O O8 0.873434 0.402693 0.292649
O O9 0.043714 0.624960 0.220007
O O10 0.987447 0.493011 0.979956
#
# Coordination Sequence:
#
# PCOD9344682 Si02
#       5
#     4   4   4   4   4
#     4   9  19  34  58  86 111 154 195 237 286 344
#     4  10  19  37  59  84 114 156 191 239 292 349
#     4  10  19  38  60  81 118 152 192 238 298 338
#     4   9  17  36  58  82 114 153 190 231 289 350
#     4   8  18  33  59  83 109 151 196 227 289 347
#
# _framework density 26.252465999999998
#
# number of rings (size 3 to 8) (size 9 to 14) (size 15 to 20)
#    1.200    1.600    2.000    2.400    0.000    0.000 
#    7.200    6.000    0.000    0.000    0.000    0.000 
#    0.000    0.000    0.000    0.000    0.000    0.000 
#
# Total GULP energy -111454.002362 kJ/mol
# GULP energy per Si atom -5572.700118 kJ/mol
# Density = 2.619271 g / cm^3
# Si number density = 26.252466 Si / 1000 Ang^3
#
#
#
# Elastic Constant Matrix: (Units=GPa)
#
#
# Indices 1 2 3 4 5 6 
#
# 1 48.4601 21.1569 16.5207 0.0000 0.0000 0.0000
# 2 21.1569 22.3442 20.9460 0.0000 0.0000 0.0000
# 3 16.5207 20.9460 148.5569 0.0000 0.0000 0.0000
# 4 0.0000 0.0000 0.0000 32.2049 0.0000 0.0000
# 5 0.0000 0.0000 0.0000 0.0000 26.8356 0.0000
# 6 0.0000 0.0000 0.0000 0.0000 0.0000 34.7152
#
#
#
# Elastic Compliance Matrix: (Units=1/GPa)
#
#
# Indices 1 2 3 4 5 6 
#
# 1 0.035283 -0.034258 0.000907 0.000000 0.000000 0.000000
# 2 -0.034258 0.084833 -0.008151 0.000000 0.000000 0.000000
# 3 0.000907 -0.008151 0.007780 0.000000 0.000000 0.000000
# 4 0.000000 0.000000 0.000000 0.031051 0.000000 0.000000
# 5 0.000000 0.000000 0.000000 0.000000 0.037264 0.000000
# 6 0.000000 0.000000 0.000000 0.000000 0.000000 0.028806
#
#
# Mechanical properties :
#
#
# Convention : Reuss Voigt Hill
#
# Bulk Modulus (GPa) = 22.27647 37.40095 29.83871
# Shear Modulus (GPa) = 15.48051 29.46696 22.47374
#
# Velocity S-wave (km/s) = 2.43096 3.35393 2.92903
# Velocity P-wave (km/s) = 4.04763 5.41073 4.77804
#
# Compressibility (1/GPa) = 0.04489042
#
# Stress axis : x y z
#
# Youngs Moduli (GPa) = 28.34226 11.78781 128.53560
#
# Poissons Ratio (x) = 0.40383 -0.11652
# Poissons Ratio (y) = 0.97095 1.04775
# Poissons Ratio (z) = -0.02569 0.09609
#
# Static dielectric constant tensor:
#      x y z
#    x 2.097560 0.000000 0.000000 
#    y 0.000000 2.189220 0.000000 
#    z 0.000000 0.000000 2.095680 
# 
# From -- ./inp_files/3728.got.cif
#   From: 2010.05.17/outbox.cif.g08.bks.cpg/sg33_2_cif.got.tgz:3728.got - 2010.06.03 17:15:25.
