data_PCOD9344896
_publ_section_title
;
Structure prediction by ZEFSAII (Michael W. Deem and Ramdas Pophale) SiO2 
 PCOD9344896
Probable space group: P N A 21
;
_chemical_formula_sum "Si O2"
_cell_formula_units_Z 32
_cell_length_a 14.838976
_cell_length_b 12.266271
_cell_length_c 7.543735
_cell_angle_alpha 90.000000
_cell_angle_beta 90.000000
_cell_angle_gamma 90.000000
_cell_volume 1373.102354
_symmetry_space_group_name_H-M "P N A 21"
_symmetry_group_IT_number 33
_symmetry_cell_setting 'orthorhombic'
loop_
_space_group_symop_operation_xyz
x,y,z
-x,-y,1/2+z
1/2-x,1/2+y,1/2+z
1/2+x,1/2-y,z
loop_
_atom_site_type_symbol
_atom_site_label
_atom_site_fract_x
_atom_site_fract_y
_atom_site_fract_z
Si Si1 0.323772 0.662543 0.457460
Si Si2 0.399865 0.458127 0.062861
Si Si3 0.679299 0.928167 0.691189
Si Si4 0.515551 0.053805 0.025744
Si Si5 0.788788 0.593559 0.506774
Si Si6 0.068755 0.691889 0.938183
Si Si7 0.508971 0.722251 0.309042
Si Si8 0.047806 0.127488 0.287984
O O1 0.239315 0.585934 0.513882
O O2 0.280107 0.781314 0.455458
O O3 0.405809 0.672738 0.313635
O O4 0.381218 0.642538 0.634839
O O5 0.297233 0.442552 0.117860
O O6 0.431883 0.357414 0.934854
O O7 0.409112 0.568784 0.954032
O O8 0.468814 0.452306 0.222976
O O9 0.577849 0.948378 0.627730
O O10 0.662379 0.825148 0.828612
O O11 0.710768 0.023121 0.824690
O O12 0.615493 0.077973 0.103434
O O13 0.503317 0.155339 0.889363
O O14 0.530646 0.928557 0.970828
O O15 0.000222 0.758663 0.817902
O O16 0.061080 0.758879 0.123108
#
# Coordination Sequence:
#
# PCOD9344896 Si02
#       8
#     4   4   4   4   4   4   4   4
#     4  10  20  39  64  96 130 185 226 277 350 410
#     4  11  22  42  66  95 130 178 223 270 342 420
#     4  11  21  40  67  96 132 180 229 281 351 411
#     4  10  21  39  66  94 129 177 222 276 345 405
#     4  10  20  36  67  93 128 171 227 281 327 408
#     4  11  21  38  64  95 130 173 225 284 342 407
#     4  10  22  38  65  97 136 176 223 283 344 415
#     4  11  23  40  69  92 137 178 219 278 343 416
#
# _framework density 23.30489
#
# number of rings (size 3 to 8) (size 9 to 14) (size 15 to 20)
#    0.000    1.500    1.250    6.750    0.000    1.000 
#    0.000    5.000   44.000    0.000    0.000    0.000 
#    0.000    0.000    0.000    0.000    0.000    0.000 
#
# Total GULP energy -178358.037667 kJ/mol
# GULP energy per Si atom -5573.688677 kJ/mol
# Density = 2.325185 g / cm^3
# Si number density = 23.304890 Si / 1000 Ang^3
#
#
#
# Elastic Constant Matrix: (Units=GPa)
#
#
# Indices 1 2 3 4 5 6 
#
# 1 87.0927 7.0746 21.5412 0.0000 0.0000 0.0000
# 2 7.0746 83.0954 9.4315 0.0000 0.0000 0.0000
# 3 21.5412 9.4315 59.1293 0.0000 0.0000 0.0000
# 4 0.0000 0.0000 0.0000 22.2325 0.0000 0.0000
# 5 0.0000 0.0000 0.0000 0.0000 20.8703 0.0000
# 6 0.0000 0.0000 0.0000 0.0000 0.0000 23.6911
#
#
#
# Elastic Compliance Matrix: (Units=1/GPa)
#
#
# Indices 1 2 3 4 5 6 
#
# 1 0.012645 -0.000564 -0.004517 0.000000 0.000000 0.000000
# 2 -0.000564 0.012281 -0.001754 0.000000 0.000000 0.000000
# 3 -0.004517 -0.001754 0.018837 0.000000 0.000000 0.000000
# 4 0.000000 0.000000 0.000000 0.044979 0.000000 0.000000
# 5 0.000000 0.000000 0.000000 0.000000 0.047915 0.000000
# 6 0.000000 0.000000 0.000000 0.000000 0.000000 0.042210
#
#
# Mechanical properties :
#
#
# Convention : Reuss Voigt Hill
#
# Bulk Modulus (GPa) = 33.22773 33.93467 33.58120
# Shear Modulus (GPa) = 24.68309 26.11012 25.39660
#
# Velocity S-wave (km/s) = 3.25797 3.35083 3.30472
# Velocity P-wave (km/s) = 5.33304 5.43723 5.38539
#
# Compressibility (1/GPa) = 0.03009535
#
# Stress axis : x y z
#
# Youngs Moduli (GPa) = 79.08280 81.42395 53.08630
#
# Poissons Ratio (x) = 0.04592 0.23978
# Poissons Ratio (y) = 0.04460 0.09309
# Poissons Ratio (z) = 0.35719 0.14278
#
# Static dielectric constant tensor:
#      x y z
#    x 1.912850 0.000000 0.000000 
#    y 0.000000 1.912220 0.000000 
#    z 0.000000 0.000000 1.990610 
# 
# From -- ./inp_files/4445.got.cif
#   From: 2010.05.17/outbox.cif.g08.bks.cpg/sg33_3_cif.got.tgz:4445.got - 2010.06.03 17:15:25.
