data_PCOD9344171
_publ_section_title
;
Structure prediction by ZEFSAII (Michael W. Deem and Ramdas Pophale) SiO2 
 PCOD9344171
Probable space group: P B A 2
;
_chemical_formula_sum "Si O2"
_cell_formula_units_Z 16
_cell_length_a 10.185152
_cell_length_b 8.571933
_cell_length_c 8.079202
_cell_angle_alpha 90.000000
_cell_angle_beta 90.000000
_cell_angle_gamma 90.000000
_cell_volume 705.366369
_symmetry_space_group_name_H-M "P B A 2"
_symmetry_group_IT_number 32
_symmetry_cell_setting 'orthorhombic'
loop_
_space_group_symop_operation_xyz
x,y,z
-x,-y,z
1/2-x,1/2+y,z
1/2+x,1/2-y,z
loop_
_atom_site_type_symbol
_atom_site_label
_atom_site_fract_x
_atom_site_fract_y
_atom_site_fract_z
Si Si1 0.116918 0.120994 0.614520
Si Si2 0.794166 0.592851 0.808222
Si Si3 0.349842 0.182870 0.038303
Si Si4 0.575380 0.334645 0.235097
O O1 0.119374 0.265710 0.739880
O O2 0.243296 0.014886 0.657644
O O3 0.107943 0.184212 0.428623
O O4 0.000000 0.000000 0.638539
O O5 0.674799 0.675855 0.908052
O O6 0.859153 0.474854 0.934981
O O7 0.971132 0.285087 0.158169
O O8 0.212463 0.172011 0.138491
O O9 0.500000 0.500000 0.218499
#
# Coordination Sequence:
#
# PCOD9344171 Si02
#       4
#     4   4   4   4
#     4  10  25  46  75 102 153 193 248 308 374 445
#     4  10  24  45  75 106 145 196 250 302 376 446
#     4  11  24  46  75 108 147 194 250 307 379 443
#     4  11  25  47  73 108 153 196 243 315 376 452
#
# _framework density 22.683247999999999
#
# number of rings (size 3 to 8) (size 9 to 14) (size 15 to 20)
#    0.000    1.500    2.500    0.000   14.000    1.000 
#    4.500    0.000    0.000    0.000    0.000    0.000 
#    0.000    0.000    0.000    0.000    0.000    0.000 
#
# Total GULP energy -89538.957852 kJ/mol
# GULP energy per Si atom -5596.184866 kJ/mol
# Density = 2.263162 g / cm^3
# Si number density = 22.683248 Si / 1000 Ang^3
#
#
#
# Elastic Constant Matrix: (Units=GPa)
#
#
# Indices 1 2 3 4 5 6 
#
# 1 137.7294 38.3095 82.1411 0.0000 0.0000 0.0000
# 2 38.3095 130.2055 76.0819 0.0000 0.0000 0.0000
# 3 82.1411 76.0819 167.9663 0.0000 0.0000 0.0000
# 4 0.0000 0.0000 0.0000 43.6445 0.0000 0.0000
# 5 0.0000 0.0000 0.0000 0.0000 39.3502 0.0000
# 6 0.0000 0.0000 0.0000 0.0000 0.0000 30.8975
#
#
#
# Elastic Compliance Matrix: (Units=1/GPa)
#
#
# Indices 1 2 3 4 5 6 
#
# 1 0.010251 -0.000118 -0.004960 0.000000 0.000000 0.000000
# 2 -0.000118 0.010446 -0.004674 0.000000 0.000000 0.000000
# 3 -0.004960 -0.004674 0.010496 0.000000 0.000000 0.000000
# 4 0.000000 0.000000 0.000000 0.022912 0.000000 0.000000
# 5 0.000000 0.000000 0.000000 0.000000 0.025413 0.000000
# 6 0.000000 0.000000 0.000000 0.000000 0.000000 0.032365
#
#
# Mechanical properties :
#
#
# Convention : Reuss Voigt Hill
#
# Bulk Modulus (GPa) = 85.54271 92.10736 88.82504
# Shear Modulus (GPa) = 36.95927 38.73636 37.84781
#
# Velocity S-wave (km/s) = 4.04092 4.13693 4.08920
# Velocity P-wave (km/s) = 7.71788 7.96950 7.84470
#
# Compressibility (1/GPa) = 0.01169007
#
# Stress axis : x y z
#
# Youngs Moduli (GPa) = 97.54696 95.73104 95.27306
#
# Poissons Ratio (x) = 0.01130 0.47254
# Poissons Ratio (y) = 0.01152 0.44529
# Poissons Ratio (z) = 0.48382 0.44743
#
# Static dielectric constant tensor:
#      x y z
#    x 1.859630 0.000000 0.000000 
#    y 0.000000 1.834030 0.000000 
#    z 0.000000 0.000000 1.832280 
# 
# From -- ./inp_files/2642.got.cif
#   From: 2010.05.17/outbox.cif.g08.bks.cpg/sg32_2_cif.got.tgz:2642.got - 2010.06.03 17:12:27.
