data_PCOD9344471
_publ_section_title
;
Structure prediction by ZEFSAII (Michael W. Deem and Ramdas Pophale) SiO2 
 PCOD9344471
Probable space group: P N A 21
;
_chemical_formula_sum "Si O2"
_cell_formula_units_Z 28
_cell_length_a 5.432067
_cell_length_b 8.537272
_cell_length_c 26.916344
_cell_angle_alpha 90.000000
_cell_angle_beta 90.000000
_cell_angle_gamma 90.000000
_cell_volume 1248.246355
_symmetry_space_group_name_H-M "P N A 21"
_symmetry_group_IT_number 33
_symmetry_cell_setting 'orthorhombic'
loop_
_space_group_symop_operation_xyz
x,y,z
-x,-y,1/2+z
1/2-x,1/2+y,1/2+z
1/2+x,1/2-y,z
loop_
_atom_site_type_symbol
_atom_site_label
_atom_site_fract_x
_atom_site_fract_y
_atom_site_fract_z
Si Si1 0.262913 0.196365 0.111990
Si Si2 0.338453 0.560484 0.944566
Si Si3 0.635004 0.162646 0.600438
Si Si4 0.916801 0.158740 0.858354
Si Si5 0.824128 0.803600 0.723298
Si Si6 0.338124 0.907111 0.984033
Si Si7 0.591128 0.659071 0.239074
O O1 0.495201 0.282739 0.087568
O O2 0.219704 0.263662 0.167692
O O3 0.335292 0.015875 0.116762
O O4 0.374537 0.499224 0.889159
O O5 0.325674 0.748427 0.951000
O O6 0.579085 0.509068 0.975480
O O7 0.081109 0.501781 0.967380
O O8 0.376990 0.239940 0.615612
O O9 0.634414 0.150446 0.540334
O O10 0.684043 0.269838 0.871126
O O11 0.909961 0.139705 0.798998
O O12 0.556125 0.783075 0.747921
O O13 0.894603 0.984242 0.718784
O O14 0.338916 0.746944 0.225368
#
# Coordination Sequence:
#
# PCOD9344471 Si02
#       7
#     4   4   4   4   4   4   4
#     4  10  23  41  59  86 123 156 185 241 298 352
#     4  10  18  35  54  75 105 145 181 224 291 315
#     4  12  21  38  63  85 116 150 200 245 291 337
#     4  10  21  37  54  80 115 150 184 232 283 342
#     4  10  21  40  61  86 122 153 192 237 292 348
#     4  10  19  35  56  74 107 141 180 247 272 315
#     4  10  21  38  61  86 122 153 192 242 289 345
#
# _framework density 22.431469
#
# number of rings (size 3 to 8) (size 9 to 14) (size 15 to 20)
#    0.000    1.714    2.857    2.571    0.000    1.143 
#    5.143    4.286    0.000    0.000    0.000    0.000 
#    0.000    0.000    0.000    0.000    0.000    0.000 
#
# Total GULP energy -156337.544248 kJ/mol
# GULP energy per Si atom -5583.483723 kJ/mol
# Density = 2.238041 g / cm^3
# Si number density = 22.431469 Si / 1000 Ang^3
#
#
#
# Elastic Constant Matrix: (Units=GPa)
#
#
# Indices 1 2 3 4 5 6 
#
# 1 196.9544 24.5093 9.6476 0.0000 0.0000 0.0000
# 2 24.5093 76.7942 12.6818 0.0000 0.0000 0.0000
# 3 9.6476 12.6818 38.3291 0.0000 0.0000 0.0000
# 4 0.0000 0.0000 0.0000 33.9317 0.0000 0.0000
# 5 0.0000 0.0000 0.0000 0.0000 16.8397 0.0000
# 6 0.0000 0.0000 0.0000 0.0000 0.0000 35.0997
#
#
#
# Elastic Compliance Matrix: (Units=1/GPa)
#
#
# Indices 1 2 3 4 5 6 
#
# 1 0.005312 -0.001560 -0.000821 0.000000 0.000000 0.000000
# 2 -0.001560 0.014232 -0.004316 0.000000 0.000000 0.000000
# 3 -0.000821 -0.004316 0.027725 0.000000 0.000000 0.000000
# 4 0.000000 0.000000 0.000000 0.029471 0.000000 0.000000
# 5 0.000000 0.000000 0.000000 0.000000 0.059383 0.000000
# 6 0.000000 0.000000 0.000000 0.000000 0.000000 0.028490
#
#
# Mechanical properties :
#
#
# Convention : Reuss Voigt Hill
#
# Bulk Modulus (GPa) = 29.52066 45.08390 37.30228
# Shear Modulus (GPa) = 26.41325 34.85681 30.63503
#
# Velocity S-wave (km/s) = 3.43521 3.94626 3.69957
# Velocity P-wave (km/s) = 5.37802 6.39579 5.90886
#
# Compressibility (1/GPa) = 0.03387458
#
# Stress axis : x y z
#
# Youngs Moduli (GPa) = 188.26656 70.26213 36.06904
#
# Poissons Ratio (x) = 0.10959 0.02961
# Poissons Ratio (y) = 0.29363 0.15569
# Poissons Ratio (z) = 0.15455 0.30328
#
# Static dielectric constant tensor:
#      x y z
#    x 1.967340 0.000000 0.000000 
#    y 0.000000 1.777460 0.000000 
#    z 0.000000 0.000000 1.829780 
# 
# From -- ./inp_files/9324.got.cif
#   From: 2010.05.17/outbox.cif.g08.bks.cpg/sg33_5_cif.got.tgz:9324.got - 2010.06.03 17:15:25.
