data_PCOD9344169
_publ_section_title
;
Structure prediction by ZEFSAII (Michael W. Deem and Ramdas Pophale) SiO2 
 PCOD9344169
Probable space group: P B A 2
;
_chemical_formula_sum "Si O2"
_cell_formula_units_Z 20
_cell_length_a 8.104606
_cell_length_b 11.460779
_cell_length_c 8.171730
_cell_angle_alpha 90.000000
_cell_angle_beta 90.000000
_cell_angle_gamma 90.000000
_cell_volume 759.031944
_symmetry_space_group_name_H-M "P B A 2"
_symmetry_group_IT_number 32
_symmetry_cell_setting 'orthorhombic'
loop_
_space_group_symop_operation_xyz
x,y,z
-x,-y,z
1/2-x,1/2+y,z
1/2+x,1/2-y,z
loop_
_atom_site_type_symbol
_atom_site_label
_atom_site_fract_x
_atom_site_fract_y
_atom_site_fract_z
Si Si1 0.725192 0.841229 0.594880
Si Si2 0.500000 0.000000 0.366594
Si Si3 0.791308 0.141969 0.343285
Si Si4 0.064462 0.129967 0.059032
Si Si5 0.000000 0.000000 0.597734
Si Si6 0.926294 0.368275 0.937664
O O1 0.601523 0.918139 0.487289
O O2 0.772553 0.748917 0.454240
O O3 0.888820 0.900383 0.672331
O O4 0.629470 0.817713 0.760654
O O5 0.369260 0.921350 0.269974
O O6 0.942704 0.146013 0.217062
O O7 0.867668 0.062457 0.484657
O O8 0.264465 0.121086 0.056546
O O9 0.041968 0.261034 0.989000
O O10 0.000000 0.000000 0.996935
O O11 0.000000 0.500000 0.916787
#
# Coordination Sequence:
#
# PCOD9344169 Si02
#       6
#     4   2   4   4   2   4
#     4  11  25  47  84 118 165 223 285 362 436 514
#     4  10  24  44  82 118 164 210 298 354 430 500
#     4  11  25  48  79 121 163 230 281 368 428 515
#     4  12  30  54  83 123 179 236 289 355 443 530
#     4  10  24  44  76 112 164 210 292 348 428 496
#     4  12  30  56  84 128 175 237 290 360 445 541
#
# _framework density 26.349352
#
# number of rings (size 3 to 8) (size 9 to 14) (size 15 to 20)
#    0.000    0.800    2.000    2.400   12.600    1.600 
#    3.600    0.000    0.000    0.000    0.000    0.000 
#    0.000    0.000    0.000    0.000    0.000    0.000 
#
# Total GULP energy -111501.007992 kJ/mol
# GULP energy per Si atom -5575.050400 kJ/mol
# Density = 2.628938 g / cm^3
# Si number density = 26.349352 Si / 1000 Ang^3
#
#
#
# Elastic Constant Matrix: (Units=GPa)
#
#
# Indices 1 2 3 4 5 6 
#
# 1 134.8294 63.5741 19.9643 0.0000 0.0000 0.0000
# 2 63.5741 152.0190 34.0390 0.0000 0.0000 0.0000
# 3 19.9643 34.0390 84.8852 0.0000 0.0000 0.0000
# 4 0.0000 0.0000 0.0000 38.0089 0.0000 0.0000
# 5 0.0000 0.0000 0.0000 0.0000 31.6837 0.0000
# 6 0.0000 0.0000 0.0000 0.0000 0.0000 56.0063
#
#
#
# Elastic Compliance Matrix: (Units=1/GPa)
#
#
# Indices 1 2 3 4 5 6 
#
# 1 0.009275 -0.003725 -0.000688 0.000000 0.000000 0.000000
# 2 -0.003725 0.008723 -0.002622 0.000000 0.000000 0.000000
# 3 -0.000688 -0.002622 0.012994 0.000000 0.000000 0.000000
# 4 0.000000 0.000000 0.000000 0.026310 0.000000 0.000000
# 5 0.000000 0.000000 0.000000 0.000000 0.031562 0.000000
# 6 0.000000 0.000000 0.000000 0.000000 0.000000 0.017855
#
#
# Mechanical properties :
#
#
# Convention : Reuss Voigt Hill
#
# Bulk Modulus (GPa) = 59.09188 67.43204 63.26196
# Shear Modulus (GPa) = 39.54826 42.08354 40.81590
#
# Velocity S-wave (km/s) = 3.87837 4.00076 3.94004
# Velocity P-wave (km/s) = 6.52156 6.85481 6.69026
#
# Compressibility (1/GPa) = 0.01692280
#
# Stress axis : x y z
#
# Youngs Moduli (GPa) = 107.81802 114.64115 76.96021
#
# Poissons Ratio (x) = 0.42701 0.05293
# Poissons Ratio (y) = 0.40159 0.20178
# Poissons Ratio (z) = 0.07415 0.30057
#
# Static dielectric constant tensor:
#      x y z
#    x 2.095730 0.000000 0.000000 
#    y 0.000000 2.073940 0.000000 
#    z 0.000000 0.000000 2.069710 
# 
# From -- ./inp_files/2215.got.cif
#   From: 2010.05.17/outbox.cif.g08.bks.cpg/sg32_2_cif.got.tgz:2215.got - 2010.06.03 17:12:27.
