data_PCOD9344570
_publ_section_title
;
Structure prediction by ZEFSAII (Michael W. Deem and Ramdas Pophale) SiO2 
 PCOD9344570
Probable space group: P N A 21
;
_chemical_formula_sum "Si O2"
_cell_formula_units_Z 28
_cell_length_a 14.664690
_cell_length_b 9.670526
_cell_length_c 7.928218
_cell_angle_alpha 90.000000
_cell_angle_beta 90.000000
_cell_angle_gamma 90.000000
_cell_volume 1124.342344
_symmetry_space_group_name_H-M "P N A 21"
_symmetry_group_IT_number 33
_symmetry_cell_setting 'orthorhombic'
loop_
_space_group_symop_operation_xyz
x,y,z
-x,-y,1/2+z
1/2-x,1/2+y,1/2+z
1/2+x,1/2-y,z
loop_
_atom_site_type_symbol
_atom_site_label
_atom_site_fract_x
_atom_site_fract_y
_atom_site_fract_z
Si Si1 0.496031 0.395693 0.535550
Si Si2 0.175032 0.446831 0.783101
Si Si3 0.218574 0.379385 0.164377
Si Si4 0.255564 0.185167 0.798343
Si Si5 0.842301 0.886446 0.649162
Si Si6 0.916219 0.275079 0.225228
Si Si7 0.056287 0.839211 0.383600
O O1 0.418135 0.507435 0.587006
O O2 0.458229 0.290294 0.395658
O O3 0.512204 0.336357 0.723703
O O4 0.567058 0.500389 0.446168
O O5 0.192921 0.296461 0.698041
O O6 0.267170 0.529280 0.748215
O O7 0.099293 0.560050 0.736931
O O8 0.178440 0.416110 0.980332
O O9 0.227149 0.532142 0.236362
O O10 0.149666 0.263454 0.239400
O O11 0.319774 0.309069 0.193173
O O12 0.352200 0.262956 0.822308
O O13 0.208376 0.157880 0.976911
O O14 0.971152 0.241302 0.053754
#
# Coordination Sequence:
#
# PCOD9344570 Si02
#       7
#     4   4   4   4   4   4   4
#     4  12  23  39  64  88 127 169 205 262 314 373
#     4  10  19  33  58  90 119 146 199 261 300 362
#     4  10  20  35  62  89 121 153 204 254 315 375
#     4  11  20  36  61  92 119 157 206 255 314 376
#     4  10  20  36  58  86 123 153 202 257 306 360
#     4  11  21  39  61  95 122 156 206 262 311 367
#     4  12  23  38  62  92 121 164 218 249 312 383
#
# _framework density 24.903448000000001
#
# number of rings (size 3 to 8) (size 9 to 14) (size 15 to 20)
#    0.000    1.143    8.571    0.857    0.000    0.000 
#    0.000    0.000    6.286    0.000    0.000    0.000 
#    0.000    0.000    0.000    0.000    0.000    0.000 
#
# Total GULP energy -156049.312145 kJ/mol
# GULP energy per Si atom -5573.189719 kJ/mol
# Density = 2.484677 g / cm^3
# Si number density = 24.903448 Si / 1000 Ang^3
#
#
#
# Elastic Constant Matrix: (Units=GPa)
#
#
# Indices 1 2 3 4 5 6 
#
# 1 61.7031 28.2398 9.3573 0.0000 0.0000 0.0000
# 2 28.2398 178.4185 20.6758 0.0000 0.0000 0.0000
# 3 9.3573 20.6758 109.1548 0.0000 0.0000 0.0000
# 4 0.0000 0.0000 0.0000 33.0594 0.0000 0.0000
# 5 0.0000 0.0000 0.0000 0.0000 12.0014 0.0000
# 6 0.0000 0.0000 0.0000 0.0000 0.0000 56.8391
#
#
#
# Elastic Compliance Matrix: (Units=1/GPa)
#
#
# Indices 1 2 3 4 5 6 
#
# 1 0.017579 -0.002666 -0.001002 0.000000 0.000000 0.000000
# 2 -0.002666 0.006135 -0.000934 0.000000 0.000000 0.000000
# 3 -0.001002 -0.000934 0.009424 0.000000 0.000000 0.000000
# 4 0.000000 0.000000 0.000000 0.030249 0.000000 0.000000
# 5 0.000000 0.000000 0.000000 0.000000 0.083323 0.000000
# 6 0.000000 0.000000 0.000000 0.000000 0.000000 0.017594
#
#
# Mechanical properties :
#
#
# Convention : Reuss Voigt Hill
#
# Bulk Modulus (GPa) = 41.78068 51.75803 46.76935
# Shear Modulus (GPa) = 27.55051 39.78021 33.66536
#
# Velocity S-wave (km/s) = 3.32971 4.00106 3.68072
# Velocity P-wave (km/s) = 5.62104 6.49409 6.07327
#
# Compressibility (1/GPa) = 0.02393451
#
# Stress axis : x y z
#
# Youngs Moduli (GPa) = 56.88650 162.99950 106.11188
#
# Poissons Ratio (x) = 0.43460 0.10632
# Poissons Ratio (y) = 0.15167 0.09906
# Poissons Ratio (z) = 0.05700 0.15216
#
# Static dielectric constant tensor:
#      x y z
#    x 2.092270 0.000000 0.000000 
#    y 0.000000 2.244760 0.000000 
#    z 0.000000 0.000000 2.087610 
# 
# From -- ./inp_files/4727.got.cif
#   From: 2010.05.17/outbox.cif.g08.bks.cpg/sg33_3_cif.got.tgz:4727.got - 2010.06.03 17:15:25.
