data_PCOD9344496
_publ_section_title
;
Structure prediction by ZEFSAII (Michael W. Deem and Ramdas Pophale) SiO2 
 PCOD9344496
Probable space group: P N A 21
;
_chemical_formula_sum "Si O2"
_cell_formula_units_Z 16
_cell_length_a 5.993259
_cell_length_b 12.755305
_cell_length_c 7.447882
_cell_angle_alpha 90.000000
_cell_angle_beta 90.000000
_cell_angle_gamma 90.000000
_cell_volume 569.359644
_symmetry_space_group_name_H-M "P N A 21"
_symmetry_group_IT_number 33
_symmetry_cell_setting 'orthorhombic'
loop_
_space_group_symop_operation_xyz
x,y,z
-x,-y,1/2+z
1/2-x,1/2+y,1/2+z
1/2+x,1/2-y,z
loop_
_atom_site_type_symbol
_atom_site_label
_atom_site_fract_x
_atom_site_fract_y
_atom_site_fract_z
Si Si1 0.307270 0.671612 0.376130
Si Si2 0.557827 0.026170 0.711004
Si Si3 0.793082 0.097041 0.013924
Si Si4 0.392626 0.771332 0.989260
O O1 0.097387 0.601757 0.332528
O O2 0.242032 0.782617 0.456750
O O3 0.441187 0.604511 0.524671
O O4 0.402261 0.699723 0.175140
O O5 0.386705 0.935603 0.658864
O O6 0.760353 0.015018 0.848699
O O7 0.616786 0.107070 0.552006
O O8 0.644114 0.753401 0.907452
#
# Coordination Sequence:
#
# PCOD9344496 Si02
#       4
#     4   4   4   4
#     4  10  18  37  59  86 124 167 204 259 330 383
#     4  10  21  34  63  94 116 166 221 259 324 405
#     4  11  20  39  65  88 123 167 211 271 330 386
#     4   9  15  32  57  82 117 162 206 257 316 378
#
# _framework density 28.101745999999999
#
# number of rings (size 3 to 8) (size 9 to 14) (size 15 to 20)
#    0.000    2.000   10.000    0.000    0.000    2.000 
#    0.000    0.000   16.500    0.000    0.000    0.000 
#    0.000    0.000    0.000    0.000    0.000    0.000 
#
# Total GULP energy -89222.472529 kJ/mol
# GULP energy per Si atom -5576.404533 kJ/mol
# Density = 2.803779 g / cm^3
# Si number density = 28.101746 Si / 1000 Ang^3
#
#
#
# Elastic Constant Matrix: (Units=GPa)
#
#
# Indices 1 2 3 4 5 6 
#
# 1 79.0658 -5.5841 6.8829 0.0000 0.0000 0.0000
# 2 -5.5841 62.1583 14.4555 0.0000 0.0000 0.0000
# 3 6.8829 14.4555 82.4079 0.0000 0.0000 0.0000
# 4 0.0000 0.0000 0.0000 42.4939 0.0000 0.0000
# 5 0.0000 0.0000 0.0000 0.0000 37.3571 0.0000
# 6 0.0000 0.0000 0.0000 0.0000 0.0000 22.2981
#
#
#
# Elastic Compliance Matrix: (Units=1/GPa)
#
#
# Indices 1 2 3 4 5 6 
#
# 1 0.012867 0.001466 -0.001332 0.000000 0.000000 0.000000
# 2 0.001466 0.016939 -0.003094 0.000000 0.000000 0.000000
# 3 -0.001332 -0.003094 0.012789 0.000000 0.000000 0.000000
# 4 0.000000 0.000000 0.000000 0.023533 0.000000 0.000000
# 5 0.000000 0.000000 0.000000 0.000000 0.026769 0.000000
# 6 0.000000 0.000000 0.000000 0.000000 0.000000 0.044847
#
#
# Mechanical properties :
#
#
# Convention : Reuss Voigt Hill
#
# Bulk Modulus (GPa) = 27.26641 28.34895 27.80768
# Shear Modulus (GPa) = 32.07428 34.28833 33.18131
#
# Velocity S-wave (km/s) = 3.38207 3.49685 3.43994
# Velocity P-wave (km/s) = 4.99750 5.13944 5.06897
#
# Compressibility (1/GPa) = 0.03667516
#
# Stress axis : x y z
#
# Youngs Moduli (GPa) = 77.71727 59.03491 78.19413
#
# Poissons Ratio (x) = -0.08653 0.10414
# Poissons Ratio (y) = -0.11391 0.24192
# Poissons Ratio (z) = 0.10350 0.18264
#
# Static dielectric constant tensor:
#      x y z
#    x 2.445990 0.000000 0.000000 
#    y 0.000000 2.131470 0.000000 
#    z 0.000000 0.000000 2.470400 
# 
# From -- ./inp_files/2602.got.cif
#   From: 2010.05.17/outbox.cif.g08.bks.cpg/sg33_2_cif.got.tgz:2602.got - 2010.06.03 17:15:25.
