data_PCOD9344445
_publ_section_title
;
Structure prediction by ZEFSAII (Michael W. Deem and Ramdas Pophale) SiO2 
 PCOD9344445
Probable space group: P N A 21
;
_chemical_formula_sum "Si O2"
_cell_formula_units_Z 24
_cell_length_a 8.188343
_cell_length_b 7.764471
_cell_length_c 15.159489
_cell_angle_alpha 90.000000
_cell_angle_beta 90.000000
_cell_angle_gamma 90.000000
_cell_volume 963.812292
_symmetry_space_group_name_H-M "P N A 21"
_symmetry_group_IT_number 33
_symmetry_cell_setting 'orthorhombic'
loop_
_space_group_symop_operation_xyz
x,y,z
-x,-y,1/2+z
1/2-x,1/2+y,1/2+z
1/2+x,1/2-y,z
loop_
_atom_site_type_symbol
_atom_site_label
_atom_site_fract_x
_atom_site_fract_y
_atom_site_fract_z
Si Si1 0.165472 0.406373 0.684190
Si Si2 0.393714 0.428581 0.340366
Si Si3 0.938649 0.008462 0.002709
Si Si4 0.947590 0.831589 0.669027
Si Si5 0.370022 0.181687 0.574283
Si Si6 0.031237 0.436602 0.312874
O O1 0.038379 0.401778 0.603609
O O2 0.083494 0.409842 0.780716
O O3 0.273328 0.577010 0.675219
O O4 0.280613 0.244758 0.663932
O O5 0.517131 0.535678 0.401260
O O6 0.441342 0.442225 0.237390
O O7 0.204391 0.468407 0.357562
O O8 0.433520 0.222964 0.356636
O O9 0.070650 0.859803 0.029662
O O10 0.758676 0.933407 0.021181
O O11 0.978498 0.158684 0.072019
O O12 0.926762 0.651130 0.717631
#
# Coordination Sequence:
#
# PCOD9344445 Si02
#       6
#     4   4   4   4   4   4
#     4  10  18  35  53  84 120 151 199 234 291 351
#     4  10  19  31  56  89 116 149 194 240 295 345
#     4  10  18  34  52  86 119 143 198 246 288 352
#     4   9  19  33  52  87 117 148 192 242 295 348
#     4   9  20  30  53  85 110 157 196 237 291 345
#     4  10  18  33  54  89 116 152 195 243 292 347
#
# _framework density 24.901114
#
# number of rings (size 3 to 8) (size 9 to 14) (size 15 to 20)
#    1.000    1.333    1.667    2.000    0.000    0.000 
#    0.000    0.000    0.000    0.000  173.333    0.000 
#    0.000    0.000    0.000    0.000    0.000    0.000 
#
# Total GULP energy -133946.777074 kJ/mol
# GULP energy per Si atom -5581.115711 kJ/mol
# Density = 2.484444 g / cm^3
# Si number density = 24.901114 Si / 1000 Ang^3
#
#
#
# Elastic Constant Matrix: (Units=GPa)
#
#
# Indices 1 2 3 4 5 6 
#
# 1 107.1206 -1.3838 -6.2352 0.0000 0.0000 0.0000
# 2 -1.3838 29.9411 6.9003 0.0000 0.0000 0.0000
# 3 -6.2352 6.9003 58.3433 0.0000 0.0000 0.0000
# 4 0.0000 0.0000 0.0000 27.4544 0.0000 0.0000
# 5 0.0000 0.0000 0.0000 0.0000 30.7933 0.0000
# 6 0.0000 0.0000 0.0000 0.0000 0.0000 25.8507
#
#
#
# Elastic Compliance Matrix: (Units=1/GPa)
#
#
# Indices 1 2 3 4 5 6 
#
# 1 0.009395 0.000209 0.000979 0.000000 0.000000 0.000000
# 2 0.000209 0.034339 -0.004039 0.000000 0.000000 0.000000
# 3 0.000979 -0.004039 0.017722 0.000000 0.000000 0.000000
# 4 0.000000 0.000000 0.000000 0.036424 0.000000 0.000000
# 5 0.000000 0.000000 0.000000 0.000000 0.032475 0.000000
# 6 0.000000 0.000000 0.000000 0.000000 0.000000 0.038684
#
#
# Mechanical properties :
#
#
# Convention : Reuss Voigt Hill
#
# Bulk Modulus (GPa) = 17.93584 21.55195 19.74389
# Shear Modulus (GPa) = 25.86303 29.89459 27.87881
#
# Velocity S-wave (km/s) = 3.22627 3.46863 3.34964
# Velocity P-wave (km/s) = 4.59314 4.97148 4.78605
#
# Compressibility (1/GPa) = 0.05575430
#
# Stress axis : x y z
#
# Youngs Moduli (GPa) = 106.43985 29.12106 56.42605
#
# Poissons Ratio (x) = -0.00607 -0.05526
# Poissons Ratio (y) = -0.02219 0.22791
# Poissons Ratio (z) = -0.10425 0.11762
#
# Static dielectric constant tensor:
#      x y z
#    x 1.991910 0.000000 0.000000 
#    y 0.000000 2.040290 0.000000 
#    z 0.000000 0.000000 2.062850 
# 
# From -- ./inp_files/8503.got.cif
#   From: 2010.05.17/outbox.cif.g08.bks.cpg/sg33_5_cif.got.tgz:8503.got - 2010.06.03 17:15:25.
