data_PCOD9344238
_publ_section_title
;
Structure prediction by ZEFSAII (Michael W. Deem and Ramdas Pophale) SiO2 
 PCOD9344238
Probable space group: P B A 2
;
_chemical_formula_sum "Si O2"
_cell_formula_units_Z 24
_cell_length_a 9.055351
_cell_length_b 18.264487
_cell_length_c 7.070776
_cell_angle_alpha 90.000000
_cell_angle_beta 90.000000
_cell_angle_gamma 90.000000
_cell_volume 1169.445122
_symmetry_space_group_name_H-M "P B A 2"
_symmetry_group_IT_number 32
_symmetry_cell_setting 'orthorhombic'
loop_
_space_group_symop_operation_xyz
x,y,z
-x,-y,z
1/2-x,1/2+y,z
1/2+x,1/2-y,z
loop_
_atom_site_type_symbol
_atom_site_label
_atom_site_fract_x
_atom_site_fract_y
_atom_site_fract_z
Si Si1 0.810315 0.944367 0.254340
Si Si2 0.372774 0.449600 0.603582
Si Si3 0.851241 0.347759 0.558442
Si Si4 0.145011 0.280245 0.428775
Si Si5 0.833675 0.478197 0.859674
Si Si6 0.564046 0.657746 0.320130
O O1 0.702956 0.888338 0.366193
O O2 0.966954 0.903815 0.217095
O O3 0.828729 0.009298 0.407672
O O4 0.744939 0.967911 0.057910
O O5 0.500000 0.500000 0.689928
O O6 0.239005 0.455177 0.743390
O O7 0.436650 0.372541 0.538255
O O8 0.748758 0.274372 0.554667
O O9 0.822450 0.405097 0.728216
O O10 0.025153 0.328321 0.542612
O O11 0.263067 0.324436 0.299780
O O12 0.034890 0.229797 0.306205
O O13 0.000000 0.500000 0.893202
#
# Coordination Sequence:
#
# PCOD9344238 Si02
#       6
#     4   4   4   4   4   4
#     4   9  20  36  54  81 113 145 185 229 279 337
#     4   9  19  36  57  80 110 146 183 231 283 333
#     4   9  19  37  56  80 112 144 187 231 276 336
#     4   9  17  33  59  78 103 148 184 225 277 326
#     4  11  22  35  56  86 115 145 184 232 285 338
#     4   9  17  33  55  79 105 140 183 224 274 326
#
# _framework density 20.522554
#
# number of rings (size 3 to 8) (size 9 to 14) (size 15 to 20)
#    0.000    2.667    0.000    2.000    0.000    6.000 
#    0.000    6.667    0.000    6.000    0.000    0.000 
#    0.000    0.000    0.000    0.000    0.000    0.000 
#
# Total GULP energy -133633.349154 kJ/mol
# GULP energy per Si atom -5568.056215 kJ/mol
# Density = 2.047584 g / cm^3
# Si number density = 20.522554 Si / 1000 Ang^3
#
#
#
# Elastic Constant Matrix: (Units=GPa)
#
#
# Indices 1 2 3 4 5 6 
#
# 1 152.7878 21.8072 31.3049 0.0000 0.0000 0.0000
# 2 21.8072 41.5517 5.6537 0.0000 0.0000 0.0000
# 3 31.3049 5.6537 61.2649 0.0000 0.0000 0.0000
# 4 0.0000 0.0000 0.0000 -1.1740 0.0000 0.0000
# 5 0.0000 0.0000 0.0000 0.0000 25.7633 0.0000
# 6 0.0000 0.0000 0.0000 0.0000 0.0000 45.9711
#
#
#
# Elastic Compliance Matrix: (Units=1/GPa)
#
#
# Indices 1 2 3 4 5 6 
#
# 1 0.007808 -0.003600 -0.003658 0.000000 0.000000 0.000000
# 2 -0.003600 0.026032 -0.000563 0.000000 0.000000 0.000000
# 3 -0.003658 -0.000563 0.018243 0.000000 0.000000 0.000000
# 4 0.000000 0.000000 0.000000 -0.851805 0.000000 0.000000
# 5 0.000000 0.000000 0.000000 0.000000 0.038815 0.000000
# 6 0.000000 0.000000 0.000000 0.000000 0.000000 0.021753
#
#
# Mechanical properties :
#
#
# Convention : Reuss Voigt Hill
#
# Bulk Modulus (GPa) = 27.44009 41.45956 34.44983
# Shear Modulus (GPa) = -7.02875 27.23468 10.10296
#
# Velocity S-wave (km/s) = -1.85265 3.64684 2.22116
# Velocity P-wave (km/s) = 2.97040 6.16266 4.83744
#
# Compressibility (1/GPa) = 0.03644303
#
# Stress axis : x y z
#
# Youngs Moduli (GPa) = 128.06880 38.41360 54.81421
#
# Poissons Ratio (x) = 0.13830 0.20049
# Poissons Ratio (y) = 0.46109 0.03084
# Poissons Ratio (z) = 0.46843 0.02161
#
# Static dielectric constant tensor:
#      x y z
#    x 1.797850 0.000000 0.000000 
#    y 0.000000 1.841250 0.000000 
#    z 0.000000 0.000000 1.675650 
# 
# From -- ./inp_files/484.got.cif
#   From: 2010.05.17/outbox.cif.g08.bks.cpg/sg32_1_cif.got.tgz:484.got - 2010.06.03 17:12:27.
