data_PCOD9344055
_publ_section_title
;
Structure prediction by ZEFSAII (Michael W. Deem and Ramdas Pophale) SiO2 
 PCOD9344055
Probable space group: P B A 2
;
_chemical_formula_sum "Si O2"
_cell_formula_units_Z 20
_cell_length_a 7.823858
_cell_length_b 17.011733
_cell_length_c 7.454118
_cell_angle_alpha 90.000000
_cell_angle_beta 90.000000
_cell_angle_gamma 90.000000
_cell_volume 992.123601
_symmetry_space_group_name_H-M "P B A 2"
_symmetry_group_IT_number 32
_symmetry_cell_setting 'orthorhombic'
loop_
_space_group_symop_operation_xyz
x,y,z
-x,-y,z
1/2-x,1/2+y,z
1/2+x,1/2-y,z
loop_
_atom_site_type_symbol
_atom_site_label
_atom_site_fract_x
_atom_site_fract_y
_atom_site_fract_z
Si Si1 0.451011 0.338485 0.120720
Si Si2 0.370786 0.938367 0.507955
Si Si3 0.250000 0.043039 0.165188
Si Si4 0.129214 0.938368 0.822421
Si Si5 0.951010 0.661515 0.209656
O O1 0.585970 0.400827 0.205612
O O2 0.250000 0.345652 0.165187
O O3 0.499999 0.250000 0.165188
O O4 0.461029 0.363936 0.913001
O O5 0.250001 0.911698 0.665188
O O6 0.461028 0.863935 0.417376
O O7 0.500000 0.000000 0.594481
O O8 0.292512 0.989439 0.339908
O O9 0.414031 0.099173 0.124765
O O10 0.207489 0.989439 0.990469
O O11 0.000000 0.000000 0.735894
#
# Coordination Sequence:
#
# PCOD9344055 Si02
#       5
#     4   4   4   4   4
#     4  11  22  40  65  88 129 169 205 256 319 374
#     4  10  23  39  65  95 122 162 216 265 313 370
#     4  10  22  42  64  92 118 168 212 262 312 370
#     4  10  23  39  65  95 122 162 216 265 313 370
#     4  11  22  40  65  88 129 169 205 256 319 374
#
# _framework density 20.15878
#
# number of rings (size 3 to 8) (size 9 to 14) (size 15 to 20)
#    0.000    1.600    4.000    0.000    5.600    0.000 
#    0.000    4.000    0.000    0.000    0.000    0.000 
#    0.000    0.000    0.000    0.000    0.000    0.000 
#
# Total GULP energy -111345.837200 kJ/mol
# GULP energy per Si atom -5567.291860 kJ/mol
# Density = 2.011290 g / cm^3
# Si number density = 20.158780 Si / 1000 Ang^3
#
#
#
# Elastic Constant Matrix: (Units=GPa)
#
#
# Indices 1 2 3 4 5 6 
#
# 1 95.3170 33.5447 -6.8570 0.0000 0.0000 0.0000
# 2 33.5447 145.7998 32.5561 0.0000 0.0000 0.0000
# 3 -6.8570 32.5561 38.7109 0.0000 0.0000 0.0000
# 4 0.0000 0.0000 0.0000 10.0013 0.0000 0.0000
# 5 0.0000 0.0000 0.0000 0.0000 35.9469 0.0000
# 6 0.0000 0.0000 0.0000 0.0000 0.0000 15.5970
#
#
#
# Elastic Compliance Matrix: (Units=1/GPa)
#
#
# Indices 1 2 3 4 5 6 
#
# 1 0.012338 -0.004096 0.005630 0.000000 0.000000 0.000000
# 2 -0.004096 0.009804 -0.008971 0.000000 0.000000 0.000000
# 3 0.005630 -0.008971 0.034374 0.000000 0.000000 0.000000
# 4 0.000000 0.000000 0.000000 0.099987 0.000000 0.000000
# 5 0.000000 0.000000 0.000000 0.000000 0.027819 0.000000
# 6 0.000000 0.000000 0.000000 0.000000 0.000000 0.064115
#
#
# Mechanical properties :
#
#
# Convention : Reuss Voigt Hill
#
# Bulk Modulus (GPa) = 24.01369 44.25727 34.13548
# Shear Modulus (GPa) = 18.03810 27.01462 22.52636
#
# Velocity S-wave (km/s) = 2.99457 3.66470 3.34645
# Velocity P-wave (km/s) = 4.88822 6.31733 5.64816
#
# Compressibility (1/GPa) = 0.04164291
#
# Stress axis : x y z
#
# Youngs Moduli (GPa) = 81.05234 101.99746 29.09151
#
# Poissons Ratio (x) = 0.41775 -0.16378
# Poissons Ratio (y) = 0.33197 0.26098
# Poissons Ratio (z) = -0.45632 0.91500
#
# Static dielectric constant tensor:
#      x y z
#    x 1.988150 0.000000 0.000000 
#    y 0.000000 1.739690 0.000000 
#    z 0.000000 0.000000 1.736910 
# 
# From -- ./inp_files/423.got.cif
#   From: 2010.05.17/outbox.cif.g08.bks.cpg/sg32_1_cif.got.tgz:423.got - 2010.06.03 17:12:27.
