data_PCOD9344024
_publ_section_title
;
Structure prediction by ZEFSAII (Michael W. Deem and Ramdas Pophale) SiO2 
 PCOD9344024
Probable space group: P B A 2
;
_chemical_formula_sum "Si O2"
_cell_formula_units_Z 30
_cell_length_a 7.465444
_cell_length_b 14.523341
_cell_length_c 12.312196
_cell_angle_alpha 90.000000
_cell_angle_beta 90.000000
_cell_angle_gamma 90.000000
_cell_volume 1334.927553
_symmetry_space_group_name_H-M "P B A 2"
_symmetry_group_IT_number 32
_symmetry_cell_setting 'orthorhombic'
loop_
_space_group_symop_operation_xyz
x,y,z
-x,-y,z
1/2-x,1/2+y,z
1/2+x,1/2-y,z
loop_
_atom_site_type_symbol
_atom_site_label
_atom_site_fract_x
_atom_site_fract_y
_atom_site_fract_z
Si Si1 0.791622 0.505421 0.158910
Si Si2 0.000000 0.000000 0.508875
Si Si3 0.505543 0.608587 0.838179
Si Si4 0.550992 0.799991 0.468635
Si Si5 0.228449 0.884248 0.361611
Si Si6 0.755632 0.340114 0.028855
Si Si7 0.636623 0.331510 0.620170
Si Si8 0.331270 0.858778 0.972084
O O1 0.700563 0.576591 0.241002
O O2 0.736850 0.399697 0.138781
O O3 0.000000 0.500000 0.190244
O O4 0.781089 0.550803 0.039860
O O5 0.005366 0.087746 0.584963
O O6 0.837693 0.028384 0.431208
O O7 0.500000 0.500000 0.813809
O O8 0.391460 0.665628 0.748395
O O9 0.711909 0.638633 0.862165
O O10 0.400195 0.627389 0.948908
O O11 0.433970 0.860519 0.387905
O O12 0.624953 0.709954 0.401052
O O13 0.423267 0.762333 0.564725
O O14 0.693004 0.852674 0.544036
O O15 0.729112 0.231238 0.039175
O O16 0.951781 0.356084 0.973110
#
# Coordination Sequence:
#
# PCOD9344024 Si02
#       8
#     4   2   4   4   4   4   4   4
#     4  10  24  42  65  99 135 177 234 282 352 422
#     4  10  22  40  58  94 136 160 228 278 340 414
#     4  12  24  43  70  94 139 186 226 286 359 414
#     4   9  22  43  67  94 137 167 239 288 349 418
#     4  10  22  43  68  95 132 184 221 298 347 421
#     4  11  24  44  65 100 137 178 233 288 337 432
#     4  10  22  41  62  98 127 174 222 283 347 422
#     4  11  24  43  65  97 139 175 231 289 341 418
#
# _framework density 22.473129
#
# number of rings (size 3 to 8) (size 9 to 14) (size 15 to 20)
#    0.000    1.600    3.333    0.000    3.733    3.200 
#    9.600    1.333    0.000    0.000    0.000    0.000 
#    0.000    0.000    0.000    0.000    0.000    0.000 
#
# Total GULP energy -167041.919340 kJ/mol
# GULP energy per Si atom -5568.063978 kJ/mol
# Density = 2.242198 g / cm^3
# Si number density = 22.473129 Si / 1000 Ang^3
#
#
#
# Elastic Constant Matrix: (Units=GPa)
#
#
# Indices 1 2 3 4 5 6 
#
# 1 79.2523 11.9808 23.0557 0.0000 0.0000 0.0000
# 2 11.9808 85.0604 24.3244 0.0000 0.0000 0.0000
# 3 23.0557 24.3244 60.1986 0.0000 0.0000 0.0000
# 4 0.0000 0.0000 0.0000 -228.9476 0.0000 0.0000
# 5 0.0000 0.0000 0.0000 0.0000 14.6399 0.0000
# 6 0.0000 0.0000 0.0000 0.0000 0.0000 33.3669
#
#
#
# Elastic Compliance Matrix: (Units=1/GPa)
#
#
# Indices 1 2 3 4 5 6 
#
# 1 0.014219 -0.000504 -0.005242 0.000000 0.000000 0.000000
# 2 -0.000504 0.013310 -0.005185 0.000000 0.000000 0.000000
# 3 -0.005242 -0.005185 0.020715 0.000000 0.000000 0.000000
# 4 0.000000 0.000000 0.000000 -0.004368 0.000000 0.000000
# 5 0.000000 0.000000 0.000000 0.000000 0.068307 0.000000
# 6 0.000000 0.000000 0.000000 0.000000 0.000000 0.029970
#
#
# Mechanical properties :
#
#
# Convention : Reuss Voigt Hill
#
# Bulk Modulus (GPa) = 37.90556 38.13702 38.02129
# Shear Modulus (GPa) = 28.93369 -25.17815 1.87777
#
# Velocity S-wave (km/s) = 3.59204 -3.35082 0.91508
# Velocity P-wave (km/s) = 5.84015 1.42697 4.25109
#
# Compressibility (1/GPa) = 0.02638135
#
# Stress axis : x y z
#
# Youngs Moduli (GPa) = 70.32771 75.13086 48.27491
#
# Poissons Ratio (x) = 0.03784 0.25307
# Poissons Ratio (y) = 0.03542 0.25032
# Poissons Ratio (z) = 0.36868 0.38958
#
# Static dielectric constant tensor:
#      x y z
#    x 1.971530 0.000000 0.000000 
#    y 0.000000 2.829070 0.000000 
#    z 0.000000 0.000000 1.924010 
# 
# From -- ./inp_files/3732.got.cif
#   From: 2010.05.17/outbox.cif.g08.bks.cpg/sg32_2_cif.got.tgz:3732.got - 2010.06.03 17:12:27.
