data_PCOD9344096
_publ_section_title
;
Structure prediction by ZEFSAII (Michael W. Deem and Ramdas Pophale) SiO2 
 PCOD9344096
Probable space group: P B A 2
;
_chemical_formula_sum "Si O2"
_cell_formula_units_Z 26
_cell_length_a 12.623621
_cell_length_b 12.919633
_cell_length_c 7.696082
_cell_angle_alpha 90.000000
_cell_angle_beta 90.000000
_cell_angle_gamma 90.000000
_cell_volume 1255.173642
_symmetry_space_group_name_H-M "P B A 2"
_symmetry_group_IT_number 32
_symmetry_cell_setting 'orthorhombic'
loop_
_space_group_symop_operation_xyz
x,y,z
-x,-y,z
1/2-x,1/2+y,z
1/2+x,1/2-y,z
loop_
_atom_site_type_symbol
_atom_site_label
_atom_site_fract_x
_atom_site_fract_y
_atom_site_fract_z
Si Si1 0.706693 0.363264 0.836730
Si Si2 0.097953 0.568397 0.219214
Si Si3 0.867188 0.223150 0.030296
Si Si4 0.500000 0.500000 0.433167
Si Si5 0.004218 0.810015 0.679941
Si Si6 0.414066 0.081964 0.625651
Si Si7 0.166216 0.002056 0.143888
O O1 0.759324 0.271526 0.950120
O O2 0.621932 0.319260 0.702428
O O3 0.807028 0.414976 0.739395
O O4 0.641694 0.441313 0.961452
O O5 0.106826 0.556264 0.425951
O O6 0.210554 0.528104 0.156090
O O7 0.000000 0.500000 0.156915
O O8 0.085044 0.684771 0.147115
O O9 0.940487 0.190130 0.868941
O O10 0.847788 0.120368 0.137322
O O11 0.463066 0.405305 0.556228
O O12 0.406571 0.538501 0.303729
O O13 0.037200 0.696894 0.615592
O O14 0.500000 0.000000 0.695929
#
# Coordination Sequence:
#
# PCOD9344096 Si02
#       7
#     4   4   4   2   4   4   4
#     4  10  23  39  65  98 126 176 223 271 343 394
#     4  10  23  44  64  98 132 174 223 273 331 401
#     4  10  23  39  65  98 126 176 223 271 343 394
#     4  12  24  42  64 100 136 178 220 284 344 398
#     4  11  23  41  66  93 136 171 224 278 333 405
#     4  10  23  44  64  98 132 174 223 273 331 401
#     4  11  23  41  66  93 136 171 224 278 333 405
#
# _framework density 20.714264
#
# number of rings (size 3 to 8) (size 9 to 14) (size 15 to 20)
#    0.000    1.538    0.000    3.692    4.308    4.308 
#   22.154    0.000    0.000    0.000    0.000    0.000 
#    0.000    0.000    0.000    0.000    0.000    0.000 
#
# Total GULP energy -145179.099991 kJ/mol
# GULP energy per Si atom -5583.811538 kJ/mol
# Density = 2.066712 g / cm^3
# Si number density = 20.714264 Si / 1000 Ang^3
#
#
#
# Elastic Constant Matrix: (Units=GPa)
#
#
# Indices 1 2 3 4 5 6 
#
# 1 60.2576 13.1190 -2.2350 0.0000 0.0000 0.0000
# 2 13.1190 104.6019 10.2387 0.0000 0.0000 0.0000
# 3 -2.2350 10.2387 51.5205 0.0000 0.0000 0.0000
# 4 0.0000 0.0000 0.0000 28.3023 0.0000 0.0000
# 5 0.0000 0.0000 0.0000 0.0000 21.5871 0.0000
# 6 0.0000 0.0000 0.0000 0.0000 0.0000 26.5222
#
#
#
# Elastic Compliance Matrix: (Units=1/GPa)
#
#
# Indices 1 2 3 4 5 6 
#
# 1 0.017133 -0.002266 0.001193 0.000000 0.000000 0.000000
# 2 -0.002266 0.010049 -0.002095 0.000000 0.000000 0.000000
# 3 0.001193 -0.002095 0.019878 0.000000 0.000000 0.000000
# 4 0.000000 0.000000 0.000000 0.035333 0.000000 0.000000
# 5 0.000000 0.000000 0.000000 0.000000 0.046324 0.000000
# 6 0.000000 0.000000 0.000000 0.000000 0.000000 0.037704
#
#
# Mechanical properties :
#
#
# Convention : Reuss Voigt Hill
#
# Bulk Modulus (GPa) = 24.55484 28.73616 26.64550
# Shear Modulus (GPa) = 26.83391 28.29947 27.56669
#
# Velocity S-wave (km/s) = 3.60312 3.70020 3.65198
# Velocity P-wave (km/s) = 5.40275 5.67081 5.53840
#
# Compressibility (1/GPa) = 0.04072517
#
# Stress axis : x y z
#
# Youngs Moduli (GPa) = 58.36709 99.50941 50.30707
#
# Poissons Ratio (x) = 0.22545 -0.06004
# Poissons Ratio (y) = 0.13224 0.10541
# Poissons Ratio (z) = -0.06966 0.20851
#
# Static dielectric constant tensor:
#      x y z
#    x 1.739180 0.000000 0.000000 
#    y 0.000000 1.790940 0.000000 
#    z 0.000000 0.000000 1.759810 
# 
# From -- ./inp_files/2756.got.cif
#   From: 2010.05.17/outbox.cif.g08.bks.cpg/sg32_2_cif.got.tgz:2756.got - 2010.06.03 17:12:27.
