data_PCOD9344329
_publ_section_title
;
Structure prediction by ZEFSAII (Michael W. Deem and Ramdas Pophale) SiO2 
 PCOD9344329
Probable space group: P B A 2
;
_chemical_formula_sum "Si O2"
_cell_formula_units_Z 30
_cell_length_a 12.000000
_cell_length_b 15.000000
_cell_length_c 9.000000
_cell_angle_alpha 90.000000
_cell_angle_beta 90.000000
_cell_angle_gamma 90.000000
_cell_volume 1620.000000
_symmetry_space_group_name_H-M "P B A 2"
_symmetry_group_IT_number 32
_symmetry_cell_setting 'orthorhombic'
loop_
_space_group_symop_operation_xyz
x,y,z
-x,-y,z
1/2-x,1/2+y,z
1/2+x,1/2-y,z
loop_
_atom_site_type_symbol
_atom_site_label
_atom_site_fract_x
_atom_site_fract_y
_atom_site_fract_z
Si Si1 0.286581 0.736761 0.306130
Si Si2 0.778505 0.924949 0.980685
Si Si3 0.500000 0.000000 0.276123
Si Si4 0.412312 0.176618 0.141900
Si Si5 0.605158 0.247805 0.987026
Si Si6 0.695113 0.075540 0.468988
Si Si7 0.624684 0.461657 0.305141
Si Si8 0.617940 0.058291 0.809938
O O1 0.156537 0.710450 0.284601
O O2 0.303177 0.821574 0.411932
O O3 0.353218 0.644344 0.342825
O O4 0.322589 0.765205 0.138503
O O5 0.861388 0.845629 0.921776
O O6 0.719982 0.001841 0.884109
O O7 0.674783 0.864479 0.028816
O O8 0.828101 0.965274 0.134693
O O9 0.485510 0.090551 0.184246
O O10 0.606000 0.018075 0.376489
O O11 0.482197 0.251320 0.058856
O O12 0.609373 0.157575 0.886577
O O13 0.655426 0.071347 0.639040
O O14 0.808001 0.024739 0.419966
O O15 0.500000 0.500000 0.303694
O O16 0.500000 0.000000 0.819961
#
# Coordination Sequence:
#
# PCOD9344329 Si02
#       8
#     4   4   2   4   4   4   4   4
#     4  10  23  37  64  97 124 163 222 270 321 374
#     4  10  22  39  62  94 124 163 219 270 318 383
#     4  12  18  36  60  98 120 154 212 270 304 370
#     4  10  18  35  65  91 120 155 211 280 307 361
#     4  10  20  37  62  92 120 162 215 263 321 364
#     4  12  24  38  65  93 131 169 214 261 323 392
#     4  10  23  44  66  94 128 169 214 271 330 383
#     4  12  24  41  63  93 134 174 212 261 322 394
#
# _framework density 18.518519000000001
#
# number of rings (size 3 to 8) (size 9 to 14) (size 15 to 20)
#    0.000    1.600    6.000    1.600    3.733    1.067 
#    0.000    2.000    0.000    0.000    0.000    0.000 
#    0.000    0.000    0.000    0.000    0.000    0.000 
#
# Total GULP energy -167003.939048 kJ/mol
# GULP energy per Si atom -5566.797968 kJ/mol
# Density = 1.847637 g / cm^3
# Si number density = 18.518519 Si / 1000 Ang^3
#
#
#
# Elastic Constant Matrix: (Units=GPa)
#
#
# Indices 1 2 3 4 5 6 
#
# 1 95.5746 30.9290 22.6433 0.0000 0.0000 0.0000
# 2 30.9290 118.1035 41.4108 0.0000 0.0000 0.0000
# 3 22.6433 41.4108 64.7422 0.0000 0.0000 0.0000
# 4 0.0000 0.0000 0.0000 17.4145 0.0000 0.0000
# 5 0.0000 0.0000 0.0000 0.0000 17.5373 0.0000
# 6 0.0000 0.0000 0.0000 0.0000 0.0000 34.9267
#
#
#
# Elastic Compliance Matrix: (Units=1/GPa)
#
#
# Indices 1 2 3 4 5 6 
#
# 1 0.011806 -0.002119 -0.002774 0.000000 0.000000 0.000000
# 2 -0.002119 0.011296 -0.006484 0.000000 0.000000 0.000000
# 3 -0.002774 -0.006484 0.020563 0.000000 0.000000 0.000000
# 4 0.000000 0.000000 0.000000 0.057423 0.000000 0.000000
# 5 0.000000 0.000000 0.000000 0.000000 0.057021 0.000000
# 6 0.000000 0.000000 0.000000 0.000000 0.000000 0.028631
#
#
# Mechanical properties :
#
#
# Convention : Reuss Voigt Hill
#
# Bulk Modulus (GPa) = 47.82056 52.04294 49.93175
# Shear Modulus (GPa) = 23.09851 26.20485 24.65168
#
# Velocity S-wave (km/s) = 3.53557 3.76581 3.65251
# Velocity P-wave (km/s) = 6.52274 6.86095 6.69398
#
# Compressibility (1/GPa) = 0.02091151
#
# Stress axis : x y z
#
# Youngs Moduli (GPa) = 84.70306 88.53053 48.63093
#
# Poissons Ratio (x) = 0.18762 0.13488
# Poissons Ratio (y) = 0.17951 0.31531
# Poissons Ratio (z) = 0.23493 0.57401
#
# Static dielectric constant tensor:
#      x y z
#    x 1.786650 0.000000 0.000000 
#    y 0.000000 1.691110 0.000000 
#    z 0.000000 0.000000 1.643490 
# 
# From -- ./inp_files/2849.got.cif
#   From: 2010.05.17/outbox.ucp.g08.bks.cvg/sg32_2_cif.got.tgz:2849.got - 2010.06.11 10:34:49.
