data_PCOD9344144
_publ_section_title
;
Structure prediction by ZEFSAII (Michael W. Deem and Ramdas Pophale) SiO2 
 PCOD9344144
Probable space group: P B A 2
;
_chemical_formula_sum "Si O2"
_cell_formula_units_Z 26
_cell_length_a 10.839146
_cell_length_b 11.362428
_cell_length_c 8.542467
_cell_angle_alpha 90.000000
_cell_angle_beta 90.000000
_cell_angle_gamma 90.000000
_cell_volume 1052.081830
_symmetry_space_group_name_H-M "P B A 2"
_symmetry_group_IT_number 32
_symmetry_cell_setting 'orthorhombic'
loop_
_space_group_symop_operation_xyz
x,y,z
-x,-y,z
1/2-x,1/2+y,z
1/2+x,1/2-y,z
loop_
_atom_site_type_symbol
_atom_site_label
_atom_site_fract_x
_atom_site_fract_y
_atom_site_fract_z
Si Si1 0.412866 0.224932 0.540600
Si Si2 0.425483 0.390464 0.267883
Si Si3 0.500000 0.000000 0.398782
Si Si4 0.589063 0.601875 0.792499
Si Si5 0.824933 0.521981 0.118908
Si Si6 0.759192 0.392985 0.818307
Si Si7 0.450195 0.743063 0.003278
O O1 0.370656 0.290517 0.382608
O O2 0.506104 0.119616 0.498387
O O3 0.460895 0.338122 0.636057
O O4 0.317769 0.164479 0.662665
O O5 0.500000 0.500000 0.342188
O O6 0.314007 0.438724 0.160491
O O7 0.529788 0.327645 0.162980
O O8 0.615526 0.983865 0.283000
O O9 0.500000 0.500000 0.855852
O O10 0.711308 0.525480 0.768649
O O11 0.577419 0.709841 0.912604
O O12 0.905742 0.629794 0.053839
O O13 0.827762 0.427981 0.980069
O O14 0.652100 0.307649 0.884165
#
# Coordination Sequence:
#
# PCOD9344144 Si02
#       7
#     4   4   2   4   4   4   4
#     4  12  29  46  73 113 163 203 265 346 423 479
#     4  12  25  52  81 116 161 220 281 342 421 513
#     4  12  32  48  66 120 160 212 270 346 426 484
#     4  10  23  48  75 108 149 202 264 326 413 496
#     4  12  27  46  80 108 160 216 280 337 411 509
#     4  11  25  46  78 114 150 211 271 341 407 506
#     4  11  23  48  78 113 149 209 283 330 399 514
#
# _framework density 24.712906
#
# number of rings (size 3 to 8) (size 9 to 14) (size 15 to 20)
#    0.000    0.615    4.615    1.846    8.615    2.462 
#    0.000    0.000    0.000    0.000    0.000    0.000 
#    0.000    0.000    0.000    0.000    0.000    0.000 
#
# Total GULP energy -145068.785963 kJ/mol
# GULP energy per Si atom -5579.568691 kJ/mol
# Density = 2.465666 g / cm^3
# Si number density = 24.712906 Si / 1000 Ang^3
#
#
#
# Elastic Constant Matrix: (Units=GPa)
#
#
# Indices 1 2 3 4 5 6 
#
# 1 85.8759 38.8064 37.2959 0.0000 0.0000 0.0000
# 2 38.8064 142.0785 71.0499 0.0000 0.0000 0.0000
# 3 37.2959 71.0499 126.3766 0.0000 0.0000 0.0000
# 4 0.0000 0.0000 0.0000 63.4324 0.0000 0.0000
# 5 0.0000 0.0000 0.0000 0.0000 1.3605 0.0000
# 6 0.0000 0.0000 0.0000 0.0000 0.0000 29.6020
#
#
#
# Elastic Compliance Matrix: (Units=1/GPa)
#
#
# Indices 1 2 3 4 5 6 
#
# 1 0.013937 -0.002434 -0.002744 0.000000 0.000000 0.000000
# 2 -0.002434 0.010216 -0.005025 0.000000 0.000000 0.000000
# 3 -0.002744 -0.005025 0.011548 0.000000 0.000000 0.000000
# 4 0.000000 0.000000 0.000000 0.015765 0.000000 0.000000
# 5 0.000000 0.000000 0.000000 0.000000 0.735003 0.000000
# 6 0.000000 0.000000 0.000000 0.000000 0.000000 0.033782
#
#
# Mechanical properties :
#
#
# Convention : Reuss Voigt Hill
#
# Bulk Modulus (GPa) = 65.38877 72.07060 68.72968
# Shear Modulus (GPa) = 5.91187 32.69090 19.30139
#
# Velocity S-wave (km/s) = 1.54836 3.64101 2.79771
# Velocity P-wave (km/s) = 5.45100 6.84854 6.18934
#
# Compressibility (1/GPa) = 0.01529315
#
# Stress axis : x y z
#
# Youngs Moduli (GPa) = 71.75364 97.88343 86.59476
#
# Poissons Ratio (x) = 0.23826 0.23765
# Poissons Ratio (y) = 0.17466 0.43516
# Poissons Ratio (z) = 0.19692 0.49189
#
# Static dielectric constant tensor:
#      x y z
#    x 2.123860 0.000000 0.000000 
#    y 0.000000 1.973950 0.000000 
#    z 0.000000 0.000000 2.020420 
# 
# From -- ./inp_files/2755.got.cif
#   From: 2010.05.17/outbox.cif.g08.bks.cpg/sg32_2_cif.got.tgz:2755.got - 2010.06.03 17:12:27.
