data_PCOD9344193
_publ_section_title
;
Structure prediction by ZEFSAII (Michael W. Deem and Ramdas Pophale) SiO2 
 PCOD9344193
Probable space group: P B A 2
;
_chemical_formula_sum "Si O2"
_cell_formula_units_Z 20
_cell_length_a 17.393926
_cell_length_b 8.836052
_cell_length_c 4.753318
_cell_angle_alpha 90.000000
_cell_angle_beta 90.000000
_cell_angle_gamma 90.000000
_cell_volume 730.554720
_symmetry_space_group_name_H-M "P B A 2"
_symmetry_group_IT_number 32
_symmetry_cell_setting 'orthorhombic'
loop_
_space_group_symop_operation_xyz
x,y,z
-x,-y,z
1/2-x,1/2+y,z
1/2+x,1/2-y,z
loop_
_atom_site_type_symbol
_atom_site_label
_atom_site_fract_x
_atom_site_fract_y
_atom_site_fract_z
Si Si1 0.351155 0.959493 0.189340
Si Si2 0.900440 0.259102 0.495499
Si Si3 0.352939 0.655315 0.446225
Si Si4 0.806092 0.030293 0.893983
Si Si5 0.500000 0.500000 0.427586
Si Si6 0.500000 0.000000 0.830814
O O1 0.353540 0.833345 0.429561
O O2 0.350980 0.132209 0.296411
O O3 0.274359 0.919357 0.022338
O O4 0.430436 0.939183 0.021436
O O5 0.852291 0.163647 0.728054
O O6 0.959559 0.371470 0.646138
O O7 0.950627 0.140520 0.308245
O O8 0.288742 0.588182 0.645940
O O9 0.432592 0.592707 0.580608
O O10 0.344784 0.571623 0.143687
#
# Coordination Sequence:
#
# PCOD9344193 Si02
#       6
#     4   4   4   4   2   2
#     4  12  30  54  83 127 174 229 294 364 439 523
#     4  11  28  54  82 127 174 229 295 358 438 524
#     4  11  28  50  87 121 166 228 280 363 425 529
#     4  11  31  53  83 124 176 224 292 354 440 512
#     4  10  24  52  82 120 166 222 290 346 436 512
#     4  12  28  48  88 120 174 232 288 364 438 518
#
# _framework density 27.376456000000001
#
# number of rings (size 3 to 8) (size 9 to 14) (size 15 to 20)
#    0.000    0.800    0.000    3.000   22.400    0.800 
#    0.000    4.000    0.000    0.000    0.000    0.000 
#    0.000    0.000    0.000    0.000    0.000    0.000 
#
# Total GULP energy -111928.818870 kJ/mol
# GULP energy per Si atom -5596.440943 kJ/mol
# Density = 2.731415 g / cm^3
# Si number density = 27.376456 Si / 1000 Ang^3
#
#
#
# Elastic Constant Matrix: (Units=GPa)
#
#
# Indices 1 2 3 4 5 6 
#
# 1 116.8431 63.5208 25.5653 0.0000 0.0000 0.0000
# 2 63.5208 179.1561 49.5777 0.0000 0.0000 0.0000
# 3 25.5653 49.5777 112.5988 0.0000 0.0000 0.0000
# 4 0.0000 0.0000 0.0000 60.5927 0.0000 0.0000
# 5 0.0000 0.0000 0.0000 0.0000 8.3850 0.0000
# 6 0.0000 0.0000 0.0000 0.0000 0.0000 51.1302
#
#
#
# Elastic Compliance Matrix: (Units=1/GPa)
#
#
# Indices 1 2 3 4 5 6 
#
# 1 0.010675 -0.003546 -0.000862 0.000000 0.000000 0.000000
# 2 -0.003546 0.007534 -0.002512 0.000000 0.000000 0.000000
# 3 -0.000862 -0.002512 0.010183 0.000000 0.000000 0.000000
# 4 0.000000 0.000000 0.000000 0.016504 0.000000 0.000000
# 5 0.000000 0.000000 0.000000 0.000000 0.119261 0.000000
# 6 0.000000 0.000000 0.000000 0.000000 0.000000 0.019558
#
#
# Mechanical properties :
#
#
# Convention : Reuss Voigt Hill
#
# Bulk Modulus (GPa) = 68.72487 76.21398 72.46943
# Shear Modulus (GPa) = 24.70277 42.01718 33.35998
#
# Velocity S-wave (km/s) = 3.00715 3.92189 3.49458
# Velocity P-wave (km/s) = 6.10044 6.95759 6.54307
#
# Compressibility (1/GPa) = 0.01455077
#
# Stress axis : x y z
#
# Youngs Moduli (GPa) = 93.67626 132.72674 98.20285
#
# Poissons Ratio (x) = 0.47069 0.08468
# Poissons Ratio (y) = 0.33220 0.24671
# Poissons Ratio (z) = 0.08078 0.33344
#
# Static dielectric constant tensor:
#      x y z
#    x 2.165130 0.000000 0.000000 
#    y 0.000000 2.125470 0.000000 
#    z 0.000000 0.000000 2.128060 
# 
# From -- ./inp_files/1376.got.cif
#   From: 2010.05.17/outbox.cif.g08.bks.cpg/sg32_1_cif.got.tgz:1376.got - 2010.06.03 17:12:27.
