data_PCOD9344890
_publ_section_title
;
Structure prediction by ZEFSAII (Michael W. Deem and Ramdas Pophale) SiO2 
 PCOD9344890
Probable space group: P N A 21
;
_chemical_formula_sum "Si O2"
_cell_formula_units_Z 28
_cell_length_a 12.977534
_cell_length_b 11.975653
_cell_length_c 8.626619
_cell_angle_alpha 90.000000
_cell_angle_beta 90.000000
_cell_angle_gamma 90.000000
_cell_volume 1340.701195
_symmetry_space_group_name_H-M "P N A 21"
_symmetry_group_IT_number 33
_symmetry_cell_setting 'orthorhombic'
loop_
_space_group_symop_operation_xyz
x,y,z
-x,-y,1/2+z
1/2-x,1/2+y,1/2+z
1/2+x,1/2-y,z
loop_
_atom_site_type_symbol
_atom_site_label
_atom_site_fract_x
_atom_site_fract_y
_atom_site_fract_z
Si Si1 0.716027 0.579096 0.178580
Si Si2 0.564322 0.220999 0.228825
Si Si3 0.254755 0.816721 0.504515
Si Si4 0.143767 0.628146 0.667661
Si Si5 0.147893 0.035802 0.630391
Si Si6 0.258154 0.738545 0.959347
Si Si7 0.983534 0.964712 0.827708
O O1 0.758846 0.647129 0.326962
O O2 0.801360 0.488095 0.132442
O O3 0.613712 0.518796 0.238445
O O4 0.695223 0.664056 0.040117
O O5 0.638680 0.223891 0.079879
O O6 0.477321 0.128907 0.201366
O O7 0.640772 0.210064 0.375710
O O8 0.508219 0.339033 0.261775
O O9 0.172259 0.719062 0.536779
O O10 0.217705 0.927309 0.598520
O O11 0.198295 0.674145 0.824218
O O12 0.208692 0.147167 0.586668
O O13 0.055412 0.032673 0.503387
O O14 0.089390 0.028293 0.792946
#
# Coordination Sequence:
#
# PCOD9344890 Si02
#       7
#     4   4   4   4   4   4   4
#     4  11  23  41  60  91 129 156 200 260 297 366
#     4  10  21  38  64  88 118 167 201 245 309 366
#     4  10  20  41  60  87 126 156 200 257 304 348
#     4  11  21  43  64  86 126 160 203 254 304 361
#     4  10  20  38  61  91 120 157 199 260 295 360
#     4  10  23  41  60  91 124 158 204 252 309 355
#     4  10  20  36  63  90 115 158 211 244 296 354
#
# _framework density 20.884595000000001
#
# number of rings (size 3 to 8) (size 9 to 14) (size 15 to 20)
#    0.000    1.714    7.143    0.000    4.000    2.286 
#    5.143    0.000    0.000    0.000    0.000    0.000 
#    0.000    0.000    0.000    0.000    0.000    0.000 
#
# Total GULP energy -156401.030177 kJ/mol
# GULP energy per Si atom -5585.751078 kJ/mol
# Density = 2.083706 g / cm^3
# Si number density = 20.884595 Si / 1000 Ang^3
#
#
#
# Elastic Constant Matrix: (Units=GPa)
#
#
# Indices 1 2 3 4 5 6 
#
# 1 40.1012 -18.5312 1.9390 0.0000 0.0000 0.0000
# 2 -18.5312 45.1364 32.1822 0.0000 0.0000 0.0000
# 3 1.9390 32.1822 5.5101 0.0000 0.0000 0.0000
# 4 0.0000 0.0000 0.0000 27.9028 0.0000 0.0000
# 5 0.0000 0.0000 0.0000 0.0000 26.7612 0.0000
# 6 0.0000 0.0000 0.0000 0.0000 0.0000 20.3798
#
#
#
# Elastic Compliance Matrix: (Units=1/GPa)
#
#
# Indices 1 2 3 4 5 6 
#
# 1 0.021901 -0.004578 0.019032 0.000000 0.000000 0.000000
# 2 -0.004578 -0.006045 0.036914 0.000000 0.000000 0.000000
# 3 0.019032 0.036914 -0.040814 0.000000 0.000000 0.000000
# 4 0.000000 0.000000 0.000000 0.035839 0.000000 0.000000
# 5 0.000000 0.000000 0.000000 0.000000 0.037368 0.000000
# 6 0.000000 0.000000 0.000000 0.000000 0.000000 0.049068
#
#
# Mechanical properties :
#
#
# Convention : Reuss Voigt Hill
#
# Bulk Modulus (GPa) = 12.85697 13.54753 13.20225
# Shear Modulus (GPa) = 243.83244 20.01929 131.92586
#
# Velocity S-wave (km/s) = 10.81692 3.09943 7.95651
# Velocity P-wave (km/s) = 12.73488 4.39427 9.52593
#
# Compressibility (1/GPa) = 0.07777885
#
# Stress axis : x y z
#
# Youngs Moduli (GPa) = 45.65997 -165.43914 -24.50114
#
# Poissons Ratio (x) = -0.75741 0.46631
# Poissons Ratio (y) = 0.20904 0.90445
# Poissons Ratio (z) = -0.86901 6.10710
#
# Static dielectric constant tensor:
#      x y z
#    x 1.731970 0.000000 0.000000 
#    y 0.000000 1.736880 0.000000 
#    z 0.000000 0.000000 1.769790 
# 
# From -- ./inp_files/4317.got.cif
#   From: 2010.05.17/outbox.cif.g08.bks.cpg/sg33_3_cif.got.tgz:4317.got - 2010.06.03 17:15:25.
