data_PCOD9344467
_publ_section_title
;
Structure prediction by ZEFSAII (Michael W. Deem and Ramdas Pophale) SiO2 
 PCOD9344467
Probable space group: P N A 21
;
_chemical_formula_sum "Si O2"
_cell_formula_units_Z 32
_cell_length_a 9.174090
_cell_length_b 14.463184
_cell_length_c 12.087580
_cell_angle_alpha 90.000000
_cell_angle_beta 90.000000
_cell_angle_gamma 90.000000
_cell_volume 1603.859309
_symmetry_space_group_name_H-M "P N A 21"
_symmetry_group_IT_number 33
_symmetry_cell_setting 'orthorhombic'
loop_
_space_group_symop_operation_xyz
x,y,z
-x,-y,1/2+z
1/2-x,1/2+y,1/2+z
1/2+x,1/2-y,z
loop_
_atom_site_type_symbol
_atom_site_label
_atom_site_fract_x
_atom_site_fract_y
_atom_site_fract_z
Si Si1 0.986442 0.607492 0.194440
Si Si2 0.815102 0.440335 0.884661
Si Si3 0.434475 0.857546 0.820414
Si Si4 0.536908 0.306102 0.586151
Si Si5 0.711453 0.154089 0.881633
Si Si6 0.478222 0.915570 0.576180
Si Si7 0.954750 0.847808 0.334445
Si Si8 0.202481 0.734545 0.940550
O O1 0.120161 0.618318 0.280786
O O2 0.016155 0.521040 0.117198
O O3 0.962011 0.698149 0.122896
O O4 0.848586 0.595457 0.276454
O O5 0.879067 0.541930 0.860929
O O6 0.642602 0.430796 0.881245
O O7 0.880600 0.401892 0.998591
O O8 0.463879 0.859308 0.689484
O O9 0.308948 0.786121 0.855508
O O10 0.583184 0.828767 0.881271
O O11 0.531548 0.358452 0.701860
O O12 0.687069 0.320871 0.520675
O O13 0.392570 0.309536 0.510680
O O14 0.634226 0.253877 0.863670
O O15 0.883842 0.160040 0.880810
O O16 0.652290 0.108411 0.993240
#
# Coordination Sequence:
#
# PCOD9344467 Si02
#       8
#     4   4   4   4   4   4   4   4
#     4   9  18  36  60  87 114 152 200 243 299 354
#     4  10  21  38  60  86 120 156 198 249 300 359
#     4  10  23  40  57  85 115 155 203 243 294 364
#     4  10  18  34  62  87 111 148 188 253 303 333
#     4  10  21  36  60  90 119 161 204 244 300 357
#     4  10  20  38  60  81 122 164 192 239 293 350
#     4  11  21  37  60  93 122 149 203 254 295 357
#     4  10  20  35  57  83 113 149 198 239 292 366
#
# _framework density 19.951874
#
# number of rings (size 3 to 8) (size 9 to 14) (size 15 to 20)
#    0.000    2.000    0.000    6.000    0.000    3.000 
#    0.000   16.250    0.000    0.000    0.000    0.000 
#    0.000    0.000    0.000    0.000    0.000    0.000 
#
# Total GULP energy -178677.255539 kJ/mol
# GULP energy per Si atom -5583.664236 kJ/mol
# Density = 1.990646 g / cm^3
# Si number density = 19.951874 Si / 1000 Ang^3
#
#
#
# Elastic Constant Matrix: (Units=GPa)
#
#
# Indices 1 2 3 4 5 6 
#
# 1 117.8392 14.9986 39.6264 0.0000 0.0000 0.0000
# 2 14.9986 42.5044 22.7068 0.0000 0.0000 0.0000
# 3 39.6264 22.7068 134.4047 0.0000 0.0000 0.0000
# 4 0.0000 0.0000 0.0000 30.0618 0.0000 0.0000
# 5 0.0000 0.0000 0.0000 0.0000 12.0123 0.0000
# 6 0.0000 0.0000 0.0000 0.0000 0.0000 24.9152
#
#
#
# Elastic Compliance Matrix: (Units=1/GPa)
#
#
# Indices 1 2 3 4 5 6 
#
# 1 0.009581 -0.002058 -0.002477 0.000000 0.000000 0.000000
# 2 -0.002058 0.026303 -0.003837 0.000000 0.000000 0.000000
# 3 -0.002477 -0.003837 0.008819 0.000000 0.000000 0.000000
# 4 0.000000 0.000000 0.000000 0.033265 0.000000 0.000000
# 5 0.000000 0.000000 0.000000 0.000000 0.083248 0.000000
# 6 0.000000 0.000000 0.000000 0.000000 0.000000 0.040136
#
#
# Mechanical properties :
#
#
# Convention : Reuss Voigt Hill
#
# Bulk Modulus (GPa) = 35.76640 49.93463 42.85052
# Shear Modulus (GPa) = 21.98621 27.89227 24.93924
#
# Velocity S-wave (km/s) = 3.32318 3.74301 3.53933
# Velocity P-wave (km/s) = 5.71751 6.61529 6.18272
#
# Compressibility (1/GPa) = 0.02795920
#
# Stress axis : x y z
#
# Youngs Moduli (GPa) = 104.37290 38.01863 113.39407
#
# Poissons Ratio (x) = 0.07822 0.28090
# Poissons Ratio (y) = 0.21475 0.43510
# Poissons Ratio (z) = 0.25855 0.14588
#
# Static dielectric constant tensor:
#      x y z
#    x 1.721600 0.000000 0.000000 
#    y 0.000000 1.727930 0.000000 
#    z 0.000000 0.000000 1.727460 
# 
# From -- ./inp_files/6039.got.cif
#   From: 2010.05.17/outbox.cif.g08.bks.cpg/sg33_4_cif.got.tgz:6039.got - 2010.06.03 17:15:25.
