data_PCOD9344435
_publ_section_title
;
Structure prediction by ZEFSAII (Michael W. Deem and Ramdas Pophale) SiO2 
 PCOD9344435
Probable space group: P N A 21
;
_chemical_formula_sum "Si O2"
_cell_formula_units_Z 12
_cell_length_a 12.295583
_cell_length_b 7.483818
_cell_length_c 4.956600
_cell_angle_alpha 90.000000
_cell_angle_beta 90.000000
_cell_angle_gamma 90.000000
_cell_volume 456.095950
_symmetry_space_group_name_H-M "P N A 21"
_symmetry_group_IT_number 33
_symmetry_cell_setting 'orthorhombic'
loop_
_space_group_symop_operation_xyz
x,y,z
-x,-y,1/2+z
1/2-x,1/2+y,1/2+z
1/2+x,1/2-y,z
loop_
_atom_site_type_symbol
_atom_site_label
_atom_site_fract_x
_atom_site_fract_y
_atom_site_fract_z
Si Si1 0.459626 0.103268 0.309600
Si Si2 0.742221 0.754988 0.091016
Si Si3 0.145827 0.923308 0.624665
O O1 0.340276 0.103439 0.446575
O O2 0.531385 0.015935 0.543127
O O3 0.461150 0.312830 0.216881
O O4 0.733083 0.602312 0.867351
O O5 0.854089 0.863476 0.106384
O O6 0.688827 0.679831 0.361450
#
# Coordination Sequence:
#
# PCOD9344435 Si02
#       3
#     4   4   4
#     4  10  18  32  54  80 104 142 182 218 256 320
#     4  10  20  33  56  82 105 137 182 221 264 317
#     4  10  20  33  56  82 105 137 182 221 264 317
#
# _framework density 26.310251999999998
#
# number of rings (size 3 to 8) (size 9 to 14) (size 15 to 20)
#    2.000    0.000    3.333    2.000    0.000    0.000 
#    0.000    0.000    0.000    8.000    0.000    0.000 
#    0.000    0.000    0.000    0.000    0.000    0.000 
#
# Total GULP energy -66854.487560 kJ/mol
# GULP energy per Si atom -5571.207297 kJ/mol
# Density = 2.625037 g / cm^3
# Si number density = 26.310252 Si / 1000 Ang^3
#
#
#
# Elastic Constant Matrix: (Units=GPa)
#
#
# Indices 1 2 3 4 5 6 
#
# 1 35.1247 9.0454 19.7540 0.0000 0.0000 0.0000
# 2 9.0454 30.1134 -6.8429 0.0000 0.0000 0.0000
# 3 19.7540 -6.8429 186.5657 0.0000 0.0000 0.0000
# 4 0.0000 0.0000 0.0000 30.4276 0.0000 0.0000
# 5 0.0000 0.0000 0.0000 0.0000 4.5257 0.0000
# 6 0.0000 0.0000 0.0000 0.0000 0.0000 35.0346
#
#
#
# Elastic Compliance Matrix: (Units=1/GPa)
#
#
# Indices 1 2 3 4 5 6 
#
# 1 0.033516 -0.010965 -0.003951 0.000000 0.000000 0.000000
# 2 -0.010965 0.037074 0.002521 0.000000 0.000000 0.000000
# 3 -0.003951 0.002521 0.005871 0.000000 0.000000 0.000000
# 4 0.000000 0.000000 0.000000 0.032865 0.000000 0.000000
# 5 0.000000 0.000000 0.000000 0.000000 0.220958 0.000000
# 6 0.000000 0.000000 0.000000 0.000000 0.000000 0.028543
#
#
# Mechanical properties :
#
#
# Convention : Reuss Voigt Hill
#
# Bulk Modulus (GPa) = 19.35343 32.85744 26.10543
# Shear Modulus (GPa) = 12.47377 29.32075 20.89726
#
# Velocity S-wave (km/s) = 2.17975 3.34192 2.82132
# Velocity P-wave (km/s) = 3.70229 5.23515 4.53397
#
# Compressibility (1/GPa) = 0.05167042
#
# Stress axis : x y z
#
# Youngs Moduli (GPa) = 29.83675 26.97287 170.33359
#
# Poissons Ratio (x) = 0.29576 0.67297
# Poissons Ratio (y) = 0.32716 -0.42938
# Poissons Ratio (z) = 0.11788 -0.06799
#
# Static dielectric constant tensor:
#      x y z
#    x 2.244210 0.000000 0.000000 
#    y 0.000000 2.122600 0.000000 
#    z 0.000000 0.000000 2.010960 
# 
# From -- ./inp_files/63.got.cif
#   From: 2010.05.17/outbox.cif.g08.bks.cpg/sg33_1_cif.got.tgz:63.got - 2010.06.03 17:15:25.
