data_PCOD9344517
_publ_section_title
;
Structure prediction by ZEFSAII (Michael W. Deem and Ramdas Pophale) SiO2 
 PCOD9344517
Probable space group: P N A 21
;
_chemical_formula_sum "Si O2"
_cell_formula_units_Z 28
_cell_length_a 12.433263
_cell_length_b 10.734515
_cell_length_c 9.496535
_cell_angle_alpha 90.000000
_cell_angle_beta 90.000000
_cell_angle_gamma 90.000000
_cell_volume 1267.455501
_symmetry_space_group_name_H-M "P N A 21"
_symmetry_group_IT_number 33
_symmetry_cell_setting 'orthorhombic'
loop_
_space_group_symop_operation_xyz
x,y,z
-x,-y,1/2+z
1/2-x,1/2+y,1/2+z
1/2+x,1/2-y,z
loop_
_atom_site_type_symbol
_atom_site_label
_atom_site_fract_x
_atom_site_fract_y
_atom_site_fract_z
Si Si1 0.717346 0.964422 0.611610
Si Si2 0.419149 0.432895 0.743516
Si Si3 0.217346 0.464422 0.137402
Si Si4 0.643523 0.172901 0.399383
Si Si5 0.080851 0.067105 0.505495
Si Si6 0.558911 0.000000 0.874506
Si Si7 0.356477 0.172901 0.849629
O O1 0.835196 0.970610 0.676479
O O2 0.704053 0.086744 0.512811
O O3 0.631737 0.974678 0.738091
O O4 0.692348 0.852938 0.503745
O O5 0.335196 0.470610 0.072532
O O6 0.500000 0.390253 0.624505
O O7 0.355755 0.314039 0.801691
O O8 0.192348 0.352938 0.245266
O O9 0.523967 0.500000 0.374506
O O10 0.204053 0.586744 0.236201
O O11 0.131737 0.474678 0.010921
O O12 0.644245 0.314039 0.447320
O O13 0.522140 0.116473 0.396778
O O14 0.477860 0.116473 0.852233
#
# Coordination Sequence:
#
# PCOD9344517 Si02
#       7
#     4   4   4   4   4   4   4
#     4  10  21  42  68  96 126 169 231 269 324 395
#     4  12  27  44  62  97 138 177 217 276 341 397
#     4  10  21  42  68  96 126 169 231 269 324 395
#     4  10  22  40  70  93 129 175 214 278 330 398
#     4  12  27  44  62  97 138 177 217 276 341 397
#     4  10  18  40  68 100 124 164 232 276 318 390
#     4  10  22  40  70  93 129 175 214 278 330 398
#
# _framework density 22.091505000000002
#
# number of rings (size 3 to 8) (size 9 to 14) (size 15 to 20)
#    0.000    1.714    1.429    6.000    4.000    3.429 
#    0.000    0.000    0.000    0.000    0.000    0.000 
#    0.000    0.000    0.000    0.000    0.000    0.000 
#
# Total GULP energy -156619.043922 kJ/mol
# GULP energy per Si atom -5593.537283 kJ/mol
# Density = 2.204122 g / cm^3
# Si number density = 22.091505 Si / 1000 Ang^3
#
#
#
# Elastic Constant Matrix: (Units=GPa)
#
#
# Indices 1 2 3 4 5 6 
#
# 1 45.3095 -6.3770 30.4162 0.0000 0.0000 0.0000
# 2 -6.3770 55.7989 38.6829 0.0000 0.0000 0.0000
# 3 30.4162 38.6829 166.4942 0.0000 0.0000 0.0000
# 4 0.0000 0.0000 0.0000 27.0192 0.0000 0.0000
# 5 0.0000 0.0000 0.0000 0.0000 26.6863 0.0000
# 6 0.0000 0.0000 0.0000 0.0000 0.0000 -2.7350
#
#
#
# Elastic Compliance Matrix: (Units=1/GPa)
#
#
# Indices 1 2 3 4 5 6 
#
# 1 0.027861 0.008002 -0.006949 0.000000 0.000000 0.000000
# 2 0.008002 0.023660 -0.006959 0.000000 0.000000 0.000000
# 3 -0.006949 -0.006959 0.008893 0.000000 0.000000 0.000000
# 4 0.000000 0.000000 0.000000 0.037011 0.000000 0.000000
# 5 0.000000 0.000000 0.000000 0.000000 0.037472 0.000000
# 6 0.000000 0.000000 0.000000 0.000000 0.000000 -0.365631
#
#
# Mechanical properties :
#
#
# Convention : Reuss Voigt Hill
#
# Bulk Modulus (GPa) = 20.57550 43.67186 32.12368
# Shear Modulus (GPa) = -24.66449 23.85280 -0.40585
#
# Velocity S-wave (km/s) = -3.34499 3.28949 -0.42908
# Velocity P-wave (km/s) = 2.36318 5.85142 3.78514
#
# Compressibility (1/GPa) = 0.04860150
#
# Stress axis : x y z
#
# Youngs Moduli (GPa) = 35.89192 42.26492 112.45413
#
# Poissons Ratio (x) = -0.33818 0.78144
# Poissons Ratio (y) = -0.28719 0.78256
# Poissons Ratio (z) = 0.24941 0.29412
#
# Static dielectric constant tensor:
#      x y z
#    x 1.779490 0.000000 0.000000 
#    y 0.000000 1.801650 0.000000 
#    z 0.000000 0.000000 1.838970 
# 
# From -- ./inp_files/3865.got.cif
#   From: 2010.05.17/outbox.cif.g08.bks.cpg/sg33_2_cif.got.tgz:3865.got - 2010.06.03 17:15:25.
