data_PCOD9344525
_publ_section_title
;
Structure prediction by ZEFSAII (Michael W. Deem and Ramdas Pophale) SiO2 
 PCOD9344525
Probable space group: P N A 21
;
_chemical_formula_sum "Si O2"
_cell_formula_units_Z 28
_cell_length_a 13.143648
_cell_length_b 12.698484
_cell_length_c 5.860877
_cell_angle_alpha 90.000000
_cell_angle_beta 90.000000
_cell_angle_gamma 90.000000
_cell_volume 978.206182
_symmetry_space_group_name_H-M "P N A 21"
_symmetry_group_IT_number 33
_symmetry_cell_setting 'orthorhombic'
loop_
_space_group_symop_operation_xyz
x,y,z
-x,-y,1/2+z
1/2-x,1/2+y,1/2+z
1/2+x,1/2-y,z
loop_
_atom_site_type_symbol
_atom_site_label
_atom_site_fract_x
_atom_site_fract_y
_atom_site_fract_z
Si Si1 0.237096 0.275068 0.855570
Si Si2 0.238682 0.793901 0.868595
Si Si3 0.136116 0.974450 0.336574
Si Si4 0.106702 0.583138 0.186935
Si Si5 0.331321 0.525119 0.335766
Si Si6 0.992842 0.777875 0.418218
Si Si7 0.529999 0.143932 0.309393
O O1 0.286456 0.242933 0.612954
O O2 0.124215 0.227792 0.844928
O O3 0.259295 0.402671 0.851250
O O4 0.268849 0.246277 0.115075
O O5 0.172013 0.898163 0.849454
O O6 0.357191 0.829178 0.908723
O O7 0.126668 0.038785 0.573318
O O8 0.050966 0.882173 0.343896
O O9 0.132058 0.040878 0.101728
O O10 0.215087 0.563311 0.307190
O O11 0.043079 0.670265 0.327096
O O12 0.056406 0.465968 0.188302
O O13 0.074891 0.617409 0.933664
O O14 0.992815 0.753324 0.683764
#
# Coordination Sequence:
#
# PCOD9344525 Si02
#       7
#     4   4   4   4   4   4   4
#     4   9  17  32  47  71 102 139 173 221 260 316
#     4   8  15  28  45  66 100 135 166 204 259 318
#     4  10  22  37  49  77 112 151 187 218 273 342
#     4  11  20  31  54  81 114 148 181 233 288 349
#     4   9  21  34  50  69 112 150 179 221 268 330
#     4  11  22  32  56  80 112 152 184 229 279 344
#     4  10  19  28  47  80 112 137 182 214 287 343
#
# _framework density 28.623823999999999
#
# number of rings (size 3 to 8) (size 9 to 14) (size 15 to 20)
#    0.000    2.286    2.857    0.857    4.000    0.000 
#    0.000    0.000    0.000    0.000    0.000    2.000 
#    0.000    0.000    0.000    0.000    0.000    0.000 
#
# Total GULP energy -156200.581045 kJ/mol
# GULP energy per Si atom -5578.592180 kJ/mol
# Density = 2.855867 g / cm^3
# Si number density = 28.623824 Si / 1000 Ang^3
#
#
#
# Elastic Constant Matrix: (Units=GPa)
#
#
# Indices 1 2 3 4 5 6 
#
# 1 86.1792 5.7595 67.2020 0.0000 0.0000 0.0000
# 2 5.7595 87.5568 74.6313 0.0000 0.0000 0.0000
# 3 67.2020 74.6313 259.4799 0.0000 0.0000 0.0000
# 4 0.0000 0.0000 0.0000 57.5451 0.0000 0.0000
# 5 0.0000 0.0000 0.0000 0.0000 29.2486 0.0000
# 6 0.0000 0.0000 0.0000 0.0000 0.0000 43.0529
#
#
#
# Elastic Compliance Matrix: (Units=1/GPa)
#
#
# Indices 1 2 3 4 5 6 
#
# 1 0.015154 0.003111 -0.004820 0.000000 0.000000 0.000000
# 2 0.003111 0.015769 -0.005341 0.000000 0.000000 0.000000
# 3 -0.004820 -0.005341 0.006638 0.000000 0.000000 0.000000
# 4 0.000000 0.000000 0.000000 0.017378 0.000000 0.000000
# 5 0.000000 0.000000 0.000000 0.000000 0.034190 0.000000
# 6 0.000000 0.000000 0.000000 0.000000 0.000000 0.023227
#
#
# Mechanical properties :
#
#
# Convention : Reuss Voigt Hill
#
# Bulk Modulus (GPa) = 42.62130 80.93350 61.77740
# Shear Modulus (GPa) = 37.23661 45.01085 41.12373
#
# Velocity S-wave (km/s) = 3.61071 3.96977 3.79449
# Velocity P-wave (km/s) = 5.68378 7.02484 6.38959
#
# Compressibility (1/GPa) = 0.02346244
#
# Stress axis : x y z
#
# Youngs Moduli (GPa) = 65.98887 63.41426 150.64014
#
# Poissons Ratio (x) = -0.19730 0.72602
# Poissons Ratio (y) = -0.20531 0.80462
# Poissons Ratio (z) = 0.31804 0.33872
#
# Static dielectric constant tensor:
#      x y z
#    x 2.331320 0.000000 0.000000 
#    y 0.000000 2.332960 0.000000 
#    z 0.000000 0.000000 2.362750 
# 
# From -- ./inp_files/1461.got.cif
#   From: 2010.05.17/outbox.cif.g08.bks.cpg/sg33_1_cif.got.tgz:1461.got - 2010.06.03 17:15:25.
