data_PCOD9344075
_publ_section_title
;
Structure prediction by ZEFSAII (Michael W. Deem and Ramdas Pophale) SiO2 
 PCOD9344075
Probable space group: P B A 2
;
_chemical_formula_sum "Si O2"
_cell_formula_units_Z 26
_cell_length_a 16.535972
_cell_length_b 13.078431
_cell_length_c 5.242166
_cell_angle_alpha 90.000000
_cell_angle_beta 90.000000
_cell_angle_gamma 90.000000
_cell_volume 1133.694770
_symmetry_space_group_name_H-M "P B A 2"
_symmetry_group_IT_number 32
_symmetry_cell_setting 'orthorhombic'
loop_
_space_group_symop_operation_xyz
x,y,z
-x,-y,z
1/2-x,1/2+y,z
1/2+x,1/2-y,z
loop_
_atom_site_type_symbol
_atom_site_label
_atom_site_fract_x
_atom_site_fract_y
_atom_site_fract_z
Si Si1 0.642412 0.284569 0.822530
Si Si2 0.500000 0.000000 0.817784
Si Si3 0.349727 0.921191 0.527065
Si Si4 0.111309 0.795123 0.528331
Si Si5 0.675760 0.518945 0.753825
Si Si6 0.524893 0.781335 0.028311
Si Si7 0.255637 0.341144 0.159336
O O1 0.632904 0.196126 0.610376
O O2 0.655521 0.400977 0.749190
O O3 0.558903 0.276808 0.977001
O O4 0.720250 0.246060 0.980212
O O5 0.423377 0.985798 0.631101
O O6 0.509159 0.901203 0.994665
O O7 0.322813 0.909195 0.235131
O O8 0.266745 0.964160 0.648462
O O9 0.087310 0.744334 0.796543
O O10 0.200873 0.787791 0.400987
O O11 0.111299 0.916045 0.590600
O O12 0.056332 0.751099 0.304328
O O13 0.682925 0.580465 0.022533
#
# Coordination Sequence:
#
# PCOD9344075 Si02
#       7
#     4   2   4   4   4   4   4
#     4  10  24  43  70 105 145 186 236 302 355 435
#     4  10  24  44  72 108 146 196 238 302 374 430
#     4   9  22  42  66 105 145 181 244 294 363 428
#     4  11  24  47  70 103 145 185 241 295 353 435
#     4  10  22  44  70 104 134 197 236 291 360 431
#     4  11  26  47  70 108 147 188 240 303 362 428
#     4  10  22  44  71 101 146 183 246 295 355 435
#
# _framework density 22.933859999999999
#
# number of rings (size 3 to 8) (size 9 to 14) (size 15 to 20)
#    0.000    1.846    1.538    0.000    6.462    4.923 
#    5.538    0.000    0.000    0.000    0.000    0.000 
#    0.000    0.000    0.000    0.000    0.000    0.000 
#
# Total GULP energy -145153.706310 kJ/mol
# GULP energy per Si atom -5582.834858 kJ/mol
# Density = 2.288166 g / cm^3
# Si number density = 22.933860 Si / 1000 Ang^3
#
#
#
# Elastic Constant Matrix: (Units=GPa)
#
#
# Indices 1 2 3 4 5 6 
#
# 1 82.1824 37.6327 15.3515 0.0000 0.0000 0.0000
# 2 37.6327 155.4343 31.9377 0.0000 0.0000 0.0000
# 3 15.3515 31.9377 82.4800 0.0000 0.0000 0.0000
# 4 0.0000 0.0000 0.0000 13.1174 0.0000 0.0000
# 5 0.0000 0.0000 0.0000 0.0000 40.0529 0.0000
# 6 0.0000 0.0000 0.0000 0.0000 0.0000 33.3248
#
#
#
# Elastic Compliance Matrix: (Units=1/GPa)
#
#
# Indices 1 2 3 4 5 6 
#
# 1 0.013830 -0.003063 -0.001388 0.000000 0.000000 0.000000
# 2 -0.003063 0.007668 -0.002399 0.000000 0.000000 0.000000
# 3 -0.001388 -0.002399 0.013311 0.000000 0.000000 0.000000
# 4 0.000000 0.000000 0.000000 0.076235 0.000000 0.000000
# 5 0.000000 0.000000 0.000000 0.000000 0.024967 0.000000
# 6 0.000000 0.000000 0.000000 0.000000 0.000000 0.030008
#
#
# Mechanical properties :
#
#
# Convention : Reuss Voigt Hill
#
# Bulk Modulus (GPa) = 47.37306 54.43785 50.90546
# Shear Modulus (GPa) = 26.77288 32.97734 29.87511
#
# Velocity S-wave (km/s) = 3.42042 3.79612 3.61316
# Velocity P-wave (km/s) = 6.02497 6.55763 6.29693
#
# Compressibility (1/GPa) = 0.02110905
#
# Stress axis : x y z
#
# Youngs Moduli (GPa) = 72.30640 130.40880 75.12318
#
# Poissons Ratio (x) = 0.39947 0.10427
# Poissons Ratio (y) = 0.22149 0.18023
# Poissons Ratio (z) = 0.10036 0.31287
#
# Static dielectric constant tensor:
#      x y z
#    x 1.906380 0.000000 0.000000 
#    y 0.000000 1.806580 0.000000 
#    z 0.000000 0.000000 1.975320 
# 
# From -- ./inp_files/1435.got.cif
#   From: 2010.05.17/outbox.cif.g08.bks.cpg/sg32_1_cif.got.tgz:1435.got - 2010.06.03 17:12:27.
