data_PCOD9344147
_publ_section_title
;
Structure prediction by ZEFSAII (Michael W. Deem and Ramdas Pophale) SiO2 
 PCOD9344147
Probable space group: P B A 2
;
_chemical_formula_sum "Si O2"
_cell_formula_units_Z 28
_cell_length_a 19.173129
_cell_length_b 11.029605
_cell_length_c 5.578322
_cell_angle_alpha 90.000000
_cell_angle_beta 90.000000
_cell_angle_gamma 90.000000
_cell_volume 1179.659130
_symmetry_space_group_name_H-M "P B A 2"
_symmetry_group_IT_number 32
_symmetry_cell_setting 'orthorhombic'
loop_
_space_group_symop_operation_xyz
x,y,z
-x,-y,z
1/2-x,1/2+y,z
1/2+x,1/2-y,z
loop_
_atom_site_type_symbol
_atom_site_label
_atom_site_fract_x
_atom_site_fract_y
_atom_site_fract_z
Si Si1 0.572135 0.667418 0.565240
Si Si2 0.128986 0.629736 0.833222
Si Si3 0.000000 0.000000 0.866452
Si Si4 0.051432 0.294627 0.367152
Si Si5 0.774423 0.534355 0.102373
Si Si6 0.620810 0.458651 0.223570
Si Si7 0.000000 0.500000 0.031907
Si Si8 0.173757 0.405892 0.602475
O O1 0.623696 0.734277 0.745438
O O2 0.504418 0.617293 0.704064
O O3 0.530788 0.759319 0.391739
O O4 0.607514 0.552147 0.442289
O O5 0.174261 0.581151 0.054899
O O6 0.160386 0.550104 0.618106
O O7 0.050732 0.583635 0.877089
O O8 0.067674 0.995765 0.024193
O O9 0.098818 0.340067 0.590132
O O10 0.047831 0.410235 0.190569
O O11 0.093840 0.176965 0.275660
O O12 0.786993 0.613217 0.857206
O O13 0.698369 0.477310 0.131532
O O14 0.789873 0.610146 0.344807
#
# Coordination Sequence:
#
# PCOD9344147 Si02
#       8
#     4   4   2   4   4   4   2   4
#     4  12  25  44  75 113 155 201 272 332 409 485
#     4  10  24  44  75 113 148 201 261 330 401 470
#     4  12  24  48  68 108 146 210 260 328 404 476
#     4  12  22  46  78 113 158 200 269 334 405 474
#     4  10  26  50  73 109 153 207 261 324 405 482
#     4  12  27  50  73 111 160 209 265 332 409 503
#     4  12  22  44  82 116 152 206 266 346 392 486
#     4  10  23  49  73 114 150 197 268 317 407 470
#
# _framework density 23.735669999999999
#
# number of rings (size 3 to 8) (size 9 to 14) (size 15 to 20)
#    0.857    0.000    4.286    2.571    2.000    1.143 
#    5.143    1.429    0.000    0.000    0.000    0.000 
#    0.000    0.000    0.000    0.000    0.000    0.000 
#
# Total GULP energy -156230.186764 kJ/mol
# GULP energy per Si atom -5579.649527 kJ/mol
# Density = 2.368165 g / cm^3
# Si number density = 23.735670 Si / 1000 Ang^3
#
#
#
# Elastic Constant Matrix: (Units=GPa)
#
#
# Indices 1 2 3 4 5 6 
#
# 1 116.0309 8.3046 30.1714 0.0000 0.0000 0.0000
# 2 8.3046 88.7511 29.0818 0.0000 0.0000 0.0000
# 3 30.1714 29.0818 113.4651 0.0000 0.0000 0.0000
# 4 0.0000 0.0000 0.0000 29.9356 0.0000 0.0000
# 5 0.0000 0.0000 0.0000 0.0000 49.3921 0.0000
# 6 0.0000 0.0000 0.0000 0.0000 0.0000 23.6120
#
#
#
# Elastic Compliance Matrix: (Units=1/GPa)
#
#
# Indices 1 2 3 4 5 6 
#
# 1 0.009259 -0.000065 -0.002445 0.000000 0.000000 0.000000
# 2 -0.000065 0.012301 -0.003136 0.000000 0.000000 0.000000
# 3 -0.002445 -0.003136 0.010267 0.000000 0.000000 0.000000
# 4 0.000000 0.000000 0.000000 0.033405 0.000000 0.000000
# 5 0.000000 0.000000 0.000000 0.000000 0.020246 0.000000
# 6 0.000000 0.000000 0.000000 0.000000 0.000000 0.042351
#
#
# Mechanical properties :
#
#
# Convention : Reuss Voigt Hill
#
# Bulk Modulus (GPa) = 48.69689 50.37362 49.53525
# Shear Modulus (GPa) = 34.25442 37.30057 35.77749
#
# Velocity S-wave (km/s) = 3.80302 3.96851 3.88665
# Velocity P-wave (km/s) = 6.31227 6.50136 6.40751
#
# Compressibility (1/GPa) = 0.02053519
#
# Stress axis : x y z
#
# Youngs Moduli (GPa) = 108.00408 81.29429 97.39782
#
# Poissons Ratio (x) = 0.00529 0.23817
# Poissons Ratio (y) = 0.00703 0.30539
# Poissons Ratio (z) = 0.26411 0.25490
#
# Static dielectric constant tensor:
#      x y z
#    x 1.889050 0.000000 0.000000 
#    y 0.000000 1.961510 0.000000 
#    z 0.000000 0.000000 1.987020 
# 
# From -- ./inp_files/1587.got.cif
#   From: 2010.05.17/outbox.cif.g08.bks.cpg/sg32_1_cif.got.tgz:1587.got - 2010.06.03 17:12:27.
