data_PCOD9344108
_publ_section_title
;
Structure prediction by ZEFSAII (Michael W. Deem and Ramdas Pophale) SiO2 
 PCOD9344108
Probable space group: P B A 2
;
_chemical_formula_sum "Si O2"
_cell_formula_units_Z 30
_cell_length_a 10.757036
_cell_length_b 18.811866
_cell_length_c 6.320237
_cell_angle_alpha 90.000000
_cell_angle_beta 90.000000
_cell_angle_gamma 90.000000
_cell_volume 1278.962652
_symmetry_space_group_name_H-M "P B A 2"
_symmetry_group_IT_number 32
_symmetry_cell_setting 'orthorhombic'
loop_
_space_group_symop_operation_xyz
x,y,z
-x,-y,z
1/2-x,1/2+y,z
1/2+x,1/2-y,z
loop_
_atom_site_type_symbol
_atom_site_label
_atom_site_fract_x
_atom_site_fract_y
_atom_site_fract_z
Si Si1 0.692164 0.692880 0.675920
Si Si2 0.500000 0.000000 0.877528
Si Si3 0.027319 0.404748 0.250118
Si Si4 0.080634 0.729902 0.291543
Si Si5 0.028511 0.870958 0.053315
Si Si6 0.686186 0.942215 0.591814
Si Si7 0.296507 0.442746 0.365420
Si Si8 0.733340 0.322962 0.920037
O O1 0.628465 0.751718 0.524070
O O2 0.717345 0.625949 0.520593
O O3 0.787532 0.744321 0.809299
O O4 0.604342 0.655107 0.848165
O O5 0.483658 0.068536 0.022901
O O6 0.378812 0.996850 0.733794
O O7 0.158569 0.443094 0.267054
O O8 0.038209 0.321063 0.275890
O O9 0.921361 0.421978 0.422988
O O10 0.040067 0.805012 0.208733
O O11 0.180687 0.695746 0.125732
O O12 0.100621 0.931846 0.183733
O O13 0.884414 0.869543 0.995571
O O14 0.713912 0.875240 0.738249
O O15 0.803266 0.981459 0.484730
#
# Coordination Sequence:
#
# PCOD9344108 Si02
#       8
#     4   2   4   4   4   4   4   4
#     4  10  24  42  67 101 135 179 231 289 352 414
#     4  12  22  40  68 104 138 168 230 300 358 426
#     4  12  23  40  71 105 136 171 230 300 358 423
#     4  10  23  41  70 104 133 175 224 299 352 412
#     4  10  26  44  66 103 139 187 233 282 352 437
#     4  12  24  43  70 104 137 189 237 297 360 432
#     4  11  25  42  69 102 142 182 234 296 356 418
#     4  11  24  44  72 101 139 185 239 281 360 434
#
# _framework density 23.456510000000002
#
# number of rings (size 3 to 8) (size 9 to 14) (size 15 to 20)
#    0.000    1.067    5.333    0.000    9.333    1.067 
#    0.000    0.667    2.933    0.000    0.000    0.000 
#    0.000    0.000    0.000    0.000    0.000    0.000 
#
# Total GULP energy -167184.117840 kJ/mol
# GULP energy per Si atom -5572.803928 kJ/mol
# Density = 2.340312 g / cm^3
# Si number density = 23.456510 Si / 1000 Ang^3
#
#
#
# Elastic Constant Matrix: (Units=GPa)
#
#
# Indices 1 2 3 4 5 6 
#
# 1 41.2569 2.9435 14.4174 0.0000 0.0000 0.0000
# 2 2.9435 54.9143 17.8562 0.0000 0.0000 0.0000
# 3 14.4174 17.8562 91.9568 0.0000 0.0000 0.0000
# 4 0.0000 0.0000 0.0000 34.4277 0.0000 0.0000
# 5 0.0000 0.0000 0.0000 0.0000 23.6268 0.0000
# 6 0.0000 0.0000 0.0000 0.0000 0.0000 23.6049
#
#
#
# Elastic Compliance Matrix: (Units=1/GPa)
#
#
# Indices 1 2 3 4 5 6 
#
# 1 0.025644 -0.000072 -0.004007 0.000000 0.000000 0.000000
# 2 -0.000072 0.019438 -0.003763 0.000000 0.000000 0.000000
# 3 -0.004007 -0.003763 0.012234 0.000000 0.000000 0.000000
# 4 0.000000 0.000000 0.000000 0.029046 0.000000 0.000000
# 5 0.000000 0.000000 0.000000 0.000000 0.042325 0.000000
# 6 0.000000 0.000000 0.000000 0.000000 0.000000 0.042364
#
#
# Mechanical properties :
#
#
# Convention : Reuss Voigt Hill
#
# Bulk Modulus (GPa) = 24.02005 28.72913 26.37459
# Shear Modulus (GPa) = 24.92394 26.52595 25.72494
#
# Velocity S-wave (km/s) = 3.26323 3.36647 3.31525
# Velocity P-wave (km/s) = 4.94578 5.23309 5.09146
#
# Compressibility (1/GPa) = 0.04163188
#
# Stress axis : x y z
#
# Youngs Moduli (GPa) = 38.99612 51.44649 81.74225
#
# Poissons Ratio (x) = 0.00369 0.32751
# Poissons Ratio (y) = 0.00280 0.30761
# Poissons Ratio (z) = 0.15624 0.19360
#
# Static dielectric constant tensor:
#      x y z
#    x 1.935280 0.000000 0.000000 
#    y 0.000000 1.946630 0.000000 
#    z 0.000000 0.000000 2.002960 
# 
# From -- ./inp_files/1039.got.cif
#   From: 2010.05.17/outbox.cif.g08.bks.cpg/sg32_1_cif.got.tgz:1039.got - 2010.06.03 17:12:27.
