data_PCOD9344675
_publ_section_title
;
Structure prediction by ZEFSAII (Michael W. Deem and Ramdas Pophale) SiO2 
 PCOD9344675
Probable space group: P N A 21
;
_chemical_formula_sum "Si O2"
_cell_formula_units_Z 32
_cell_length_a 14.586651
_cell_length_b 10.991087
_cell_length_c 8.108407
_cell_angle_alpha 90.000000
_cell_angle_beta 90.000000
_cell_angle_gamma 90.000000
_cell_volume 1299.965353
_symmetry_space_group_name_H-M "P N A 21"
_symmetry_group_IT_number 33
_symmetry_cell_setting 'orthorhombic'
loop_
_space_group_symop_operation_xyz
x,y,z
-x,-y,1/2+z
1/2-x,1/2+y,1/2+z
1/2+x,1/2-y,z
loop_
_atom_site_type_symbol
_atom_site_label
_atom_site_fract_x
_atom_site_fract_y
_atom_site_fract_z
Si Si1 0.230241 0.585805 0.885470
Si Si2 0.592002 0.071593 0.338632
Si Si3 0.924184 0.578378 0.444194
Si Si4 0.387119 0.308908 0.255357
Si Si5 0.446656 0.299778 0.884997
Si Si6 0.414940 0.669119 0.923972
Si Si7 0.792724 0.342237 0.767427
Si Si8 0.109396 0.079416 0.790199
O O1 0.171690 0.463078 0.864641
O O2 0.176464 0.698752 0.808512
O O3 0.336751 0.587679 0.835607
O O4 0.226731 0.612801 0.082026
O O5 0.493279 0.034643 0.412446
O O6 0.626246 0.193447 0.425337
O O7 0.653409 0.951443 0.358424
O O8 0.585094 0.095585 0.141289
O O9 0.978125 0.691773 0.367538
O O10 0.488105 0.311076 0.336678
O O11 0.350116 0.443892 0.290305
O O12 0.400386 0.294841 0.061495
O O13 0.363059 0.270395 0.763106
O O14 0.513123 0.415524 0.884701
O O15 0.422731 0.619416 0.108010
O O16 0.692299 0.333196 0.847375
#
# Coordination Sequence:
#
# PCOD9344675 Si02
#       8
#     4   4   4   4   4   4   4   4
#     4  10  21  39  68  92 126 167 211 267 325 391
#     4  10  19  36  65  88 121 157 206 266 315 382
#     4  10  19  37  62  94 121 157 213 268 320 372
#     4  12  23  43  65  98 129 174 213 269 326 390
#     4  11  23  40  66  94 132 169 215 270 324 382
#     4  11  22  40  64  92 126 174 213 253 332 386
#     4   9  22  42  63  94 122 168 213 265 326 376
#     4  11  25  43  61  90 137 174 214 262 322 395
#
# _framework density 24.616038
#
# number of rings (size 3 to 8) (size 9 to 14) (size 15 to 20)
#    0.000    1.500    2.500    2.250    3.500    1.000 
#    9.000    0.000    0.000    0.000    0.000    0.000 
#    0.000    0.000    0.000    0.000    0.000    0.000 
#
# Total GULP energy -178909.450748 kJ/mol
# GULP energy per Si atom -5590.920336 kJ/mol
# Density = 2.456001 g / cm^3
# Si number density = 24.616038 Si / 1000 Ang^3
#
#
#
# Elastic Constant Matrix: (Units=GPa)
#
#
# Indices 1 2 3 4 5 6 
#
# 1 117.7493 -9.3493 4.2578 0.0000 0.0000 0.0000
# 2 -9.3493 67.2626 -1.5070 0.0000 0.0000 0.0000
# 3 4.2578 -1.5070 25.2053 0.0000 0.0000 0.0000
# 4 0.0000 0.0000 0.0000 20.0300 0.0000 0.0000
# 5 0.0000 0.0000 0.0000 0.0000 20.4204 0.0000
# 6 0.0000 0.0000 0.0000 0.0000 0.0000 36.3886
#
#
#
# Elastic Compliance Matrix: (Units=1/GPa)
#
#
# Indices 1 2 3 4 5 6 
#
# 1 0.008636 0.001169 -0.001389 0.000000 0.000000 0.000000
# 2 0.001169 0.015045 0.000702 0.000000 0.000000 0.000000
# 3 -0.001389 0.000702 0.039951 0.000000 0.000000 0.000000
# 4 0.000000 0.000000 0.000000 0.049925 0.000000 0.000000
# 5 0.000000 0.000000 0.000000 0.000000 0.048971 0.000000
# 6 0.000000 0.000000 0.000000 0.000000 0.000000 0.027481
#
#
# Mechanical properties :
#
#
# Convention : Reuss Voigt Hill
#
# Bulk Modulus (GPa) = 15.48072 21.89113 18.68593
# Shear Modulus (GPa) = 23.74437 29.82217 26.78327
#
# Velocity S-wave (km/s) = 3.10915 3.48443 3.30213
# Velocity P-wave (km/s) = 4.38083 5.01006 4.70597
#
# Compressibility (1/GPa) = 0.06459647
#
# Stress axis : x y z
#
# Youngs Moduli (GPa) = 115.79864 66.46572 25.03084
#
# Poissons Ratio (x) = -0.07771 0.03476
# Poissons Ratio (y) = -0.13539 -0.01757
# Poissons Ratio (z) = 0.16083 -0.04666
#
# Static dielectric constant tensor:
#      x y z
#    x 2.049580 0.000000 0.000000 
#    y 0.000000 2.036510 0.000000 
#    z 0.000000 0.000000 1.889810 
# 
# From -- ./inp_files/4457.got.cif
#   From: 2010.05.17/outbox.cif.g08.bks.cpg/sg33_3_cif.got.tgz:4457.got - 2010.06.03 17:15:25.
