data_PCOD9344630
_publ_section_title
;
Structure prediction by ZEFSAII (Michael W. Deem and Ramdas Pophale) SiO2 
 PCOD9344630
Probable space group: P N A 21
;
_chemical_formula_sum "Si O2"
_cell_formula_units_Z 28
_cell_length_a 19.286426
_cell_length_b 9.044344
_cell_length_c 9.376312
_cell_angle_alpha 90.000000
_cell_angle_beta 90.000000
_cell_angle_gamma 90.000000
_cell_volume 1635.538899
_symmetry_space_group_name_H-M "P N A 21"
_symmetry_group_IT_number 33
_symmetry_cell_setting 'orthorhombic'
loop_
_space_group_symop_operation_xyz
x,y,z
-x,-y,1/2+z
1/2-x,1/2+y,1/2+z
1/2+x,1/2-y,z
loop_
_atom_site_type_symbol
_atom_site_label
_atom_site_fract_x
_atom_site_fract_y
_atom_site_fract_z
Si Si1 0.248907 0.443296 0.654330
Si Si2 0.060288 0.570216 0.451446
Si Si3 0.783678 0.986074 0.963785
Si Si4 0.331278 0.242432 0.138692
Si Si5 0.341739 0.237636 0.471743
Si Si6 0.520396 0.851407 0.134615
Si Si7 0.622430 0.218696 0.531544
O O1 0.280011 0.433125 0.811819
O O2 0.226385 0.612640 0.630783
O O3 0.300635 0.376829 0.537532
O O4 0.178281 0.347493 0.642675
O O5 0.106558 0.687654 0.536780
O O6 0.032951 0.626425 0.301422
O O7 0.107176 0.421496 0.428255
O O8 0.001141 0.505727 0.556815
O O9 0.711193 0.900777 0.988785
O O10 0.801006 0.103998 0.084340
O O11 0.842506 0.859478 0.961284
O O12 0.354321 0.252519 0.303089
O O13 0.411943 0.210662 0.557584
O O14 0.451716 0.753425 0.104489
#
# Coordination Sequence:
#
# PCOD9344630 Si02
#       7
#     4   4   4   4   4   4   4
#     4   9  19  35  56  81 110 147 189 233 276 345
#     4   9  19  34  60  79 112 146 196 224 291 341
#     4  10  20  36  59  79 116 147 191 236 293 327
#     4  10  20  36  57  82 113 147 188 241 283 347
#     4  10  21  35  57  84 112 146 193 238 284 344
#     4  10  19  35  61  81 113 153 189 237 287 347
#     4   8  20  35  56  84 116 144 188 241 276 347
#
# _framework density 17.11974
#
# number of rings (size 3 to 8) (size 9 to 14) (size 15 to 20)
#    0.857    1.714    0.000    1.714    2.000    6.857 
#    0.000    2.857    6.286    0.000    0.000    0.000 
#    0.000    0.000    0.000    0.000    0.000    0.000 
#
# Total GULP energy -155881.194510 kJ/mol
# GULP energy per Si atom -5567.185518 kJ/mol
# Density = 1.708078 g / cm^3
# Si number density = 17.119740 Si / 1000 Ang^3
#
#
#
# Elastic Constant Matrix: (Units=GPa)
#
#
# Indices 1 2 3 4 5 6 
#
# 1 105.2156 14.9167 49.7336 0.0000 0.0000 0.0000
# 2 14.9167 17.6979 4.1243 0.0000 0.0000 0.0000
# 3 49.7336 4.1243 86.5715 0.0000 0.0000 0.0000
# 4 0.0000 0.0000 0.0000 18.8275 0.0000 0.0000
# 5 0.0000 0.0000 0.0000 0.0000 25.9842 0.0000
# 6 0.0000 0.0000 0.0000 0.0000 0.0000 11.4201
#
#
#
# Elastic Compliance Matrix: (Units=1/GPa)
#
#
# Indices 1 2 3 4 5 6 
#
# 1 0.014782 -0.010598 -0.007987 0.000000 0.000000 0.000000
# 2 -0.010598 0.064736 0.003004 0.000000 0.000000 0.000000
# 3 -0.007987 0.003004 0.015996 0.000000 0.000000 0.000000
# 4 0.000000 0.000000 0.000000 0.053114 0.000000 0.000000
# 5 0.000000 0.000000 0.000000 0.000000 0.038485 0.000000
# 6 0.000000 0.000000 0.000000 0.000000 0.000000 0.087565
#
#
# Mechanical properties :
#
#
# Convention : Reuss Voigt Hill
#
# Bulk Modulus (GPa) = 15.53924 38.55936 27.04930
# Shear Modulus (GPa) = 15.27689 20.62704 17.95197
#
# Velocity S-wave (km/s) = 2.99047 3.47489 3.24174
# Velocity P-wave (km/s) = 4.58480 6.21868 5.46317
#
# Compressibility (1/GPa) = 0.06435321
#
# Stress axis : x y z
#
# Youngs Moduli (GPa) = 67.64898 15.44730 62.51369
#
# Poissons Ratio (x) = 0.16371 0.49931
# Poissons Ratio (y) = 0.71694 -0.18780
# Poissons Ratio (z) = 0.54032 -0.04641
#
# Static dielectric constant tensor:
#      x y z
#    x 1.587140 0.000000 0.000000 
#    y 0.000000 1.579010 0.000000 
#    z 0.000000 0.000000 1.563270 
# 
# From -- ./inp_files/4717.got.cif
#   From: 2010.05.17/outbox.cif.g08.bks.cpg/sg33_3_cif.got.tgz:4717.got - 2010.06.03 17:15:25.
