data_PCOD9344168
_publ_section_title
;
Structure prediction by ZEFSAII (Michael W. Deem and Ramdas Pophale) SiO2 
 PCOD9344168
Probable space group: P B A 2
;
_chemical_formula_sum "Si O2"
_cell_formula_units_Z 20
_cell_length_a 15.290623
_cell_length_b 11.258735
_cell_length_c 5.032090
_cell_angle_alpha 90.000000
_cell_angle_beta 90.000000
_cell_angle_gamma 90.000000
_cell_volume 866.289754
_symmetry_space_group_name_H-M "P B A 2"
_symmetry_group_IT_number 32
_symmetry_cell_setting 'orthorhombic'
loop_
_space_group_symop_operation_xyz
x,y,z
-x,-y,z
1/2-x,1/2+y,z
1/2+x,1/2-y,z
loop_
_atom_site_type_symbol
_atom_site_label
_atom_site_fract_x
_atom_site_fract_y
_atom_site_fract_z
Si Si1 0.445988 0.664575 0.340260
Si Si2 0.305352 0.495113 0.156013
Si Si3 0.865414 0.577508 0.414826
Si Si4 0.063542 0.833649 0.834720
Si Si5 0.862863 0.425001 0.932079
O O1 0.367217 0.571493 0.345288
O O2 0.410492 0.796298 0.391997
O O3 0.523358 0.639743 0.548156
O O4 0.484870 0.656382 0.045303
O O5 0.236842 0.415648 0.325043
O O6 0.361216 0.418012 0.950635
O O7 0.240661 0.583425 0.995648
O O8 0.874417 0.522919 0.705004
O O9 0.900561 0.479646 0.204553
O O10 0.097865 0.699016 0.846444
#
# Coordination Sequence:
#
# PCOD9344168 Si02
#       5
#     4   4   4   4   4
#     4  12  27  44  71 107 144 181 236 300 356 407
#     4  10  27  46  73  98 144 192 238 280 351 432
#     4  10  24  44  75  98 141 187 240 281 351 428
#     4  12  27  44  71 107 144 181 236 300 356 407
#     4  10  24  44  75  98 141 187 240 281 351 428
#
# _framework density 23.086962
#
# number of rings (size 3 to 8) (size 9 to 14) (size 15 to 20)
#    1.200    0.000    0.000    4.200    5.600    8.000 
#    0.000    0.000    0.000    0.000    0.000    0.000 
#    0.000    0.000    0.000    0.000    0.000    0.000 
#
# Total GULP energy -111963.347322 kJ/mol
# GULP energy per Si atom -5598.167366 kJ/mol
# Density = 2.303441 g / cm^3
# Si number density = 23.086962 Si / 1000 Ang^3
#
#
#
# Elastic Constant Matrix: (Units=GPa)
#
#
# Indices 1 2 3 4 5 6 
#
# 1 75.6633 31.4346 -21.7600 0.0000 0.0000 0.0000
# 2 31.4346 87.7561 -1.9678 0.0000 0.0000 0.0000
# 3 -21.7600 -1.9678 47.8267 0.0000 0.0000 0.0000
# 4 0.0000 0.0000 0.0000 26.0951 0.0000 0.0000
# 5 0.0000 0.0000 0.0000 0.0000 49.2056 0.0000
# 6 0.0000 0.0000 0.0000 0.0000 0.0000 71.7563
#
#
#
# Elastic Compliance Matrix: (Units=1/GPa)
#
#
# Indices 1 2 3 4 5 6 
#
# 1 0.018140 -0.006319 0.007993 0.000000 0.000000 0.000000
# 2 -0.006319 0.013607 -0.002315 0.000000 0.000000 0.000000
# 3 0.007993 -0.002315 0.024450 0.000000 0.000000 0.000000
# 4 0.000000 0.000000 0.000000 0.038321 0.000000 0.000000
# 5 0.000000 0.000000 0.000000 0.000000 0.020323 0.000000
# 6 0.000000 0.000000 0.000000 0.000000 0.000000 0.013936
#
#
# Mechanical properties :
#
#
# Convention : Reuss Voigt Hill
#
# Bulk Modulus (GPa) = 18.20929 25.18441 21.69685
# Shear Modulus (GPa) = 33.70089 42.98070 38.34079
#
# Velocity S-wave (km/s) = 3.82480 4.31941 4.07960
# Velocity P-wave (km/s) = 5.23544 5.98403 5.62220
#
# Compressibility (1/GPa) = 0.05491701
#
# Stress axis : x y z
#
# Youngs Moduli (GPa) = 55.12546 73.49319 40.89908
#
# Poissons Ratio (x) = 0.46438 -0.32693
# Poissons Ratio (y) = 0.34832 0.09468
# Poissons Ratio (z) = -0.44064 0.17014
#
# Static dielectric constant tensor:
#      x y z
#    x 1.906200 0.000000 0.000000 
#    y 0.000000 1.807130 0.000000 
#    z 0.000000 0.000000 1.819500 
# 
# From -- ./inp_files/1130.got.cif
#   From: 2010.05.17/outbox.cif.g08.bks.cpg/sg32_1_cif.got.tgz:1130.got - 2010.06.03 17:12:27.
