data_PCOD9344465
_publ_section_title
;
Structure prediction by ZEFSAII (Michael W. Deem and Ramdas Pophale) SiO2 
 PCOD9344465
Probable space group: P N A 21
;
_chemical_formula_sum "Si O2"
_cell_formula_units_Z 32
_cell_length_a 18.901302
_cell_length_b 13.364226
_cell_length_c 5.474027
_cell_angle_alpha 90.000000
_cell_angle_beta 90.000000
_cell_angle_gamma 90.000000
_cell_volume 1382.746181
_symmetry_space_group_name_H-M "P N A 21"
_symmetry_group_IT_number 33
_symmetry_cell_setting 'orthorhombic'
loop_
_space_group_symop_operation_xyz
x,y,z
-x,-y,1/2+z
1/2-x,1/2+y,1/2+z
1/2+x,1/2-y,z
loop_
_atom_site_type_symbol
_atom_site_label
_atom_site_fract_x
_atom_site_fract_y
_atom_site_fract_z
Si Si1 0.060682 0.600017 0.930350
Si Si2 0.338941 0.513728 0.865199
Si Si3 0.093937 0.193888 0.638138
Si Si4 0.020321 0.941768 0.347157
Si Si5 0.220023 0.160910 0.000070
Si Si6 0.005489 0.372782 0.935817
Si Si7 0.302090 0.041378 0.666361
Si Si8 0.638899 0.171445 0.233532
O O1 0.041380 0.650517 0.674579
O O2 0.144132 0.580344 0.960943
O O3 0.021615 0.492049 0.923201
O O4 0.034021 0.649634 0.182726
O O5 0.391495 0.602509 0.949359
O O6 0.394835 0.424075 0.851294
O O7 0.306925 0.556570 0.616547
O O8 0.272634 0.508335 0.046796
O O9 0.165956 0.190358 0.788877
O O10 0.027048 0.155835 0.791851
O O11 0.095542 0.290089 0.466202
O O12 0.005142 0.013074 0.108722
O O13 0.204754 0.252275 0.186354
O O14 0.290925 0.128833 0.864184
O O15 0.083388 0.329935 0.006557
O O16 0.336105 0.941135 0.774839
#
# Coordination Sequence:
#
# PCOD9344465 Si02
#       8
#     4   4   4   4   4   4   4   4
#     4   9  19  36  59  87 120 157 212 264 323 393
#     4   9  19  35  58  90 121 172 217 258 333 400
#     4   9  19  35  58  90 121 163 215 275 326 397
#     4  10  18  34  61  89 122 162 213 270 329 393
#     4  10  20  38  61  86 124 174 218 269 338 406
#     4   9  19  36  59  88 116 159 211 269 322 381
#     4  10  22  38  62  92 129 179 220 277 345 412
#     4  10  22  38  62  92 125 170 230 278 338 416
#
# _framework density 23.142351999999999
#
# number of rings (size 3 to 8) (size 9 to 14) (size 15 to 20)
#    0.000    2.500    1.250    0.000    3.500    1.000 
#    0.000    1.250    2.750    0.000    0.000    0.000 
#    0.000    0.000    0.000    0.000    0.000    0.000 
#
# Total GULP energy -178377.683994 kJ/mol
# GULP energy per Si atom -5574.302625 kJ/mol
# Density = 2.308968 g / cm^3
# Si number density = 23.142352 Si / 1000 Ang^3
#
#
#
# Elastic Constant Matrix: (Units=GPa)
#
#
# Indices 1 2 3 4 5 6 
#
# 1 101.3089 24.7513 29.9202 0.0000 0.0000 0.0000
# 2 24.7513 62.9223 15.1559 0.0000 0.0000 0.0000
# 3 29.9202 15.1559 106.0359 0.0000 0.0000 0.0000
# 4 0.0000 0.0000 0.0000 24.8650 0.0000 0.0000
# 5 0.0000 0.0000 0.0000 0.0000 27.9237 0.0000
# 6 0.0000 0.0000 0.0000 0.0000 0.0000 33.4927
#
#
#
# Elastic Compliance Matrix: (Units=1/GPa)
#
#
# Indices 1 2 3 4 5 6 
#
# 1 0.011632 -0.003920 -0.002722 0.000000 0.000000 0.000000
# 2 -0.003920 0.017780 -0.001435 0.000000 0.000000 0.000000
# 3 -0.002722 -0.001435 0.010404 0.000000 0.000000 0.000000
# 4 0.000000 0.000000 0.000000 0.040217 0.000000 0.000000
# 5 0.000000 0.000000 0.000000 0.000000 0.035812 0.000000
# 6 0.000000 0.000000 0.000000 0.000000 0.000000 0.029857
#
#
# Mechanical properties :
#
#
# Convention : Reuss Voigt Hill
#
# Bulk Modulus (GPa) = 42.26183 45.54687 43.90435
# Shear Modulus (GPa) = 29.45591 30.61893 30.03742
#
# Velocity S-wave (km/s) = 3.57152 3.64135 3.60660
# Velocity P-wave (km/s) = 5.94214 6.11581 6.02960
#
# Compressibility (1/GPa) = 0.02366202
#
# Stress axis : x y z
#
# Youngs Moduli (GPa) = 85.96627 56.24186 96.11700
#
# Poissons Ratio (x) = 0.22048 0.26163
# Poissons Ratio (y) = 0.33700 0.13795
# Poissons Ratio (z) = 0.23400 0.08072
#
# Static dielectric constant tensor:
#      x y z
#    x 1.947600 0.000000 0.000000 
#    y 0.000000 1.950290 0.000000 
#    z 0.000000 0.000000 1.920210 
# 
# From -- ./inp_files/1814.got.cif
#   From: 2010.05.17/outbox.cif.g08.bks.cpg/sg33_1_cif.got.tgz:1814.got - 2010.06.03 17:15:25.
