data_PCOD9344453
_publ_section_title
;
Structure prediction by ZEFSAII (Michael W. Deem and Ramdas Pophale) SiO2 
 PCOD9344453
Probable space group: P N A 21
;
_chemical_formula_sum "Si O2"
_cell_formula_units_Z 28
_cell_length_a 9.027081
_cell_length_b 17.363035
_cell_length_c 7.028074
_cell_angle_alpha 90.000000
_cell_angle_beta 90.000000
_cell_angle_gamma 90.000000
_cell_volume 1101.562913
_symmetry_space_group_name_H-M "P N A 21"
_symmetry_group_IT_number 33
_symmetry_cell_setting 'orthorhombic'
loop_
_space_group_symop_operation_xyz
x,y,z
-x,-y,1/2+z
1/2-x,1/2+y,1/2+z
1/2+x,1/2-y,z
loop_
_atom_site_type_symbol
_atom_site_label
_atom_site_fract_x
_atom_site_fract_y
_atom_site_fract_z
Si Si1 0.700036 0.839647 0.920440
Si Si2 0.701058 0.656516 0.282521
Si Si3 0.063651 0.236644 0.329430
Si Si4 0.352058 0.995125 0.313202
Si Si5 0.306150 0.033752 0.875131
Si Si6 0.636286 0.310775 0.777580
Si Si7 0.215154 0.866746 0.822986
O O1 0.561416 0.787569 0.964509
O O2 0.787847 0.813509 0.735677
O O3 0.671570 0.928410 0.936764
O O4 0.846776 0.806499 0.039246
O O5 0.755944 0.577653 0.373809
O O6 0.531435 0.674199 0.322878
O O7 0.799469 0.729547 0.335461
O O8 0.716859 0.642835 0.054722
O O9 0.933965 0.176379 0.258080
O O10 0.138494 0.320030 0.259288
O O11 0.522535 0.970963 0.315249
O O12 0.307554 0.021402 0.102007
O O13 0.234987 0.114937 0.819799
O O14 0.223680 0.958243 0.791853
#
# Coordination Sequence:
#
# PCOD9344453 Si02
#       7
#     4   4   4   4   4   4   4
#     4  11  20  38  66  95 119 161 213 259 312 363
#     4  11  22  38  66  91 123 165 214 250 312 386
#     4  10  18  33  65  93 119 160 212 253 299 382
#     4  11  25  42  63  93 128 167 210 260 312 369
#     4  11  25  40  62  89 133 161 210 259 314 364
#     4  12  22  39  67  92 121 162 210 260 308 376
#     4  10  18  36  59  95 117 156 211 253 293 370
#
# _framework density 25.418431000000002
#
# number of rings (size 3 to 8) (size 9 to 14) (size 15 to 20)
#    0.000    1.143    5.714    1.714    4.000    0.000 
#    0.000    2.857    3.143    0.000    0.000    0.000 
#    0.000    0.000    0.000    0.000    0.000    0.000 
#
# Total GULP energy -156226.206229 kJ/mol
# GULP energy per Si atom -5579.507365 kJ/mol
# Density = 2.536058 g / cm^3
# Si number density = 25.418431 Si / 1000 Ang^3
#
#
#
# Elastic Constant Matrix: (Units=GPa)
#
#
# Indices 1 2 3 4 5 6 
#
# 1 174.5447 119.4575 20.6830 0.0000 0.0000 0.0000
# 2 119.4575 268.2477 43.1251 0.0000 0.0000 0.0000
# 3 20.6830 43.1251 105.1623 0.0000 0.0000 0.0000
# 4 0.0000 0.0000 0.0000 24.2850 0.0000 0.0000
# 5 0.0000 0.0000 0.0000 0.0000 3.1746 0.0000
# 6 0.0000 0.0000 0.0000 0.0000 0.0000 56.1285
#
#
#
# Elastic Compliance Matrix: (Units=1/GPa)
#
#
# Indices 1 2 3 4 5 6 
#
# 1 0.008242 -0.003651 -0.000124 0.000000 0.000000 0.000000
# 2 -0.003651 0.005608 -0.001582 0.000000 0.000000 0.000000
# 3 -0.000124 -0.001582 0.010182 0.000000 0.000000 0.000000
# 4 0.000000 0.000000 0.000000 0.041178 0.000000 0.000000
# 5 0.000000 0.000000 0.000000 0.000000 0.314997 0.000000
# 6 0.000000 0.000000 0.000000 0.000000 0.000000 0.017816
#
#
# Mechanical properties :
#
#
# Convention : Reuss Voigt Hill
#
# Bulk Modulus (GPa) = 75.07679 101.60955 88.34317
# Shear Modulus (GPa) = 12.10138 41.03023 26.56580
#
# Velocity S-wave (km/s) = 2.18431 4.02206 3.23637
# Velocity P-wave (km/s) = 5.99684 7.85053 6.98545
#
# Compressibility (1/GPa) = 0.01331969
#
# Stress axis : x y z
#
# Youngs Moduli (GPa) = 121.32500 178.32064 98.21122
#
# Poissons Ratio (x) = 0.65097 0.01218
# Poissons Ratio (y) = 0.44291 0.15534
# Poissons Ratio (z) = 0.01505 0.28205
#
# Static dielectric constant tensor:
#      x y z
#    x 1.960850 0.000000 0.000000 
#    y 0.000000 1.950630 0.000000 
#    z 0.000000 0.000000 2.225410 
# 
# From -- ./inp_files/3319.got.cif
#   From: 2010.05.17/outbox.cif.g08.bks.cpg/sg33_2_cif.got.tgz:3319.got - 2010.06.03 17:15:25.
