data_PCOD9344102
_publ_section_title
;
Structure prediction by ZEFSAII (Michael W. Deem and Ramdas Pophale) SiO2 
 PCOD9344102
Probable space group: P B A 2
;
_chemical_formula_sum "Si O2"
_cell_formula_units_Z 32
_cell_length_a 13.443969
_cell_length_b 14.549753
_cell_length_c 8.023623
_cell_angle_alpha 90.000000
_cell_angle_beta 90.000000
_cell_angle_gamma 90.000000
_cell_volume 1569.472237
_symmetry_space_group_name_H-M "P B A 2"
_symmetry_group_IT_number 32
_symmetry_cell_setting 'orthorhombic'
loop_
_space_group_symop_operation_xyz
x,y,z
-x,-y,z
1/2-x,1/2+y,z
1/2+x,1/2-y,z
loop_
_atom_site_type_symbol
_atom_site_label
_atom_site_fract_x
_atom_site_fract_y
_atom_site_fract_z
Si Si1 0.732069 0.862394 0.700690
Si Si2 0.481731 0.722721 0.277757
Si Si3 0.323671 0.625683 0.059561
Si Si4 0.515884 0.894694 0.819731
Si Si5 0.097621 0.956266 0.258322
Si Si6 0.804226 0.525607 0.439358
Si Si7 0.900490 0.396948 0.184737
Si Si8 0.623534 0.214235 0.592354
O O1 0.776366 0.771139 0.620774
O O2 0.618526 0.852112 0.754947
O O3 0.724427 0.949348 0.577696
O O4 0.802774 0.875821 0.862562
O O5 0.390827 0.704527 0.147710
O O6 0.560719 0.645598 0.222029
O O7 0.540276 0.817485 0.275630
O O8 0.439417 0.720777 0.466462
O O9 0.376273 0.529443 0.112743
O O10 0.212979 0.630822 0.137450
O O11 0.567990 0.176762 0.758744
O O12 0.500000 0.000000 0.753731
O O13 0.536969 0.907625 0.015297
O O14 0.198761 0.951507 0.357869
O O15 0.000000 0.000000 0.346851
O O16 0.880135 0.482375 0.305173
O O17 0.851199 0.618688 0.504387
#
# Coordination Sequence:
#
# PCOD9344102 Si02
#       8
#     4   4   4   4   4   4   4   4
#     4  11  23  46  66  95 145 172 228 292 351 422
#     4  11  23  39  69  98 131 177 231 281 339 427
#     4   9  21  44  63  95 133 178 220 291 337 415
#     4  11  24  45  66  97 136 179 229 286 352 421
#     4   9  20  41  64  94 132 175 232 277 339 412
#     4  11  24  42  66 101 133 182 228 289 352 414
#     4  10  23  41  66  93 133 171 231 275 338 421
#     4  12  26  40  70 100 141 179 231 295 354 421
#
# _framework density 20.389019000000001
#
# number of rings (size 3 to 8) (size 9 to 14) (size 15 to 20)
#    0.000    1.500    1.250    3.750    7.000    0.000 
#    4.500    5.625    0.000    0.000    0.000    0.000 
#    0.000    0.000    0.000    0.000    0.000    0.000 
#
# Total GULP energy -178362.541209 kJ/mol
# GULP energy per Si atom -5573.829413 kJ/mol
# Density = 2.034261 g / cm^3
# Si number density = 20.389019 Si / 1000 Ang^3
#
#
#
# Elastic Constant Matrix: (Units=GPa)
#
#
# Indices 1 2 3 4 5 6 
#
# 1 59.3907 34.3997 22.9430 0.0000 0.0000 0.0000
# 2 34.3997 74.9151 19.8983 0.0000 0.0000 0.0000
# 3 22.9430 19.8983 71.1013 0.0000 0.0000 0.0000
# 4 0.0000 0.0000 0.0000 12.7202 0.0000 0.0000
# 5 0.0000 0.0000 0.0000 0.0000 13.3648 0.0000
# 6 0.0000 0.0000 0.0000 0.0000 0.0000 39.1790
#
#
#
# Elastic Compliance Matrix: (Units=1/GPa)
#
#
# Indices 1 2 3 4 5 6 
#
# 1 0.024571 -0.009913 -0.005154 0.000000 0.000000 0.000000
# 2 -0.009913 0.018420 -0.001956 0.000000 0.000000 0.000000
# 3 -0.005154 -0.001956 0.016275 0.000000 0.000000 0.000000
# 4 0.000000 0.000000 0.000000 0.078615 0.000000 0.000000
# 5 0.000000 0.000000 0.000000 0.000000 0.074823 0.000000
# 6 0.000000 0.000000 0.000000 0.000000 0.000000 0.025524
#
#
# Mechanical properties :
#
#
# Convention : Reuss Voigt Hill
#
# Bulk Modulus (GPa) = 39.65361 39.98768 39.82065
# Shear Modulus (GPa) = 17.81377 21.59721 19.70549
#
# Velocity S-wave (km/s) = 2.95904 3.25815 3.11219
# Velocity P-wave (km/s) = 5.58259 5.81455 5.69975
#
# Compressibility (1/GPa) = 0.02521838
#
# Stress axis : x y z
#
# Youngs Moduli (GPa) = 40.69891 54.28852 61.44383
#
# Poissons Ratio (x) = 0.53819 0.31669
# Poissons Ratio (y) = 0.40347 0.12019
# Poissons Ratio (z) = 0.20977 0.10620
#
# Static dielectric constant tensor:
#      x y z
#    x 1.712600 0.000000 0.000000 
#    y 0.000000 1.780820 0.000000 
#    z 0.000000 0.000000 1.800280 
# 
# From -- ./inp_files/3097.got.cif
#   From: 2010.05.17/outbox.cif.g08.bks.cpg/sg32_2_cif.got.tgz:3097.got - 2010.06.03 17:12:27.
