data_PCOD9344692
_publ_section_title
;
Structure prediction by ZEFSAII (Michael W. Deem and Ramdas Pophale) SiO2 
 PCOD9344692
Probable space group: P N A 21
;
_chemical_formula_sum "Si O2"
_cell_formula_units_Z 24
_cell_length_a 12.116328
_cell_length_b 15.248644
_cell_length_c 5.339251
_cell_angle_alpha 90.000000
_cell_angle_beta 90.000000
_cell_angle_gamma 90.000000
_cell_volume 986.467052
_symmetry_space_group_name_H-M "P N A 21"
_symmetry_group_IT_number 33
_symmetry_cell_setting 'orthorhombic'
loop_
_space_group_symop_operation_xyz
x,y,z
-x,-y,1/2+z
1/2-x,1/2+y,1/2+z
1/2+x,1/2-y,z
loop_
_atom_site_type_symbol
_atom_site_label
_atom_site_fract_x
_atom_site_fract_y
_atom_site_fract_z
Si Si1 0.018917 0.687702 0.795570
Si Si2 0.504591 0.441160 0.636583
Si Si3 0.931908 0.487624 0.200411
Si Si4 0.314867 0.868376 0.467056
Si Si5 0.346926 0.726439 0.120755
Si Si6 0.837485 0.166857 0.350053
O O1 0.105892 0.608867 0.788701
O O2 0.067634 0.779211 0.706493
O O3 0.926344 0.646629 0.621710
O O4 0.956322 0.714669 0.050741
O O5 0.493627 0.494067 0.895305
O O6 0.607974 0.372104 0.633989
O O7 0.396252 0.381228 0.579351
O O8 0.839614 0.560367 0.255730
O O9 0.027570 0.506008 0.413049
O O10 0.295797 0.770125 0.367061
O O11 0.222218 0.897596 0.660177
O O12 0.252990 0.760094 0.929007
#
# Coordination Sequence:
#
# PCOD9344692 Si02
#       6
#     4   4   4   4   4   4
#     4   9  20  39  61  93 128 177 214 282 348 416
#     4  11  28  49  73 103 149 196 242 299 366 438
#     4  10  19  37  62  92 124 163 212 276 338 397
#     4  10  21  38  68  96 135 173 227 289 346 416
#     4  10  22  43  68  95 136 183 238 290 354 425
#     4  10  24  42  68  99 136 184 237 286 352 426
#
# _framework density 24.329246000000001
#
# number of rings (size 3 to 8) (size 9 to 14) (size 15 to 20)
#    0.000    2.000    1.667    0.000    9.333    2.667 
#    0.000    0.000    0.000    0.000    0.000    0.000 
#    0.000    0.000    0.000    0.000    0.000    0.000 
#
# Total GULP energy -133723.953197 kJ/mol
# GULP energy per Si atom -5571.831383 kJ/mol
# Density = 2.427387 g / cm^3
# Si number density = 24.329246 Si / 1000 Ang^3
#
#
#
# Elastic Constant Matrix: (Units=GPa)
#
#
# Indices 1 2 3 4 5 6 
#
# 1 59.3125 18.5392 10.5206 0.0000 0.0000 0.0000
# 2 18.5392 109.4415 22.1706 0.0000 0.0000 0.0000
# 3 10.5206 22.1706 93.2258 0.0000 0.0000 0.0000
# 4 0.0000 0.0000 0.0000 38.8724 0.0000 0.0000
# 5 0.0000 0.0000 0.0000 0.0000 24.5773 0.0000
# 6 0.0000 0.0000 0.0000 0.0000 0.0000 27.5232
#
#
#
# Elastic Compliance Matrix: (Units=1/GPa)
#
#
# Indices 1 2 3 4 5 6 
#
# 1 0.017967 -0.002766 -0.001370 0.000000 0.000000 0.000000
# 2 -0.002766 0.010026 -0.002072 0.000000 0.000000 0.000000
# 3 -0.001370 -0.002072 0.011374 0.000000 0.000000 0.000000
# 4 0.000000 0.000000 0.000000 0.025725 0.000000 0.000000
# 5 0.000000 0.000000 0.000000 0.000000 0.040688 0.000000
# 6 0.000000 0.000000 0.000000 0.000000 0.000000 0.036333
#
#
# Mechanical properties :
#
#
# Convention : Reuss Voigt Hill
#
# Bulk Modulus (GPa) = 37.10440 40.49339 38.79890
# Shear Modulus (GPa) = 30.57860 32.24453 31.41156
#
# Velocity S-wave (km/s) = 3.54908 3.64447 3.59709
# Velocity P-wave (km/s) = 5.66380 5.86427 5.76490
#
# Compressibility (1/GPa) = 0.02695098
#
# Stress axis : x y z
#
# Youngs Moduli (GPa) = 55.65622 99.74414 87.91980
#
# Poissons Ratio (x) = 0.27591 0.12043
# Poissons Ratio (y) = 0.15395 0.18218
# Poissons Ratio (z) = 0.07624 0.20668
#
# Static dielectric constant tensor:
#      x y z
#    x 2.053700 0.000000 0.000000 
#    y 0.000000 2.017640 0.000000 
#    z 0.000000 0.000000 1.995360 
# 
# From -- ./inp_files/790.got.cif
#   From: 2010.05.17/outbox.cif.g08.bks.cpg/sg33_1_cif.got.tgz:790.got - 2010.06.03 17:15:25.
