data_PCOD9344100
_publ_section_title
;
Structure prediction by ZEFSAII (Michael W. Deem and Ramdas Pophale) SiO2 
 PCOD9344100
Probable space group: P B A 2
;
_chemical_formula_sum "Si O2"
_cell_formula_units_Z 22
_cell_length_a 13.553456
_cell_length_b 7.849873
_cell_length_c 8.040081
_cell_angle_alpha 90.000000
_cell_angle_beta 90.000000
_cell_angle_gamma 90.000000
_cell_volume 855.407601
_symmetry_space_group_name_H-M "P B A 2"
_symmetry_group_IT_number 32
_symmetry_cell_setting 'orthorhombic'
loop_
_space_group_symop_operation_xyz
x,y,z
-x,-y,z
1/2-x,1/2+y,z
1/2+x,1/2-y,z
loop_
_atom_site_type_symbol
_atom_site_label
_atom_site_fract_x
_atom_site_fract_y
_atom_site_fract_z
Si Si1 0.303379 0.622815 0.091970
Si Si2 0.115982 0.457488 0.972416
Si Si3 0.874964 0.743044 0.627260
Si Si4 0.259764 0.045419 0.452023
Si Si5 0.463683 0.195797 0.381342
Si Si6 0.000000 0.000000 0.121694
O O1 0.297601 0.551075 0.278799
O O2 0.399829 0.527845 0.016874
O O3 0.198080 0.604745 0.999448
O O4 0.337942 0.817672 0.096482
O O5 0.123567 0.361358 0.796228
O O6 0.000000 0.500000 0.993410
O O7 0.811337 0.912586 0.607285
O O8 0.817019 0.625156 0.495496
O O9 0.982267 0.759034 0.548179
O O10 0.349063 0.177633 0.420559
O O11 0.484732 0.332301 0.236910
O O12 0.500000 0.000000 0.346771
#
# Coordination Sequence:
#
# PCOD9344100 Si02
#       6
#     4   4   4   4   4   2
#     4  12  28  46  76 111 154 200 257 324 394 469
#     4  12  29  49  74 109 161 207 252 319 409 483
#     4  11  23  46  70 104 142 197 247 319 383 463
#     4  11  22  42  73 104 136 186 258 316 373 451
#     4  10  23  40  72 105 141 186 254 322 380 443
#     4  12  24  46  68 114 146 198 262 322 386 452
#
# _framework density 25.718731999999999
#
# number of rings (size 3 to 8) (size 9 to 14) (size 15 to 20)
#    0.000    0.727    1.818    6.000    7.636    0.000 
#    0.000    0.000    0.000    0.000    0.000    0.000 
#    0.000    0.000    0.000    0.000    0.000    0.000 
#
# Total GULP energy -123060.464965 kJ/mol
# GULP energy per Si atom -5593.657498 kJ/mol
# Density = 2.566020 g / cm^3
# Si number density = 25.718732 Si / 1000 Ang^3
#
#
#
# Elastic Constant Matrix: (Units=GPa)
#
#
# Indices 1 2 3 4 5 6 
#
# 1 209.7919 39.8939 24.4014 0.0000 0.0000 0.0000
# 2 39.8939 77.6439 -0.3834 0.0000 0.0000 0.0000
# 3 24.4014 -0.3834 83.5308 0.0000 0.0000 0.0000
# 4 0.0000 0.0000 0.0000 35.5399 0.0000 0.0000
# 5 0.0000 0.0000 0.0000 0.0000 34.0688 0.0000
# 6 0.0000 0.0000 0.0000 0.0000 0.0000 46.5952
#
#
#
# Elastic Compliance Matrix: (Units=1/GPa)
#
#
# Indices 1 2 3 4 5 6 
#
# 1 0.005493 -0.002830 -0.001618 0.000000 0.000000 0.000000
# 2 -0.002830 0.014338 0.000893 0.000000 0.000000 0.000000
# 3 -0.001618 0.000893 0.012448 0.000000 0.000000 0.000000
# 4 0.000000 0.000000 0.000000 0.028137 0.000000 0.000000
# 5 0.000000 0.000000 0.000000 0.000000 0.029352 0.000000
# 6 0.000000 0.000000 0.000000 0.000000 0.000000 0.021461
#
#
# Mechanical properties :
#
#
# Convention : Reuss Voigt Hill
#
# Bulk Modulus (GPa) = 39.73210 55.42116 47.57663
# Shear Modulus (GPa) = 39.45377 43.71109 41.58243
#
# Velocity S-wave (km/s) = 3.92094 4.12707 4.02533
# Velocity P-wave (km/s) = 5.99838 6.65628 6.33588
#
# Compressibility (1/GPa) = 0.02516857
#
# Stress axis : x y z
#
# Youngs Moduli (GPa) = 182.05011 69.74494 80.33235
#
# Poissons Ratio (x) = 0.19740 0.12995
# Poissons Ratio (y) = 0.51526 -0.07171
# Poissons Ratio (z) = 0.29449 -0.06226
#
# Static dielectric constant tensor:
#      x y z
#    x 2.084050 0.000000 0.000000 
#    y 0.000000 2.180720 0.000000 
#    z 0.000000 0.000000 1.993760 
# 
# From -- ./inp_files/2280.got.cif
#   From: 2010.05.17/outbox.cif.g08.bks.cpg/sg32_2_cif.got.tgz:2280.got - 2010.06.03 17:12:27.
