data_PCOD9344040
_publ_section_title
;
Structure prediction by ZEFSAII (Michael W. Deem and Ramdas Pophale) SiO2 
 PCOD9344040
Probable space group: P B A 2
;
_chemical_formula_sum "Si O2"
_cell_formula_units_Z 30
_cell_length_a 22.827719
_cell_length_b 10.688665
_cell_length_c 5.281558
_cell_angle_alpha 90.000000
_cell_angle_beta 90.000000
_cell_angle_gamma 90.000000
_cell_volume 1288.688750
_symmetry_space_group_name_H-M "P B A 2"
_symmetry_group_IT_number 32
_symmetry_cell_setting 'orthorhombic'
loop_
_space_group_symop_operation_xyz
x,y,z
-x,-y,z
1/2-x,1/2+y,z
1/2+x,1/2-y,z
loop_
_atom_site_type_symbol
_atom_site_label
_atom_site_fract_x
_atom_site_fract_y
_atom_site_fract_z
Si Si1 0.560411 0.386291 0.791470
Si Si2 0.203318 0.258106 0.279612
Si Si3 0.853503 0.651311 0.782452
Si Si4 0.902384 0.443524 0.465605
Si Si5 0.662065 0.748163 0.169200
Si Si6 0.379587 0.519849 0.299687
Si Si7 0.500000 0.000000 0.132746
Si Si8 0.949024 0.266148 0.823387
O O1 0.595616 0.254731 0.761925
O O2 0.577799 0.456542 0.535185
O O3 0.507203 0.650205 0.825271
O O4 0.586636 0.452187 0.038965
O O5 0.193991 0.316436 0.560312
O O6 0.268061 0.253124 0.162348
O O7 0.173302 0.121236 0.300337
O O8 0.169189 0.337606 0.066830
O O9 0.878999 0.517368 0.706449
O O10 0.852048 0.377676 0.309796
O O11 0.944195 0.532588 0.305613
O O12 0.941987 0.325269 0.546835
O O13 0.644704 0.620169 0.311650
O O14 0.616449 0.745306 0.933031
O O15 0.520102 0.879137 0.977747
#
# Coordination Sequence:
#
# PCOD9344040 Si02
#       8
#     4   4   4   4   4   4   2   4
#     4  10  23  45  73  97 138 186 238 277 353 414
#     4  10  25  46  72 101 136 189 234 295 351 424
#     4  10  23  43  74 103 133 182 237 288 353 422
#     4  11  25  41  71 107 141 183 226 305 353 416
#     4  11  28  45  67 105 142 183 240 290 366 415
#     4  10  25  47  70  99 139 189 236 289 340 435
#     4  10  22  40  68 104 150 172 226 292 352 424
#     4  11  25  42  68 105 142 186 230 295 350 429
#
# _framework density 23.279475999999999
#
# number of rings (size 3 to 8) (size 9 to 14) (size 15 to 20)
#    0.000    1.600    0.000    2.000   18.667    0.533 
#    2.400    0.000    0.000    0.000    0.000    0.000 
#    0.000    0.000    0.000    0.000    0.000    0.000 
#
# Total GULP energy -167791.468132 kJ/mol
# GULP energy per Si atom -5593.048938 kJ/mol
# Density = 2.322649 g / cm^3
# Si number density = 23.279476 Si / 1000 Ang^3
#
#
#
# Elastic Constant Matrix: (Units=GPa)
#
#
# Indices 1 2 3 4 5 6 
#
# 1 138.8599 45.4768 30.4859 0.0000 0.0000 0.0000
# 2 45.4768 94.2254 25.7740 0.0000 0.0000 0.0000
# 3 30.4859 25.7740 96.3706 0.0000 0.0000 0.0000
# 4 0.0000 0.0000 0.0000 31.6601 0.0000 0.0000
# 5 0.0000 0.0000 0.0000 0.0000 23.5370 0.0000
# 6 0.0000 0.0000 0.0000 0.0000 0.0000 29.3096
#
#
#
# Elastic Compliance Matrix: (Units=1/GPa)
#
#
# Indices 1 2 3 4 5 6 
#
# 1 0.008829 -0.003773 -0.001784 0.000000 0.000000 0.000000
# 2 -0.003773 0.013063 -0.002300 0.000000 0.000000 0.000000
# 3 -0.001784 -0.002300 0.011556 0.000000 0.000000 0.000000
# 4 0.000000 0.000000 0.000000 0.031586 0.000000 0.000000
# 5 0.000000 0.000000 0.000000 0.000000 0.042486 0.000000
# 6 0.000000 0.000000 0.000000 0.000000 0.000000 0.034118
#
#
# Mechanical properties :
#
#
# Convention : Reuss Voigt Hill
#
# Bulk Modulus (GPa) = 56.38931 59.21437 57.80184
# Shear Modulus (GPa) = 30.62529 32.08261 31.35395
#
# Velocity S-wave (km/s) = 3.63098 3.71637 3.67393
# Velocity P-wave (km/s) = 6.46947 6.62622 6.54831
#
# Compressibility (1/GPa) = 0.01773386
#
# Stress axis : x y z
#
# Youngs Moduli (GPa) = 113.26494 76.55150 86.53479
#
# Poissons Ratio (x) = 0.28885 0.15436
# Poissons Ratio (y) = 0.42737 0.19904
# Poissons Ratio (z) = 0.20204 0.17607
#
# Static dielectric constant tensor:
#      x y z
#    x 1.880340 0.000000 0.000000 
#    y 0.000000 1.882140 0.000000 
#    z 0.000000 0.000000 1.886140 
# 
# From -- ./inp_files/1585.got.cif
#   From: 2010.05.17/outbox.cif.g08.bks.cpg/sg32_1_cif.got.tgz:1585.got - 2010.06.03 17:12:27.
