data_PCOD9344563
_publ_section_title
;
Structure prediction by ZEFSAII (Michael W. Deem and Ramdas Pophale) SiO2 
 PCOD9344563
Probable space group: P N A 21
;
_chemical_formula_sum "Si O2"
_cell_formula_units_Z 32
_cell_length_a 23.296208
_cell_length_b 8.241531
_cell_length_c 9.251509
_cell_angle_alpha 90.000000
_cell_angle_beta 90.000000
_cell_angle_gamma 90.000000
_cell_volume 1776.256611
_symmetry_space_group_name_H-M "P N A 21"
_symmetry_group_IT_number 33
_symmetry_cell_setting 'orthorhombic'
loop_
_space_group_symop_operation_xyz
x,y,z
-x,-y,1/2+z
1/2-x,1/2+y,1/2+z
1/2+x,1/2-y,z
loop_
_atom_site_type_symbol
_atom_site_label
_atom_site_fract_x
_atom_site_fract_y
_atom_site_fract_z
Si Si1 0.830682 0.855242 0.794290
Si Si2 0.636833 0.838614 0.387549
Si Si3 0.636833 0.161385 0.573974
Si Si4 0.294670 0.024655 0.311126
Si Si5 0.830682 0.144758 0.167233
Si Si6 0.057972 0.062178 0.642685
Si Si7 0.557972 0.562177 0.318839
Si Si8 0.205330 0.475345 0.150397
O O1 0.773188 0.960050 0.780072
O O2 0.888387 0.954310 0.762335
O O3 0.822397 0.697224 0.695448
O O4 0.834821 0.785989 0.958749
O O5 0.665179 0.714010 0.502774
O O6 0.581389 0.745702 0.328164
O O7 0.677354 0.891804 0.255893
O O8 0.623617 1.000000 0.480762
O O9 0.581389 0.254298 0.633359
O O10 0.677354 0.108196 0.705630
O O11 0.322397 0.197225 0.266075
O O12 0.303704 0.000000 0.480761
O O13 0.888387 0.045689 0.199189
O O14 0.773188 0.039950 0.181451
O O15 0.047193 1.000000 0.480762
O O16 0.000000 0.046376 0.730762
#
# Coordination Sequence:
#
# PCOD9344563 Si02
#       8
#     4   4   4   4   4   4   4   4
#     4   9  20  36  54  79 111 142 172 216 271 318
#     4   9  19  37  55  75 109 143 169 213 277 320
#     4   9  19  37  55  75 109 143 169 213 277 320
#     4  10  19  33  56  84 109 137 176 218 263 322
#     4   9  20  36  54  79 111 142 172 216 271 318
#     4  10  21  38  57  76 104 143 183 220 262 312
#     4  10  21  38  57  76 104 143 183 220 262 312
#     4  10  19  33  56  84 109 137 176 218 263 322
#
# _framework density 18.015414
#
# number of rings (size 3 to 8) (size 9 to 14) (size 15 to 20)
#    0.000    2.500    0.000    2.250    0.000    6.000 
#    0.000   18.750    0.000    0.000    0.000    0.000 
#    0.000    0.000    0.000    0.000    0.000    0.000 
#
# Total GULP energy -178553.413438 kJ/mol
# GULP energy per Si atom -5579.794170 kJ/mol
# Density = 1.797441 g / cm^3
# Si number density = 18.015414 Si / 1000 Ang^3
#
#
#
# Elastic Constant Matrix: (Units=GPa)
#
#
# Indices 1 2 3 4 5 6 
#
# 1 164.6103 72.0458 73.3511 0.0000 0.0000 0.0000
# 2 72.0458 80.9742 36.0277 0.0000 0.0000 0.0000
# 3 73.3511 36.0277 93.4588 0.0000 0.0000 0.0000
# 4 0.0000 0.0000 0.0000 21.1164 0.0000 0.0000
# 5 0.0000 0.0000 0.0000 0.0000 28.7448 0.0000
# 6 0.0000 0.0000 0.0000 0.0000 0.0000 22.3454
#
#
#
# Elastic Compliance Matrix: (Units=1/GPa)
#
#
# Indices 1 2 3 4 5 6 
#
# 1 0.012741 -0.008313 -0.006796 0.000000 0.000000 0.000000
# 2 -0.008313 0.020330 -0.001313 0.000000 0.000000 0.000000
# 3 -0.006796 -0.001313 0.016539 0.000000 0.000000 0.000000
# 4 0.000000 0.000000 0.000000 0.047357 0.000000 0.000000
# 5 0.000000 0.000000 0.000000 0.000000 0.034789 0.000000
# 6 0.000000 0.000000 0.000000 0.000000 0.000000 0.044752
#
#
# Mechanical properties :
#
#
# Convention : Reuss Voigt Hill
#
# Bulk Modulus (GPa) = 59.63542 77.98805 68.81173
# Shear Modulus (GPa) = 23.26229 24.94925 24.10577
#
# Velocity S-wave (km/s) = 3.59729 3.72544 3.66192
# Velocity P-wave (km/s) = 7.10129 7.86694 7.49390
#
# Compressibility (1/GPa) = 0.01676856
#
# Stress axis : x y z
#
# Youngs Moduli (GPa) = 78.48379 49.18819 60.46187
#
# Poissons Ratio (x) = 0.40890 0.41087
# Poissons Ratio (y) = 0.65244 0.07936
# Poissons Ratio (z) = 0.53334 0.06456
#
# Static dielectric constant tensor:
#      x y z
#    x 1.589890 0.000000 0.000000 
#    y 0.000000 1.650070 0.000000 
#    z 0.000000 0.000000 1.615610 
# 
# From -- ./inp_files/4972.got.cif
#   From: 2010.05.17/outbox.cif.g08.bks.cpg/sg33_3_cif.got.tgz:4972.got - 2010.06.03 17:15:25.
