data_PCOD9344788
_publ_section_title
;
Structure prediction by ZEFSAII (Michael W. Deem and Ramdas Pophale) SiO2 
 PCOD9344788
Probable space group: P N A 21
;
_chemical_formula_sum "Si O2"
_cell_formula_units_Z 28
_cell_length_a 12.517611
_cell_length_b 16.346278
_cell_length_c 6.957751
_cell_angle_alpha 90.000000
_cell_angle_beta 90.000000
_cell_angle_gamma 90.000000
_cell_volume 1423.669609
_symmetry_space_group_name_H-M "P N A 21"
_symmetry_group_IT_number 33
_symmetry_cell_setting 'orthorhombic'
loop_
_space_group_symop_operation_xyz
x,y,z
-x,-y,1/2+z
1/2-x,1/2+y,1/2+z
1/2+x,1/2-y,z
loop_
_atom_site_type_symbol
_atom_site_label
_atom_site_fract_x
_atom_site_fract_y
_atom_site_fract_z
Si Si1 0.847535 0.222057 0.952370
Si Si2 0.398762 0.255467 0.373130
Si Si3 0.274988 0.146447 0.678410
Si Si4 0.961738 0.796221 0.207693
Si Si5 0.889010 0.502825 0.489151
Si Si6 0.332210 0.867663 0.201630
Si Si7 0.431012 0.884932 0.831897
O O1 0.828884 0.314754 0.870441
O O2 0.762119 0.171462 0.827063
O O3 0.963910 0.190826 0.890269
O O4 0.841143 0.215527 0.180493
O O5 0.316434 0.205634 0.506990
O O6 0.463424 0.312716 0.522003
O O7 0.493740 0.193746 0.308765
O O8 0.148347 0.155320 0.700368
O O9 0.313186 0.058098 0.608969
O O10 0.928416 0.699473 0.216487
O O11 0.849866 0.542992 0.291157
O O12 0.994964 0.451486 0.441981
O O13 0.906702 0.579959 0.625188
O O14 0.328527 0.873036 0.970006
#
# Coordination Sequence:
#
# PCOD9344788 Si02
#       7
#     4   4   4   4   4   4   4
#     4  10  20  35  58  78 111 145 191 225 282 329
#     4   9  19  33  56  82 106 141 182 225 275 335
#     4   9  21  34  52  83 112 140 181 234 277 333
#     4   9  19  37  54  77 112 144 185 233 272 324
#     4  11  20  32  55  79 112 141 180 225 292 333
#     4  10  21  35  53  83 110 144 183 236 278 339
#     4  10  20  32  54  82 113 137 174 230 288 333
#
# _framework density 19.667484000000002
#
# number of rings (size 3 to 8) (size 9 to 14) (size 15 to 20)
#    0.000    2.286    1.429    1.714    2.000    6.857 
#    0.000    0.000    6.286    0.000    0.000    0.000 
#    0.000    0.000    0.000    0.000    0.000    0.000 
#
# Total GULP energy -156000.480866 kJ/mol
# GULP energy per Si atom -5571.445745 kJ/mol
# Density = 1.962272 g / cm^3
# Si number density = 19.667484 Si / 1000 Ang^3
#
#
#
# Elastic Constant Matrix: (Units=GPa)
#
#
# Indices 1 2 3 4 5 6 
#
# 1 61.9800 -2.5010 21.2515 0.0000 0.0000 0.0000
# 2 -2.5010 31.5780 -2.8279 0.0000 0.0000 0.0000
# 3 21.2515 -2.8279 84.5846 0.0000 0.0000 0.0000
# 4 0.0000 0.0000 0.0000 28.6518 0.0000 0.0000
# 5 0.0000 0.0000 0.0000 0.0000 23.1933 0.0000
# 6 0.0000 0.0000 0.0000 0.0000 0.0000 15.5717
#
#
#
# Elastic Compliance Matrix: (Units=1/GPa)
#
#
# Indices 1 2 3 4 5 6 
#
# 1 0.017687 0.001006 -0.004410 0.000000 0.000000 0.000000
# 2 0.001006 0.031820 0.000811 0.000000 0.000000 0.000000
# 3 -0.004410 0.000811 0.012958 0.000000 0.000000 0.000000
# 4 0.000000 0.000000 0.000000 0.034902 0.000000 0.000000
# 5 0.000000 0.000000 0.000000 0.000000 0.043116 0.000000
# 6 0.000000 0.000000 0.000000 0.000000 0.000000 0.064219
#
#
# Mechanical properties :
#
#
# Convention : Reuss Voigt Hill
#
# Bulk Modulus (GPa) = 17.45867 23.33201 20.39534
# Shear Modulus (GPa) = 21.83592 24.29802 23.06697
#
# Velocity S-wave (km/s) = 3.33566 3.51870 3.42840
# Velocity P-wave (km/s) = 4.87152 5.32891 5.10534
#
# Compressibility (1/GPa) = 0.05727812
#
# Stress axis : x y z
#
# Youngs Moduli (GPa) = 56.53885 31.42686 77.17458
#
# Poissons Ratio (x) = -0.03161 0.34035
# Poissons Ratio (y) = -0.05687 -0.06260
# Poissons Ratio (z) = 0.24934 -0.02549
#
# Static dielectric constant tensor:
#      x y z
#    x 1.710170 0.000000 0.000000 
#    y 0.000000 1.730330 0.000000 
#    z 0.000000 0.000000 1.713250 
# 
# From -- ./inp_files/1464.got.cif
#   From: 2010.05.17/outbox.cif.g08.bks.cpg/sg33_1_cif.got.tgz:1464.got - 2010.06.03 17:15:25.
