data_PCOD9344454
_publ_section_title
;
Structure prediction by ZEFSAII (Michael W. Deem and Ramdas Pophale) SiO2 
 PCOD9344454
Probable space group: P N A 21
;
_chemical_formula_sum "Si O2"
_cell_formula_units_Z 24
_cell_length_a 13.932083
_cell_length_b 7.692511
_cell_length_c 8.385132
_cell_angle_alpha 90.000000
_cell_angle_beta 90.000000
_cell_angle_gamma 90.000000
_cell_volume 898.657251
_symmetry_space_group_name_H-M "P N A 21"
_symmetry_group_IT_number 33
_symmetry_cell_setting 'orthorhombic'
loop_
_space_group_symop_operation_xyz
x,y,z
-x,-y,1/2+z
1/2-x,1/2+y,1/2+z
1/2+x,1/2-y,z
loop_
_atom_site_type_symbol
_atom_site_label
_atom_site_fract_x
_atom_site_fract_y
_atom_site_fract_z
Si Si1 0.102788 0.479409 0.879060
Si Si2 0.707590 0.930753 0.465124
Si Si3 0.587798 0.695206 0.667413
Si Si4 0.000817 0.974879 0.398768
Si Si5 0.030674 0.340804 0.574966
Si Si6 0.298292 0.371151 0.745949
O O1 0.066508 0.642833 0.776737
O O2 0.059073 0.330624 0.762494
O O3 0.215909 0.465620 0.851471
O O4 0.064737 0.542745 0.048356
O O5 0.682503 0.759507 0.575479
O O6 0.718063 0.832365 0.295557
O O7 0.780572 0.053752 0.566376
O O8 0.612116 0.048515 0.480867
O O9 0.586345 0.533160 0.786453
O O10 0.502804 0.665328 0.540157
O O11 0.025387 0.151767 0.497894
O O12 0.095714 0.927242 0.297078
#
# Coordination Sequence:
#
# PCOD9344454 Si02
#       6
#     4   4   4   4   4   4
#     4   9  19  38  55  78 109 151 187 233 287 351
#     4   9  19  38  55  81 114 151 192 242 294 356
#     4   8  18  33  53  77 111 144 184 223 281 347
#     4  10  18  34  55  83 112 146 185 235 284 347
#     4   9  19  34  56  79 109 145 190 230 287 353
#     4   9  19  35  56  80 115 147 190 243 297 346
#
# _framework density 26.706510999999999
#
# number of rings (size 3 to 8) (size 9 to 14) (size 15 to 20)
#    0.000    3.333    0.000    0.000    0.000    8.000 
#    0.000   25.000    0.000    0.000    0.000    0.000 
#    0.000    0.000    0.000    0.000    0.000    0.000 
#
# Total GULP energy -133674.675212 kJ/mol
# GULP energy per Si atom -5569.778134 kJ/mol
# Density = 2.664573 g / cm^3
# Si number density = 26.706511 Si / 1000 Ang^3
#
#
#
# Elastic Constant Matrix: (Units=GPa)
#
#
# Indices 1 2 3 4 5 6 
#
# 1 92.3292 21.4260 29.0237 0.0000 0.0000 0.0000
# 2 21.4260 120.1947 41.4931 0.0000 0.0000 0.0000
# 3 29.0237 41.4931 95.7640 0.0000 0.0000 0.0000
# 4 0.0000 0.0000 0.0000 42.6533 0.0000 0.0000
# 5 0.0000 0.0000 0.0000 0.0000 45.0001 0.0000
# 6 0.0000 0.0000 0.0000 0.0000 0.0000 35.2920
#
#
#
# Elastic Compliance Matrix: (Units=1/GPa)
#
#
# Indices 1 2 3 4 5 6 
#
# 1 0.012082 -0.001046 -0.003209 0.000000 0.000000 0.000000
# 2 -0.001046 0.009874 -0.003961 0.000000 0.000000 0.000000
# 3 -0.003209 -0.003961 0.013131 0.000000 0.000000 0.000000
# 4 0.000000 0.000000 0.000000 0.023445 0.000000 0.000000
# 5 0.000000 0.000000 0.000000 0.000000 0.022222 0.000000
# 6 0.000000 0.000000 0.000000 0.000000 0.000000 0.028335
#
#
# Mechanical properties :
#
#
# Convention : Reuss Voigt Hill
#
# Bulk Modulus (GPa) = 53.60364 54.68594 54.14479
# Shear Modulus (GPa) = 37.95384 39.01210 38.48297
#
# Velocity S-wave (km/s) = 3.77390 3.82615 3.80011
# Velocity P-wave (km/s) = 6.25337 6.32774 6.29067
#
# Compressibility (1/GPa) = 0.01865545
#
# Stress axis : x y z
#
# Youngs Moduli (GPa) = 82.76653 101.27865 76.15541
#
# Poissons Ratio (x) = 0.10595 0.24435
# Poissons Ratio (y) = 0.08659 0.30166
# Poissons Ratio (z) = 0.26556 0.40117
#
# Static dielectric constant tensor:
#      x y z
#    x 2.118480 0.000000 0.000000 
#    y 0.000000 2.203130 0.000000 
#    z 0.000000 0.000000 2.262810 
# 
# From -- ./inp_files/4678.got.cif
#   From: 2010.05.17/outbox.cif.g08.bks.cpg/sg33_3_cif.got.tgz:4678.got - 2010.06.03 17:15:25.
