data_PCOD9344677
_publ_section_title
;
Structure prediction by ZEFSAII (Michael W. Deem and Ramdas Pophale) SiO2 
 PCOD9344677
Probable space group: P N A 21
;
_chemical_formula_sum "Si O2"
_cell_formula_units_Z 32
_cell_length_a 9.180234
_cell_length_b 33.165026
_cell_length_c 5.154812
_cell_angle_alpha 90.000000
_cell_angle_beta 90.000000
_cell_angle_gamma 90.000000
_cell_volume 1569.447976
_symmetry_space_group_name_H-M "P N A 21"
_symmetry_group_IT_number 33
_symmetry_cell_setting 'orthorhombic'
loop_
_space_group_symop_operation_xyz
x,y,z
-x,-y,1/2+z
1/2-x,1/2+y,1/2+z
1/2+x,1/2-y,z
loop_
_atom_site_type_symbol
_atom_site_label
_atom_site_fract_x
_atom_site_fract_y
_atom_site_fract_z
Si Si1 0.536902 0.710870 0.248280
Si Si2 0.685351 0.491769 0.485219
Si Si3 0.476584 0.027381 0.313396
Si Si4 0.684363 0.158790 0.804395
Si Si5 0.757149 0.767216 0.943644
Si Si6 0.516039 0.223841 0.126225
Si Si7 0.172471 0.393273 0.318265
Si Si8 0.865259 0.040985 0.487637
O O1 0.649201 0.674208 0.268909
O O2 0.497710 0.729987 0.525087
O O3 0.640173 0.746320 0.132757
O O4 0.384914 0.707621 0.088994
O O5 0.812122 0.462815 0.394184
O O6 0.701746 0.511184 0.768312
O O7 0.534699 0.468527 0.473927
O O8 0.684936 0.528028 0.274173
O O9 0.565798 0.068408 0.318201
O O10 0.517013 0.994892 0.537234
O O11 0.631291 0.138996 0.537383
O O12 0.578683 0.194600 0.904862
O O13 0.681347 0.126597 0.038046
O O14 0.643098 0.787485 0.740210
O O15 0.848907 0.729757 0.823063
O O16 0.322470 0.414111 0.412126
#
# Coordination Sequence:
#
# PCOD9344677 Si02
#       8
#     4   4   4   4   4   4   4   4
#     4  11  21  40  65  97 120 174 228 281 321 403
#     4  10  19  36  66  93 117 158 218 268 291 365
#     4  12  21  39  68  96 124 168 223 260 310 396
#     4  12  26  41  65  94 140 172 217 278 348 400
#     4  10  21  36  69  92 126 155 241 277 317 380
#     4  11  21  40  65  97 119 174 224 281 324 401
#     4  12  25  41  61  98 136 175 207 275 348 392
#     4  10  20  37  63  93 122 160 208 258 317 377
#
# _framework density 20.389333000000001
#
# number of rings (size 3 to 8) (size 9 to 14) (size 15 to 20)
#    0.000    1.000    5.000    2.250    3.500    0.000 
#    0.000    1.250    0.000    0.000    0.000    0.000 
#    0.000    0.000    0.000    0.000    0.000    0.000 
#
# Total GULP energy -178505.022856 kJ/mol
# GULP energy per Si atom -5578.281964 kJ/mol
# Density = 2.034293 g / cm^3
# Si number density = 20.389333 Si / 1000 Ang^3
#
#
#
# Elastic Constant Matrix: (Units=GPa)
#
#
# Indices 1 2 3 4 5 6 
#
# 1 114.7506 16.3459 24.6129 0.0000 0.0000 0.0000
# 2 16.3459 51.7667 6.8868 0.0000 0.0000 0.0000
# 3 24.6129 6.8868 83.8881 0.0000 0.0000 0.0000
# 4 0.0000 0.0000 0.0000 33.6067 0.0000 0.0000
# 5 0.0000 0.0000 0.0000 0.0000 36.5849 0.0000
# 6 0.0000 0.0000 0.0000 0.0000 0.0000 31.7954
#
#
#
# Elastic Compliance Matrix: (Units=1/GPa)
#
#
# Indices 1 2 3 4 5 6 
#
# 1 0.009660 -0.002703 -0.002612 0.000000 0.000000 0.000000
# 2 -0.002703 0.020287 -0.000872 0.000000 0.000000 0.000000
# 3 -0.002612 -0.000872 0.012759 0.000000 0.000000 0.000000
# 4 0.000000 0.000000 0.000000 0.029756 0.000000 0.000000
# 5 0.000000 0.000000 0.000000 0.000000 0.027334 0.000000
# 6 0.000000 0.000000 0.000000 0.000000 0.000000 0.031451
#
#
# Mechanical properties :
#
#
# Convention : Reuss Voigt Hill
#
# Bulk Modulus (GPa) = 32.97010 38.45516 35.71263
# Shear Modulus (GPa) = 32.52428 33.90140 33.21284
#
# Velocity S-wave (km/s) = 3.99828 4.08205 4.04038
# Velocity P-wave (km/s) = 6.12539 6.41240 6.27054
#
# Compressibility (1/GPa) = 0.03033051
#
# Stress axis : x y z
#
# Youngs Moduli (GPa) = 103.52114 49.29291 78.37772
#
# Poissons Ratio (x) = 0.13322 0.20475
# Poissons Ratio (y) = 0.27978 0.06838
# Poissons Ratio (z) = 0.27043 0.04301
#
# Static dielectric constant tensor:
#      x y z
#    x 1.815590 0.000000 0.000000 
#    y 0.000000 1.706690 0.000000 
#    z 0.000000 0.000000 1.784630 
# 
# From -- ./inp_files/606.got.cif
#   From: 2010.05.17/outbox.cif.g08.bks.cpg/sg33_1_cif.got.tgz:606.got - 2010.06.03 17:15:25.
