data_PCOD9344799
_publ_section_title
;
Structure prediction by ZEFSAII (Michael W. Deem and Ramdas Pophale) SiO2 
 PCOD9344799
Probable space group: P N A 21
;
_chemical_formula_sum "Si O2"
_cell_formula_units_Z 24
_cell_length_a 5.287023
_cell_length_b 10.516561
_cell_length_c 20.132947
_cell_angle_alpha 90.000000
_cell_angle_beta 90.000000
_cell_angle_gamma 90.000000
_cell_volume 1119.418024
_symmetry_space_group_name_H-M "P N A 21"
_symmetry_group_IT_number 33
_symmetry_cell_setting 'orthorhombic'
loop_
_space_group_symop_operation_xyz
x,y,z
-x,-y,1/2+z
1/2-x,1/2+y,1/2+z
1/2+x,1/2-y,z
loop_
_atom_site_type_symbol
_atom_site_label
_atom_site_fract_x
_atom_site_fract_y
_atom_site_fract_z
Si Si1 0.625795 0.822780 0.025020
Si Si2 0.109661 0.063489 0.412556
Si Si3 0.785286 0.221105 0.905283
Si Si4 0.492243 0.665037 0.624421
Si Si5 0.988601 0.168343 0.272348
Si Si6 0.214809 0.545209 0.507640
O O1 0.895619 0.767436 0.048500
O O2 0.519325 0.965768 0.037853
O O3 0.699642 0.836119 0.945940
O O4 0.048466 0.085391 0.336457
O O5 0.235699 0.925503 0.422288
O O6 0.852228 0.047771 0.454879
O O7 0.543371 0.265032 0.866402
O O8 0.816808 0.319431 0.968034
O O9 0.768360 0.728470 0.618360
O O10 0.475320 0.610116 0.698963
O O11 0.414933 0.571297 0.565925
O O12 0.202865 0.278877 0.275852
#
# Coordination Sequence:
#
# PCOD9344799 Si02
#       6
#     4   4   4   4   4   4
#     4  12  24  37  54  88 122 161 200 246 310 369
#     4  11  22  37  61  91 128 161 201 260 311 374
#     4  10  20  33  53  87 114 147 192 248 310 345
#     4  10  22  40  63  92 126 164 209 264 318 368
#     4  10  23  39  60  89 128 170 209 254 313 375
#     4  11  23  38  63  91 126 159 207 270 312 369
#
# _framework density 21.439713999999999
#
# number of rings (size 3 to 8) (size 9 to 14) (size 15 to 20)
#    0.000    1.333    3.333    3.000    4.667    0.000 
#    0.000    0.000    0.000    4.000    0.000    0.000 
#    0.000    0.000    0.000    0.000    0.000    0.000 
#
# Total GULP energy -133667.117597 kJ/mol
# GULP energy per Si atom -5569.463233 kJ/mol
# Density = 2.139092 g / cm^3
# Si number density = 21.439714 Si / 1000 Ang^3
#
#
#
# Elastic Constant Matrix: (Units=GPa)
#
#
# Indices 1 2 3 4 5 6 
#
# 1 88.8050 12.6643 -5.5537 0.0000 0.0000 0.0000
# 2 12.6643 83.0474 20.9116 0.0000 0.0000 0.0000
# 3 -5.5537 20.9116 78.6544 0.0000 0.0000 0.0000
# 4 0.0000 0.0000 0.0000 22.5972 0.0000 0.0000
# 5 0.0000 0.0000 0.0000 0.0000 22.3210 0.0000
# 6 0.0000 0.0000 0.0000 0.0000 0.0000 37.7915
#
#
#
# Elastic Compliance Matrix: (Units=1/GPa)
#
#
# Indices 1 2 3 4 5 6 
#
# 1 0.011651 -0.002126 0.001388 0.000000 0.000000 0.000000
# 2 -0.002126 0.013293 -0.003684 0.000000 0.000000 0.000000
# 3 0.001388 -0.003684 0.013791 0.000000 0.000000 0.000000
# 4 0.000000 0.000000 0.000000 0.044253 0.000000 0.000000
# 5 0.000000 0.000000 0.000000 0.000000 0.044801 0.000000
# 6 0.000000 0.000000 0.000000 0.000000 0.000000 0.026461
#
#
# Mechanical properties :
#
#
# Convention : Reuss Voigt Hill
#
# Bulk Modulus (GPa) = 33.45590 34.06126 33.75858
# Shear Modulus (GPa) = 28.89188 31.37425 30.13306
#
# Velocity S-wave (km/s) = 3.67493 3.82955 3.75304
# Velocity P-wave (km/s) = 5.80046 5.95613 5.87881
#
# Compressibility (1/GPa) = 0.02989009
#
# Stress axis : x y z
#
# Youngs Moduli (GPa) = 85.83234 75.22598 72.50894
#
# Poissons Ratio (x) = 0.15994 -0.10064
# Poissons Ratio (y) = 0.18249 0.26715
# Poissons Ratio (z) = -0.11913 0.27716
#
# Static dielectric constant tensor:
#      x y z
#    x 1.931910 0.000000 0.000000 
#    y 0.000000 1.871870 0.000000 
#    z 0.000000 0.000000 1.751690 
# 
# From -- ./inp_files/8340.got.cif
#   From: 2010.05.17/outbox.cif.g08.bks.cpg/sg33_5_cif.got.tgz:8340.got - 2010.06.03 17:15:25.
