data_PCOD9344271
_publ_section_title
;
Structure prediction by ZEFSAII (Michael W. Deem and Ramdas Pophale) SiO2 
 PCOD9344271
Probable space group: P B A 2
;
_chemical_formula_sum "Si O2"
_cell_formula_units_Z 20
_cell_length_a 14.075066
_cell_length_b 11.114340
_cell_length_c 5.054692
_cell_angle_alpha 90.000000
_cell_angle_beta 90.000000
_cell_angle_gamma 90.000000
_cell_volume 790.731092
_symmetry_space_group_name_H-M "P B A 2"
_symmetry_group_IT_number 32
_symmetry_cell_setting 'orthorhombic'
loop_
_space_group_symop_operation_xyz
x,y,z
-x,-y,z
1/2-x,1/2+y,z
1/2+x,1/2-y,z
loop_
_atom_site_type_symbol
_atom_site_label
_atom_site_fract_x
_atom_site_fract_y
_atom_site_fract_z
Si Si1 0.895330 0.949454 0.882760
Si Si2 0.258396 0.855584 0.044360
Si Si3 0.254631 0.687486 0.542244
Si Si4 0.954734 0.709518 0.171312
Si Si5 0.949021 0.374341 0.674552
O O1 0.841321 0.899040 0.623114
O O2 0.914727 0.836708 0.074886
O O3 0.822166 0.042550 0.023948
O O4 0.000000 0.000000 0.821972
O O5 0.261631 0.795677 0.755374
O O6 0.367915 0.885691 0.125164
O O7 0.238787 0.752775 0.263437
O O8 0.159963 0.614983 0.605261
O O9 0.036762 0.676377 0.966221
O O10 0.996067 0.709095 0.463604
O O11 0.000000 0.500000 0.651245
#
# Coordination Sequence:
#
# PCOD9344271 Si02
#       5
#     4   4   4   4   4
#     4  11  24  46  75 106 147 195 241 304 368 431
#     4  11  25  45  70 102 145 185 233 300 364 425
#     4  11  25  44  68 104 141 184 241 295 361 444
#     4  11  25  44  69 106 139 184 248 292 353 444
#     4  12  24  43  69  98 138 186 233 293 357 426
#
# _framework density 25.293049
#
# number of rings (size 3 to 8) (size 9 to 14) (size 15 to 20)
#    0.000    0.800    0.000    7.800    0.000    8.000 
#    0.000   12.000    0.000    0.000    0.000    0.000 
#    0.000    0.000    0.000    0.000    0.000    0.000 
#
# Total GULP energy -112060.359272 kJ/mol
# GULP energy per Si atom -5603.017964 kJ/mol
# Density = 2.523548 g / cm^3
# Si number density = 25.293049 Si / 1000 Ang^3
#
#
#
# Elastic Constant Matrix: (Units=GPa)
#
#
# Indices 1 2 3 4 5 6 
#
# 1 170.8062 67.0321 64.1138 0.0000 0.0000 0.0000
# 2 67.0321 97.2772 16.6031 0.0000 0.0000 0.0000
# 3 64.1138 16.6031 65.1506 0.0000 0.0000 0.0000
# 4 0.0000 0.0000 0.0000 27.8593 0.0000 0.0000
# 5 0.0000 0.0000 0.0000 0.0000 30.6571 0.0000
# 6 0.0000 0.0000 0.0000 0.0000 0.0000 39.8368
#
#
#
# Elastic Compliance Matrix: (Units=1/GPa)
#
#
# Indices 1 2 3 4 5 6 
#
# 1 0.012485 -0.006802 -0.010553 0.000000 0.000000 0.000000
# 2 -0.006802 0.014453 0.003011 0.000000 0.000000 0.000000
# 3 -0.010553 0.003011 0.024967 0.000000 0.000000 0.000000
# 4 0.000000 0.000000 0.000000 0.035895 0.000000 0.000000
# 5 0.000000 0.000000 0.000000 0.000000 0.032619 0.000000
# 6 0.000000 0.000000 0.000000 0.000000 0.000000 0.025102
#
#
# Mechanical properties :
#
#
# Convention : Reuss Voigt Hill
#
# Bulk Modulus (GPa) = 43.07324 69.85910 56.46617
# Shear Modulus (GPa) = 27.48012 32.03632 29.75822
#
# Velocity S-wave (km/s) = 3.29974 3.56280 3.43379
# Velocity P-wave (km/s) = 5.62000 6.67867 6.17207
#
# Compressibility (1/GPa) = 0.02321627
#
# Stress axis : x y z
#
# Youngs Moduli (GPa) = 80.09413 69.18809 40.05290
#
# Poissons Ratio (x) = 0.47063 0.42268
# Poissons Ratio (y) = 0.54482 -0.12059
# Poissons Ratio (z) = 0.84524 -0.20830
#
# Static dielectric constant tensor:
#      x y z
#    x 2.042920 0.000000 0.000000 
#    y 0.000000 2.031410 0.000000 
#    z 0.000000 0.000000 1.981900 
# 
# From -- ./inp_files/1122.got.cif
#   From: 2010.05.17/outbox.cif.g08.bks.cpg/sg32_1_cif.got.tgz:1122.got - 2010.06.03 17:12:27.
