data_PCOD9344855
_publ_section_title
;
Structure prediction by ZEFSAII (Michael W. Deem and Ramdas Pophale) SiO2 
 PCOD9344855
Probable space group: P N A 21
;
_chemical_formula_sum "Si O2"
_cell_formula_units_Z 32
_cell_length_a 17.844173
_cell_length_b 7.069033
_cell_length_c 9.416940
_cell_angle_alpha 90.000000
_cell_angle_beta 90.000000
_cell_angle_gamma 90.000000
_cell_volume 1187.862679
_symmetry_space_group_name_H-M "P N A 21"
_symmetry_group_IT_number 33
_symmetry_cell_setting 'orthorhombic'
loop_
_space_group_symop_operation_xyz
x,y,z
-x,-y,1/2+z
1/2-x,1/2+y,1/2+z
1/2+x,1/2-y,z
loop_
_atom_site_type_symbol
_atom_site_label
_atom_site_fract_x
_atom_site_fract_y
_atom_site_fract_z
Si Si1 0.441156 0.346988 0.039920
Si Si2 0.458017 0.944876 0.368163
Si Si3 0.498186 0.618589 0.843606
Si Si4 0.795174 0.027776 0.785528
Si Si5 0.688872 0.949110 0.026983
Si Si6 0.355777 0.487836 0.506821
Si Si7 0.206280 0.548413 0.340910
Si Si8 0.861353 0.509499 0.116100
O O1 0.489686 0.414385 0.176254
O O2 0.376130 0.219284 0.114095
O O3 0.483487 0.189971 0.943936
O O4 0.430535 0.523635 0.933045
O O5 0.490700 0.157746 0.366110
O O6 0.380968 0.940384 0.458361
O O7 0.430097 0.905031 0.206496
O O8 0.568381 0.511640 0.919085
O O9 0.847624 0.932568 0.666698
O O10 0.822542 0.237090 0.826050
O O11 0.716058 0.051221 0.696744
O O12 0.761746 0.941970 0.928543
O O13 0.707757 0.025752 0.181994
O O14 0.659789 0.734916 0.031387
O O15 0.288270 0.561147 0.409318
O O16 0.154337 0.441303 0.453163
#
# Coordination Sequence:
#
# PCOD9344855 Si02
#       8
#     4   4   4   4   4   4   4   4
#     4  11  24  43  70  96 139 187 231 293 341 415
#     4   9  21  43  64  90 136 183 222 286 342 408
#     4  10  24  42  64 100 130 180 239 286 352 411
#     4   9  19  37  63  91 127 178 213 276 353 414
#     4   9  19  35  58  92 127 162 223 271 332 406
#     4   9  20  39  57  89 132 167 217 281 341 403
#     4  10  20  35  65  94 127 172 218 277 344 414
#     4   9  21  40  63  92 132 175 221 280 347 407
#
# _framework density 26.939139999999998
#
# number of rings (size 3 to 8) (size 9 to 14) (size 15 to 20)
#    0.000    2.500    0.000    0.750    3.500   12.000 
#    0.000    0.000    5.500    0.000    0.000    0.000 
#    0.000    0.000    0.000    0.000    0.000    0.000 
#
# Total GULP energy -179038.523606 kJ/mol
# GULP energy per Si atom -5594.953863 kJ/mol
# Density = 2.687783 g / cm^3
# Si number density = 26.939140 Si / 1000 Ang^3
#
#
#
# Elastic Constant Matrix: (Units=GPa)
#
#
# Indices 1 2 3 4 5 6 
#
# 1 93.2933 17.5225 28.8252 0.0000 0.0000 0.0000
# 2 17.5225 91.3302 34.2115 0.0000 0.0000 0.0000
# 3 28.8252 34.2115 214.1551 0.0000 0.0000 0.0000
# 4 0.0000 0.0000 0.0000 36.8688 0.0000 0.0000
# 5 0.0000 0.0000 0.0000 0.0000 34.6510 0.0000
# 6 0.0000 0.0000 0.0000 0.0000 0.0000 50.5040
#
#
#
# Elastic Compliance Matrix: (Units=1/GPa)
#
#
# Indices 1 2 3 4 5 6 
#
# 1 0.011432 -0.001720 -0.001264 0.000000 0.000000 0.000000
# 2 -0.001720 0.011905 -0.001670 0.000000 0.000000 0.000000
# 3 -0.001264 -0.001670 0.005106 0.000000 0.000000 0.000000
# 4 0.000000 0.000000 0.000000 0.027123 0.000000 0.000000
# 5 0.000000 0.000000 0.000000 0.000000 0.028859 0.000000
# 6 0.000000 0.000000 0.000000 0.000000 0.000000 0.019800
#
#
# Mechanical properties :
#
#
# Convention : Reuss Voigt Hill
#
# Bulk Modulus (GPa) = 52.25935 62.21077 57.23506
# Shear Modulus (GPa) = 41.69662 45.61938 43.65800
#
# Velocity S-wave (km/s) = 3.93849 4.11959 4.03005
# Velocity P-wave (km/s) = 6.33430 6.76544 6.55342
#
# Compressibility (1/GPa) = 0.01913533
#
# Stress axis : x y z
#
# Youngs Moduli (GPa) = 87.47012 83.99870 195.82927
#
# Poissons Ratio (x) = 0.14447 0.24754
# Poissons Ratio (y) = 0.15044 0.32710
# Poissons Ratio (z) = 0.11057 0.14031
#
# Static dielectric constant tensor:
#      x y z
#    x 2.182590 0.000000 0.000000 
#    y 0.000000 2.124400 0.000000 
#    z 0.000000 0.000000 2.154000 
# 
# From -- ./inp_files/5049.got.cif
#   From: 2010.05.17/outbox.cif.g08.bks.cpg/sg33_3_cif.got.tgz:5049.got - 2010.06.03 17:15:25.
