data_PCOD9344811
_publ_section_title
;
Structure prediction by ZEFSAII (Michael W. Deem and Ramdas Pophale) SiO2 
 PCOD9344811
Probable space group: P N A 21
;
_chemical_formula_sum "Si O2"
_cell_formula_units_Z 28
_cell_length_a 8.770756
_cell_length_b 8.590077
_cell_length_c 18.051078
_cell_angle_alpha 90.000000
_cell_angle_beta 90.000000
_cell_angle_gamma 90.000000
_cell_volume 1359.994741
_symmetry_space_group_name_H-M "P N A 21"
_symmetry_group_IT_number 33
_symmetry_cell_setting 'orthorhombic'
loop_
_space_group_symop_operation_xyz
x,y,z
-x,-y,1/2+z
1/2-x,1/2+y,1/2+z
1/2+x,1/2-y,z
loop_
_atom_site_type_symbol
_atom_site_label
_atom_site_fract_x
_atom_site_fract_y
_atom_site_fract_z
Si Si1 0.121023 0.934276 0.937250
Si Si2 0.619283 0.024010 0.858610
Si Si3 0.541957 0.155595 0.489432
Si Si4 0.640289 0.294537 0.171057
Si Si5 0.883828 0.203442 0.274955
Si Si6 0.914112 0.218550 0.913346
Si Si7 0.597862 0.888169 0.571997
O O1 0.284170 0.886973 0.969718
O O2 0.994926 0.835229 0.982298
O O3 0.134565 0.880283 0.852373
O O4 0.056062 0.106994 0.933947
O O5 0.777200 0.115456 0.877609
O O6 0.483158 0.151840 0.857283
O O7 0.572990 0.922550 0.930598
O O8 0.616939 0.891411 0.794178
O O9 0.522097 0.057475 0.563204
O O10 0.751464 0.178247 0.215530
O O11 0.537822 0.358793 0.237712
O O12 0.521035 0.214274 0.117047
O O13 0.748547 0.397809 0.119813
O O14 0.875095 0.304876 0.991725
#
# Coordination Sequence:
#
# PCOD9344811 Si02
#       7
#     4   4   4   4   4   4   4
#     4  11  20  34  59  86 114 146 184 245 303 342
#     4  10  20  34  54  84 117 143 186 245 288 337
#     4  10  20  34  54  84 117 143 186 245 288 337
#     4  10  20  34  58  74 110 154 186 226 264 360
#     4  10  20  36  55  84 109 145 193 229 286 341
#     4  11  20  34  59  86 114 146 184 245 303 342
#     4  10  20  36  55  84 109 145 193 229 286 341
#
# _framework density 20.588315000000001
#
# number of rings (size 3 to 8) (size 9 to 14) (size 15 to 20)
#    0.000    1.714    0.000    8.571    0.000    0.000 
#    0.000    0.000    0.000   30.857    0.000    0.000 
#    0.000    0.000    0.000    0.000    0.000    0.000 
#
# Total GULP energy -155956.589614 kJ/mol
# GULP energy per Si atom -5569.878201 kJ/mol
# Density = 2.054145 g / cm^3
# Si number density = 20.588315 Si / 1000 Ang^3
#
#
#
# Elastic Constant Matrix: (Units=GPa)
#
#
# Indices 1 2 3 4 5 6 
#
# 1 77.9228 2.4983 4.6315 0.0000 0.0000 0.0000
# 2 2.4983 70.7170 6.4029 0.0000 0.0000 0.0000
# 3 4.6315 6.4029 42.2088 0.0000 0.0000 0.0000
# 4 0.0000 0.0000 0.0000 -1.2190 0.0000 0.0000
# 5 0.0000 0.0000 0.0000 0.0000 32.3461 0.0000
# 6 0.0000 0.0000 0.0000 0.0000 0.0000 20.4574
#
#
#
# Elastic Compliance Matrix: (Units=1/GPa)
#
#
# Indices 1 2 3 4 5 6 
#
# 1 0.012925 -0.000333 -0.001368 0.000000 0.000000 0.000000
# 2 -0.000333 0.014346 -0.002140 0.000000 0.000000 0.000000
# 3 -0.001368 -0.002140 0.024166 0.000000 0.000000 0.000000
# 4 0.000000 0.000000 0.000000 -0.820333 0.000000 0.000000
# 5 0.000000 0.000000 0.000000 0.000000 0.030916 0.000000
# 6 0.000000 0.000000 0.000000 0.000000 0.000000 0.048882
#
#
# Mechanical properties :
#
#
# Convention : Reuss Voigt Hill
#
# Bulk Modulus (GPa) = 22.85332 24.21267 23.53300
# Shear Modulus (GPa) = -7.49815 22.13796 7.31990
#
# Velocity S-wave (km/s) = -1.91046 3.28269 1.88761
# Velocity P-wave (km/s) = 2.50155 5.11409 4.02565
#
# Compressibility (1/GPa) = 0.04375731
#
# Stress axis : x y z
#
# Youngs Moduli (GPa) = 77.36839 69.70404 41.37974
#
# Poissons Ratio (x) = 0.02320 0.05660
# Poissons Ratio (y) = 0.02575 0.08854
# Poissons Ratio (z) = 0.10582 0.14915
#
# Static dielectric constant tensor:
#      x y z
#    x 1.853570 0.000000 0.000000 
#    y 0.000000 1.776270 0.000000 
#    z 0.000000 0.000000 1.744330 
# 
# From -- ./inp_files/8455.got.cif
#   From: 2010.05.17/outbox.cif.g08.bks.cpg/sg33_5_cif.got.tgz:8455.got - 2010.06.03 17:15:25.
