data_PCOD9344833
_publ_section_title
;
Structure prediction by ZEFSAII (Michael W. Deem and Ramdas Pophale) SiO2 
 PCOD9344833
Probable space group: P N A 21
;
_chemical_formula_sum "Si O2"
_cell_formula_units_Z 32
_cell_length_a 13.482017
_cell_length_b 11.037438
_cell_length_c 10.203244
_cell_angle_alpha 90.000000
_cell_angle_beta 90.000000
_cell_angle_gamma 90.000000
_cell_volume 1518.313383
_symmetry_space_group_name_H-M "P N A 21"
_symmetry_group_IT_number 33
_symmetry_cell_setting 'orthorhombic'
loop_
_space_group_symop_operation_xyz
x,y,z
-x,-y,1/2+z
1/2-x,1/2+y,1/2+z
1/2+x,1/2-y,z
loop_
_atom_site_type_symbol
_atom_site_label
_atom_site_fract_x
_atom_site_fract_y
_atom_site_fract_z
Si Si1 0.093215 0.335497 0.617940
Si Si2 0.274432 0.153373 0.984021
Si Si3 0.393363 0.291445 0.564622
Si Si4 0.722545 0.625976 0.303479
Si Si5 0.439032 0.095351 0.199363
Si Si6 0.637013 0.193252 0.130070
Si Si7 0.167537 0.547391 0.962375
Si Si8 0.255700 0.893657 0.883155
O O1 0.171212 0.331172 0.739586
O O2 0.033946 0.459878 0.650024
O O3 0.163801 0.349786 0.491696
O O4 0.008451 0.237349 0.589470
O O5 0.348180 0.126145 0.103801
O O6 0.170602 0.190447 0.049759
O O7 0.309695 0.271079 0.905040
O O8 0.266130 0.038440 0.889632
O O9 0.352028 0.372656 0.682815
O O10 0.332881 0.162273 0.558141
O O11 0.353015 0.354960 0.432884
O O12 0.738271 0.496939 0.375002
O O13 0.526531 0.190235 0.183416
O O14 0.411097 0.084050 0.350916
O O15 0.713630 0.164875 0.246779
O O16 0.642569 0.076824 0.034886
#
# Coordination Sequence:
#
# PCOD9344833 Si02
#       8
#     4   4   4   4   4   4   4   4
#     4   9  19  36  60  91 108 153 212 250 295 361
#     4  10  22  38  55  90 125 153 198 252 314 376
#     4  11  19  36  63  82 120 163 198 255 310 356
#     4   9  21  35  58  88 123 152 199 258 307 366
#     4  10  20  35  61  89 118 149 204 262 299 361
#     4  11  21  35  61  90 118 158 203 257 316 360
#     4  10  20  35  57  93 113 149 209 254 298 366
#     4  10  22  36  59  85 123 161 199 256 311 370
#
# _framework density 21.076018999999999
#
# number of rings (size 3 to 8) (size 9 to 14) (size 15 to 20)
#    0.000    2.000    1.250    3.000    1.750    2.000 
#    0.000    0.000   24.750    0.000    0.000    0.000 
#    0.000    0.000    0.000    0.000    0.000    0.000 
#
# Total GULP energy -178463.481583 kJ/mol
# GULP energy per Si atom -5576.983799 kJ/mol
# Density = 2.102805 g / cm^3
# Si number density = 21.076019 Si / 1000 Ang^3
#
#
#
# Elastic Constant Matrix: (Units=GPa)
#
#
# Indices 1 2 3 4 5 6 
#
# 1 31.5292 -10.3379 -4.9082 0.0000 0.0000 0.0000
# 2 -10.3379 26.7779 -7.2861 0.0000 0.0000 0.0000
# 3 -4.9082 -7.2861 62.8642 0.0000 0.0000 0.0000
# 4 0.0000 0.0000 0.0000 25.1586 0.0000 0.0000
# 5 0.0000 0.0000 0.0000 0.0000 11.8734 0.0000
# 6 0.0000 0.0000 0.0000 0.0000 0.0000 33.0459
#
#
#
# Elastic Compliance Matrix: (Units=1/GPa)
#
#
# Indices 1 2 3 4 5 6 
#
# 1 0.037652 0.015835 0.004775 0.000000 0.000000 0.000000
# 2 0.015835 0.045220 0.006477 0.000000 0.000000 0.000000
# 3 0.004775 0.006477 0.017031 0.000000 0.000000 0.000000
# 4 0.000000 0.000000 0.000000 0.039748 0.000000 0.000000
# 5 0.000000 0.000000 0.000000 0.000000 0.084222 0.000000
# 6 0.000000 0.000000 0.000000 0.000000 0.000000 0.030261
#
#
# Mechanical properties :
#
#
# Convention : Reuss Voigt Hill
#
# Bulk Modulus (GPa) = 6.49019 8.45632 7.47325
# Shear Modulus (GPa) = 19.89514 23.59581 21.74547
#
# Velocity S-wave (km/s) = 3.07574 3.34961 3.21559
# Velocity P-wave (km/s) = 3.96228 4.35670 4.16416
#
# Compressibility (1/GPa) = 0.15407881
#
# Stress axis : x y z
#
# Youngs Moduli (GPa) = 26.55891 22.11406 58.71688
#
# Poissons Ratio (x) = -0.35018 -0.28038
# Poissons Ratio (y) = -0.42057 -0.38034
# Poissons Ratio (z) = -0.12682 -0.14324
#
# Static dielectric constant tensor:
#      x y z
#    x 1.789420 0.000000 0.000000 
#    y 0.000000 1.789570 0.000000 
#    z 0.000000 0.000000 1.798700 
# 
# From -- ./inp_files/6779.got.cif
#   From: 2010.05.17/outbox.cif.g08.bks.cpg/sg33_4_cif.got.tgz:6779.got - 2010.06.03 17:15:25.
