data_PCOD9344721
_publ_section_title
;
Structure prediction by ZEFSAII (Michael W. Deem and Ramdas Pophale) SiO2 
 PCOD9344721
Probable space group: P N A 21
;
_chemical_formula_sum "Si O2"
_cell_formula_units_Z 32
_cell_length_a 12.203493
_cell_length_b 9.393328
_cell_length_c 10.516348
_cell_angle_alpha 90.000000
_cell_angle_beta 90.000000
_cell_angle_gamma 90.000000
_cell_volume 1205.503826
_symmetry_space_group_name_H-M "P N A 21"
_symmetry_group_IT_number 33
_symmetry_cell_setting 'orthorhombic'
loop_
_space_group_symop_operation_xyz
x,y,z
-x,-y,1/2+z
1/2-x,1/2+y,1/2+z
1/2+x,1/2-y,z
loop_
_atom_site_type_symbol
_atom_site_label
_atom_site_fract_x
_atom_site_fract_y
_atom_site_fract_z
Si Si1 0.745269 0.410707 0.504480
Si Si2 0.396257 0.406602 0.198548
Si Si3 0.682981 0.196807 0.306975
Si Si4 0.188987 0.051879 0.096849
Si Si5 0.913993 0.337449 0.009179
Si Si6 0.544670 0.376709 0.873240
Si Si7 0.821889 0.622701 0.278028
Si Si8 0.447892 0.032454 0.654461
O O1 0.663550 0.502535 0.590379
O O2 0.679275 0.281756 0.438813
O O3 0.789076 0.515197 0.392222
O O4 0.848728 0.375861 0.595799
O O5 0.304231 0.369516 0.302522
O O6 0.424957 0.257732 0.136878
O O7 0.482647 0.503172 0.271435
O O8 0.678217 0.314588 0.194121
O O9 0.603060 0.071256 0.262619
O O10 0.296386 0.092308 0.012489
O O11 0.228552 0.914664 0.174912
O O12 0.083913 0.053595 0.005858
O O13 0.011141 0.446866 0.029520
O O14 0.943818 0.229341 0.897649
O O15 0.648112 0.280417 0.826960
O O16 0.938208 0.587232 0.210543
#
# Coordination Sequence:
#
# PCOD9344721 Si02
#       8
#     4   4   4   4   4   4   4   4
#     4  10  20  42  64  90 126 165 216 270 320 394
#     4  10  24  39  57  92 130 170 210 258 328 388
#     4   9  18  39  66  85 120 172 209 267 330 378
#     4   9  20  39  67  90 120 167 215 267 330 385
#     4  10  20  39  60  88 124 167 207 261 321 380
#     4  12  22  42  62  91 134 168 217 269 325 395
#     4  10  21  38  66  98 118 168 226 267 328 384
#     4  10  19  38  66  94 124 161 224 265 318 386
#
# _framework density 26.544919
#
# number of rings (size 3 to 8) (size 9 to 14) (size 15 to 20)
#    0.000    2.000    2.500    2.250    0.000    4.000 
#    6.750    0.000    0.000    0.000    0.000    0.000 
#    0.000    0.000    0.000    0.000    0.000    0.000 
#
# Total GULP energy -179109.934298 kJ/mol
# GULP energy per Si atom -5597.185447 kJ/mol
# Density = 2.648450 g / cm^3
# Si number density = 26.544919 Si / 1000 Ang^3
#
#
#
# Elastic Constant Matrix: (Units=GPa)
#
#
# Indices 1 2 3 4 5 6 
#
# 1 90.9343 13.4076 21.5158 0.0000 0.0000 0.0000
# 2 13.4076 62.4090 38.1515 0.0000 0.0000 0.0000
# 3 21.5158 38.1515 93.6163 0.0000 0.0000 0.0000
# 4 0.0000 0.0000 0.0000 53.0122 0.0000 0.0000
# 5 0.0000 0.0000 0.0000 0.0000 42.5506 0.0000
# 6 0.0000 0.0000 0.0000 0.0000 0.0000 24.8727
#
#
#
# Elastic Compliance Matrix: (Units=1/GPa)
#
#
# Indices 1 2 3 4 5 6 
#
# 1 0.011692 -0.001157 -0.002215 0.000000 0.000000 0.000000
# 2 -0.001157 0.021454 -0.008477 0.000000 0.000000 0.000000
# 3 -0.002215 -0.008477 0.014646 0.000000 0.000000 0.000000
# 4 0.000000 0.000000 0.000000 0.018864 0.000000 0.000000
# 5 0.000000 0.000000 0.000000 0.000000 0.023501 0.000000
# 6 0.000000 0.000000 0.000000 0.000000 0.000000 0.040205
#
#
# Mechanical properties :
#
#
# Convention : Reuss Voigt Hill
#
# Bulk Modulus (GPa) = 41.50826 43.67880 42.59353
# Shear Modulus (GPa) = 30.84661 35.67940 33.26300
#
# Velocity S-wave (km/s) = 3.41259 3.67019 3.54373
# Velocity P-wave (km/s) = 5.58557 5.86948 5.72929
#
# Compressibility (1/GPa) = 0.02409159
#
# Stress axis : x y z
#
# Youngs Moduli (GPa) = 85.53009 46.61079 68.27903
#
# Poissons Ratio (x) = 0.05395 0.15127
# Poissons Ratio (y) = 0.09900 0.57882
# Poissons Ratio (z) = 0.18948 0.39513
#
# Static dielectric constant tensor:
#      x y z
#    x 2.029260 0.000000 0.000000 
#    y 0.000000 2.091630 0.000000 
#    z 0.000000 0.000000 2.103040 
# 
# From -- ./inp_files/4432.got.cif
#   From: 2010.05.17/outbox.cif.g08.bks.cpg/sg33_3_cif.got.tgz:4432.got - 2010.06.03 17:15:25.
