data_PCOD9344928
_publ_section_title
;
Structure prediction by ZEFSAII (Michael W. Deem and Ramdas Pophale) SiO2 
 PCOD9344928
Probable space group: P N A 21
;
_chemical_formula_sum "Si O2"
_cell_formula_units_Z 24
_cell_length_a 24.999356
_cell_length_b 7.024353
_cell_length_c 5.012009
_cell_angle_alpha 90.000000
_cell_angle_beta 90.000000
_cell_angle_gamma 90.000000
_cell_volume 880.130339
_symmetry_space_group_name_H-M "P N A 21"
_symmetry_group_IT_number 33
_symmetry_cell_setting 'orthorhombic'
loop_
_space_group_symop_operation_xyz
x,y,z
-x,-y,1/2+z
1/2-x,1/2+y,1/2+z
1/2+x,1/2-y,z
loop_
_atom_site_type_symbol
_atom_site_label
_atom_site_fract_x
_atom_site_fract_y
_atom_site_fract_z
Si Si1 0.203154 0.633385 0.538420
Si Si2 0.863533 0.322289 0.546849
Si Si3 0.975800 0.100571 0.023228
Si Si4 0.106212 0.184930 0.637345
Si Si5 0.310211 0.515259 0.805911
Si Si6 0.442547 0.884082 0.640204
O O1 0.158327 0.612986 0.763847
O O2 0.260287 0.559054 0.621386
O O3 0.211035 0.859082 0.511261
O O4 0.176408 0.576681 0.260009
O O5 0.852844 0.102227 0.623001
O O6 0.922648 0.401039 0.599878
O O7 0.998022 0.313273 0.065440
O O8 0.988331 0.025724 0.728347
O O9 0.917043 0.032260 0.109059
O O10 0.095210 0.265804 0.929863
O O11 0.163650 0.174534 0.494568
O O12 0.070756 0.311565 0.435279
#
# Coordination Sequence:
#
# PCOD9344928 Si02
#       6
#     4   4   4   4   4   4
#     4  10  25  39  63  83 122 158 210 250 302 359
#     4  10  24  40  60  89 117 162 202 252 304 363
#     4   8  16  33  56  92 119 153 196 243 295 367
#     4  10  21  35  67  91 120 159 204 248 301 363
#     4  10  26  42  64  85 126 158 211 250 308 359
#     4  10  20  37  64  90 124 156 201 249 304 361
#
# _framework density 27.268685999999999
#
# number of rings (size 3 to 8) (size 9 to 14) (size 15 to 20)
#    1.000    1.333    0.000    1.000    7.000    1.333 
#    0.000    0.000    3.667    0.000    0.000    0.000 
#    0.000    0.000    0.000    0.000    0.000    0.000 
#
# Total GULP energy -134290.855526 kJ/mol
# GULP energy per Si atom -5595.452314 kJ/mol
# Density = 2.720662 g / cm^3
# Si number density = 27.268686 Si / 1000 Ang^3
#
#
#
# Elastic Constant Matrix: (Units=GPa)
#
#
# Indices 1 2 3 4 5 6 
#
# 1 79.1520 32.2319 22.7625 0.0000 0.0000 0.0000
# 2 32.2319 68.6802 10.0502 0.0000 0.0000 0.0000
# 3 22.7625 10.0502 120.5958 0.0000 0.0000 0.0000
# 4 0.0000 0.0000 0.0000 21.5125 0.0000 0.0000
# 5 0.0000 0.0000 0.0000 0.0000 46.0634 0.0000
# 6 0.0000 0.0000 0.0000 0.0000 0.0000 51.4368
#
#
#
# Elastic Compliance Matrix: (Units=1/GPa)
#
#
# Indices 1 2 3 4 5 6 
#
# 1 0.016315 -0.007295 -0.002472 0.000000 0.000000 0.000000
# 2 -0.007295 0.018002 -0.000123 0.000000 0.000000 0.000000
# 3 -0.002472 -0.000123 0.008769 0.000000 0.000000 0.000000
# 4 0.000000 0.000000 0.000000 0.046485 0.000000 0.000000
# 5 0.000000 0.000000 0.000000 0.000000 0.021709 0.000000
# 6 0.000000 0.000000 0.000000 0.000000 0.000000 0.019441
#
#
# Mechanical properties :
#
#
# Convention : Reuss Voigt Hill
#
# Bulk Modulus (GPa) = 42.90704 44.27968 43.59336
# Shear Modulus (GPa) = 31.59153 37.36144 34.47649
#
# Velocity S-wave (km/s) = 3.40741 3.70553 3.55959
# Velocity P-wave (km/s) = 5.59014 5.88060 5.73721
#
# Compressibility (1/GPa) = 0.02330620
#
# Stress axis : x y z
#
# Youngs Moduli (GPa) = 61.29178 55.54954 114.03878
#
# Poissons Ratio (x) = 0.40525 0.28185
# Poissons Ratio (y) = 0.44714 0.01406
# Poissons Ratio (z) = 0.15149 0.00685
#
# Static dielectric constant tensor:
#      x y z
#    x 2.148840 0.000000 0.000000 
#    y 0.000000 2.180840 0.000000 
#    z 0.000000 0.000000 2.065950 
# 
# From -- ./inp_files/2182.got.cif
#   From: 2010.05.17/outbox.cif.g08.bks.cpg/sg33_2_cif.got.tgz:2182.got - 2010.06.03 17:15:25.
