data_PCOD9344907
_publ_section_title
;
Structure prediction by ZEFSAII (Michael W. Deem and Ramdas Pophale) SiO2 
 PCOD9344907
Probable space group: P N A 21
;
_chemical_formula_sum "Si O2"
_cell_formula_units_Z 32
_cell_length_a 20.513871
_cell_length_b 6.885978
_cell_length_c 10.572769
_cell_angle_alpha 90.000000
_cell_angle_beta 90.000000
_cell_angle_gamma 90.000000
_cell_volume 1493.488884
_symmetry_space_group_name_H-M "P N A 21"
_symmetry_group_IT_number 33
_symmetry_cell_setting 'orthorhombic'
loop_
_space_group_symop_operation_xyz
x,y,z
-x,-y,1/2+z
1/2-x,1/2+y,1/2+z
1/2+x,1/2-y,z
loop_
_atom_site_type_symbol
_atom_site_label
_atom_site_fract_x
_atom_site_fract_y
_atom_site_fract_z
Si Si1 0.381236 0.710903 0.116120
Si Si2 0.565121 0.452692 0.879254
Si Si3 0.670428 0.356586 0.369167
Si Si4 0.874368 0.628733 0.526995
Si Si5 0.785061 0.612311 0.285869
Si Si6 0.429215 0.362297 0.788577
Si Si7 0.477174 0.198258 0.524063
Si Si8 0.181786 0.551837 0.285091
O O1 0.403397 0.594500 0.242537
O O2 0.335139 0.879658 0.170663
O O3 0.445080 0.792613 0.043344
O O4 0.341661 0.581828 0.014735
O O5 0.606947 0.349806 0.989733
O O6 0.493067 0.358399 0.874387
O O7 0.550462 0.676754 0.907254
O O8 0.728495 0.454357 0.291968
O O9 0.604929 0.428289 0.299619
O O10 0.683799 0.129411 0.377645
O O11 0.826791 0.576814 0.411499
O O12 0.941814 0.507974 0.522280
O O13 0.838395 0.555170 0.653487
O O14 0.747084 0.819833 0.282217
O O15 0.451338 0.310690 0.648062
O O16 0.375108 0.202387 0.821727
#
# Coordination Sequence:
#
# PCOD9344907 Si02
#       8
#     4   4   4   4   4   4   4   4
#     4  10  22  39  60  92 125 156 211 257 305 373
#     4  10  20  37  60  87 124 160 200 258 313 365
#     4  11  21  39  63  87 122 168 204 250 312 370
#     4  10  22  39  60  91 122 159 208 257 309 367
#     4  10  23  41  59  88 125 161 208 261 300 363
#     4   9  20  36  57  89 120 155 205 258 303 363
#     4  10  20  39  62  87 124 163 201 261 314 372
#     4  10  22  38  61  85 118 160 207 248 302 371
#
# _framework density 21.426338999999999
#
# number of rings (size 3 to 8) (size 9 to 14) (size 15 to 20)
#    0.000    2.000    1.250    1.500    1.750    3.000 
#    0.000    6.250    0.000    0.000    0.000    0.000 
#    0.000    0.000    0.000    0.000    0.000    0.000 
#
# Total GULP energy -178385.403823 kJ/mol
# GULP energy per Si atom -5574.543869 kJ/mol
# Density = 2.137757 g / cm^3
# Si number density = 21.426339 Si / 1000 Ang^3
#
#
#
# Elastic Constant Matrix: (Units=GPa)
#
#
# Indices 1 2 3 4 5 6 
#
# 1 79.1952 9.9237 16.8236 0.0000 0.0000 0.0000
# 2 9.9237 49.3942 11.3054 0.0000 0.0000 0.0000
# 3 16.8236 11.3054 67.3293 0.0000 0.0000 0.0000
# 4 0.0000 0.0000 0.0000 21.2881 0.0000 0.0000
# 5 0.0000 0.0000 0.0000 0.0000 26.1729 0.0000
# 6 0.0000 0.0000 0.0000 0.0000 0.0000 13.2683
#
#
#
# Elastic Compliance Matrix: (Units=1/GPa)
#
#
# Indices 1 2 3 4 5 6 
#
# 1 0.013526 -0.002022 -0.003040 0.000000 0.000000 0.000000
# 2 -0.002022 0.021357 -0.003081 0.000000 0.000000 0.000000
# 3 -0.003040 -0.003081 0.016129 0.000000 0.000000 0.000000
# 4 0.000000 0.000000 0.000000 0.046975 0.000000 0.000000
# 5 0.000000 0.000000 0.000000 0.000000 0.038207 0.000000
# 6 0.000000 0.000000 0.000000 0.000000 0.000000 0.075367
#
#
# Mechanical properties :
#
#
# Convention : Reuss Voigt Hill
#
# Bulk Modulus (GPa) = 28.79648 30.22490 29.51069
# Shear Modulus (GPa) = 20.88355 22.67028 21.77692
#
# Velocity S-wave (km/s) = 3.12535 3.25631 3.19150
# Velocity P-wave (km/s) = 5.14711 5.31743 5.23296
#
# Compressibility (1/GPa) = 0.03472647
#
# Stress axis : x y z
#
# Youngs Moduli (GPa) = 73.93049 46.82392 61.99859
#
# Poissons Ratio (x) = 0.09466 0.18850
# Poissons Ratio (y) = 0.14946 0.19101
# Poissons Ratio (z) = 0.22477 0.14426
#
# Static dielectric constant tensor:
#      x y z
#    x 1.803150 0.000000 0.000000 
#    y 0.000000 1.812720 0.000000 
#    z 0.000000 0.000000 1.805880 
# 
# From -- ./inp_files/7246.got.cif
#   From: 2010.05.17/outbox.cif.g08.bks.cpg/sg33_4_cif.got.tgz:7246.got - 2010.06.03 17:15:25.
