data_PCOD9344856
_publ_section_title
;
Structure prediction by ZEFSAII (Michael W. Deem and Ramdas Pophale) SiO2 
 PCOD9344856
Probable space group: P N A 21
;
_chemical_formula_sum "Si O2"
_cell_formula_units_Z 32
_cell_length_a 18.017851
_cell_length_b 5.136079
_cell_length_c 17.741828
_cell_angle_alpha 90.000000
_cell_angle_beta 90.000000
_cell_angle_gamma 90.000000
_cell_volume 1641.848388
_symmetry_space_group_name_H-M "P N A 21"
_symmetry_group_IT_number 33
_symmetry_cell_setting 'orthorhombic'
loop_
_space_group_symop_operation_xyz
x,y,z
-x,-y,1/2+z
1/2-x,1/2+y,1/2+z
1/2+x,1/2-y,z
loop_
_atom_site_type_symbol
_atom_site_label
_atom_site_fract_x
_atom_site_fract_y
_atom_site_fract_z
Si Si1 0.908081 0.969923 0.931310
Si Si2 0.947586 0.739310 0.411178
Si Si3 0.284660 0.230413 0.008538
Si Si4 0.704562 0.092493 0.227884
Si Si5 0.649113 0.900265 0.003779
Si Si6 0.216940 0.904901 0.125561
Si Si7 0.084783 0.543228 0.341636
Si Si8 0.800417 0.036592 0.375331
O O1 0.888620 0.164401 0.861629
O O2 0.994945 0.040391 0.940918
O O3 0.896726 0.674889 0.905584
O O4 0.856105 0.087883 0.996537
O O5 0.922963 0.562615 0.481838
O O6 0.874953 0.863837 0.374030
O O7 0.996027 0.575409 0.350931
O O8 0.214253 0.407920 0.030093
O O9 0.284056 0.002509 0.070863
O O10 0.258253 0.110605 0.928993
O O11 0.701229 0.355965 0.180699
O O12 0.624179 0.040397 0.265650
O O13 0.762438 0.106203 0.297197
O O14 0.728317 0.847334 0.177077
O O15 0.651323 0.673313 0.066049
O O16 0.676425 0.785584 0.924179
#
# Coordination Sequence:
#
# PCOD9344856 Si02
#       8
#     4   4   4   4   4   4   4   4
#     4  10  20  36  62  93 115 153 208 265 301 358
#     4   9  21  36  63  92 121 156 208 263 310 367
#     4  10  20  39  64  91 118 157 210 262 304 375
#     4  12  23  40  63  93 127 165 208 265 315 376
#     4  10  20  40  63  94 124 165 209 264 310 374
#     4  11  25  39  59  94 128 163 202 256 327 375
#     4  10  21  37  60  96 118 155 209 263 310 367
#     4  10  20  35  66  91 119 158 212 262 313 362
#
# _framework density 19.490228999999999
#
# number of rings (size 3 to 8) (size 9 to 14) (size 15 to 20)
#    0.750    1.000    2.500    2.250    5.250    0.000 
#    0.000    0.000    2.750    3.000    0.000    0.000 
#    0.000    0.000    0.000    0.000    0.000    0.000 
#
# Total GULP energy -178150.861489 kJ/mol
# GULP energy per Si atom -5567.214422 kJ/mol
# Density = 1.944587 g / cm^3
# Si number density = 19.490229 Si / 1000 Ang^3
#
#
#
# Elastic Constant Matrix: (Units=GPa)
#
#
# Indices 1 2 3 4 5 6 
#
# 1 93.9748 27.3064 33.0126 0.0000 0.0000 0.0000
# 2 27.3064 86.5941 24.2138 0.0000 0.0000 0.0000
# 3 33.0126 24.2138 93.2926 0.0000 0.0000 0.0000
# 4 0.0000 0.0000 0.0000 31.3188 0.0000 0.0000
# 5 0.0000 0.0000 0.0000 0.0000 8.2851 0.0000
# 6 0.0000 0.0000 0.0000 0.0000 0.0000 28.7839
#
#
#
# Elastic Compliance Matrix: (Units=1/GPa)
#
#
# Indices 1 2 3 4 5 6 
#
# 1 0.012834 -0.002994 -0.003764 0.000000 0.000000 0.000000
# 2 -0.002994 0.013150 -0.002354 0.000000 0.000000 0.000000
# 3 -0.003764 -0.002354 0.012662 0.000000 0.000000 0.000000
# 4 0.000000 0.000000 0.000000 0.031930 0.000000 0.000000
# 5 0.000000 0.000000 0.000000 0.000000 0.120698 0.000000
# 6 0.000000 0.000000 0.000000 0.000000 0.000000 0.034742
#
#
# Mechanical properties :
#
#
# Convention : Reuss Voigt Hill
#
# Bulk Modulus (GPa) = 48.96747 49.21411 49.09079
# Shear Modulus (GPa) = 19.91664 26.29950 23.10807
#
# Velocity S-wave (km/s) = 3.20015 3.67736 3.44702
# Velocity P-wave (km/s) = 6.23164 6.58302 6.40973
#
# Compressibility (1/GPa) = 0.02042172
#
# Stress axis : x y z
#
# Youngs Moduli (GPa) = 77.92088 76.04284 78.97767
#
# Poissons Ratio (x) = 0.22770 0.29728
# Poissons Ratio (y) = 0.23332 0.18588
# Poissons Ratio (z) = 0.29330 0.17897
#
# Static dielectric constant tensor:
#      x y z
#    x 1.717480 0.000000 0.000000 
#    y 0.000000 1.750600 0.000000 
#    z 0.000000 0.000000 1.692580 
# 
# From -- ./inp_files/8860.got.cif
#   From: 2010.05.17/outbox.cif.g08.bks.cpg/sg33_5_cif.got.tgz:8860.got - 2010.06.03 17:15:25.
