data_PCOD9344257
_publ_section_title
;
Structure prediction by ZEFSAII (Michael W. Deem and Ramdas Pophale) SiO2 
 PCOD9344257
Probable space group: P B A 2
;
_chemical_formula_sum "Si O2"
_cell_formula_units_Z 32
_cell_length_a 14.660526
_cell_length_b 15.603380
_cell_length_c 5.095883
_cell_angle_alpha 90.000000
_cell_angle_beta 90.000000
_cell_angle_gamma 90.000000
_cell_volume 1165.702387
_symmetry_space_group_name_H-M "P B A 2"
_symmetry_group_IT_number 32
_symmetry_cell_setting 'orthorhombic'
loop_
_space_group_symop_operation_xyz
x,y,z
-x,-y,z
1/2-x,1/2+y,z
1/2+x,1/2-y,z
loop_
_atom_site_type_symbol
_atom_site_label
_atom_site_fract_x
_atom_site_fract_y
_atom_site_fract_z
Si Si1 0.428500 0.924506 0.755860
Si Si2 0.813626 0.535416 0.241136
Si Si3 0.711304 0.388686 0.071133
Si Si4 0.463734 0.583339 0.772931
Si Si5 0.128350 0.879045 0.134729
Si Si6 0.888690 0.777676 0.430285
Si Si7 0.045887 0.731506 0.500431
Si Si8 0.279584 0.259496 0.729669
O O1 0.366804 0.956882 0.510686
O O2 0.480233 0.839171 0.661095
O O3 0.500000 0.000000 0.818217
O O4 0.363791 0.913890 0.008731
O O5 0.802192 0.438380 0.135928
O O6 0.706232 0.560385 0.253655
O O7 0.639437 0.430127 0.869211
O O8 0.652899 0.365368 0.326426
O O9 0.729598 0.295211 0.955184
O O10 0.500000 0.500000 0.616836
O O11 0.532903 0.587326 0.018656
O O12 0.466579 0.679882 0.638361
O O13 0.107584 0.807825 0.350035
O O14 0.173429 0.837551 0.875347
O O15 0.966159 0.733400 0.261443
O O16 0.803331 0.724945 0.529705
O O17 0.141734 0.697062 0.624641
#
# Coordination Sequence:
#
# PCOD9344257 Si02
#       8
#     4   4   4   4   4   4   4   4
#     4  12  31  54  80 113 160 214 272 330 399 476
#     4  12  30  50  81 116 157 207 270 329 393 486
#     4  11  25  46  74 104 151 195 259 316 393 470
#     4  11  23  44  69 108 152 195 244 318 397 481
#     4  12  26  44  75 114 152 202 258 328 405 471
#     4  11  25  44  71 108 146 199 251 320 397 475
#     4  12  27  46  76 109 153 202 260 334 397 473
#     4  11  26  45  74 102 149 196 257 316 396 467
#
# _framework density 27.451260000000001
#
# number of rings (size 3 to 8) (size 9 to 14) (size 15 to 20)
#    0.000    0.500    3.750    2.625   14.000    1.500 
#    0.000    0.000    0.000    0.000    0.000    0.000 
#    0.000    0.000    0.000    0.000    0.000    0.000 
#
# Total GULP energy -178402.212148 kJ/mol
# GULP energy per Si atom -5575.069130 kJ/mol
# Density = 2.738878 g / cm^3
# Si number density = 27.451260 Si / 1000 Ang^3
#
#
#
# Elastic Constant Matrix: (Units=GPa)
#
#
# Indices 1 2 3 4 5 6 
#
# 1 161.1213 1.9237 24.9462 0.0000 0.0000 0.0000
# 2 1.9237 83.4374 -7.6915 0.0000 0.0000 0.0000
# 3 24.9462 -7.6915 72.3727 0.0000 0.0000 0.0000
# 4 0.0000 0.0000 0.0000 30.6214 0.0000 0.0000
# 5 0.0000 0.0000 0.0000 0.0000 32.9470 0.0000
# 6 0.0000 0.0000 0.0000 0.0000 0.0000 54.6259
#
#
#
# Elastic Compliance Matrix: (Units=1/GPa)
#
#
# Indices 1 2 3 4 5 6 
#
# 1 0.006567 -0.000364 -0.002302 0.000000 0.000000 0.000000
# 2 -0.000364 0.012124 0.001414 0.000000 0.000000 0.000000
# 3 -0.002302 0.001414 0.014761 0.000000 0.000000 0.000000
# 4 0.000000 0.000000 0.000000 0.032657 0.000000 0.000000
# 5 0.000000 0.000000 0.000000 0.000000 0.030352 0.000000
# 6 0.000000 0.000000 0.000000 0.000000 0.000000 0.018306
#
#
# Mechanical properties :
#
#
# Convention : Reuss Voigt Hill
#
# Bulk Modulus (GPa) = 32.31234 39.47645 35.89440
# Shear Modulus (GPa) = 39.18877 43.48908 41.33892
#
# Velocity S-wave (km/s) = 3.78243 3.98456 3.88481
# Velocity P-wave (km/s) = 5.55626 5.96495 5.76423
#
# Compressibility (1/GPa) = 0.03094793
#
# Stress axis : x y z
#
# Youngs Moduli (GPa) = 152.26930 82.48275 67.74514
#
# Poissons Ratio (x) = 0.02999 0.15597
# Poissons Ratio (y) = 0.05537 -0.09578
# Poissons Ratio (z) = 0.35058 -0.11662
#
# Static dielectric constant tensor:
#      x y z
#    x 2.211670 0.000000 0.000000 
#    y 0.000000 2.415030 0.000000 
#    z 0.000000 0.000000 2.267750 
# 
# From -- ./inp_files/1306.got.cif
#   From: 2010.05.17/outbox.cif.g08.bks.cpg/sg32_1_cif.got.tgz:1306.got - 2010.06.03 17:12:27.
