data_PCOD9344140
_publ_section_title
;
Structure prediction by ZEFSAII (Michael W. Deem and Ramdas Pophale) SiO2 
 PCOD9344140
Probable space group: P B A 2
;
_chemical_formula_sum "Si O2"
_cell_formula_units_Z 20
_cell_length_a 8.761110
_cell_length_b 17.942173
_cell_length_c 4.875965
_cell_angle_alpha 90.000000
_cell_angle_beta 90.000000
_cell_angle_gamma 90.000000
_cell_volume 766.469279
_symmetry_space_group_name_H-M "P B A 2"
_symmetry_group_IT_number 32
_symmetry_cell_setting 'orthorhombic'
loop_
_space_group_symop_operation_xyz
x,y,z
-x,-y,z
1/2-x,1/2+y,z
1/2+x,1/2-y,z
loop_
_atom_site_type_symbol
_atom_site_label
_atom_site_fract_x
_atom_site_fract_y
_atom_site_fract_z
Si Si1 0.958462 0.869992 0.176430
Si Si2 0.986940 0.714069 0.471180
Si Si3 0.853160 0.356655 0.944206
Si Si4 0.000000 0.000000 0.525236
Si Si5 0.000000 0.500000 0.650868
Si Si6 0.741652 0.598095 0.461720
O O1 0.953307 0.794945 0.354765
O O2 0.902026 0.944646 0.333973
O O3 0.141140 0.885710 0.191692
O O4 0.830882 0.860257 0.945798
O O5 0.086407 0.707969 0.743342
O O6 0.827329 0.673197 0.536485
O O7 0.078503 0.666587 0.239389
O O8 0.924663 0.433923 0.832030
O O9 0.114673 0.941559 0.657776
O O10 0.124962 0.461495 0.459854
#
# Coordination Sequence:
#
# PCOD9344140 Si02
#       6
#     4   4   4   2   2   4
#     4  10  23  46  73 111 151 205 258 330 395 471
#     4  11  25  48  70 109 149 204 265 323 398 470
#     4  11  27  43  78 101 152 200 255 330 388 478
#     4   8  22  42  74 110 154 198 260 332 394 470
#     4  10  24  44  72 118 150 212 266 330 400 478
#     4   9  22  43  73 107 150 202 255 326 388 471
#
# _framework density 26.093672999999999
#
# number of rings (size 3 to 8) (size 9 to 14) (size 15 to 20)
#    1.200    0.800    0.000    1.200    8.400    5.600 
#    0.000   13.000    0.000    0.000    0.000    0.000 
#    0.000    0.000    0.000    0.000    0.000    0.000 
#
# Total GULP energy -111601.646816 kJ/mol
# GULP energy per Si atom -5580.082341 kJ/mol
# Density = 2.603428 g / cm^3
# Si number density = 26.093673 Si / 1000 Ang^3
#
#
#
# Elastic Constant Matrix: (Units=GPa)
#
#
# Indices 1 2 3 4 5 6 
#
# 1 168.6118 30.0352 40.4722 0.0000 0.0000 0.0000
# 2 30.0352 123.1001 -0.8653 0.0000 0.0000 0.0000
# 3 40.4722 -0.8653 69.7435 0.0000 0.0000 0.0000
# 4 0.0000 0.0000 0.0000 15.1304 0.0000 0.0000
# 5 0.0000 0.0000 0.0000 0.0000 7.0954 0.0000
# 6 0.0000 0.0000 0.0000 0.0000 0.0000 51.4423
#
#
#
# Elastic Compliance Matrix: (Units=1/GPa)
#
#
# Indices 1 2 3 4 5 6 
#
# 1 0.007270 -0.001804 -0.004241 0.000000 0.000000 0.000000
# 2 -0.001804 0.008572 0.001153 0.000000 0.000000 0.000000
# 3 -0.004241 0.001153 0.016814 0.000000 0.000000 0.000000
# 4 0.000000 0.000000 0.000000 0.066092 0.000000 0.000000
# 5 0.000000 0.000000 0.000000 0.000000 0.140937 0.000000
# 6 0.000000 0.000000 0.000000 0.000000 0.000000 0.019439
#
#
# Mechanical properties :
#
#
# Convention : Reuss Voigt Hill
#
# Bulk Modulus (GPa) = 43.72202 55.63772 49.67987
# Shear Modulus (GPa) = 18.08112 34.18785 26.13449
#
# Velocity S-wave (km/s) = 2.63521 3.62359 3.16818
# Velocity P-wave (km/s) = 5.10405 6.23505 5.69768
#
# Compressibility (1/GPa) = 0.02287177
#
# Stress axis : x y z
#
# Youngs Moduli (GPa) = 137.54978 116.66370 59.47520
#
# Poissons Ratio (x) = 0.21042 0.25225
# Poissons Ratio (y) = 0.24809 -0.06858
# Poissons Ratio (z) = 0.58338 -0.13451
#
# Static dielectric constant tensor:
#      x y z
#    x 2.125910 0.000000 0.000000 
#    y 0.000000 2.020650 0.000000 
#    z 0.000000 0.000000 2.079120 
# 
# From -- ./inp_files/456.got.cif
#   From: 2010.05.17/outbox.cif.g08.bks.cpg/sg32_1_cif.got.tgz:456.got - 2010.06.03 17:12:27.
