data_PCOD9344532
_publ_section_title
;
Structure prediction by ZEFSAII (Michael W. Deem and Ramdas Pophale) SiO2 
 PCOD9344532
Probable space group: P N A 21
;
_chemical_formula_sum "Si O2"
_cell_formula_units_Z 28
_cell_length_a 5.730837
_cell_length_b 16.521661
_cell_length_c 10.080269
_cell_angle_alpha 90.000000
_cell_angle_beta 90.000000
_cell_angle_gamma 90.000000
_cell_volume 954.429567
_symmetry_space_group_name_H-M "P N A 21"
_symmetry_group_IT_number 33
_symmetry_cell_setting 'orthorhombic'
loop_
_space_group_symop_operation_xyz
x,y,z
-x,-y,1/2+z
1/2-x,1/2+y,1/2+z
1/2+x,1/2-y,z
loop_
_atom_site_type_symbol
_atom_site_label
_atom_site_fract_x
_atom_site_fract_y
_atom_site_fract_z
Si Si1 0.500000 0.341495 0.014010
Si Si2 0.000000 0.498871 0.310230
Si Si3 1.000000 0.345907 0.007082
Si Si4 0.500000 0.514251 0.907353
Si Si5 0.000000 0.266055 0.382262
Si Si6 0.000000 0.372946 0.629698
Si Si7 0.500000 0.641115 0.124693
O O1 0.247517 0.353372 0.081402
O O2 0.500000 0.248828 0.960916
O O3 0.500000 0.416589 0.911533
O O4 0.752482 0.353372 0.081402
O O5 0.000000 0.582075 0.399413
O O6 0.744464 0.462299 0.339017
O O7 0.255536 0.462299 0.339017
O O8 1.000000 0.531594 0.158800
O O9 0.500000 0.552479 0.055375
O O10 0.750000 0.250000 0.314281
O O11 0.000000 0.345910 0.476074
O O12 0.000000 0.199047 0.497759
O O13 0.752500 0.343637 0.686695
O O14 0.247500 0.343637 0.686695
#
# Coordination Sequence:
#
# PCOD9344532 Si02
#       7
#     4   4   4   4   4   4   4
#     4   8  14  25  36  57  81 119 149 187 221 268
#     4  10  19  31  46  71  95 133 165 203 240 285
#     4   8  14  25  37  57  87 115 144 191 222 271
#     4  10  19  31  46  65  96 135 169 199 236 290
#     4   8  16  30  44  66  92 127 164 190 232 292
#     4  10  19  33  48  71  98 132 168 198 246 299
#     4  10  19  33  47  67  97 141 165 198 243 299
#
# _framework density 29.336897
#
# number of rings (size 3 to 8) (size 9 to 14) (size 15 to 20)
#    0.000    2.857    0.000    1.714    0.000    0.000 
#   30.857    0.000    0.000    0.000    0.000    0.000 
#    0.000    0.000  582.857    0.000    0.000    0.000 
#
# Total GULP energy -156153.081751 kJ/mol
# GULP energy per Si atom -5576.895777 kJ/mol
# Density = 2.927013 g / cm^3
# Si number density = 29.336897 Si / 1000 Ang^3
#
#
#
# Elastic Constant Matrix: (Units=GPa)
#
#
# Indices 1 2 3 4 5 6 
#
# 1 446.8770 35.5889 53.3110 0.0000 0.0000 0.0000
# 2 35.5889 108.2489 37.0175 0.0000 0.0000 0.0000
# 3 53.3110 37.0175 70.8586 0.0000 0.0000 0.0000
# 4 0.0000 0.0000 0.0000 52.6119 0.0000 0.0000
# 5 0.0000 0.0000 0.0000 0.0000 -79.9316 0.0000
# 6 0.0000 0.0000 0.0000 0.0000 0.0000 32.5990
#
#
#
# Elastic Compliance Matrix: (Units=1/GPa)
#
#
# Indices 1 2 3 4 5 6 
#
# 1 0.002462 -0.000214 -0.001741 0.000000 0.000000 0.000000
# 2 -0.000214 0.011266 -0.005724 0.000000 0.000000 0.000000
# 3 -0.001741 -0.005724 0.018413 0.000000 0.000000 0.000000
# 4 0.000000 0.000000 0.000000 0.019007 0.000000 0.000000
# 5 0.000000 0.000000 0.000000 0.000000 -0.012511 0.000000
# 6 0.000000 0.000000 0.000000 0.000000 0.000000 0.030676
#
#
# Mechanical properties :
#
#
# Convention : Reuss Voigt Hill
#
# Bulk Modulus (GPa) = 59.58565 97.53546 78.56055
# Shear Modulus (GPa) = 55.39187 34.39367 44.89277
#
# Velocity S-wave (km/s) = 4.34998 3.42770 3.91608
# Velocity P-wave (km/s) = 6.75164 6.99888 6.87637
#
# Compressibility (1/GPa) = 0.01678256
#
# Stress axis : x y z
#
# Youngs Moduli (GPa) = 406.09457 88.76327 54.31049
#
# Poissons Ratio (x) = 0.01902 0.09454
# Poissons Ratio (y) = 0.08704 0.31089
# Poissons Ratio (z) = 0.70689 0.50810
#
# Static dielectric constant tensor:
#      x y z
#    x 2.247260 0.000000 0.000000 
#    y 0.000000 2.388720 0.000000 
#    z 0.000000 0.000000 2.183820 
# 
# From -- ./inp_files/7426.got.cif
#   From: 2010.05.17/outbox.cif.g08.bks.cpg/sg33_4_cif.got.tgz:7426.got - 2010.06.03 17:15:25.
