data_PCOD9344569
_publ_section_title
;
Structure prediction by ZEFSAII (Michael W. Deem and Ramdas Pophale) SiO2 
 PCOD9344569
Probable space group: P N A 21
;
_chemical_formula_sum "Si O2"
_cell_formula_units_Z 32
_cell_length_a 13.679826
_cell_length_b 23.298953
_cell_length_c 5.384498
_cell_angle_alpha 90.000000
_cell_angle_beta 90.000000
_cell_angle_gamma 90.000000
_cell_volume 1716.177480
_symmetry_space_group_name_H-M "P N A 21"
_symmetry_group_IT_number 33
_symmetry_cell_setting 'orthorhombic'
loop_
_space_group_symop_operation_xyz
x,y,z
-x,-y,1/2+z
1/2-x,1/2+y,1/2+z
1/2+x,1/2-y,z
loop_
_atom_site_type_symbol
_atom_site_label
_atom_site_fract_x
_atom_site_fract_y
_atom_site_fract_z
Si Si1 0.777862 0.317705 0.906100
Si Si2 0.653666 0.942850 0.398278
Si Si3 0.760565 0.635984 0.325729
Si Si4 0.896932 0.221735 0.689972
Si Si5 0.689764 0.068406 0.329503
Si Si6 0.598743 0.239753 0.946057
Si Si7 0.539887 0.917118 0.914154
Si Si8 0.444875 0.209871 0.305571
O O1 0.783235 0.385013 0.854678
O O2 0.818912 0.274725 0.696276
O O3 0.673293 0.292200 0.978016
O O4 0.860033 0.305316 0.112463
O O5 0.603998 0.936485 0.672531
O O6 0.713756 0.001187 0.364691
O O7 0.574216 0.944231 0.174162
O O8 0.656402 0.668679 0.312025
O O9 0.775926 0.597123 0.570862
O O10 0.842096 0.686655 0.329035
O O11 0.771459 0.601728 0.070278
O O12 0.000812 0.239785 0.805377
O O13 0.920968 0.225870 0.400363
O O14 0.571857 0.070918 0.347713
O O15 0.553545 0.214924 0.197150
O O16 0.549703 0.848748 0.962329
#
# Coordination Sequence:
#
# PCOD9344569 Si02
#       8
#     4   4   4   4   4   4   4   4
#     4   9  21  35  55  85 114 151 191 238 290 350
#     4  11  22  38  57  83 121 156 199 243 284 349
#     4  11  25  37  60  87 118 154 197 237 294 357
#     4  10  21  37  58  83 118 149 192 242 294 346
#     4  12  23  38  57  84 120 160 196 237 291 351
#     4  10  21  37  57  86 115 152 190 242 298 348
#     4  11  20  35  56  86 117 157 195 231 293 358
#     4  10  19  33  58  82 121 149 184 240 292 359
#
# _framework density 18.646091999999999
#
# number of rings (size 3 to 8) (size 9 to 14) (size 15 to 20)
#    0.000    1.500    2.500    3.000    7.000    1.000 
#    0.000    0.000    0.000    1.500    0.000    0.000 
#    0.000    0.000    0.000    0.000    0.000    0.000 
#
# Total GULP energy -178168.016230 kJ/mol
# GULP energy per Si atom -5567.750507 kJ/mol
# Density = 1.860365 g / cm^3
# Si number density = 18.646092 Si / 1000 Ang^3
#
#
#
# Elastic Constant Matrix: (Units=GPa)
#
#
# Indices 1 2 3 4 5 6 
#
# 1 72.6852 43.0965 6.8960 0.0000 0.0000 0.0000
# 2 43.0965 121.5973 28.0207 0.0000 0.0000 0.0000
# 3 6.8960 28.0207 62.8005 0.0000 0.0000 0.0000
# 4 0.0000 0.0000 0.0000 26.4887 0.0000 0.0000
# 5 0.0000 0.0000 0.0000 0.0000 5.4233 0.0000
# 6 0.0000 0.0000 0.0000 0.0000 0.0000 24.7285
#
#
#
# Elastic Compliance Matrix: (Units=1/GPa)
#
#
# Indices 1 2 3 4 5 6 
#
# 1 0.017468 -0.006408 0.000941 0.000000 0.000000 0.000000
# 2 -0.006408 0.011517 -0.004435 0.000000 0.000000 0.000000
# 3 0.000941 -0.004435 0.017799 0.000000 0.000000 0.000000
# 4 0.000000 0.000000 0.000000 0.037752 0.000000 0.000000
# 5 0.000000 0.000000 0.000000 0.000000 0.184389 0.000000
# 6 0.000000 0.000000 0.000000 0.000000 0.000000 0.040439
#
#
# Mechanical properties :
#
#
# Convention : Reuss Voigt Hill
#
# Bulk Modulus (GPa) = 37.06443 45.90104 41.48273
# Shear Modulus (GPa) = 14.78583 23.26609 19.02596
#
# Velocity S-wave (km/s) = 2.81903 3.53622 3.19779
# Velocity P-wave (km/s) = 5.52421 6.42989 5.99418
#
# Compressibility (1/GPa) = 0.02698005
#
# Stress axis : x y z
#
# Youngs Moduli (GPa) = 57.24745 86.82866 56.18303
#
# Poissons Ratio (x) = 0.55638 -0.05287
# Poissons Ratio (y) = 0.36683 0.24918
# Poissons Ratio (z) = -0.05387 0.38509
#
# Static dielectric constant tensor:
#      x y z
#    x 1.634190 0.000000 0.000000 
#    y 0.000000 1.742770 0.000000 
#    z 0.000000 0.000000 1.812040 
# 
# From -- ./inp_files/1162.got.cif
#   From: 2010.05.17/outbox.cif.g08.bks.cpg/sg33_1_cif.got.tgz:1162.got - 2010.06.03 17:15:25.
