data_PCOD9344504
_publ_section_title
;
Structure prediction by ZEFSAII (Michael W. Deem and Ramdas Pophale) SiO2 
 PCOD9344504
Probable space group: P N A 21
;
_chemical_formula_sum "Si O2"
_cell_formula_units_Z 28
_cell_length_a 9.534914
_cell_length_b 17.234162
_cell_length_c 8.254097
_cell_angle_alpha 90.000000
_cell_angle_beta 90.000000
_cell_angle_gamma 90.000000
_cell_volume 1356.364828
_symmetry_space_group_name_H-M "P N A 21"
_symmetry_group_IT_number 33
_symmetry_cell_setting 'orthorhombic'
loop_
_space_group_symop_operation_xyz
x,y,z
-x,-y,1/2+z
1/2-x,1/2+y,1/2+z
1/2+x,1/2-y,z
loop_
_atom_site_type_symbol
_atom_site_label
_atom_site_fract_x
_atom_site_fract_y
_atom_site_fract_z
Si Si1 0.792053 0.964421 0.163170
Si Si2 0.446707 0.125156 0.842194
Si Si3 0.029090 0.862462 0.294160
Si Si4 0.015061 0.268714 0.548965
Si Si5 0.284005 0.882301 0.521664
Si Si6 0.749203 0.835537 0.893370
Si Si7 0.704805 0.296977 0.038112
O O1 0.662721 0.936334 0.273012
O O2 0.938362 0.936136 0.237771
O O3 0.779723 0.055595 0.142725
O O4 0.773268 0.913749 0.997718
O O5 0.525173 0.168104 0.693339
O O6 0.563106 0.092060 0.961342
O O7 0.344839 0.185435 0.934920
O O8 0.926309 0.820615 0.425698
O O9 0.050239 0.805121 0.143270
O O10 0.175433 0.881727 0.373658
O O11 0.909740 0.305856 0.418940
O O12 0.154219 0.232139 0.472822
O O13 0.298610 0.793977 0.579021
O O14 0.788339 0.843269 0.706025
#
# Coordination Sequence:
#
# PCOD9344504 Si02
#       7
#     4   4   4   4   4   4   4
#     4   9  24  43  56  87 135 163 199 257 329 365
#     4  10  21  41  65  86 124 171 208 245 313 387
#     4  10  21  41  65  86 124 171 208 245 313 387
#     4  10  18  38  60  86 116 162 202 250 302 366
#     4  12  21  38  69  91 117 165 215 250 305 372
#     4  10  23  36  59  89 125 151 205 268 301 348
#     4  11  22  39  66  97 119 157 217 267 297 367
#
# _framework density 20.643412999999999
#
# number of rings (size 3 to 8) (size 9 to 14) (size 15 to 20)
#    0.000    1.714    2.857    1.714    4.000    2.286 
#    5.143    1.429    0.000    0.000    0.000    0.000 
#    0.000    0.000    0.000    0.000    0.000    0.000 
#
# Total GULP energy -156367.207870 kJ/mol
# GULP energy per Si atom -5584.543138 kJ/mol
# Density = 2.059643 g / cm^3
# Si number density = 20.643413 Si / 1000 Ang^3
#
#
#
# Elastic Constant Matrix: (Units=GPa)
#
#
# Indices 1 2 3 4 5 6 
#
# 1 62.2585 -7.5004 2.8537 0.0000 0.0000 0.0000
# 2 -7.5004 35.8124 0.7707 0.0000 0.0000 0.0000
# 3 2.8537 0.7707 53.4275 0.0000 0.0000 0.0000
# 4 0.0000 0.0000 0.0000 17.1968 0.0000 0.0000
# 5 0.0000 0.0000 0.0000 0.0000 11.0496 0.0000
# 6 0.0000 0.0000 0.0000 0.0000 0.0000 12.4439
#
#
#
# Elastic Compliance Matrix: (Units=1/GPa)
#
#
# Indices 1 2 3 4 5 6 
#
# 1 0.016524 0.003481 -0.000933 0.000000 0.000000 0.000000
# 2 0.003481 0.028665 -0.000599 0.000000 0.000000 0.000000
# 3 -0.000933 -0.000599 0.018775 0.000000 0.000000 0.000000
# 4 0.000000 0.000000 0.000000 0.058150 0.000000 0.000000
# 5 0.000000 0.000000 0.000000 0.000000 0.090501 0.000000
# 6 0.000000 0.000000 0.000000 0.000000 0.000000 0.080361
#
#
# Mechanical properties :
#
#
# Convention : Reuss Voigt Hill
#
# Bulk Modulus (GPa) = 14.73577 15.97180 15.35378
# Shear Modulus (GPa) = 16.04106 18.49636 17.26871
#
# Velocity S-wave (km/s) = 2.79059 2.99656 2.89541
# Velocity P-wave (km/s) = 4.18771 4.44143 4.31644
#
# Compressibility (1/GPa) = 0.06786209
#
# Stress axis : x y z
#
# Youngs Moduli (GPa) = 60.51744 34.88546 53.26110
#
# Poissons Ratio (x) = -0.12143 0.04968
# Poissons Ratio (y) = -0.21065 0.03193
# Poissons Ratio (z) = 0.05645 0.02091
#
# Static dielectric constant tensor:
#      x y z
#    x 1.714270 0.000000 0.000000 
#    y 0.000000 1.754770 0.000000 
#    z 0.000000 0.000000 1.757740 
# 
# From -- ./inp_files/3321.got.cif
#   From: 2010.05.17/outbox.cif.g08.bks.cpg/sg33_2_cif.got.tgz:3321.got - 2010.06.03 17:15:25.
