data_PCOD9344547
_publ_section_title
;
Structure prediction by ZEFSAII (Michael W. Deem and Ramdas Pophale) SiO2 
 PCOD9344547
Probable space group: P N A 21
;
_chemical_formula_sum "Si O2"
_cell_formula_units_Z 20
_cell_length_a 10.938778
_cell_length_b 12.625391
_cell_length_c 5.056143
_cell_angle_alpha 90.000000
_cell_angle_beta 90.000000
_cell_angle_gamma 90.000000
_cell_volume 698.285451
_symmetry_space_group_name_H-M "P N A 21"
_symmetry_group_IT_number 33
_symmetry_cell_setting 'orthorhombic'
loop_
_space_group_symop_operation_xyz
x,y,z
-x,-y,1/2+z
1/2-x,1/2+y,1/2+z
1/2+x,1/2-y,z
loop_
_atom_site_type_symbol
_atom_site_label
_atom_site_fract_x
_atom_site_fract_y
_atom_site_fract_z
Si Si1 0.265072 0.134358 0.678190
Si Si2 0.117499 0.348716 0.003383
Si Si3 0.458420 0.320460 0.712723
Si Si4 0.882558 0.435657 0.181891
Si Si5 0.129861 0.927013 0.703260
O O1 0.281468 0.121165 0.362417
O O2 0.155003 0.051761 0.739438
O O3 0.334067 0.246161 0.729621
O O4 0.357227 0.068213 0.872813
O O5 0.076015 0.247904 0.821013
O O6 0.116623 0.448137 0.802623
O O7 0.006089 0.368171 0.207792
O O8 0.240976 0.362540 0.171213
O O9 0.451132 0.367697 0.420574
O O10 0.428059 0.411191 0.919159
#
# Coordination Sequence:
#
# PCOD9344547 Si02
#       5
#     4   4   4   4   4
#     4  10  21  38  56  86 119 142 189 246 296 356
#     4  10  20  36  56  86 120 148 194 250 302 364
#     4  11  23  36  58  88 116 154 193 239 301 357
#     4  10  19  32  60  84 107 144 177 252 332 338
#     4  11  23  36  58  88 116 154 193 239 301 357
#
# _framework density 28.641582
#
# number of rings (size 3 to 8) (size 9 to 14) (size 15 to 20)
#    0.000    1.600    0.000    9.600    0.000    8.000 
#    0.000    0.000    0.000    4.800    0.000    0.000 
#    0.000    0.000    0.000    0.000    0.000    0.000 
#
# Total GULP energy -111664.529864 kJ/mol
# GULP energy per Si atom -5583.226493 kJ/mol
# Density = 2.857639 g / cm^3
# Si number density = 28.641582 Si / 1000 Ang^3
#
#
#
# Elastic Constant Matrix: (Units=GPa)
#
#
# Indices 1 2 3 4 5 6 
#
# 1 116.1016 -20.6525 15.3576 0.0000 0.0000 0.0000
# 2 -20.6525 186.8978 36.5332 0.0000 0.0000 0.0000
# 3 15.3576 36.5332 53.7421 0.0000 0.0000 0.0000
# 4 0.0000 0.0000 0.0000 40.0920 0.0000 0.0000
# 5 0.0000 0.0000 0.0000 0.0000 40.3950 0.0000
# 6 0.0000 0.0000 0.0000 0.0000 0.0000 -103.0263
#
#
#
# Elastic Compliance Matrix: (Units=1/GPa)
#
#
# Indices 1 2 3 4 5 6 
#
# 1 0.009456 0.001814 -0.003936 0.000000 0.000000 0.000000
# 2 0.001814 0.006519 -0.004950 0.000000 0.000000 0.000000
# 3 -0.003936 -0.004950 0.023097 0.000000 0.000000 0.000000
# 4 0.000000 0.000000 0.000000 0.024943 0.000000 0.000000
# 5 0.000000 0.000000 0.000000 0.000000 0.024756 0.000000
# 6 0.000000 0.000000 0.000000 0.000000 0.000000 -0.009706
#
#
# Mechanical properties :
#
#
# Convention : Reuss Voigt Hill
#
# Bulk Modulus (GPa) = 40.11282 46.57978 43.34630
# Shear Modulus (GPa) = 49.25353 17.19236 33.22295
#
# Velocity S-wave (km/s) = 4.15137 2.45268 3.40951
# Velocity P-wave (km/s) = 6.08391 4.93144 5.53774
#
# Compressibility (1/GPa) = 0.02492968
#
# Stress axis : x y z
#
# Youngs Moduli (GPa) = 105.74773 153.40929 43.29614
#
# Poissons Ratio (x) = -0.27832 0.17040
# Poissons Ratio (y) = -0.19185 0.21430
# Poissons Ratio (z) = 0.41618 0.75932
#
# Static dielectric constant tensor:
#      x y z
#    x 2.788710 0.000000 0.000000 
#    y 0.000000 2.244780 0.000000 
#    z 0.000000 0.000000 2.190120 
# 
# From -- ./inp_files/745.got.cif
#   From: 2010.05.17/outbox.cif.g08.bks.cpg/sg33_1_cif.got.tgz:745.got - 2010.06.03 17:15:25.
