data_PCOD9344346
_publ_section_title
;
Structure prediction by ZEFSAII (Michael W. Deem and Ramdas Pophale) SiO2 
 PCOD9344346
Probable space group: P N A 21
;
_chemical_formula_sum "Si O2"
_cell_formula_units_Z 20
_cell_length_a 7.820562
_cell_length_b 14.160000
_cell_length_c 6.749562
_cell_angle_alpha 90.000000
_cell_angle_beta 90.000000
_cell_angle_gamma 90.000000
_cell_volume 747.440812
_symmetry_space_group_name_H-M "P N A 21"
_symmetry_group_IT_number 33
_symmetry_cell_setting 'orthorhombic'
loop_
_space_group_symop_operation_xyz
x,y,z
-x,-y,1/2+z
1/2-x,1/2+y,1/2+z
1/2+x,1/2-y,z
loop_
_atom_site_type_symbol
_atom_site_label
_atom_site_fract_x
_atom_site_fract_y
_atom_site_fract_z
Si Si1 0.323516 0.847835 0.030630
Si Si2 0.646617 0.532301 0.345184
Si Si3 0.696391 0.364450 0.925103
Si Si4 0.306339 0.151094 0.460404
Si Si5 0.926405 0.664582 0.470466
O O1 0.198996 0.923738 0.131290
O O2 0.414707 0.812615 0.233253
O O3 0.495215 0.877656 0.916890
O O4 0.222156 0.762960 0.929105
O O5 0.462261 0.565204 0.412108
O O6 0.682236 0.422070 0.350905
O O7 0.781844 0.584931 0.493914
O O8 0.749707 0.360695 0.690677
O O9 0.622803 0.269815 0.033053
O O10 0.886642 0.373843 0.014911
#
# Coordination Sequence:
#
# PCOD9344346 Si02
#       5
#     4   4   4   4   4
#     4   8  17  32  50  80 114 137 188 240 257 346
#     4  10  19  31  55  87 112 148 194 231 281 344
#     4  10  15  31  51  79 116 138 188 239 260 351
#     4  10  18  34  56  87 111 154 189 228 300 330
#     4   8  15  28  50  75 111 141 175 238 270 309
#
# _framework density 26.757968000000002
#
# number of rings (size 3 to 8) (size 9 to 14) (size 15 to 20)
#    1.200    1.600    2.000    2.400    0.000    0.000 
#    7.200    0.000    0.000    0.000   15.600    0.000 
#    0.000    0.000    0.000    0.000    0.000    0.000 
#
# Total GULP energy -111527.814313 kJ/mol
# GULP energy per Si atom -5576.390716 kJ/mol
# Density = 2.669707 g / cm^3
# Si number density = 26.757968 Si / 1000 Ang^3
#
#
#
# Elastic Constant Matrix: (Units=GPa)
#
#
# Indices 1 2 3 4 5 6 
#
# 1 222.1434 70.9837 40.1841 0.0000 0.0000 0.0000
# 2 70.9837 136.2592 39.8194 0.0000 0.0000 0.0000
# 3 40.1841 39.8194 88.9478 0.0000 0.0000 0.0000
# 4 0.0000 0.0000 0.0000 23.6696 0.0000 0.0000
# 5 0.0000 0.0000 0.0000 0.0000 29.5793 0.0000
# 6 0.0000 0.0000 0.0000 0.0000 0.0000 38.2791
#
#
#
# Elastic Compliance Matrix: (Units=1/GPa)
#
#
# Indices 1 2 3 4 5 6 
#
# 1 0.005547 -0.002482 -0.001395 0.000000 0.000000 0.000000
# 2 -0.002482 0.009554 -0.003156 0.000000 0.000000 0.000000
# 3 -0.001395 -0.003156 0.013285 0.000000 0.000000 0.000000
# 4 0.000000 0.000000 0.000000 0.042248 0.000000 0.000000
# 5 0.000000 0.000000 0.000000 0.000000 0.033807 0.000000
# 6 0.000000 0.000000 0.000000 0.000000 0.000000 0.026124
#
#
# Mechanical properties :
#
#
# Convention : Reuss Voigt Hill
#
# Bulk Modulus (GPa) = 69.82632 83.25832 76.54232
# Shear Modulus (GPa) = 33.46594 38.06314 35.76454
#
# Velocity S-wave (km/s) = 3.54035 3.77569 3.65991
# Velocity P-wave (km/s) = 6.54708 7.08454 6.82111
#
# Compressibility (1/GPa) = 0.01432125
#
# Stress axis : x y z
#
# Youngs Moduli (GPa) = 180.27633 104.66580 75.27020
#
# Poissons Ratio (x) = 0.25979 0.10499
# Poissons Ratio (y) = 0.44746 0.23754
# Poissons Ratio (z) = 0.25146 0.33031
#
# Static dielectric constant tensor:
#      x y z
#    x 2.052020 0.000000 0.000000 
#    y 0.000000 2.070270 0.000000 
#    z 0.000000 0.000000 2.306860 
# 
# From -- ./inp_files/5882.got.cif
#   From: 2010.05.17/outbox.cif.g08.bks.cpg/sg33_3_cif.got.tgz:5882.got - 2010.06.03 17:15:25.
