data_PCOD9344854
_publ_section_title
;
Structure prediction by ZEFSAII (Michael W. Deem and Ramdas Pophale) SiO2 
 PCOD9344854
Probable space group: P N A 21
;
_chemical_formula_sum "Si O2"
_cell_formula_units_Z 32
_cell_length_a 9.393542
_cell_length_b 14.683993
_cell_length_c 11.553117
_cell_angle_alpha 90.000000
_cell_angle_beta 90.000000
_cell_angle_gamma 90.000000
_cell_volume 1593.575785
_symmetry_space_group_name_H-M "P N A 21"
_symmetry_group_IT_number 33
_symmetry_cell_setting 'orthorhombic'
loop_
_space_group_symop_operation_xyz
x,y,z
-x,-y,1/2+z
1/2-x,1/2+y,1/2+z
1/2+x,1/2-y,z
loop_
_atom_site_type_symbol
_atom_site_label
_atom_site_fract_x
_atom_site_fract_y
_atom_site_fract_z
Si Si1 0.298888 0.063986 0.998060
Si Si2 0.448143 0.463253 0.623259
Si Si3 0.531018 0.933816 0.719181
Si Si4 0.994369 0.615279 0.965836
Si Si5 0.770811 0.498393 0.578210
Si Si6 0.966436 0.771744 0.130603
Si Si7 0.740421 0.079291 0.824591
Si Si8 0.711980 0.791045 0.290881
O O1 0.292815 0.135917 0.893910
O O2 0.394143 0.974426 0.969701
O O3 0.378070 0.103909 0.111612
O O4 0.146670 0.026918 0.040953
O O5 0.611076 0.492979 0.623555
O O6 0.446865 0.357838 0.581196
O O7 0.374617 0.457428 0.749752
O O8 0.527712 0.870400 0.831364
O O9 0.374977 0.956292 0.671738
O O10 0.608950 0.027809 0.760918
O O11 0.926511 0.699747 0.032605
O O12 0.139723 0.589833 0.033869
O O13 0.761314 0.551846 0.457321
O O14 0.833041 0.813805 0.197790
O O15 0.062456 0.721094 0.226201
O O16 0.745006 0.187967 0.824405
#
# Coordination Sequence:
#
# PCOD9344854 Si02
#       8
#     4   4   4   4   4   4   4   4
#     4  10  23  38  62  92 128 168 207 261 323 378
#     4  10  22  38  59  93 131 156 209 261 332 363
#     4   9  20  39  64  87 121 169 214 255 314 385
#     4  10  21  38  66  89 125 165 219 257 305 388
#     4  10  20  35  65  89 125 163 214 254 327 368
#     4  11  23  39  66  97 125 162 217 264 315 374
#     4   9  21  40  59  93 126 163 211 271 303 390
#     4  11  24  37  67  94 129 160 217 265 317 370
#
# _framework density 20.080625999999999
#
# number of rings (size 3 to 8) (size 9 to 14) (size 15 to 20)
#    0.000    2.000    0.000    3.750   14.000    0.000 
#    0.000    0.000   16.500    0.000    0.000    0.000 
#    0.000    0.000    0.000    0.000    0.000    0.000 
#
# Total GULP energy -178581.759403 kJ/mol
# GULP energy per Si atom -5580.679981 kJ/mol
# Density = 2.003492 g / cm^3
# Si number density = 20.080626 Si / 1000 Ang^3
#
#
#
# Elastic Constant Matrix: (Units=GPa)
#
#
# Indices 1 2 3 4 5 6 
#
# 1 159.6361 38.8927 61.2683 0.0000 0.0000 0.0000
# 2 38.8927 77.0645 61.8674 0.0000 0.0000 0.0000
# 3 61.2683 61.8674 115.8991 0.0000 0.0000 0.0000
# 4 0.0000 0.0000 0.0000 45.5560 0.0000 0.0000
# 5 0.0000 0.0000 0.0000 0.0000 23.2119 0.0000
# 6 0.0000 0.0000 0.0000 0.0000 0.0000 19.5876
#
#
#
# Elastic Compliance Matrix: (Units=1/GPa)
#
#
# Indices 1 2 3 4 5 6 
#
# 1 0.007913 -0.001112 -0.003590 0.000000 0.000000 0.000000
# 2 -0.001112 0.022863 -0.011617 0.000000 0.000000 0.000000
# 3 -0.003590 -0.011617 0.016727 0.000000 0.000000 0.000000
# 4 0.000000 0.000000 0.000000 0.021951 0.000000 0.000000
# 5 0.000000 0.000000 0.000000 0.000000 0.043081 0.000000
# 6 0.000000 0.000000 0.000000 0.000000 0.000000 0.051053
#
#
# Mechanical properties :
#
#
# Convention : Reuss Voigt Hill
#
# Bulk Modulus (GPa) = 67.26428 75.18406 71.22417
# Shear Modulus (GPa) = 24.85344 30.37584 27.61464
#
# Velocity S-wave (km/s) = 3.52189 3.89356 3.71238
# Velocity P-wave (km/s) = 7.07871 7.59838 7.34314
#
# Compressibility (1/GPa) = 0.01486673
#
# Stress axis : x y z
#
# Youngs Moduli (GPa) = 126.37817 43.73856 59.78435
#
# Poissons Ratio (x) = 0.04863 0.21460
# Poissons Ratio (y) = 0.14050 0.69450
# Poissons Ratio (z) = 0.45364 0.50810
#
# Static dielectric constant tensor:
#      x y z
#    x 1.743160 0.000000 0.000000 
#    y 0.000000 1.743300 0.000000 
#    z 0.000000 0.000000 1.722690 
# 
# From -- ./inp_files/6028.got.cif
#   From: 2010.05.17/outbox.cif.g08.bks.cpg/sg33_4_cif.got.tgz:6028.got - 2010.06.03 17:15:25.
