data_PCOD9344081
_publ_section_title
;
Structure prediction by ZEFSAII (Michael W. Deem and Ramdas Pophale) SiO2 
 PCOD9344081
Probable space group: P B A 2
;
_chemical_formula_sum "Si O2"
_cell_formula_units_Z 20
_cell_length_a 9.021968
_cell_length_b 17.287925
_cell_length_c 5.092392
_cell_angle_alpha 90.000000
_cell_angle_beta 90.000000
_cell_angle_gamma 90.000000
_cell_volume 794.266013
_symmetry_space_group_name_H-M "P B A 2"
_symmetry_group_IT_number 32
_symmetry_cell_setting 'orthorhombic'
loop_
_space_group_symop_operation_xyz
x,y,z
-x,-y,z
1/2-x,1/2+y,z
1/2+x,1/2-y,z
loop_
_atom_site_type_symbol
_atom_site_label
_atom_site_fract_x
_atom_site_fract_y
_atom_site_fract_z
Si Si1 0.817402 0.853783 0.457940
Si Si2 0.000000 0.500000 0.914226
Si Si3 0.873052 0.756650 0.966456
Si Si4 0.735448 0.105632 0.200322
Si Si5 0.500000 0.500000 0.341771
Si Si6 0.486079 0.143932 0.592235
O O1 0.824227 0.816876 0.745690
O O2 0.643388 0.845760 0.379096
O O3 0.886911 0.939218 0.475973
O O4 0.901144 0.801436 0.239568
O O5 0.065929 0.565769 0.731074
O O6 0.878017 0.543800 0.080167
O O7 0.001019 0.710596 0.808297
O O8 0.764114 0.685247 0.038903
O O9 0.889276 0.060656 0.204825
O O10 0.649530 0.129876 0.469139
#
# Coordination Sequence:
#
# PCOD9344081 Si02
#       6
#     4   2   4   4   2   4
#     4  12  29  50  82 119 164 220 272 351 410 497
#     4  10  22  44  80 108 156 210 284 322 416 480
#     4  11  28  49  82 116 163 217 281 331 418 497
#     4  11  25  51  76 119 159 218 267 349 401 511
#     4  12  30  50  82 126 176 204 290 348 432 464
#     4  11  25  50  81 113 158 223 275 335 415 505
#
# _framework density 25.180482999999999
#
# number of rings (size 3 to 8) (size 9 to 14) (size 15 to 20)
#    0.000    0.800    2.000    3.000   14.000    0.800 
#    3.600    0.000    0.000    0.000    0.000    0.000 
#    0.000    0.000    0.000    0.000    0.000    0.000 
#
# Total GULP energy -111759.424145 kJ/mol
# GULP energy per Si atom -5587.971207 kJ/mol
# Density = 2.512317 g / cm^3
# Si number density = 25.180483 Si / 1000 Ang^3
#
#
#
# Elastic Constant Matrix: (Units=GPa)
#
#
# Indices 1 2 3 4 5 6 
#
# 1 113.1196 57.8575 21.5813 0.0000 0.0000 0.0000
# 2 57.8575 166.4962 41.6550 0.0000 0.0000 0.0000
# 3 21.5813 41.6550 109.7404 0.0000 0.0000 0.0000
# 4 0.0000 0.0000 0.0000 50.2460 0.0000 0.0000
# 5 0.0000 0.0000 0.0000 0.0000 16.9136 0.0000
# 6 0.0000 0.0000 0.0000 0.0000 0.0000 38.8335
#
#
#
# Elastic Compliance Matrix: (Units=1/GPa)
#
#
# Indices 1 2 3 4 5 6 
#
# 1 0.010810 -0.003563 -0.000773 0.000000 0.000000 0.000000
# 2 -0.003563 0.007811 -0.002264 0.000000 0.000000 0.000000
# 3 -0.000773 -0.002264 0.010124 0.000000 0.000000 0.000000
# 4 0.000000 0.000000 0.000000 0.019902 0.000000 0.000000
# 5 0.000000 0.000000 0.000000 0.000000 0.059124 0.000000
# 6 0.000000 0.000000 0.000000 0.000000 0.000000 0.025751
#
#
# Mechanical properties :
#
#
# Convention : Reuss Voigt Hill
#
# Bulk Modulus (GPa) = 64.33485 70.17153 67.25319
# Shear Modulus (GPa) = 32.91546 39.08277 35.99911
#
# Velocity S-wave (km/s) = 3.61942 3.94395 3.78516
# Velocity P-wave (km/s) = 6.56292 6.97622 6.77272
#
# Compressibility (1/GPa) = 0.01554367
#
# Stress axis : x y z
#
# Youngs Moduli (GPa) = 92.50562 128.02886 98.77602
#
# Poissons Ratio (x) = 0.45617 0.07640
# Poissons Ratio (y) = 0.32960 0.22364
# Poissons Ratio (z) = 0.07155 0.28987
#
# Static dielectric constant tensor:
#      x y z
#    x 2.108900 0.000000 0.000000 
#    y 0.000000 1.947340 0.000000 
#    z 0.000000 0.000000 2.007660 
# 
# From -- ./inp_files/435.got.cif
#   From: 2010.05.17/outbox.cif.g08.bks.cpg/sg32_1_cif.got.tgz:435.got - 2010.06.03 17:12:27.
