data_PCOD9344184
_publ_section_title
;
Structure prediction by ZEFSAII (Michael W. Deem and Ramdas Pophale) SiO2 
 PCOD9344184
Probable space group: P B A 2
;
_chemical_formula_sum "Si O2"
_cell_formula_units_Z 20
_cell_length_a 17.653128
_cell_length_b 8.630783
_cell_length_c 5.237492
_cell_angle_alpha 90.000000
_cell_angle_beta 90.000000
_cell_angle_gamma 90.000000
_cell_volume 797.985942
_symmetry_space_group_name_H-M "P B A 2"
_symmetry_group_IT_number 32
_symmetry_cell_setting 'orthorhombic'
loop_
_space_group_symop_operation_xyz
x,y,z
-x,-y,z
1/2-x,1/2+y,z
1/2+x,1/2-y,z
loop_
_atom_site_type_symbol
_atom_site_label
_atom_site_fract_x
_atom_site_fract_y
_atom_site_fract_z
Si Si1 0.692948 0.160398 0.465140
Si Si2 0.174429 0.654695 0.665360
Si Si3 0.086763 0.952836 0.614061
Si Si4 0.576131 0.092174 0.846117
Si Si5 0.371310 0.630181 0.103553
O O1 0.698750 0.976151 0.458481
O O2 0.609586 0.175019 0.593200
O O3 0.754081 0.231458 0.659076
O O4 0.695402 0.257312 0.206307
O O5 0.141816 0.539761 0.885203
O O6 0.105189 0.770439 0.606107
O O7 0.109773 0.020249 0.339494
O O8 0.134304 0.026437 0.850636
O O9 0.000000 0.000000 0.662525
O O10 0.500000 0.000000 0.811896
O O11 0.568081 0.233352 0.041038
#
# Coordination Sequence:
#
# PCOD9344184 Si02
#       5
#     4   4   4   4   4
#     4  10  24  48  72 110 149 204 253 317 386 464
#     4  10  24  49  73 113 153 205 258 319 394 467
#     4  12  26  48  77 118 154 203 252 330 387 472
#     4  10  24  47  80 110 151 203 265 319 389 464
#     4  12  25  48  77 106 160 192 265 311 393 453
#
# _framework density 25.063099000000001
#
# number of rings (size 3 to 8) (size 9 to 14) (size 15 to 20)
#    1.200    0.000    2.000    3.000    0.000    4.000 
#   14.400    0.000    0.000    0.000    0.000    0.000 
#    0.000    0.000    0.000    0.000    0.000    0.000 
#
# Total GULP energy -111382.155814 kJ/mol
# GULP energy per Si atom -5569.107791 kJ/mol
# Density = 2.500605 g / cm^3
# Si number density = 25.063099 Si / 1000 Ang^3
#
#
#
# Elastic Constant Matrix: (Units=GPa)
#
#
# Indices 1 2 3 4 5 6 
#
# 1 62.1400 23.8595 28.4583 0.0000 0.0000 0.0000
# 2 23.8595 194.2042 64.2460 0.0000 0.0000 0.0000
# 3 28.4583 64.2460 137.9849 0.0000 0.0000 0.0000
# 4 0.0000 0.0000 0.0000 23.0435 0.0000 0.0000
# 5 0.0000 0.0000 0.0000 0.0000 14.7850 0.0000
# 6 0.0000 0.0000 0.0000 0.0000 0.0000 44.7115
#
#
#
# Elastic Compliance Matrix: (Units=1/GPa)
#
#
# Indices 1 2 3 4 5 6 
#
# 1 0.017990 -0.001162 -0.003169 0.000000 0.000000 0.000000
# 2 -0.001162 0.006162 -0.002629 0.000000 0.000000 0.000000
# 3 -0.003169 -0.002629 0.009125 0.000000 0.000000 0.000000
# 4 0.000000 0.000000 0.000000 0.043396 0.000000 0.000000
# 5 0.000000 0.000000 0.000000 0.000000 0.067636 0.000000
# 6 0.000000 0.000000 0.000000 0.000000 0.000000 0.022366
#
#
# Mechanical properties :
#
#
# Convention : Reuss Voigt Hill
#
# Bulk Modulus (GPa) = 51.66336 69.71742 60.69039
# Shear Modulus (GPa) = 26.73109 35.02569 30.87839
#
# Velocity S-wave (km/s) = 3.26935 3.74237 3.51383
# Velocity P-wave (km/s) = 5.90844 6.82282 6.38203
#
# Compressibility (1/GPa) = 0.01935608
#
# Stress axis : x y z
#
# Youngs Moduli (GPa) = 55.58561 162.29090 109.58833
#
# Poissons Ratio (x) = 0.18854 0.34733
# Poissons Ratio (y) = 0.06458 0.28814
# Poissons Ratio (z) = 0.17617 0.42672
#
# Static dielectric constant tensor:
#      x y z
#    x 2.050560 0.000000 0.000000 
#    y 0.000000 2.063860 0.000000 
#    z 0.000000 0.000000 2.055650 
# 
# From -- ./inp_files/1390.got.cif
#   From: 2010.05.17/outbox.cif.g08.bks.cpg/sg32_1_cif.got.tgz:1390.got - 2010.06.03 17:12:27.
