data_PCOD9344796
_publ_section_title
;
Structure prediction by ZEFSAII (Michael W. Deem and Ramdas Pophale) SiO2 
 PCOD9344796
Probable space group: P N A 21
;
_chemical_formula_sum "Si O2"
_cell_formula_units_Z 32
_cell_length_a 12.957461
_cell_length_b 22.731908
_cell_length_c 6.704326
_cell_angle_alpha 90.000000
_cell_angle_beta 90.000000
_cell_angle_gamma 90.000000
_cell_volume 1974.744550
_symmetry_space_group_name_H-M "P N A 21"
_symmetry_group_IT_number 33
_symmetry_cell_setting 'orthorhombic'
loop_
_space_group_symop_operation_xyz
x,y,z
-x,-y,1/2+z
1/2-x,1/2+y,1/2+z
1/2+x,1/2-y,z
loop_
_atom_site_type_symbol
_atom_site_label
_atom_site_fract_x
_atom_site_fract_y
_atom_site_fract_z
Si Si1 0.546256 0.131484 0.948980
Si Si2 0.113551 0.779273 0.662295
Si Si3 0.196809 0.348980 0.297011
Si Si4 0.410101 0.062582 0.269438
Si Si5 0.299851 0.174658 0.423200
Si Si6 0.568642 0.761249 0.257968
Si Si7 0.918685 0.771467 0.913869
Si Si8 0.899969 0.555028 0.065438
O O1 0.500077 0.193516 0.884172
O O2 0.564710 0.095110 0.749518
O O3 0.648758 0.138901 0.079959
O O4 0.467114 0.098924 0.095654
O O5 0.187266 0.826620 0.768493
O O6 0.154456 0.716735 0.748445
O O7 0.122738 0.778948 0.423719
O O8 0.995550 0.785310 0.731858
O O9 0.129276 0.294333 0.386101
O O10 0.178139 0.405902 0.433799
O O11 0.335200 0.108322 0.380628
O O12 0.500115 0.043415 0.424622
O O13 0.361988 0.005642 0.163341
O O14 0.352207 0.201234 0.622718
O O15 0.178018 0.185374 0.428652
O O16 0.492460 0.728580 0.106163
#
# Coordination Sequence:
#
# PCOD9344796 Si02
#       8
#     4   4   4   4   4   4   4   4
#     4  11  18  31  49  75 108 135 169 209 261 315
#     4  10  20  34  51  75 108 142 174 209 263 319
#     4  10  21  32  50  78 105 138 177 214 258 319
#     4  11  20  33  50  80 105 136 172 214 266 317
#     4  10  21  32  50  80 108 133 174 220 258 315
#     4  11  18  31  52  74 107 143 168 208 264 321
#     4  10  20  33  50  76 108 137 172 216 260 313
#     4  11  20  32  52  76 109 136 170 218 264 319
#
# _framework density 16.204628
#
# number of rings (size 3 to 8) (size 9 to 14) (size 15 to 20)
#    0.000    1.500    6.250    1.500    1.750    1.000 
#    0.000    0.000    0.000    0.000    3.250    0.000 
#    0.000    0.000    0.000    0.000    0.000    0.000 
#
# Total GULP energy -178446.720196 kJ/mol
# GULP energy per Si atom -5576.460006 kJ/mol
# Density = 1.616775 g / cm^3
# Si number density = 16.204628 Si / 1000 Ang^3
#
#
#
# Elastic Constant Matrix: (Units=GPa)
#
#
# Indices 1 2 3 4 5 6 
#
# 1 88.7691 43.6956 31.0864 0.0000 0.0000 0.0000
# 2 43.6956 77.5143 25.0847 0.0000 0.0000 0.0000
# 3 31.0864 25.0847 97.7955 0.0000 0.0000 0.0000
# 4 0.0000 0.0000 0.0000 22.1180 0.0000 0.0000
# 5 0.0000 0.0000 0.0000 0.0000 10.8733 0.0000
# 6 0.0000 0.0000 0.0000 0.0000 0.0000 17.9268
#
#
#
# Elastic Compliance Matrix: (Units=1/GPa)
#
#
# Indices 1 2 3 4 5 6 
#
# 1 0.016411 -0.008247 -0.003101 0.000000 0.000000 0.000000
# 2 -0.008247 0.018213 -0.002050 0.000000 0.000000 0.000000
# 3 -0.003101 -0.002050 0.011737 0.000000 0.000000 0.000000
# 4 0.000000 0.000000 0.000000 0.045212 0.000000 0.000000
# 5 0.000000 0.000000 0.000000 0.000000 0.091968 0.000000
# 6 0.000000 0.000000 0.000000 0.000000 0.000000 0.055782
#
#
# Mechanical properties :
#
#
# Convention : Reuss Voigt Hill
#
# Bulk Modulus (GPa) = 51.11416 51.53470 51.32443
# Shear Modulus (GPa) = 18.33903 21.13112 19.73507
#
# Velocity S-wave (km/s) = 3.36775 3.61504 3.49358
# Velocity P-wave (km/s) = 6.83621 7.02112 6.92928
#
# Compressibility (1/GPa) = 0.01956405
#
# Stress axis : x y z
#
# Youngs Moduli (GPa) = 60.93533 54.90444 85.20045
#
# Poissons Ratio (x) = 0.45282 0.26421
# Poissons Ratio (y) = 0.50256 0.17468
# Poissons Ratio (z) = 0.18896 0.11256
#
# Static dielectric constant tensor:
#      x y z
#    x 1.541720 0.000000 0.000000 
#    y 0.000000 1.554510 0.000000 
#    z 0.000000 0.000000 1.571750 
# 
# From -- ./inp_files/1127.got.cif
#   From: 2010.05.17/outbox.cif.g08.bks.cpg/sg33_1_cif.got.tgz:1127.got - 2010.06.03 17:15:25.
