data_PCOD9344617
_publ_section_title
;
Structure prediction by ZEFSAII (Michael W. Deem and Ramdas Pophale) SiO2 
 PCOD9344617
Probable space group: P N A 21
;
_chemical_formula_sum "Si O2"
_cell_formula_units_Z 28
_cell_length_a 8.180201
_cell_length_b 9.421724
_cell_length_c 17.522152
_cell_angle_alpha 90.000000
_cell_angle_beta 90.000000
_cell_angle_gamma 90.000000
_cell_volume 1350.460222
_symmetry_space_group_name_H-M "P N A 21"
_symmetry_group_IT_number 33
_symmetry_cell_setting 'orthorhombic'
loop_
_space_group_symop_operation_xyz
x,y,z
-x,-y,1/2+z
1/2-x,1/2+y,1/2+z
1/2+x,1/2-y,z
loop_
_atom_site_type_symbol
_atom_site_label
_atom_site_fract_x
_atom_site_fract_y
_atom_site_fract_z
Si Si1 0.620936 0.908166 0.205510
Si Si2 0.506795 0.789005 0.698998
Si Si3 0.201018 0.683087 0.451694
Si Si4 0.975946 0.851162 0.156267
Si Si5 0.997782 0.099262 0.047522
Si Si6 0.179427 0.057565 0.261457
Si Si7 0.907008 0.618810 0.357435
O O1 0.528477 0.810468 0.143688
O O2 0.519612 0.874500 0.282149
O O3 0.807089 0.861875 0.201705
O O4 0.612851 0.076360 0.193806
O O5 0.501354 0.700657 0.621653
O O6 0.680301 0.860657 0.714394
O O7 0.460007 0.677731 0.765899
O O8 0.132291 0.826377 0.491684
O O9 0.324973 0.604397 0.507833
O O10 0.311107 0.738971 0.381237
O O11 0.041400 0.597518 0.424130
O O12 0.109951 0.928601 0.210575
O O13 0.959422 0.944371 0.080091
O O14 0.268543 0.996460 0.336066
#
# Coordination Sequence:
#
# PCOD9344617 Si02
#       7
#     4   4   4   4   4   4   4
#     4  11  21  35  59  88 119 147 187 251 303 342
#     4  10  19  35  59  87 115 145 184 243 297 339
#     4  10  20  36  58  81 119 159 195 235 273 363
#     4  11  21  34  56  88 117 145 187 247 296 339
#     4  10  20  36  59  86 111 151 197 233 290 349
#     4  10  20  35  57  85 116 144 187 242 289 338
#     4  10  21  35  56  87 115 155 197 233 292 344
#
# _framework density 20.733674000000001
#
# number of rings (size 3 to 8) (size 9 to 14) (size 15 to 20)
#    0.000    1.714    0.000    7.714    0.000    1.143 
#    0.000    0.000    0.000   24.000    0.000    0.000 
#    0.000    0.000    0.000    0.000    0.000    0.000 
#
# Total GULP energy -156210.019563 kJ/mol
# GULP energy per Si atom -5578.929270 kJ/mol
# Density = 2.068648 g / cm^3
# Si number density = 20.733674 Si / 1000 Ang^3
#
#
#
# Elastic Constant Matrix: (Units=GPa)
#
#
# Indices 1 2 3 4 5 6 
#
# 1 76.4344 -0.9230 10.5875 0.0000 0.0000 0.0000
# 2 -0.9230 70.7095 17.5230 0.0000 0.0000 0.0000
# 3 10.5875 17.5230 61.4261 0.0000 0.0000 0.0000
# 4 0.0000 0.0000 0.0000 26.6109 0.0000 0.0000
# 5 0.0000 0.0000 0.0000 0.0000 37.6160 0.0000
# 6 0.0000 0.0000 0.0000 0.0000 0.0000 35.2023
#
#
#
# Elastic Compliance Matrix: (Units=1/GPa)
#
#
# Indices 1 2 3 4 5 6 
#
# 1 0.013446 0.000807 -0.002548 0.000000 0.000000 0.000000
# 2 0.000807 0.015267 -0.004494 0.000000 0.000000 0.000000
# 3 -0.002548 -0.004494 0.018001 0.000000 0.000000 0.000000
# 4 0.000000 0.000000 0.000000 0.037579 0.000000 0.000000
# 5 0.000000 0.000000 0.000000 0.000000 0.026584 0.000000
# 6 0.000000 0.000000 0.000000 0.000000 0.000000 0.028407
#
#
# Mechanical properties :
#
#
# Convention : Reuss Voigt Hill
#
# Bulk Modulus (GPa) = 29.20282 29.21611 29.20947
# Shear Modulus (GPa) = 30.64326 31.97801 31.31063
#
# Velocity S-wave (km/s) = 3.84858 3.93150 3.89026
# Velocity P-wave (km/s) = 5.81928 5.89327 5.85639
#
# Compressibility (1/GPa) = 0.03424327
#
# Stress axis : x y z
#
# Youngs Moduli (GPa) = 74.37294 65.50236 55.55278
#
# Poissons Ratio (x) = -0.05285 0.14153
# Poissons Ratio (y) = -0.06001 0.24966
# Poissons Ratio (z) = 0.18948 0.29438
#
# Static dielectric constant tensor:
#      x y z
#    x 1.802700 0.000000 0.000000 
#    y 0.000000 1.754540 0.000000 
#    z 0.000000 0.000000 1.770630 
# 
# From -- ./inp_files/8466.got.cif
#   From: 2010.05.17/outbox.cif.g08.bks.cpg/sg33_5_cif.got.tgz:8466.got - 2010.06.03 17:15:25.
