data_PCOD9344178
_publ_section_title
;
Structure prediction by ZEFSAII (Michael W. Deem and Ramdas Pophale) SiO2 
 PCOD9344178
Probable space group: P B A 2
;
_chemical_formula_sum "Si O2"
_cell_formula_units_Z 20
_cell_length_a 5.100007
_cell_length_b 29.264798
_cell_length_c 5.471941
_cell_angle_alpha 90.000000
_cell_angle_beta 90.000000
_cell_angle_gamma 90.000000
_cell_volume 816.690886
_symmetry_space_group_name_H-M "P B A 2"
_symmetry_group_IT_number 32
_symmetry_cell_setting 'orthorhombic'
loop_
_space_group_symop_operation_xyz
x,y,z
-x,-y,z
1/2-x,1/2+y,z
1/2+x,1/2-y,z
loop_
_atom_site_type_symbol
_atom_site_label
_atom_site_fract_x
_atom_site_fract_y
_atom_site_fract_z
Si Si1 0.419935 0.401475 0.986890
Si Si2 0.464182 0.945533 0.324291
Si Si3 0.387846 0.219616 0.425170
Si Si4 0.184543 0.545189 0.813445
Si Si5 0.922135 0.337417 0.925853
O O1 0.500587 0.445611 0.814288
O O2 0.313713 0.425001 0.239981
O O3 0.646468 0.363980 0.950378
O O4 0.168339 0.371527 0.912663
O O5 0.581871 0.928187 0.576148
O O6 0.500000 0.000000 0.349583
O O7 0.645261 0.937163 0.090142
O O8 0.592797 0.261367 0.419526
O O9 0.444676 0.190402 0.180794
O O10 0.423667 0.192653 0.679906
O O11 0.000000 0.500000 0.822856
#
# Coordination Sequence:
#
# PCOD9344178 Si02
#       5
#     4   4   4   4   4
#     4  12  26  50  74 114 161 192 267 320 386 439
#     4  10  24  46  72 105 147 210 260 316 379 441
#     4  12  26  52  80 112 151 192 245 298 382 488
#     4  10  24  46  72 105 147 210 260 316 379 441
#     4  12  28  45  79 116 149 200 239 320 385 451
#
# _framework density 24.489068
#
# number of rings (size 3 to 8) (size 9 to 14) (size 15 to 20)
#    0.000    0.800    2.000    3.600    2.800    8.000 
#    0.000    8.000    0.000    0.000    0.000    0.000 
#    0.000    0.000    0.000    0.000    0.000    0.000 
#
# Total GULP energy -111364.609655 kJ/mol
# GULP energy per Si atom -5568.230483 kJ/mol
# Density = 2.443333 g / cm^3
# Si number density = 24.489068 Si / 1000 Ang^3
#
#
#
# Elastic Constant Matrix: (Units=GPa)
#
#
# Indices 1 2 3 4 5 6 
#
# 1 141.2528 27.4404 50.8988 0.0000 0.0000 0.0000
# 2 27.4404 70.1828 42.6207 0.0000 0.0000 0.0000
# 3 50.8988 42.6207 222.7412 0.0000 0.0000 0.0000
# 4 0.0000 0.0000 0.0000 47.8103 0.0000 0.0000
# 5 0.0000 0.0000 0.0000 0.0000 35.0104 0.0000
# 6 0.0000 0.0000 0.0000 0.0000 0.0000 54.1535
#
#
#
# Elastic Compliance Matrix: (Units=1/GPa)
#
#
# Indices 1 2 3 4 5 6 
#
# 1 0.008028 -0.002291 -0.001396 0.000000 0.000000 0.000000
# 2 -0.002291 0.016776 -0.002686 0.000000 0.000000 0.000000
# 3 -0.001396 -0.002686 0.005323 0.000000 0.000000 0.000000
# 4 0.000000 0.000000 0.000000 0.020916 0.000000 0.000000
# 5 0.000000 0.000000 0.000000 0.000000 0.028563 0.000000
# 6 0.000000 0.000000 0.000000 0.000000 0.000000 0.018466
#
#
# Mechanical properties :
#
#
# Convention : Reuss Voigt Hill
#
# Bulk Modulus (GPa) = 57.54056 75.12185 66.33120
# Shear Modulus (GPa) = 42.87776 48.27596 45.57686
#
# Velocity S-wave (km/s) = 4.18891 4.44478 4.31874
# Velocity P-wave (km/s) = 6.85152 7.55537 7.21204
#
# Compressibility (1/GPa) = 0.01737905
#
# Stress axis : x y z
#
# Youngs Moduli (GPa) = 124.57046 59.61020 187.87911
#
# Poissons Ratio (x) = 0.13656 0.26229
# Poissons Ratio (y) = 0.28537 0.50473
# Poissons Ratio (z) = 0.17391 0.16014
#
# Static dielectric constant tensor:
#      x y z
#    x 1.455230 0.000000 0.000000 
#    y 0.000000 1.869630 0.000000 
#    z 0.000000 0.000000 1.972530 
# 
# From -- ./inp_files/185.got.cif
#   From: 2010.05.17/outbox.cif.g08.bks.cpg/sg32_1_cif.got.tgz:185.got - 2010.06.03 17:12:27.
