data_PCOD9344386
_publ_section_title
;
Structure prediction by ZEFSAII (Michael W. Deem and Ramdas Pophale) SiO2 
 PCOD9344386
Probable space group: P N A 21
;
_chemical_formula_sum "Si O2"
_cell_formula_units_Z 24
_cell_length_a 14.376894
_cell_length_b 11.506295
_cell_length_c 5.656882
_cell_angle_alpha 90.000000
_cell_angle_beta 90.000000
_cell_angle_gamma 90.000000
_cell_volume 935.788480
_symmetry_space_group_name_H-M "P N A 21"
_symmetry_group_IT_number 33
_symmetry_cell_setting 'orthorhombic'
loop_
_space_group_symop_operation_xyz
x,y,z
-x,-y,1/2+z
1/2-x,1/2+y,1/2+z
1/2+x,1/2-y,z
loop_
_atom_site_type_symbol
_atom_site_label
_atom_site_fract_x
_atom_site_fract_y
_atom_site_fract_z
Si Si1 0.657084 0.398571 0.764050
Si Si2 0.874510 0.307509 0.264050
Si Si3 0.305414 0.519212 0.764050
Si Si4 0.640483 0.137112 0.764050
Si Si5 0.063060 0.450436 0.264050
Si Si6 0.133495 0.702383 0.264050
O O1 0.641586 0.460402 0.511765
O O2 0.611774 0.271575 0.764050
O O3 0.767197 0.364149 0.764050
O O4 0.641586 0.460402 0.016335
O O5 0.778756 0.382793 0.264050
O O6 0.880217 0.240212 0.509872
O O7 0.961141 0.395459 0.264050
O O8 0.880217 0.240212 0.018228
O O9 0.250111 0.397449 0.764050
O O10 0.612304 0.090769 0.503937
O O11 0.612304 0.090769 0.024163
O O12 0.063865 0.590082 0.264050
#
# Coordination Sequence:
#
# PCOD9344386 Si02
#       6
#     4   4   4   4   4   4
#     4  10  20  33  47  65 100 133 164 194 229 282
#     4  10  18  28  49  68 101 131 149 182 250 304
#     4  10  19  35  47  70 100 130 156 199 237 278
#     4  12  21  31  49  71 100 134 163 192 236 288
#     4  12  19  30  47  76  99 130 152 193 245 300
#     4  10  17  31  45  66  98 132 152 190 231 284
#
# _framework density 25.646822
#
# number of rings (size 3 to 8) (size 9 to 14) (size 15 to 20)
#    0.000    1.333    6.667    3.000    0.000    0.000 
#    0.000    0.000    0.000    0.000    0.000    0.000 
#    0.000  106.667    0.000    0.000    0.000    0.000 
#
# Total GULP energy -134033.416647 kJ/mol
# GULP energy per Si atom -5584.725694 kJ/mol
# Density = 2.558845 g / cm^3
# Si number density = 25.646822 Si / 1000 Ang^3
#
#
#
# Elastic Constant Matrix: (Units=GPa)
#
#
# Indices 1 2 3 4 5 6 
#
# 1 17.4367 5.6645 46.1700 0.0000 0.0000 0.0000
# 2 5.6645 81.6924 48.7449 0.0000 0.0000 0.0000
# 3 46.1700 48.7449 348.4378 0.0000 0.0000 0.0000
# 4 0.0000 0.0000 0.0000 23.5606 0.0000 0.0000
# 5 0.0000 0.0000 0.0000 0.0000 29.3562 0.0000
# 6 0.0000 0.0000 0.0000 0.0000 0.0000 24.2834
#
#
#
# Elastic Compliance Matrix: (Units=1/GPa)
#
#
# Indices 1 2 3 4 5 6 
#
# 1 0.088413 0.000938 -0.011846 0.000000 0.000000 0.000000
# 2 0.000938 0.013366 -0.001994 0.000000 0.000000 0.000000
# 3 -0.011846 -0.001994 0.004719 0.000000 0.000000 0.000000
# 4 0.000000 0.000000 0.000000 0.042444 0.000000 0.000000
# 5 0.000000 0.000000 0.000000 0.000000 0.034064 0.000000
# 6 0.000000 0.000000 0.000000 0.000000 0.000000 0.041180
#
#
# Mechanical properties :
#
#
# Convention : Reuss Voigt Hill
#
# Bulk Modulus (GPa) = 12.39267 72.08062 42.23664
# Shear Modulus (GPa) = 18.05780 38.57256 28.31518
#
# Velocity S-wave (km/s) = 2.65636 3.88234 3.32632
# Velocity P-wave (km/s) = 3.77503 6.94715 5.59078
#
# Compressibility (1/GPa) = 0.08069286
#
# Stress axis : x y z
#
# Youngs Moduli (GPa) = 11.31052 74.81740 211.92501
#
# Poissons Ratio (x) = -0.07019 2.51057
# Poissons Ratio (y) = -0.01061 0.42261
# Poissons Ratio (z) = 0.13399 0.14920
#
# Static dielectric constant tensor:
#      x y z
#    x 2.119720 0.000000 0.000000 
#    y 0.000000 2.033250 0.000000 
#    z 0.000000 0.000000 2.026930 
# 
# From -- ./inp_files/1361.got.cif
#   From: 2010.05.17/outbox.cif.g08.bks.cpg/sg33_1_cif.got.tgz:1361.got - 2010.06.03 17:15:25.
