data_PCOD9344242
_publ_section_title
;
Structure prediction by ZEFSAII (Michael W. Deem and Ramdas Pophale) SiO2 
 PCOD9344242
Probable space group: P B A 2
;
_chemical_formula_sum "Si O2"
_cell_formula_units_Z 20
_cell_length_a 4.874710
_cell_length_b 22.747887
_cell_length_c 8.120888
_cell_angle_alpha 90.000000
_cell_angle_beta 90.000000
_cell_angle_gamma 90.000000
_cell_volume 900.520010
_symmetry_space_group_name_H-M "P B A 2"
_symmetry_group_IT_number 32
_symmetry_cell_setting 'orthorhombic'
loop_
_space_group_symop_operation_xyz
x,y,z
-x,-y,z
1/2-x,1/2+y,z
1/2+x,1/2-y,z
loop_
_atom_site_type_symbol
_atom_site_label
_atom_site_fract_x
_atom_site_fract_y
_atom_site_fract_z
Si Si1 0.585603 0.209748 0.627480
Si Si2 0.834025 0.618821 0.877444
Si Si3 0.940507 0.068082 0.198657
Si Si4 0.341492 0.559194 0.733667
Si Si5 0.937765 0.402968 0.411503
O O1 0.887540 0.234931 0.606592
O O2 0.555747 0.180936 0.810236
O O3 0.504215 0.159402 0.496635
O O4 0.090852 0.574918 0.854119
O O5 0.693655 0.605464 0.050783
O O6 0.282781 0.598023 0.264767
O O7 0.295129 0.059531 0.555490
O O8 0.715204 0.069079 0.343243
O O9 0.000000 0.000000 0.154140
O O10 0.500000 0.500000 0.772063
O O11 0.585823 0.606163 0.749023
#
# Coordination Sequence:
#
# PCOD9344242 Si02
#       5
#     4   4   4   4   4
#     4  11  23  45  70  93 125 174 231 290 329 371
#     4  11  24  42  66  97 130 173 224 270 329 403
#     4  12  25  43  65 100 145 176 203 267 343 411
#     4  11  22  40  64  93 128 174 223 268 318 395
#     4  11  24  42  66  97 131 173 223 269 329 404
#
# _framework density 22.209387
#
# number of rings (size 3 to 8) (size 9 to 14) (size 15 to 20)
#    0.000    0.800    0.000    9.600    0.000    4.800 
#    0.000   11.000    0.000    0.000    0.000    0.000 
#    0.000    0.000    0.000    0.000    0.000    0.000 
#
# Total GULP energy -111895.099601 kJ/mol
# GULP energy per Si atom -5594.754980 kJ/mol
# Density = 2.215884 g / cm^3
# Si number density = 22.209387 Si / 1000 Ang^3
#
#
#
# Elastic Constant Matrix: (Units=GPa)
#
#
# Indices 1 2 3 4 5 6 
#
# 1 112.2130 24.9522 13.6268 0.0000 0.0000 0.0000
# 2 24.9522 83.4158 38.0378 0.0000 0.0000 0.0000
# 3 13.6268 38.0378 90.5192 0.0000 0.0000 0.0000
# 4 0.0000 0.0000 0.0000 18.7288 0.0000 0.0000
# 5 0.0000 0.0000 0.0000 0.0000 51.9387 0.0000
# 6 0.0000 0.0000 0.0000 0.0000 0.0000 38.6829
#
#
#
# Elastic Compliance Matrix: (Units=1/GPa)
#
#
# Indices 1 2 3 4 5 6 
#
# 1 0.009553 -0.002724 -0.000294 0.000000 0.000000 0.000000
# 2 -0.002724 0.015606 -0.006148 0.000000 0.000000 0.000000
# 3 -0.000294 -0.006148 0.013675 0.000000 0.000000 0.000000
# 4 0.000000 0.000000 0.000000 0.053394 0.000000 0.000000
# 5 0.000000 0.000000 0.000000 0.000000 0.019253 0.000000
# 6 0.000000 0.000000 0.000000 0.000000 0.000000 0.025851
#
#
# Mechanical properties :
#
#
# Convention : Reuss Voigt Hill
#
# Bulk Modulus (GPa) = 48.77147 48.82017 48.79582
# Shear Modulus (GPa) = 30.76959 35.83883 33.30421
#
# Velocity S-wave (km/s) = 3.72618 4.02142 3.87661
# Velocity P-wave (km/s) = 6.36554 6.60242 6.48506
#
# Compressibility (1/GPa) = 0.02050379
#
# Stress axis : x y z
#
# Youngs Moduli (GPa) = 104.68000 64.07625 73.12568
#
# Poissons Ratio (x) = 0.17452 0.02147
# Poissons Ratio (y) = 0.28512 0.44958
# Poissons Ratio (z) = 0.03073 0.39394
#
# Static dielectric constant tensor:
#      x y z
#    x 1.820050 0.000000 0.000000 
#    y 0.000000 1.857850 0.000000 
#    z 0.000000 0.000000 1.870140 
# 
# From -- ./inp_files/219.got.cif
#   From: 2010.05.17/outbox.cif.g08.bks.cpg/sg32_1_cif.got.tgz:219.got - 2010.06.03 17:12:27.
