data_PCOD9344442
_publ_section_title
;
Structure prediction by ZEFSAII (Michael W. Deem and Ramdas Pophale) SiO2 
 PCOD9344442
Probable space group: P N A 21
;
_chemical_formula_sum "Si O2"
_cell_formula_units_Z 32
_cell_length_a 22.076661
_cell_length_b 7.564550
_cell_length_c 9.469717
_cell_angle_alpha 90.000000
_cell_angle_beta 90.000000
_cell_angle_gamma 90.000000
_cell_volume 1581.442796
_symmetry_space_group_name_H-M "P N A 21"
_symmetry_group_IT_number 33
_symmetry_cell_setting 'orthorhombic'
loop_
_space_group_symop_operation_xyz
x,y,z
-x,-y,1/2+z
1/2-x,1/2+y,1/2+z
1/2+x,1/2-y,z
loop_
_atom_site_type_symbol
_atom_site_label
_atom_site_fract_x
_atom_site_fract_y
_atom_site_fract_z
Si Si1 0.318278 0.103956 0.262930
Si Si2 0.678177 0.470993 0.753853
Si Si3 0.476757 0.830106 0.565471
Si Si4 0.765334 0.327848 0.990423
Si Si5 0.574302 0.499701 0.953783
Si Si6 0.302009 0.543788 0.935943
Si Si7 0.050795 0.611904 0.846416
Si Si8 0.146246 0.196988 0.162909
O O1 0.324270 0.316242 0.251261
O O2 0.265473 0.066005 0.373553
O O3 0.382009 0.036307 0.318099
O O4 0.299153 0.048083 0.104267
O O5 0.732507 0.415938 0.857872
O O6 0.613778 0.421160 0.823840
O O7 0.688609 0.400604 0.597160
O O8 0.478994 0.634659 0.495754
O O9 0.520860 0.856276 0.695271
O O10 0.407775 0.831968 0.628645
O O11 0.483864 0.976504 0.446434
O O12 0.808412 0.169771 0.938692
O O13 0.709207 0.253156 0.087026
O O14 0.555546 0.697543 0.921899
O O15 0.621887 0.480449 0.083473
O O16 0.343024 0.649396 0.824957
#
# Coordination Sequence:
#
# PCOD9344442 Si02
#       8
#     4   4   4   4   4   4   4   4
#     4   9  20  35  54  83 121 158 196 247 307 369
#     4   9  18  34  55  88 116 154 199 241 304 373
#     4  10  23  43  62  91 119 163 216 261 312 370
#     4   9  17  33  56  83 121 153 191 244 298 373
#     4   8  20  42  62  83 122 160 197 262 314 362
#     4  10  18  32  58  88 116 159 197 242 309 371
#     4  11  22  44  64  89 123 166 213 268 312 371
#     4   8  18  39  55  85 122 157 201 249 308 369
#
# _framework density 20.234686
#
# number of rings (size 3 to 8) (size 9 to 14) (size 15 to 20)
#    0.750    2.000    0.000    0.750    0.000    5.000 
#    9.000    3.750    0.000    0.000    0.000    0.000 
#    0.000    0.000    0.000    0.000    0.000    0.000 
#
# Total GULP energy -178256.850585 kJ/mol
# GULP energy per Si atom -5570.526581 kJ/mol
# Density = 2.018863 g / cm^3
# Si number density = 20.234686 Si / 1000 Ang^3
#
#
#
# Elastic Constant Matrix: (Units=GPa)
#
#
# Indices 1 2 3 4 5 6 
#
# 1 9114.734812048.983810439.9389 0.0000 0.0000 0.0000
# 2 12048.983816018.868313843.8984 0.0000 0.0000 0.0000
# 3 10439.938913843.898412104.3911 0.0000 0.0000 0.0000
# 4 0.0000 0.0000 0.0000 26.4208 0.0000 0.0000
# 5 0.0000 0.0000 0.0000 0.0000 23.8148 0.0000
# 6 0.0000 0.0000 0.0000 0.0000 0.0000 35.1496
#
#
#
# Elastic Compliance Matrix: (Units=1/GPa)
#
#
# Indices 1 2 3 4 5 6 
#
# 1 0.021446 -0.012572 -0.004118 0.000000 0.000000 0.000000
# 2 -0.012572 0.012762 -0.003752 0.000000 0.000000 0.000000
# 3 -0.004118 -0.003752 0.007926 0.000000 0.000000 0.000000
# 4 0.000000 0.000000 0.000000 0.037849 0.000000 0.000000
# 5 0.000000 0.000000 0.000000 0.000000 0.041991 0.000000
# 6 0.000000 0.000000 0.000000 0.000000 0.000000 0.028450
#
#
# Mechanical properties :
#
#
# Convention : Reuss Voigt Hill
#
# Bulk Modulus (GPa) = 800.92455 12211.51517 6506.21986
# Shear Modulus (GPa) = 26.07925 77.42189 51.75057
#
# Velocity S-wave (km/s) = 3.59394 6.19234 5.06268
# Velocity P-wave (km/s) = 20.34450 78.09718 57.06605
#
# Compressibility (1/GPa) = 0.00124856
#
# Stress axis : x y z
#
# Youngs Moduli (GPa) = 46.62922 78.36013 126.17235
#
# Poissons Ratio (x) = 0.98516 0.51957
# Poissons Ratio (y) = 0.58623 0.47342
# Poissons Ratio (z) = 0.19202 0.29402
#
# Static dielectric constant tensor:
#      x y z
#    x 1.739370 0.000000 0.000000 
#    y 0.000000 1.758810 0.000000 
#    z 0.000000 0.000000 1.722940 
# 
# From -- ./inp_files/5285.got.cif
#   From: 2010.05.17/outbox.cif.g08.bks.cpg/sg33_3_cif.got.tgz:5285.got - 2010.06.03 17:15:25.
