data_PCOD9344208
_publ_section_title
;
Structure prediction by ZEFSAII (Michael W. Deem and Ramdas Pophale) SiO2 
 PCOD9344208
Probable space group: P B A 2
;
_chemical_formula_sum "Si O2"
_cell_formula_units_Z 18
_cell_length_a 14.333321
_cell_length_b 10.654211
_cell_length_c 5.120195
_cell_angle_alpha 90.000000
_cell_angle_beta 90.000000
_cell_angle_gamma 90.000000
_cell_volume 781.906137
_symmetry_space_group_name_H-M "P B A 2"
_symmetry_group_IT_number 32
_symmetry_cell_setting 'orthorhombic'
loop_
_space_group_symop_operation_xyz
x,y,z
-x,-y,z
1/2-x,1/2+y,z
1/2+x,1/2-y,z
loop_
_atom_site_type_symbol
_atom_site_label
_atom_site_fract_x
_atom_site_fract_y
_atom_site_fract_z
Si Si1 0.000000 0.500000 0.312160
Si Si2 0.858776 0.337797 0.633860
Si Si3 0.169753 0.059701 0.847353
Si Si4 0.625543 0.602597 0.345361
Si Si5 0.016588 0.246621 0.027260
O O1 0.916790 0.444027 0.484425
O O2 0.963294 0.616716 0.143541
O O3 0.773470 0.395849 0.786884
O O4 0.823902 0.232072 0.430206
O O5 0.932573 0.269533 0.823856
O O6 0.103759 0.178354 0.901582
O O7 0.129721 0.985766 0.597056
O O8 0.167633 0.970347 0.099967
O O9 0.524783 0.653922 0.249809
#
# Coordination Sequence:
#
# PCOD9344208 Si02
#       5
#     2   4   4   4   4
#     4  10  26  48  78 112 170 200 266 320 404 466
#     4  11  27  51  76 117 160 208 260 326 396 471
#     4  12  29  47  84 112 155 209 263 324 393 473
#     4  11  27  48  79 114 153 195 268 321 387 462
#     4  11  26  50  80 114 157 210 258 334 388 468
#
# _framework density 23.020664
#
# number of rings (size 3 to 8) (size 9 to 14) (size 15 to 20)
#    0.000    0.889    2.222    1.333   15.556    5.333 
#    0.000    0.000    0.000    0.000    0.000    0.000 
#    0.000    0.000    0.000    0.000    0.000    0.000 
#
# Total GULP energy -100893.617990 kJ/mol
# GULP energy per Si atom -5605.200999 kJ/mol
# Density = 2.296827 g / cm^3
# Si number density = 23.020664 Si / 1000 Ang^3
#
#
#
# Elastic Constant Matrix: (Units=GPa)
#
#
# Indices 1 2 3 4 5 6 
#
# 1 105.5816 108.4457 67.2972 0.0000 0.0000 0.0000
# 2 108.4457 190.0412 106.6064 0.0000 0.0000 0.0000
# 3 67.2972 106.6064 170.5466 0.0000 0.0000 0.0000
# 4 0.0000 0.0000 0.0000 70.1025 0.0000 0.0000
# 5 0.0000 0.0000 0.0000 0.0000 57.3139 0.0000
# 6 0.0000 0.0000 0.0000 0.0000 0.0000 5.7263
#
#
#
# Elastic Compliance Matrix: (Units=1/GPa)
#
#
# Indices 1 2 3 4 5 6 
#
# 1 0.023084 -0.012417 -0.001347 0.000000 0.000000 0.000000
# 2 -0.012417 0.014783 -0.004341 0.000000 0.000000 0.000000
# 3 -0.001347 -0.004341 0.009108 0.000000 0.000000 0.000000
# 4 0.000000 0.000000 0.000000 0.014265 0.000000 0.000000
# 5 0.000000 0.000000 0.000000 0.000000 0.017448 0.000000
# 6 0.000000 0.000000 0.000000 0.000000 0.000000 0.174633
#
#
# Mechanical properties :
#
#
# Convention : Reuss Voigt Hill
#
# Bulk Modulus (GPa) = 92.89178 114.54090 103.71634
# Shear Modulus (GPa) = 17.05795 38.88323 27.97059
#
# Velocity S-wave (km/s) = 2.72506 4.11427 3.48950
# Velocity P-wave (km/s) = 7.09509 8.51078 7.83498
#
# Compressibility (1/GPa) = 0.01076522
#
# Stress axis : x y z
#
# Youngs Moduli (GPa) = 43.32065 67.64710 109.78833
#
# Poissons Ratio (x) = 0.83996 0.14790
# Poissons Ratio (y) = 0.53790 0.47656
# Poissons Ratio (z) = 0.05836 0.29364
#
# Static dielectric constant tensor:
#      x y z
#    x 1.822410 0.000000 0.000000 
#    y 0.000000 1.860510 0.000000 
#    z 0.000000 0.000000 1.904240 
# 
# From -- ./inp_files/713.got.cif
#   From: 2010.05.17/outbox.cif.g08.bks.cpg/sg32_1_cif.got.tgz:713.got - 2010.06.03 17:12:27.
