data_PCOD9344700
_publ_section_title
;
Structure prediction by ZEFSAII (Michael W. Deem and Ramdas Pophale) SiO2 
 PCOD9344700
Probable space group: P N A 21
;
_chemical_formula_sum "Si O2"
_cell_formula_units_Z 32
_cell_length_a 13.532313
_cell_length_b 7.760546
_cell_length_c 10.630519
_cell_angle_alpha 90.000000
_cell_angle_beta 90.000000
_cell_angle_gamma 90.000000
_cell_volume 1116.397306
_symmetry_space_group_name_H-M "P N A 21"
_symmetry_group_IT_number 33
_symmetry_cell_setting 'orthorhombic'
loop_
_space_group_symop_operation_xyz
x,y,z
-x,-y,1/2+z
1/2-x,1/2+y,1/2+z
1/2+x,1/2-y,z
loop_
_atom_site_type_symbol
_atom_site_label
_atom_site_fract_x
_atom_site_fract_y
_atom_site_fract_z
Si Si1 0.098205 0.670950 0.993820
Si Si2 0.529963 0.750042 0.263214
Si Si3 0.194020 0.455501 0.802704
Si Si4 0.605510 0.449912 0.933045
Si Si5 0.381075 0.638278 0.808649
Si Si6 0.678559 0.330006 0.591541
Si Si7 0.183422 0.673707 0.452536
Si Si8 0.548082 0.662871 0.643956
O O1 0.103076 0.529199 0.884282
O O2 0.205453 0.646874 0.060672
O O3 0.029314 0.690494 0.118221
O O4 0.092243 0.847584 0.913385
O O5 0.319556 0.839945 0.178857
O O6 0.430119 0.700224 0.338599
O O7 0.575424 0.554164 0.276627
O O8 0.606384 0.866297 0.341331
O O9 0.267107 0.617882 0.768030
O O10 0.262221 0.348954 0.903560
O O11 0.720764 0.441526 0.963837
O O12 0.528936 0.412410 0.042733
O O13 0.373056 0.687550 0.954860
O O14 0.463451 0.745432 0.734224
O O15 0.626898 0.500260 0.656700
O O16 0.116072 0.698924 0.573809
#
# Coordination Sequence:
#
# PCOD9344700 Si02
#       8
#     4   4   4   4   4   4   4   4
#     4  11  21  43  74 108 157 218 287 363 429 517
#     4  10  20  41  70 109 154 207 287 338 430 523
#     4  10  21  40  72 110 152 219 294 357 432 503
#     4  11  23  40  77 114 159 224 279 346 447 528
#     4  10  19  37  67 109 152 225 281 342 436 522
#     4  11  20  39  75 107 158 222 292 364 427 521
#     4  10  21  40  70 118 149 214 286 352 421 525
#     4  11  21  40  73 113 159 227 286 346 440 541
#
# _framework density 28.663630999999999
#
# number of rings (size 3 to 8) (size 9 to 14) (size 15 to 20)
#    0.000    1.500    8.750    0.000    1.750    0.000 
#    0.000    3.750    5.500    1.500    0.000    0.000 
#    0.000    0.250    0.000    0.000    0.000    0.000 
#
# Total GULP energy -178566.377667 kJ/mol
# GULP energy per Si atom -5580.199302 kJ/mol
# Density = 2.859839 g / cm^3
# Si number density = 28.663631 Si / 1000 Ang^3
#
#
#
# Elastic Constant Matrix: (Units=GPa)
#
#
# Indices 1 2 3 4 5 6 
#
# 1 142.4158 24.0435 59.4900 0.0000 0.0000 0.0000
# 2 24.0435 98.2297 59.7765 0.0000 0.0000 0.0000
# 3 59.4900 59.7765 130.2318 0.0000 0.0000 0.0000
# 4 0.0000 0.0000 0.0000 49.3286 0.0000 0.0000
# 5 0.0000 0.0000 0.0000 0.0000 72.4997 0.0000
# 6 0.0000 0.0000 0.0000 0.0000 0.0000 34.6992
#
#
#
# Elastic Compliance Matrix: (Units=1/GPa)
#
#
# Indices 1 2 3 4 5 6 
#
# 1 0.008689 0.000400 -0.004153 0.000000 0.000000 0.000000
# 2 0.000400 0.014144 -0.006675 0.000000 0.000000 0.000000
# 3 -0.004153 -0.006675 0.012640 0.000000 0.000000 0.000000
# 4 0.000000 0.000000 0.000000 0.020272 0.000000 0.000000
# 5 0.000000 0.000000 0.000000 0.000000 0.013793 0.000000
# 6 0.000000 0.000000 0.000000 0.000000 0.000000 0.028819
#
#
# Mechanical properties :
#
#
# Convention : Reuss Voigt Hill
#
# Bulk Modulus (GPa) = 68.41121 73.05525 70.73323
# Shear Modulus (GPa) = 40.29499 46.47664 43.38581
#
# Velocity S-wave (km/s) = 3.75345 4.03109 3.89475
# Velocity P-wave (km/s) = 6.53477 6.87086 6.70492
#
# Compressibility (1/GPa) = 0.01461749
#
# Stress axis : x y z
#
# Youngs Moduli (GPa) = 115.09036 70.69984 79.11669
#
# Poissons Ratio (x) = -0.02831 0.32856
# Poissons Ratio (y) = -0.04609 0.52812
# Poissons Ratio (z) = 0.47795 0.47193
#
# Static dielectric constant tensor:
#      x y z
#    x 2.372880 0.000000 0.000000 
#    y 0.000000 2.420130 0.000000 
#    z 0.000000 0.000000 2.384690 
# 
# From -- ./inp_files/8004.got.cif
#   From: 2010.05.17/outbox.cif.g08.bks.cpg/sg33_5_cif.got.tgz:8004.got - 2010.06.03 17:15:25.
