data_PCOD9344041
_publ_section_title
;
Structure prediction by ZEFSAII (Michael W. Deem and Ramdas Pophale) SiO2 
 PCOD9344041
Probable space group: P B A 2
;
_chemical_formula_sum "Si O2"
_cell_formula_units_Z 26
_cell_length_a 9.689819
_cell_length_b 16.303846
_cell_length_c 8.048391
_cell_angle_alpha 90.000000
_cell_angle_beta 90.000000
_cell_angle_gamma 90.000000
_cell_volume 1271.495408
_symmetry_space_group_name_H-M "P B A 2"
_symmetry_group_IT_number 32
_symmetry_cell_setting 'orthorhombic'
loop_
_space_group_symop_operation_xyz
x,y,z
-x,-y,z
1/2-x,1/2+y,z
1/2+x,1/2-y,z
loop_
_atom_site_type_symbol
_atom_site_label
_atom_site_fract_x
_atom_site_fract_y
_atom_site_fract_z
Si Si1 0.177066 0.050181 0.733240
Si Si2 0.489327 0.678416 0.158674
Si Si3 0.522669 0.690219 0.781248
Si Si4 0.062094 0.635161 0.622224
Si Si5 0.753597 0.613578 0.604469
Si Si6 0.500000 0.500000 0.045527
Si Si7 0.219352 0.733624 0.351912
O O1 0.329326 0.087874 0.736380
O O2 0.073876 0.124274 0.688071
O O3 0.179274 0.974954 0.603745
O O4 0.124105 0.017419 0.912828
O O5 0.520032 0.580992 0.155177
O O6 0.362301 0.702297 0.276101
O O7 0.617792 0.733872 0.210405
O O8 0.463654 0.695772 0.965082
O O9 0.519998 0.777761 0.699394
O O10 0.679204 0.656094 0.764765
O O11 0.143914 0.661622 0.455694
O O12 0.915124 0.592365 0.604388
O O13 0.736091 0.685021 0.467649
#
# Coordination Sequence:
#
# PCOD9344041 Si02
#       7
#     4   4   4   4   4   2   4
#     4  11  21  41  69  94 131 172 237 292 337 404
#     4  11  24  43  65  97 139 179 232 277 356 430
#     4  10  22  40  68  94 131 180 234 286 340 424
#     4  11  24  39  65 101 129 179 232 289 345 409
#     4  11  21  42  62  99 134 172 237 281 345 410
#     4  10  24  44  68 104 128 186 234 282 354 418
#     4  11  25  42  64  98 141 185 220 284 355 427
#
# _framework density 20.448364999999999
#
# number of rings (size 3 to 8) (size 9 to 14) (size 15 to 20)
#    0.000    1.231    4.615    2.308    8.615    1.231 
#    0.000    0.000    0.000    0.000    0.000    0.000 
#    0.000    0.000    0.000    0.000    0.000    0.000 
#
# Total GULP energy -144976.774958 kJ/mol
# GULP energy per Si atom -5576.029806 kJ/mol
# Density = 2.040182 g / cm^3
# Si number density = 20.448365 Si / 1000 Ang^3
#
#
#
# Elastic Constant Matrix: (Units=GPa)
#
#
# Indices 1 2 3 4 5 6 
#
# 1 78.2030 19.8520 14.2600 0.0000 0.0000 0.0000
# 2 19.8520 94.8057 30.2879 0.0000 0.0000 0.0000
# 3 14.2600 30.2879 51.8283 0.0000 0.0000 0.0000
# 4 0.0000 0.0000 0.0000 20.1581 0.0000 0.0000
# 5 0.0000 0.0000 0.0000 0.0000 27.9456 0.0000
# 6 0.0000 0.0000 0.0000 0.0000 0.0000 34.9359
#
#
#
# Elastic Compliance Matrix: (Units=1/GPa)
#
#
# Indices 1 2 3 4 5 6 
#
# 1 0.013782 -0.002059 -0.002589 0.000000 0.000000 0.000000
# 2 -0.002059 0.013277 -0.007192 0.000000 0.000000 0.000000
# 3 -0.002589 -0.007192 0.024210 0.000000 0.000000 0.000000
# 4 0.000000 0.000000 0.000000 0.049608 0.000000 0.000000
# 5 0.000000 0.000000 0.000000 0.000000 0.035784 0.000000
# 6 0.000000 0.000000 0.000000 0.000000 0.000000 0.028624
#
#
# Mechanical properties :
#
#
# Convention : Reuss Voigt Hill
#
# Bulk Modulus (GPa) = 36.24678 39.29296 37.76987
# Shear Modulus (GPa) = 25.23211 27.30373 26.26792
#
# Velocity S-wave (km/s) = 3.51656 3.65807 3.58802
# Velocity P-wave (km/s) = 5.85259 6.09093 5.97295
#
# Compressibility (1/GPa) = 0.02758866
#
# Stress axis : x y z
#
# Youngs Moduli (GPa) = 72.55882 75.31958 41.30546
#
# Poissons Ratio (x) = 0.15507 0.10693
# Poissons Ratio (y) = 0.14939 0.29708
# Poissons Ratio (z) = 0.18784 0.54172
#
# Static dielectric constant tensor:
#      x y z
#    x 1.777110 0.000000 0.000000 
#    y 0.000000 1.785010 0.000000 
#    z 0.000000 0.000000 1.727980 
# 
# From -- ./inp_files/2407.got.cif
#   From: 2010.05.17/outbox.cif.g08.bks.cpg/sg32_2_cif.got.tgz:2407.got - 2010.06.03 17:12:27.
