data_PCOD9344240
_publ_section_title
;
Structure prediction by ZEFSAII (Michael W. Deem and Ramdas Pophale) SiO2 
 PCOD9344240
Probable space group: P B A 2
;
_chemical_formula_sum "Si O2"
_cell_formula_units_Z 26
_cell_length_a 17.866298
_cell_length_b 8.157648
_cell_length_c 8.722308
_cell_angle_alpha 90.000000
_cell_angle_beta 90.000000
_cell_angle_gamma 90.000000
_cell_volume 1271.249964
_symmetry_space_group_name_H-M "P B A 2"
_symmetry_group_IT_number 32
_symmetry_cell_setting 'orthorhombic'
loop_
_space_group_symop_operation_xyz
x,y,z
-x,-y,z
1/2-x,1/2+y,z
1/2+x,1/2-y,z
loop_
_atom_site_type_symbol
_atom_site_label
_atom_site_fract_x
_atom_site_fract_y
_atom_site_fract_z
Si Si1 0.356918 0.089758 0.109180
Si Si2 0.027333 0.734897 0.894420
Si Si3 0.733381 0.210066 0.964052
Si Si4 0.294007 0.378703 0.624025
Si Si5 0.848902 0.456191 0.470778
Si Si6 0.000000 0.500000 0.624716
Si Si7 0.617559 0.434554 0.845867
O O1 0.356384 0.059457 0.288874
O O2 0.437274 0.132263 0.033650
O O3 0.302524 0.243304 0.071462
O O4 0.320066 0.933155 0.024654
O O5 0.035134 0.632679 0.739764
O O6 0.941892 0.791715 0.879174
O O7 0.075457 0.899950 0.888932
O O8 0.761859 0.177052 0.790524
O O9 0.686270 0.378417 0.949299
O O10 0.224218 0.442993 0.525067
O O11 0.334606 0.226137 0.542332
O O12 0.350459 0.526225 0.675233
O O13 0.926267 0.541164 0.527023
#
# Coordination Sequence:
#
# PCOD9344240 Si02
#       7
#     4   4   4   4   4   2   4
#     4  12  24  43  65 106 142 182 225 307 367 426
#     4  11  23  42  67  97 130 177 244 281 348 431
#     4  12  21  41  72  97 131 181 244 275 342 433
#     4  12  21  44  67 101 127 186 235 288 337 443
#     4  12  27  41  69 101 151 176 233 303 378 414
#     4  12  24  44  66 100 130 194 232 294 350 436
#     4  11  22  38  73  97 123 172 243 290 324 413
#
# _framework density 20.452311999999999
#
# number of rings (size 3 to 8) (size 9 to 14) (size 15 to 20)
#    0.000    0.308    6.154    3.692    0.000    1.846 
#    0.000    0.000    6.769    0.000    0.000    0.000 
#    0.000    0.000    0.000    0.000    0.000    0.000 
#
# Total GULP energy -145026.513633 kJ/mol
# GULP energy per Si atom -5577.942832 kJ/mol
# Density = 2.040576 g / cm^3
# Si number density = 20.452312 Si / 1000 Ang^3
#
#
#
# Elastic Constant Matrix: (Units=GPa)
#
#
# Indices 1 2 3 4 5 6 
#
# 1 111.0148 22.9632 53.3262 0.0000 0.0000 0.0000
# 2 22.9632 69.3721 29.7158 0.0000 0.0000 0.0000
# 3 53.3262 29.7158 144.1765 0.0000 0.0000 0.0000
# 4 0.0000 0.0000 0.0000 16.2942 0.0000 0.0000
# 5 0.0000 0.0000 0.0000 0.0000 27.8947 0.0000
# 6 0.0000 0.0000 0.0000 0.0000 0.0000 43.7476
#
#
#
# Elastic Compliance Matrix: (Units=1/GPa)
#
#
# Indices 1 2 3 4 5 6 
#
# 1 0.011233 -0.002126 -0.003716 0.000000 0.000000 0.000000
# 2 -0.002126 0.016213 -0.002555 0.000000 0.000000 0.000000
# 3 -0.003716 -0.002555 0.008837 0.000000 0.000000 0.000000
# 4 0.000000 0.000000 0.000000 0.061372 0.000000 0.000000
# 5 0.000000 0.000000 0.000000 0.000000 0.035849 0.000000
# 6 0.000000 0.000000 0.000000 0.000000 0.000000 0.022858
#
#
# Mechanical properties :
#
#
# Convention : Reuss Voigt Hill
#
# Bulk Modulus (GPa) = 51.31497 59.61929 55.46713
# Shear Modulus (GPa) = 27.83123 32.15784 29.99453
#
# Velocity S-wave (km/s) = 3.69289 3.96957 3.83372
# Velocity P-wave (km/s) = 6.58238 7.08686 6.83927
#
# Compressibility (1/GPa) = 0.01948749
#
# Stress axis : x y z
#
# Youngs Moduli (GPa) = 89.02489 61.67739 113.15831
#
# Poissons Ratio (x) = 0.13114 0.42054
# Poissons Ratio (y) = 0.18929 0.28915
# Poissons Ratio (z) = 0.33085 0.15760
#
# Static dielectric constant tensor:
#      x y z
#    x 1.813000 0.000000 0.000000 
#    y 0.000000 1.793000 0.000000 
#    z 0.000000 0.000000 1.678560 
# 
# From -- ./inp_files/3213.got.cif
#   From: 2010.05.17/outbox.cif.g08.bks.cpg/sg32_2_cif.got.tgz:3213.got - 2010.06.03 17:12:27.
