data_PCOD9344985
_publ_section_title
;
Structure prediction by ZEFSAII (Michael W. Deem and Ramdas Pophale) SiO2 
 PCOD9344985
Probable space group: P N A 21
;
_chemical_formula_sum "Si O2"
_cell_formula_units_Z 32
_cell_length_a 5.472365
_cell_length_b 24.376322
_cell_length_c 10.593486
_cell_angle_alpha 90.000000
_cell_angle_beta 90.000000
_cell_angle_gamma 90.000000
_cell_volume 1413.130050
_symmetry_space_group_name_H-M "P N A 21"
_symmetry_group_IT_number 33
_symmetry_cell_setting 'orthorhombic'
loop_
_space_group_symop_operation_xyz
x,y,z
-x,-y,1/2+z
1/2-x,1/2+y,1/2+z
1/2+x,1/2-y,z
loop_
_atom_site_type_symbol
_atom_site_label
_atom_site_fract_x
_atom_site_fract_y
_atom_site_fract_z
Si Si1 0.300236 0.768559 0.191870
Si Si2 0.830334 0.425749 0.148179
Si Si3 0.961399 0.621080 0.293124
Si Si4 0.027660 0.105058 0.927845
Si Si5 0.255898 0.773195 0.902543
Si Si6 0.913707 0.466766 0.596991
Si Si7 0.539600 0.506532 0.790903
Si Si8 0.395347 0.896826 0.874207
O O1 0.529494 0.735840 0.250868
O O2 0.398540 0.830024 0.198789
O O3 0.257889 0.750746 0.047391
O O4 0.975562 0.472510 0.067851
O O5 0.702033 0.463161 0.251989
O O6 0.991732 0.386935 0.234951
O O7 0.626454 0.394250 0.069424
O O8 0.743477 0.625876 0.395964
O O9 0.950128 0.565167 0.212557
O O10 0.235862 0.626300 0.347919
O O11 0.009143 0.041328 0.889840
O O12 0.503062 0.748032 0.844126
O O13 0.275036 0.839048 0.910595
O O14 0.930717 0.422965 0.483540
O O15 0.655303 0.480460 0.662843
O O16 0.711945 0.553081 0.848533
#
# Coordination Sequence:
#
# PCOD9344985 Si02
#       8
#     4   4   4   4   4   4   4   4
#     4  10  20  38  64  94 123 151 205 272 330 383
#     4  11  24  38  58  93 129 178 215 258 308 400
#     4  11  22  41  62  92 123 169 197 261 325 375
#     4  11  24  39  61  90 133 166 211 250 310 390
#     4  10  23  42  64  96 128 162 215 278 327 383
#     4  10  21  37  58  92 131 164 213 252 322 390
#     4  10  23  35  59  91 127 173 208 259 310 387
#     4  11  23  40  64  90 132 179 210 272 332 386
#
# _framework density 22.644766000000001
#
# number of rings (size 3 to 8) (size 9 to 14) (size 15 to 20)
#    0.000    1.500    3.750    0.750    7.000    0.000 
#    0.000    0.000    0.000    4.500    0.000    0.000 
#    0.000    0.000    0.000    0.000    0.000    0.000 
#
# Total GULP energy -178427.963178 kJ/mol
# GULP energy per Si atom -5575.873849 kJ/mol
# Density = 2.259323 g / cm^3
# Si number density = 22.644766 Si / 1000 Ang^3
#
#
#
# Elastic Constant Matrix: (Units=GPa)
#
#
# Indices 1 2 3 4 5 6 
#
# 1 97.5501 15.8696 13.7012 0.0000 0.0000 0.0000
# 2 15.8696 37.1059 6.6419 0.0000 0.0000 0.0000
# 3 13.7012 6.6419 43.4122 0.0000 0.0000 0.0000
# 4 0.0000 0.0000 0.0000 11.9900 0.0000 0.0000
# 5 0.0000 0.0000 0.0000 0.0000 24.1956 0.0000
# 6 0.0000 0.0000 0.0000 0.0000 0.0000 20.4163
#
#
#
# Elastic Compliance Matrix: (Units=1/GPa)
#
#
# Indices 1 2 3 4 5 6 
#
# 1 0.011368 -0.004338 -0.002924 0.000000 0.000000 0.000000
# 2 -0.004338 0.029364 -0.003123 0.000000 0.000000 0.000000
# 3 -0.002924 -0.003123 0.024436 0.000000 0.000000 0.000000
# 4 0.000000 0.000000 0.000000 0.083403 0.000000 0.000000
# 5 0.000000 0.000000 0.000000 0.000000 0.041330 0.000000
# 6 0.000000 0.000000 0.000000 0.000000 0.000000 0.048980
#
#
# Mechanical properties :
#
#
# Convention : Reuss Voigt Hill
#
# Bulk Modulus (GPa) = 22.52442 27.83261 25.17851
# Shear Modulus (GPa) = 18.21818 20.77742 19.49780
#
# Velocity S-wave (km/s) = 2.83948 3.03237 2.93751
# Velocity P-wave (km/s) = 4.55178 4.95762 4.75903
#
# Compressibility (1/GPa) = 0.04439625
#
# Stress axis : x y z
#
# Youngs Moduli (GPa) = 87.96945 34.05485 40.92370
#
# Poissons Ratio (x) = 0.14774 0.11966
# Poissons Ratio (y) = 0.38164 0.12782
# Poissons Ratio (z) = 0.25722 0.10637
#
# Static dielectric constant tensor:
#      x y z
#    x 1.948500 0.000000 0.000000 
#    y 0.000000 1.820780 0.000000 
#    z 0.000000 0.000000 1.897640 
# 
# From -- ./inp_files/5554.got.cif
#   From: 2010.05.17/outbox.cif.g08.bks.cpg/sg33_3_cif.got.tgz:5554.got - 2010.06.03 17:15:25.
