data_PCOD9344911
_publ_section_title
;
Structure prediction by ZEFSAII (Michael W. Deem and Ramdas Pophale) SiO2 
 PCOD9344911
Probable space group: P N A 21
;
_chemical_formula_sum "Si O2"
_cell_formula_units_Z 28
_cell_length_a 11.027103
_cell_length_b 18.936305
_cell_length_c 5.270296
_cell_angle_alpha 90.000000
_cell_angle_beta 90.000000
_cell_angle_gamma 90.000000
_cell_volume 1100.504135
_symmetry_space_group_name_H-M "P N A 21"
_symmetry_group_IT_number 33
_symmetry_cell_setting 'orthorhombic'
loop_
_space_group_symop_operation_xyz
x,y,z
-x,-y,1/2+z
1/2-x,1/2+y,1/2+z
1/2+x,1/2-y,z
loop_
_atom_site_type_symbol
_atom_site_label
_atom_site_fract_x
_atom_site_fract_y
_atom_site_fract_z
Si Si1 0.086541 0.175568 0.583170
Si Si2 0.110061 0.932350 0.600553
Si Si3 0.226587 0.260233 0.228142
Si Si4 0.575065 0.169463 0.833280
Si Si5 0.188956 0.636495 0.404445
Si Si6 0.827832 0.156007 0.686744
Si Si7 0.165742 0.017203 0.099837
O O1 0.130377 0.199379 0.311372
O O2 0.063274 0.250122 0.727424
O O3 0.199752 0.135524 0.706110
O O4 0.961588 0.133580 0.588904
O O5 0.141705 0.853546 0.494566
O O6 0.966253 0.945241 0.595662
O O7 0.167910 0.964313 0.855862
O O8 0.163867 0.976125 0.363743
O O9 0.302630 0.280234 0.481299
O O10 0.133227 0.317818 0.111973
O O11 0.303967 0.214647 0.027924
O O12 0.448175 0.131103 0.811856
O O13 0.686618 0.132511 0.688271
O O14 0.225765 0.572582 0.586112
#
# Coordination Sequence:
#
# PCOD9344911 Si02
#       7
#     4   4   4   4   4   4   4
#     4  10  20  37  61  92 124 169 221 270 333 403
#     4  10  23  43  68  98 129 173 239 289 342 392
#     4  10  22  35  63  96 134 172 216 273 341 423
#     4  10  22  38  55  93 134 168 209 266 345 422
#     4  11  22  40  63  94 132 173 222 276 343 406
#     4  11  22  40  64  93 132 175 218 281 338 411
#     4  10  23  43  68  98 129 174 235 297 332 397
#
# _framework density 25.442882000000001
#
# number of rings (size 3 to 8) (size 9 to 14) (size 15 to 20)
#    0.000    1.714    1.429    3.429    4.000    3.429 
#    0.000    1.429    0.000    0.000    0.000    0.000 
#    0.000    0.000    0.000    0.000    0.000    0.000 
#
# Total GULP energy -156055.817540 kJ/mol
# GULP energy per Si atom -5573.422055 kJ/mol
# Density = 2.538497 g / cm^3
# Si number density = 25.442882 Si / 1000 Ang^3
#
#
#
# Elastic Constant Matrix: (Units=GPa)
#
#
# Indices 1 2 3 4 5 6 
#
# 1 204.5762 31.7367 35.7471 0.0000 0.0000 0.0000
# 2 31.7367 78.2817 32.0845 0.0000 0.0000 0.0000
# 3 35.7471 32.0845 114.3980 0.0000 0.0000 0.0000
# 4 0.0000 0.0000 0.0000 50.4020 0.0000 0.0000
# 5 0.0000 0.0000 0.0000 0.0000 19.5860 0.0000
# 6 0.0000 0.0000 0.0000 0.0000 0.0000 33.1278
#
#
#
# Elastic Compliance Matrix: (Units=1/GPa)
#
#
# Indices 1 2 3 4 5 6 
#
# 1 0.005359 -0.001679 -0.001204 0.000000 0.000000 0.000000
# 2 -0.001679 0.014960 -0.003671 0.000000 0.000000 0.000000
# 3 -0.001204 -0.003671 0.010147 0.000000 0.000000 0.000000
# 4 0.000000 0.000000 0.000000 0.019840 0.000000 0.000000
# 5 0.000000 0.000000 0.000000 0.000000 0.051057 0.000000
# 6 0.000000 0.000000 0.000000 0.000000 0.000000 0.030186
#
#
# Mechanical properties :
#
#
# Convention : Reuss Voigt Hill
#
# Bulk Modulus (GPa) = 57.60978 66.26584 61.93781
# Shear Modulus (GPa) = 33.23520 40.46901 36.85211
#
# Velocity S-wave (km/s) = 3.61815 3.99254 3.80995
# Velocity P-wave (km/s) = 6.33614 6.88152 6.61445
#
# Compressibility (1/GPa) = 0.01735816
#
# Stress axis : x y z
#
# Youngs Moduli (GPa) = 186.60246 66.84597 98.55059
#
# Poissons Ratio (x) = 0.11226 0.11861
# Poissons Ratio (y) = 0.31336 0.36177
# Poissons Ratio (z) = 0.22459 0.24539
#
# Static dielectric constant tensor:
#      x y z
#    x 1.960720 0.000000 0.000000 
#    y 0.000000 2.455420 0.000000 
#    z 0.000000 0.000000 2.178870 
# 
# From -- ./inp_files/1000.got.cif
#   From: 2010.05.17/outbox.cif.g08.bks.cpg/sg33_1_cif.got.tgz:1000.got - 2010.06.03 17:15:25.
