data_PCOD9344490
_publ_section_title
;
Structure prediction by ZEFSAII (Michael W. Deem and Ramdas Pophale) SiO2 
 PCOD9344490
Probable space group: P N A 21
;
_chemical_formula_sum "Si O2"
_cell_formula_units_Z 32
_cell_length_a 9.555032
_cell_length_b 19.063784
_cell_length_c 8.666371
_cell_angle_alpha 90.000000
_cell_angle_beta 90.000000
_cell_angle_gamma 90.000000
_cell_volume 1578.623383
_symmetry_space_group_name_H-M "P N A 21"
_symmetry_group_IT_number 33
_symmetry_cell_setting 'orthorhombic'
loop_
_space_group_symop_operation_xyz
x,y,z
-x,-y,1/2+z
1/2-x,1/2+y,1/2+z
1/2+x,1/2-y,z
loop_
_atom_site_type_symbol
_atom_site_label
_atom_site_fract_x
_atom_site_fract_y
_atom_site_fract_z
Si Si1 0.048969 0.343138 0.492190
Si Si2 0.034579 0.536352 0.228930
Si Si3 0.185148 0.703838 0.742461
Si Si4 0.067625 0.002297 0.908563
Si Si5 0.658348 0.935404 0.561086
Si Si6 0.336466 0.354891 0.333315
Si Si7 0.095066 0.193836 0.494876
Si Si8 0.336647 0.552712 0.123088
O O1 0.179250 0.367817 0.388771
O O2 0.098598 0.269939 0.568234
O O3 0.014432 0.399378 0.621548
O O4 0.926138 0.321749 0.372908
O O5 0.063820 0.555560 0.406861
O O6 0.188585 0.518836 0.162558
O O7 0.923367 0.474813 0.199221
O O8 0.179233 0.645920 0.608095
O O9 0.160152 0.787774 0.718336
O O10 0.336777 0.700871 0.824622
O O11 0.099740 0.931584 0.808103
O O12 0.068555 0.059511 0.775872
O O13 0.924928 0.987753 0.995388
O O14 0.194898 0.024907 0.021970
O O15 0.434913 0.329614 0.475363
O O16 0.182688 0.132660 0.571862
#
# Coordination Sequence:
#
# PCOD9344490 Si02
#       8
#     4   4   4   4   4   4   4   4
#     4  10  18  36  62  83 114 155 199 242 290 368
#     4  11  22  39  58  87 123 154 201 249 306 357
#     4  10  20  36  62  83 114 157 200 247 303 350
#     4  10  22  38  60  88 120 155 204 242 304 361
#     4  11  24  37  60  90 121 159 199 255 304 364
#     4   9  19  36  57  87 111 152 201 241 286 369
#     4   9  19  35  61  83 110 155 201 236 303 356
#     4  10  22  37  58  85 117 155 193 250 294 357
#
# _framework density 20.270826
#
# number of rings (size 3 to 8) (size 9 to 14) (size 15 to 20)
#    0.000    2.000    2.500    0.750    5.250    0.000 
#    0.000    1.250    5.500    0.000    0.000    0.000 
#    0.000    0.000    0.000    0.000    0.000    0.000 
#
# Total GULP energy -178233.544609 kJ/mol
# GULP energy per Si atom -5569.798269 kJ/mol
# Density = 2.022469 g / cm^3
# Si number density = 20.270826 Si / 1000 Ang^3
#
#
#
# Elastic Constant Matrix: (Units=GPa)
#
#
# Indices 1 2 3 4 5 6 
#
# 1 53.1888 4.1304 9.2215 0.0000 0.0000 0.0000
# 2 4.1304 65.9297 23.4870 0.0000 0.0000 0.0000
# 3 9.2215 23.4870 44.2400 0.0000 0.0000 0.0000
# 4 0.0000 0.0000 0.0000 28.5971 0.0000 0.0000
# 5 0.0000 0.0000 0.0000 0.0000 25.0951 0.0000
# 6 0.0000 0.0000 0.0000 0.0000 0.0000 11.3029
#
#
#
# Elastic Compliance Matrix: (Units=1/GPa)
#
#
# Indices 1 2 3 4 5 6 
#
# 1 0.019510 0.000279 -0.004215 0.000000 0.000000 0.000000
# 2 0.000279 0.018709 -0.009991 0.000000 0.000000 0.000000
# 3 -0.004215 -0.009991 0.028787 0.000000 0.000000 0.000000
# 4 0.000000 0.000000 0.000000 0.034969 0.000000 0.000000
# 5 0.000000 0.000000 0.000000 0.000000 0.039848 0.000000
# 6 0.000000 0.000000 0.000000 0.000000 0.000000 0.088473
#
#
# Mechanical properties :
#
#
# Convention : Reuss Voigt Hill
#
# Bulk Modulus (GPa) = 25.54100 26.33737 25.93919
# Shear Modulus (GPa) = 18.43654 21.43367 19.93511
#
# Velocity S-wave (km/s) = 3.01908 3.25524 3.13938
# Velocity P-wave (km/s) = 4.97799 5.21054 5.09559
#
# Compressibility (1/GPa) = 0.03915274
#
# Stress axis : x y z
#
# Youngs Moduli (GPa) = 51.25571 53.44895 34.73805
#
# Poissons Ratio (x) = -0.01493 0.14642
# Poissons Ratio (y) = -0.01432 0.34707
# Poissons Ratio (z) = 0.21604 0.53401
#
# Static dielectric constant tensor:
#      x y z
#    x 1.746780 0.000000 0.000000 
#    y 0.000000 1.807920 0.000000 
#    z 0.000000 0.000000 1.735570 
# 
# From -- ./inp_files/3478.got.cif
#   From: 2010.05.17/outbox.cif.g08.bks.cpg/sg33_2_cif.got.tgz:3478.got - 2010.06.03 17:15:25.
