data_PCOD9344512
_publ_section_title
;
Structure prediction by ZEFSAII (Michael W. Deem and Ramdas Pophale) SiO2 
 PCOD9344512
Probable space group: P N A 21
;
_chemical_formula_sum "Si O2"
_cell_formula_units_Z 32
_cell_length_a 12.511000
_cell_length_b 10.780180
_cell_length_c 11.087943
_cell_angle_alpha 90.000000
_cell_angle_beta 90.000000
_cell_angle_gamma 90.000000
_cell_volume 1495.440097
_symmetry_space_group_name_H-M "P N A 21"
_symmetry_group_IT_number 33
_symmetry_cell_setting 'orthorhombic'
loop_
_space_group_symop_operation_xyz
x,y,z
-x,-y,1/2+z
1/2-x,1/2+y,1/2+z
1/2+x,1/2-y,z
loop_
_atom_site_type_symbol
_atom_site_label
_atom_site_fract_x
_atom_site_fract_y
_atom_site_fract_z
Si Si1 0.843630 0.591509 0.854470
Si Si2 0.306418 0.439431 0.169889
Si Si3 0.122964 0.256261 0.573689
Si Si4 0.479300 0.125627 0.783988
Si Si5 0.823034 0.157017 0.720330
Si Si6 0.677951 0.411508 0.903755
Si Si7 0.004272 0.994129 0.073038
Si Si8 0.680330 0.122341 0.936980
O O1 0.754679 0.648712 0.765493
O O2 0.777484 0.496577 0.941472
O O3 0.919503 0.505179 0.774118
O O4 0.896857 0.684924 0.943333
O O5 0.319554 0.560219 0.259709
O O6 0.425568 0.403536 0.130072
O O7 0.229803 0.443019 0.053623
O O8 0.051814 0.328370 0.672989
O O9 0.244525 0.279910 0.620368
O O10 0.079811 0.117303 0.555182
O O11 0.390937 0.234728 0.787283
O O12 0.556707 0.108436 0.899354
O O13 0.905292 0.062263 0.659545
O O14 0.751196 0.089134 0.820045
O O15 0.692180 0.271728 0.944302
O O16 0.566497 0.460112 0.956022
#
# Coordination Sequence:
#
# PCOD9344512 Si02
#       8
#     4   4   4   4   4   4   4   4
#     4  10  21  41  58  90 138 162 212 284 335 391
#     4  10  24  41  62  95 130 165 220 276 328 401
#     4  10  21  39  65  92 124 174 219 275 338 399
#     4  10  21  35  67  89 122 168 218 267 335 399
#     4  10  18  39  65  93 118 165 226 266 330 403
#     4  10  22  43  62  92 130 171 211 281 327 391
#     4  11  22  39  71  91 127 175 221 272 336 397
#     4  11  23  39  66  96 125 172 225 273 333 405
#
# _framework density 21.398382999999999
#
# number of rings (size 3 to 8) (size 9 to 14) (size 15 to 20)
#    0.750    1.000    2.500    3.000    5.250    0.000 
#    2.250    1.250    0.000    0.000    0.000    0.000 
#    0.000    0.000    0.000    0.000    0.000    0.000 
#
# Total GULP energy -178179.347938 kJ/mol
# GULP energy per Si atom -5568.104623 kJ/mol
# Density = 2.134968 g / cm^3
# Si number density = 21.398383 Si / 1000 Ang^3
#
#
#
# Elastic Constant Matrix: (Units=GPa)
#
#
# Indices 1 2 3 4 5 6 
#
# 1 109.9073 22.2674 34.3765 0.0000 0.0000 0.0000
# 2 22.2674 38.1024 32.8987 0.0000 0.0000 0.0000
# 3 34.3765 32.8987 78.7099 0.0000 0.0000 0.0000
# 4 0.0000 0.0000 0.0000 16.3890 0.0000 0.0000
# 5 0.0000 0.0000 0.0000 0.0000 34.4549 0.0000
# 6 0.0000 0.0000 0.0000 0.0000 0.0000 25.8976
#
#
#
# Elastic Compliance Matrix: (Units=1/GPa)
#
#
# Indices 1 2 3 4 5 6 
#
# 1 0.010831 -0.003513 -0.003262 0.000000 0.000000 0.000000
# 2 -0.003513 0.042205 -0.016106 0.000000 0.000000 0.000000
# 3 -0.003262 -0.016106 0.020861 0.000000 0.000000 0.000000
# 4 0.000000 0.000000 0.000000 0.061017 0.000000 0.000000
# 5 0.000000 0.000000 0.000000 0.000000 0.029023 0.000000
# 6 0.000000 0.000000 0.000000 0.000000 0.000000 0.038614
#
#
# Mechanical properties :
#
#
# Convention : Reuss Voigt Hill
#
# Bulk Modulus (GPa) = 35.54355 45.08942 40.31649
# Shear Modulus (GPa) = 19.40311 24.49343 21.94827
#
# Velocity S-wave (km/s) = 3.01451 3.38692 3.20613
# Velocity P-wave (km/s) = 5.36309 6.03425 5.70854
#
# Compressibility (1/GPa) = 0.02813450
#
# Stress axis : x y z
#
# Youngs Moduli (GPa) = 92.33119 23.69409 47.93539
#
# Poissons Ratio (x) = 0.08324 0.15636
# Poissons Ratio (y) = 0.32437 0.77205
# Poissons Ratio (z) = 0.30117 0.38162
#
# Static dielectric constant tensor:
#      x y z
#    x 1.855160 0.000000 0.000000 
#    y 0.000000 1.838090 0.000000 
#    z 0.000000 0.000000 1.813910 
# 
# From -- ./inp_files/6485.got.cif
#   From: 2010.05.17/outbox.cif.g08.bks.cpg/sg33_4_cif.got.tgz:6485.got - 2010.06.03 17:15:25.
