data_PCOD9344444
_publ_section_title
;
Structure prediction by ZEFSAII (Michael W. Deem and Ramdas Pophale) SiO2 
 PCOD9344444
Probable space group: P N A 21
;
_chemical_formula_sum "Si O2"
_cell_formula_units_Z 20
_cell_length_a 12.256377
_cell_length_b 12.464193
_cell_length_c 4.806048
_cell_angle_alpha 90.000000
_cell_angle_beta 90.000000
_cell_angle_gamma 90.000000
_cell_volume 734.200000
_symmetry_space_group_name_H-M "P N A 21"
_symmetry_group_IT_number 33
_symmetry_cell_setting 'orthorhombic'
loop_
_space_group_symop_operation_xyz
x,y,z
-x,-y,1/2+z
1/2-x,1/2+y,1/2+z
1/2+x,1/2-y,z
loop_
_atom_site_type_symbol
_atom_site_label
_atom_site_fract_x
_atom_site_fract_y
_atom_site_fract_z
Si Si1 0.252428 0.527960 0.853800
Si Si2 0.943986 0.707486 0.640619
Si Si3 0.047197 0.935175 0.606909
Si Si4 0.366263 0.103000 0.823663
Si Si5 0.198284 0.245288 0.612476
O O1 0.334308 0.437042 0.956340
O O2 0.219286 0.549771 0.539689
O O3 0.319371 0.632821 0.953128
O O4 0.144692 0.532185 0.046296
O O5 0.017302 0.814271 0.692889
O O6 0.027734 0.624555 0.501918
O O7 0.867751 0.676659 0.903645
O O8 0.861574 0.739978 0.398992
O O9 0.034219 0.011902 0.877047
O O10 0.323434 0.218754 0.700138
#
# Coordination Sequence:
#
# PCOD9344444 Si02
#       5
#     4   4   4   4   4
#     4  10  18  33  47  67 114 130 154 211 255 298
#     4  12  20  31  54  77 101 139 170 199 265 318
#     4  12  18  30  50  78 104 130 156 204 270 318
#     4  10  20  33  46  73 106 135 172 200 246 321
#     4  10  18  33  47  71 107 132 162 212 246 299
#
# _framework density 27.240535000000001
#
# number of rings (size 3 to 8) (size 9 to 14) (size 15 to 20)
#    1.200    0.000    6.000    2.400    0.000    0.000 
#    0.000    0.000    0.000    0.000    0.000    5.600 
#    0.000    0.000    0.000    0.000    0.000    0.000 
#
# Total GULP energy -111569.283009 kJ/mol
# GULP energy per Si atom -5578.464150 kJ/mol
# Density = 2.717853 g / cm^3
# Si number density = 27.240535 Si / 1000 Ang^3
#
#
#
# Elastic Constant Matrix: (Units=GPa)
#
#
# Indices 1 2 3 4 5 6 
#
# 1 116.1704 54.6222 28.3906 0.0000 0.0000 0.0000
# 2 54.6222 71.6013 15.2890 0.0000 0.0000 0.0000
# 3 28.3906 15.2890 163.1982 0.0000 0.0000 0.0000
# 4 0.0000 0.0000 0.0000 13.1774 0.0000 0.0000
# 5 0.0000 0.0000 0.0000 0.0000 18.2386 0.0000
# 6 0.0000 0.0000 0.0000 0.0000 0.0000 29.7745
#
#
#
# Elastic Compliance Matrix: (Units=1/GPa)
#
#
# Indices 1 2 3 4 5 6 
#
# 1 0.013745 -0.010179 -0.001438 0.000000 0.000000 0.000000
# 2 -0.010179 0.021789 -0.000271 0.000000 0.000000 0.000000
# 3 -0.001438 -0.000271 0.006403 0.000000 0.000000 0.000000
# 4 0.000000 0.000000 0.000000 0.075887 0.000000 0.000000
# 5 0.000000 0.000000 0.000000 0.000000 0.054829 0.000000
# 6 0.000000 0.000000 0.000000 0.000000 0.000000 0.033586
#
#
# Mechanical properties :
#
#
# Convention : Reuss Voigt Hill
#
# Bulk Modulus (GPa) = 55.05578 60.84151 57.94864
# Shear Modulus (GPa) = 21.18034 29.08266 25.13150
#
# Velocity S-wave (km/s) = 2.79145 3.27100 3.04069
# Velocity P-wave (km/s) = 5.53574 6.05387 5.80059
#
# Compressibility (1/GPa) = 0.01816340
#
# Stress axis : x y z
#
# Youngs Moduli (GPa) = 72.75152 45.89440 156.17796
#
# Poissons Ratio (x) = 0.46716 0.22452
# Poissons Ratio (y) = 0.74053 0.04225
# Poissons Ratio (z) = 0.10459 0.01241
#
# Static dielectric constant tensor:
#      x y z
#    x 2.220370 0.000000 0.000000 
#    y 0.000000 2.372980 0.000000 
#    z 0.000000 0.000000 2.064070 
# 
# From -- ./inp_files/1441.got.cif
#   From: 2010.05.17/outbox.cif.g08.bks.cpg/sg33_1_cif.got.tgz:1441.got - 2010.06.03 17:15:25.
