data_PCOD9344186
_publ_section_title
;
Structure prediction by ZEFSAII (Michael W. Deem and Ramdas Pophale) SiO2 
 PCOD9344186
Probable space group: P B A 2
;
_chemical_formula_sum "Si O2"
_cell_formula_units_Z 28
_cell_length_a 23.520302
_cell_length_b 8.645481
_cell_length_c 6.170997
_cell_angle_alpha 90.000000
_cell_angle_beta 90.000000
_cell_angle_gamma 90.000000
_cell_volume 1254.837214
_symmetry_space_group_name_H-M "P B A 2"
_symmetry_group_IT_number 32
_symmetry_cell_setting 'orthorhombic'
loop_
_space_group_symop_operation_xyz
x,y,z
-x,-y,z
1/2-x,1/2+y,z
1/2+x,1/2-y,z
loop_
_atom_site_type_symbol
_atom_site_label
_atom_site_fract_x
_atom_site_fract_y
_atom_site_fract_z
Si Si1 0.798797 0.634910 0.214190
Si Si2 0.420096 0.309092 0.030884
Si Si3 0.000000 0.000000 0.707175
Si Si4 0.000000 0.500000 0.682547
Si Si5 0.998684 0.241955 0.387401
Si Si6 0.250948 0.615778 0.530231
Si Si7 0.702444 0.633885 0.847179
Si Si8 0.077602 0.432653 0.053730
O O1 0.787635 0.491272 0.375860
O O2 0.789230 0.781989 0.369063
O O3 0.859000 0.622639 0.095976
O O4 0.751549 0.634983 0.027301
O O5 0.450678 0.349958 0.255886
O O6 0.422557 0.121060 0.048944
O O7 0.458161 0.397758 0.853401
O O8 0.356347 0.356018 0.975690
O O9 0.029440 0.123774 0.547629
O O10 0.030481 0.625469 0.533249
O O11 0.954773 0.592073 0.827431
O O12 0.039878 0.337894 0.228027
O O13 0.289004 0.513608 0.692232
O O14 0.212024 0.722569 0.683963
#
# Coordination Sequence:
#
# PCOD9344186 Si02
#       8
#     4   4   2   2   4   4   4   4
#     4  11  25  47  74 109 149 188 254 310 367 451
#     4  12  25  48  73 109 150 196 245 306 372 451
#     4  12  28  46  72 110 152 192 246 314 384 432
#     4  12  22  48  74 106 142 192 248 302 372 450
#     4  12  25  48  74 107 146 195 245 307 376 447
#     4  10  24  48  71 113 138 201 244 300 388 434
#     4  11  25  48  75 106 151 188 251 308 371 448
#     4  12  24  46  77 108 146 194 254 301 368 458
#
# _framework density 22.313651
#
# number of rings (size 3 to 8) (size 9 to 14) (size 15 to 20)
#    0.000    0.571    4.286    3.000    2.000    6.857 
#   12.857    0.000    0.000    0.000    0.000    0.000 
#    0.000    0.000    0.000    0.000    0.000    0.000 
#
# Total GULP energy -156420.363483 kJ/mol
# GULP energy per Si atom -5586.441553 kJ/mol
# Density = 2.226286 g / cm^3
# Si number density = 22.313651 Si / 1000 Ang^3
#
#
#
# Elastic Constant Matrix: (Units=GPa)
#
#
# Indices 1 2 3 4 5 6 
#
# 1 182.2385 45.9953 83.5241 0.0000 0.0000 0.0000
# 2 45.9953 110.8076 73.7676 0.0000 0.0000 0.0000
# 3 83.5241 73.7676 167.1363 0.0000 0.0000 0.0000
# 4 0.0000 0.0000 0.0000 55.3550 0.0000 0.0000
# 5 0.0000 0.0000 0.0000 0.0000 0.6561 0.0000
# 6 0.0000 0.0000 0.0000 0.0000 0.0000 10.6739
#
#
#
# Elastic Compliance Matrix: (Units=1/GPa)
#
#
# Indices 1 2 3 4 5 6 
#
# 1 0.007172 -0.000837 -0.003215 0.000000 0.000000 0.000000
# 2 -0.000837 0.012877 -0.005265 0.000000 0.000000 0.000000
# 3 -0.003215 -0.005265 0.009914 0.000000 0.000000 0.000000
# 4 0.000000 0.000000 0.000000 0.018065 0.000000 0.000000
# 5 0.000000 0.000000 0.000000 0.000000 1.524160 0.000000
# 6 0.000000 0.000000 0.000000 0.000000 0.000000 0.093687
#
#
# Mechanical properties :
#
#
# Convention : Reuss Voigt Hill
#
# Bulk Modulus (GPa) = 88.26946 96.30627 92.28786
# Shear Modulus (GPa) = 2.96159 30.46334 16.71247
#
# Velocity S-wave (km/s) = 1.15331 3.69892 2.73972
# Velocity P-wave (km/s) = 6.43567 7.84198 7.17337
#
# Compressibility (1/GPa) = 0.01132895
#
# Stress axis : x y z
#
# Youngs Moduli (GPa) = 139.43289 77.65602 100.87196
#
# Poissons Ratio (x) = 0.06499 0.32427
# Poissons Ratio (y) = 0.11669 0.53112
# Poissons Ratio (z) = 0.44823 0.40888
#
# Static dielectric constant tensor:
#      x y z
#    x 1.764710 0.000000 0.000000 
#    y 0.000000 2.028100 0.000000 
#    z 0.000000 0.000000 1.858440 
# 
# From -- ./inp_files/1761.got.cif
#   From: 2010.05.17/outbox.cif.g08.bks.cpg/sg32_1_cif.got.tgz:1761.got - 2010.06.03 17:12:27.
