data_PCOD9344953
_publ_section_title
;
Structure prediction by ZEFSAII (Michael W. Deem and Ramdas Pophale) SiO2 
 PCOD9344953
Probable space group: P N A 21
;
_chemical_formula_sum "Si O2"
_cell_formula_units_Z 32
_cell_length_a 7.979671
_cell_length_b 22.573804
_cell_length_c 8.917277
_cell_angle_alpha 90.000000
_cell_angle_beta 90.000000
_cell_angle_gamma 90.000000
_cell_volume 1606.282742
_symmetry_space_group_name_H-M "P N A 21"
_symmetry_group_IT_number 33
_symmetry_cell_setting 'orthorhombic'
loop_
_space_group_symop_operation_xyz
x,y,z
-x,-y,1/2+z
1/2-x,1/2+y,1/2+z
1/2+x,1/2-y,z
loop_
_atom_site_type_symbol
_atom_site_label
_atom_site_fract_x
_atom_site_fract_y
_atom_site_fract_z
Si Si1 0.355611 0.500446 0.000000
Si Si2 0.367576 0.981172 0.239085
Si Si3 0.064069 0.692798 0.133355
Si Si4 0.626948 0.079227 0.166943
Si Si5 0.440556 0.122010 0.916850
Si Si6 0.896988 0.928313 0.308328
Si Si7 0.956581 0.828193 0.106645
Si Si8 0.231641 0.390733 0.499622
O O1 0.230542 0.518775 0.864847
O O2 0.513743 0.479164 0.903463
O O3 0.289455 0.439395 0.073980
O O4 0.359089 0.544446 0.141713
O O5 0.449717 0.927630 0.331297
O O6 0.263270 0.947621 0.110749
O O7 0.507591 0.021455 0.164532
O O8 0.060866 0.678583 0.310722
O O9 0.022744 0.761307 0.111852
O O10 0.254074 0.674854 0.081578
O O11 0.914505 0.653451 0.061156
O O12 0.674165 0.091537 0.335499
O O13 0.521364 0.128715 0.079248
O O14 0.258718 0.092852 0.907181
O O15 0.985921 0.866608 0.259629
O O16 0.084453 0.861387 0.994708
#
# Coordination Sequence:
#
# PCOD9344953 Si02
#       8
#     4   4   4   4   4   4   4   4
#     4  11  24  37  58  91 132 165 208 258 323 388
#     4  10  20  38  60  89 125 171 210 248 315 397
#     4  10  22  41  70  89 124 165 225 276 315 386
#     4  11  23  38  64  90 131 175 204 264 326 393
#     4   9  21  39  59  89 120 163 218 254 321 378
#     4  11  24  39  59  96 127 165 208 269 317 392
#     4  11  22  41  70  94 119 169 223 267 325 385
#     4  11  22  41  66  96 130 171 216 268 324 385
#
# _framework density 19.921773000000002
#
# number of rings (size 3 to 8) (size 9 to 14) (size 15 to 20)
#    0.000    1.500    3.750    1.500    7.000    0.000 
#    2.250    0.000    8.250    0.000    0.000    0.000 
#    0.000    0.000    0.000    0.000    0.000    0.000 
#
# Total GULP energy -178323.175624 kJ/mol
# GULP energy per Si atom -5572.599238 kJ/mol
# Density = 1.987643 g / cm^3
# Si number density = 19.921773 Si / 1000 Ang^3
#
#
#
# Elastic Constant Matrix: (Units=GPa)
#
#
# Indices 1 2 3 4 5 6 
#
# 1 76.5071 15.4122 24.7936 0.0000 0.0000 0.0000
# 2 15.4122 53.7555 14.4523 0.0000 0.0000 0.0000
# 3 24.7936 14.4523 90.0857 0.0000 0.0000 0.0000
# 4 0.0000 0.0000 0.0000 9.1786 0.0000 0.0000
# 5 0.0000 0.0000 0.0000 0.0000 32.2638 0.0000
# 6 0.0000 0.0000 0.0000 0.0000 0.0000 20.6066
#
#
#
# Elastic Compliance Matrix: (Units=1/GPa)
#
#
# Indices 1 2 3 4 5 6 
#
# 1 0.014894 -0.003311 -0.003568 0.000000 0.000000 0.000000
# 2 -0.003311 0.020177 -0.002326 0.000000 0.000000 0.000000
# 3 -0.003568 -0.002326 0.012456 0.000000 0.000000 0.000000
# 4 0.000000 0.000000 0.000000 0.108950 0.000000 0.000000
# 5 0.000000 0.000000 0.000000 0.000000 0.030994 0.000000
# 6 0.000000 0.000000 0.000000 0.000000 0.000000 0.048528
#
#
# Mechanical properties :
#
#
# Convention : Reuss Voigt Hill
#
# Bulk Modulus (GPa) = 34.34359 36.62937 35.48648
# Shear Modulus (GPa) = 18.93120 23.45581 21.19350
#
# Velocity S-wave (km/s) = 3.08600 3.43504 3.26519
# Velocity P-wave (km/s) = 5.47490 5.84459 5.66276
#
# Compressibility (1/GPa) = 0.02911752
#
# Stress axis : x y z
#
# Youngs Moduli (GPa) = 67.14138 49.56055 80.28487
#
# Poissons Ratio (x) = 0.16409 0.28645
# Poissons Ratio (y) = 0.22230 0.18672
# Poissons Ratio (z) = 0.23956 0.11527
#
# Static dielectric constant tensor:
#      x y z
#    x 1.801830 0.000000 0.000000 
#    y 0.000000 1.707210 0.000000 
#    z 0.000000 0.000000 1.711500 
# 
# From -- ./inp_files/3579.got.cif
#   From: 2010.05.17/outbox.cif.g08.bks.cpg/sg33_2_cif.got.tgz:3579.got - 2010.06.03 17:15:25.
