data_PCOD9344368
_publ_section_title
;
Structure prediction by ZEFSAII (Michael W. Deem and Ramdas Pophale) SiO2 
 PCOD9344368
Probable space group: P N A 21
;
_chemical_formula_sum "Si O2"
_cell_formula_units_Z 32
_cell_length_a 8.048270
_cell_length_b 12.651103
_cell_length_c 13.194607
_cell_angle_alpha 90.000000
_cell_angle_beta 90.000000
_cell_angle_gamma 90.000000
_cell_volume 1343.468192
_symmetry_space_group_name_H-M "P N A 21"
_symmetry_group_IT_number 33
_symmetry_cell_setting 'orthorhombic'
loop_
_space_group_symop_operation_xyz
x,y,z
-x,-y,1/2+z
1/2-x,1/2+y,1/2+z
1/2+x,1/2-y,z
loop_
_atom_site_type_symbol
_atom_site_label
_atom_site_fract_x
_atom_site_fract_y
_atom_site_fract_z
Si Si1 0.124701 0.136294 0.553850
Si Si2 0.149329 0.025925 0.991996
Si Si3 0.746940 0.188240 0.881580
Si Si4 0.274017 0.805945 0.801122
Si Si5 0.454239 0.137066 0.014669
Si Si6 0.068298 0.124662 0.785605
Si Si7 0.042109 0.676136 0.950573
Si Si8 0.994342 0.816747 0.661275
O O1 0.116507 0.106089 0.671355
O O2 0.069551 0.257595 0.530836
O O3 0.307253 0.117023 0.507246
O O4 0.974687 0.069537 0.506241
O O5 0.067951 0.115912 0.065843
O O6 0.341935 0.033065 0.024227
O O7 0.147267 0.054203 0.873536
O O8 0.628154 0.124990 0.957457
O O9 0.849053 0.274447 0.949393
O O10 0.873652 0.122181 0.813790
O O11 0.630374 0.256800 0.809271
O O12 0.146067 0.759147 0.881921
O O13 0.413758 0.867936 0.865312
O O14 0.162048 0.858259 0.713468
O O15 0.358330 0.703113 0.747663
O O16 0.477788 0.197805 0.119680
#
# Coordination Sequence:
#
# PCOD9344368 Si02
#       8
#     4   4   4   4   4   4   4   4
#     4  11  23  42  65  81 119 164 217 255 310 365
#     4  11  23  35  60  95 126 150 203 263 307 366
#     4   9  16  31  57  85 119 158 198 236 297 372
#     4   9  19  32  63  87 117 163 197 237 295 383
#     4  10  16  31  56  88 127 154 182 239 307 366
#     4  10  20  35  59  89 116 163 198 257 307 364
#     4   9  21  42  59  80 112 167 212 252 290 365
#     4  11  16  32  59  97 122 155 187 235 319 377
#
# _framework density 23.818950000000001
#
# number of rings (size 3 to 8) (size 9 to 14) (size 15 to 20)
#    0.000    2.000    5.000    0.750    0.000    3.000 
#    0.000    2.500    0.000    3.000    0.000    0.000 
#    0.000    0.000    0.000    0.000    0.000    0.000 
#
# Total GULP energy -178553.995722 kJ/mol
# GULP energy per Si atom -5579.812366 kJ/mol
# Density = 2.376474 g / cm^3
# Si number density = 23.818950 Si / 1000 Ang^3
#
#
#
# Elastic Constant Matrix: (Units=GPa)
#
#
# Indices 1 2 3 4 5 6 
#
# 1 126.3607 14.4234 46.7248 0.0000 0.0000 0.0000
# 2 14.4234 44.1067 22.3271 0.0000 0.0000 0.0000
# 3 46.7248 22.3271 144.5007 0.0000 0.0000 0.0000
# 4 0.0000 0.0000 0.0000 16.4517 0.0000 0.0000
# 5 0.0000 0.0000 0.0000 0.0000 43.6068 0.0000
# 6 0.0000 0.0000 0.0000 0.0000 0.0000 24.2561
#
#
#
# Elastic Compliance Matrix: (Units=1/GPa)
#
#
# Indices 1 2 3 4 5 6 
#
# 1 0.009093 -0.001611 -0.002691 0.000000 0.000000 0.000000
# 2 -0.001611 0.024882 -0.003324 0.000000 0.000000 0.000000
# 3 -0.002691 -0.003324 0.008304 0.000000 0.000000 0.000000
# 4 0.000000 0.000000 0.000000 0.060784 0.000000 0.000000
# 5 0.000000 0.000000 0.000000 0.000000 0.022932 0.000000
# 6 0.000000 0.000000 0.000000 0.000000 0.000000 0.041227
#
#
# Mechanical properties :
#
#
# Convention : Reuss Voigt Hill
#
# Bulk Modulus (GPa) = 37.00043 53.54652 45.27347
# Shear Modulus (GPa) = 26.11209 32.29580 29.20395
#
# Velocity S-wave (km/s) = 3.31459 3.68623 3.50534
# Velocity P-wave (km/s) = 5.49695 6.37551 5.95246
#
# Compressibility (1/GPa) = 0.02702671
#
# Stress axis : x y z
#
# Youngs Moduli (GPa) = 109.97567 40.19040 120.42183
#
# Poissons Ratio (x) = 0.06475 0.32409
# Poissons Ratio (y) = 0.17719 0.40023
# Poissons Ratio (z) = 0.29598 0.13357
#
# Static dielectric constant tensor:
#      x y z
#    x 1.974170 0.000000 0.000000 
#    y 0.000000 1.989380 0.000000 
#    z 0.000000 0.000000 1.896880 
# 
# From -- ./inp_files/6095.got.cif
#   From: 2010.05.17/outbox.cif.g08.bks.cpg/sg33_4_cif.got.tgz:6095.got - 2010.06.03 17:15:25.
