data_PCOD9344056
_publ_section_title
;
Structure prediction by ZEFSAII (Michael W. Deem and Ramdas Pophale) SiO2 
 PCOD9344056
Probable space group: P B A 2
;
_chemical_formula_sum "Si O2"
_cell_formula_units_Z 18
_cell_length_a 5.173769
_cell_length_b 12.683048
_cell_length_c 12.941376
_cell_angle_alpha 90.000000
_cell_angle_beta 90.000000
_cell_angle_gamma 90.000000
_cell_volume 849.202230
_symmetry_space_group_name_H-M "P B A 2"
_symmetry_group_IT_number 32
_symmetry_cell_setting 'orthorhombic'
loop_
_space_group_symop_operation_xyz
x,y,z
-x,-y,z
1/2-x,1/2+y,z
1/2+x,1/2-y,z
loop_
_atom_site_type_symbol
_atom_site_label
_atom_site_fract_x
_atom_site_fract_y
_atom_site_fract_z
Si Si1 0.255882 0.564904 0.280760
Si Si2 0.283505 0.194711 0.095618
Si Si3 0.000000 0.000000 0.483566
Si Si4 0.500000 0.500000 0.823617
Si Si5 0.088942 0.824201 0.651341
Si Si6 0.500000 0.000000 0.968313
O O1 0.500000 0.500000 0.235146
O O2 0.225241 0.672809 0.218891
O O3 0.309613 0.560281 0.403201
O O4 0.000000 0.500000 0.262473
O O5 0.985693 0.213471 0.067093
O O6 0.416025 0.095914 0.041308
O O7 0.103208 0.907626 0.556755
O O8 0.478599 0.397649 0.749817
O O9 0.247273 0.490411 0.894208
O O10 0.856987 0.739442 0.649231
#
# Coordination Sequence:
#
# PCOD9344056 Si02
#       6
#     4   4   2   2   4   2
#     4  10  22  42  65  91 140 175 220 267 324 394
#     4  12  26  42  68 101 133 178 228 274 331 399
#     4   9  26  41  70  96 140 175 222 265 338 394
#     4  11  26  45  70  96 130 179 214 287 348 396
#     4  11  25  44  69 100 132 169 225 279 334 404
#     4  12  26  46  70  94 138 174 224 284 342 396
#
# _framework density 21.196363000000002
#
# number of rings (size 3 to 8) (size 9 to 14) (size 15 to 20)
#    0.667    0.444    1.111    4.000    4.667    8.889 
#    0.000    0.000    0.000    0.000    0.000    0.000 
#    0.000    0.000    0.000    0.000    0.000    0.000 
#
# Total GULP energy -100355.928728 kJ/mol
# GULP energy per Si atom -5575.329374 kJ/mol
# Density = 2.114812 g / cm^3
# Si number density = 21.196363 Si / 1000 Ang^3
#
#
#
# Elastic Constant Matrix: (Units=GPa)
#
#
# Indices 1 2 3 4 5 6 
#
# 1 134.5993 9.0171 32.9098 0.0000 0.0000 0.0000
# 2 9.0171 63.0342 38.6534 0.0000 0.0000 0.0000
# 3 32.9098 38.6534 116.9378 0.0000 0.0000 0.0000
# 4 0.0000 0.0000 0.0000 11.6018 0.0000 0.0000
# 5 0.0000 0.0000 0.0000 0.0000 7.6572 0.0000
# 6 0.0000 0.0000 0.0000 0.0000 0.0000 35.1252
#
#
#
# Elastic Compliance Matrix: (Units=1/GPa)
#
#
# Indices 1 2 3 4 5 6 
#
# 1 0.007983 0.000296 -0.002344 0.000000 0.000000 0.000000
# 2 0.000296 0.019908 -0.006664 0.000000 0.000000 0.000000
# 3 -0.002344 -0.006664 0.011414 0.000000 0.000000 0.000000
# 4 0.000000 0.000000 0.000000 0.086193 0.000000 0.000000
# 5 0.000000 0.000000 0.000000 0.000000 0.130596 0.000000
# 6 0.000000 0.000000 0.000000 0.000000 0.000000 0.028470
#
#
# Mechanical properties :
#
#
# Convention : Reuss Voigt Hill
#
# Bulk Modulus (GPa) = 45.70342 52.85909 49.28125
# Shear Modulus (GPa) = 16.16645 26.47625 21.32135
#
# Velocity S-wave (km/s) = 2.76470 3.53809 3.17503
# Velocity P-wave (km/s) = 5.63916 6.45621 6.06147
#
# Compressibility (1/GPa) = 0.02188020
#
# Stress axis : x y z
#
# Youngs Moduli (GPa) = 125.26861 50.22984 87.61142
#
# Poissons Ratio (x) = -0.01485 0.20539
# Poissons Ratio (y) = -0.03703 0.58383
# Poissons Ratio (z) = 0.29367 0.33473
#
# Static dielectric constant tensor:
#      x y z
#    x 1.893460 0.000000 0.000000 
#    y 0.000000 1.768490 0.000000 
#    z 0.000000 0.000000 1.825070 
# 
# From -- ./inp_files/3469.got.cif
#   From: 2010.05.17/outbox.cif.g08.bks.cpg/sg32_2_cif.got.tgz:3469.got - 2010.06.03 17:12:27.
