data_PCOD9344287
_publ_section_title
;
Structure prediction by ZEFSAII (Michael W. Deem and Ramdas Pophale) SiO2 
 PCOD9344287
Probable space group: P B A 2
;
_chemical_formula_sum "Si O2"
_cell_formula_units_Z 18
_cell_length_a 16.660361
_cell_length_b 8.494367
_cell_length_c 4.967977
_cell_angle_alpha 90.000000
_cell_angle_beta 90.000000
_cell_angle_gamma 90.000000
_cell_volume 703.064233
_symmetry_space_group_name_H-M "P B A 2"
_symmetry_group_IT_number 32
_symmetry_cell_setting 'orthorhombic'
loop_
_space_group_symop_operation_xyz
x,y,z
-x,-y,z
1/2-x,1/2+y,z
1/2+x,1/2-y,z
loop_
_atom_site_type_symbol
_atom_site_label
_atom_site_fract_x
_atom_site_fract_y
_atom_site_fract_z
Si Si1 0.500000 0.500000 0.988430
Si Si2 0.391461 0.880444 0.424465
Si Si3 0.203622 0.272244 0.923331
Si Si4 0.931854 0.272218 0.365068
Si Si5 0.839869 0.048011 0.763397
O O1 0.576683 0.457813 0.816714
O O2 0.535126 0.649095 0.145541
O O3 0.341521 0.876304 0.698537
O O4 0.481791 0.823479 0.492450
O O5 0.395417 0.056758 0.299652
O O6 0.347252 0.772676 0.199029
O O7 0.214797 0.107181 0.768410
O O8 0.291283 0.345334 0.975574
O O9 0.869170 0.171404 0.540498
#
# Coordination Sequence:
#
# PCOD9344287 Si02
#       5
#     2   4   4   4   4
#     4  12  24  46  76 108 154 210 262 320 396 490
#     4  11  27  50  79 113 159 206 270 331 410 484
#     4  12  28  50  75 119 157 209 264 343 407 485
#     4  11  26  47  78 112 155 213 266 330 399 499
#     4  12  28  47  79 112 161 209 270 332 412 483
#
# _framework density 25.602215999999999
#
# number of rings (size 3 to 8) (size 9 to 14) (size 15 to 20)
#    0.000    0.444    2.222    4.667    9.333    1.778 
#    0.000    0.000    0.000    0.000    0.000    0.000 
#    0.000    0.000    0.000    0.000    0.000    0.000 
#
# Total GULP energy -100377.066316 kJ/mol
# GULP energy per Si atom -5576.503684 kJ/mol
# Density = 2.554394 g / cm^3
# Si number density = 25.602216 Si / 1000 Ang^3
#
#
#
# Elastic Constant Matrix: (Units=GPa)
#
#
# Indices 1 2 3 4 5 6 
#
# 1 96.9211 18.6383 18.0463 0.0000 0.0000 0.0000
# 2 18.6383 143.0075 5.2712 0.0000 0.0000 0.0000
# 3 18.0463 5.2712 73.5116 0.0000 0.0000 0.0000
# 4 0.0000 0.0000 0.0000 21.9821 0.0000 0.0000
# 5 0.0000 0.0000 0.0000 0.0000 29.9789 0.0000
# 6 0.0000 0.0000 0.0000 0.0000 0.0000 -92.9437
#
#
#
# Elastic Compliance Matrix: (Units=1/GPa)
#
#
# Indices 1 2 3 4 5 6 
#
# 1 0.011064 -0.001345 -0.002620 0.000000 0.000000 0.000000
# 2 -0.001345 0.007175 -0.000184 0.000000 0.000000 0.000000
# 3 -0.002620 -0.000184 0.014260 0.000000 0.000000 0.000000
# 4 0.000000 0.000000 0.000000 0.045492 0.000000 0.000000
# 5 0.000000 0.000000 0.000000 0.000000 0.033357 0.000000
# 6 0.000000 0.000000 0.000000 0.000000 0.000000 -0.010759
#
#
# Mechanical properties :
#
#
# Convention : Reuss Voigt Hill
#
# Bulk Modulus (GPa) = 41.32234 44.15021 42.73627
# Shear Modulus (GPa) = 42.75225 9.90243 26.32734
#
# Velocity S-wave (km/s) = 4.09083 1.96881 3.21023
# Velocity P-wave (km/s) = 6.20390 4.73818 5.51991
#
# Compressibility (1/GPa) = 0.02419999
#
# Stress axis : x y z
#
# Youngs Moduli (GPa) = 90.38179 139.37705 70.12824
#
# Poissons Ratio (x) = 0.18752 0.18371
# Poissons Ratio (y) = 0.12160 0.01292
# Poissons Ratio (z) = 0.23677 0.02567
#
# Static dielectric constant tensor:
#      x y z
#    x 2.134240 0.000000 0.000000 
#    y 0.000000 2.305260 0.000000 
#    z 0.000000 0.000000 2.051950 
# 
# From -- ./inp_files/424.got.cif
#   From: 2010.05.17/outbox.cif.g08.bks.cpg/sg32_1_cif.got.tgz:424.got - 2010.06.03 17:12:27.
