data_PCOD9344887
_publ_section_title
;
Structure prediction by ZEFSAII (Michael W. Deem and Ramdas Pophale) SiO2 
 PCOD9344887
Probable space group: P N A 21
;
_chemical_formula_sum "Si O2"
_cell_formula_units_Z 32
_cell_length_a 12.569239
_cell_length_b 15.160042
_cell_length_c 8.076961
_cell_angle_alpha 90.000000
_cell_angle_beta 90.000000
_cell_angle_gamma 90.000000
_cell_volume 1539.066462
_symmetry_space_group_name_H-M "P N A 21"
_symmetry_group_IT_number 33
_symmetry_cell_setting 'orthorhombic'
loop_
_space_group_symop_operation_xyz
x,y,z
-x,-y,1/2+z
1/2-x,1/2+y,1/2+z
1/2+x,1/2-y,z
loop_
_atom_site_type_symbol
_atom_site_label
_atom_site_fract_x
_atom_site_fract_y
_atom_site_fract_z
Si Si1 0.300387 0.934715 0.757780
Si Si2 0.108615 0.819002 0.614423
Si Si3 0.038769 0.051824 0.305924
Si Si4 0.506975 0.835329 0.819288
Si Si5 0.121518 0.194752 0.545220
Si Si6 0.852307 0.059135 0.539829
Si Si7 0.065315 0.782728 0.243537
Si Si8 0.841634 0.378370 0.600836
O O1 0.215998 0.864856 0.681416
O O2 0.419261 0.897804 0.738069
O O3 0.298240 0.030594 0.673069
O O4 0.261062 0.943223 0.949793
O O5 0.109907 0.812793 0.417895
O O6 0.012484 0.881881 0.673248
O O7 0.077796 0.725774 0.698587
O O8 0.097563 0.104325 0.449503
O O9 0.933683 0.018225 0.402544
O O10 0.120585 0.990889 0.209116
O O11 0.433420 0.770279 0.933754
O O12 0.587373 0.888237 0.937195
O O13 0.246027 0.190197 0.566655
O O14 0.059906 0.198794 0.719151
O O15 0.886423 0.158995 0.590455
O O16 0.086173 0.678932 0.225308
#
# Coordination Sequence:
#
# PCOD9344887 Si02
#       8
#     4   4   4   4   4   4   4   4
#     4  11  25  42  65  97 134 171 228 273 335 407
#     4  10  22  40  68  97 125 169 226 272 335 395
#     4   9  19  32  60  94 121 157 204 273 316 376
#     4  10  22  47  64  85 132 179 217 270 337 399
#     4   9  20  39  64  87 122 169 210 261 325 393
#     4  10  20  36  62  94 135 165 211 270 339 392
#     4  10  22  38  63  94 130 163 212 274 334 399
#     4  11  24  42  62  92 127 173 216 269 331 395
#
# _framework density 20.791826
#
# number of rings (size 3 to 8) (size 9 to 14) (size 15 to 20)
#    0.000    2.000    0.000    4.500   10.500    2.000 
#    6.750    1.250    0.000    0.000    0.000    0.000 
#    0.000    0.000    0.000    0.000    0.000    0.000 
#
# Total GULP energy -178375.769880 kJ/mol
# GULP energy per Si atom -5574.242809 kJ/mol
# Density = 2.074450 g / cm^3
# Si number density = 20.791826 Si / 1000 Ang^3
#
#
#
# Elastic Constant Matrix: (Units=GPa)
#
#
# Indices 1 2 3 4 5 6 
#
# 1 92.4499 29.3277 27.1691 0.0000 0.0000 0.0000
# 2 29.3277 58.6271 29.0365 0.0000 0.0000 0.0000
# 3 27.1691 29.0365 82.6432 0.0000 0.0000 0.0000
# 4 0.0000 0.0000 0.0000 14.0870 0.0000 0.0000
# 5 0.0000 0.0000 0.0000 0.0000 19.3412 0.0000
# 6 0.0000 0.0000 0.0000 0.0000 0.0000 26.7249
#
#
#
# Elastic Compliance Matrix: (Units=1/GPa)
#
#
# Indices 1 2 3 4 5 6 
#
# 1 0.013256 -0.005415 -0.002455 0.000000 0.000000 0.000000
# 2 -0.005415 0.022863 -0.006252 0.000000 0.000000 0.000000
# 3 -0.002455 -0.006252 0.015104 0.000000 0.000000 0.000000
# 4 0.000000 0.000000 0.000000 0.070988 0.000000 0.000000
# 5 0.000000 0.000000 0.000000 0.000000 0.051703 0.000000
# 6 0.000000 0.000000 0.000000 0.000000 0.000000 0.037418
#
#
# Mechanical properties :
#
#
# Convention : Reuss Voigt Hill
#
# Bulk Modulus (GPa) = 43.52205 44.97631 44.24918
# Shear Modulus (GPa) = 20.22353 21.90974 21.06664
#
# Velocity S-wave (km/s) = 3.12215 3.24970 3.18656
# Velocity P-wave (km/s) = 5.82879 5.97992 5.90484
#
# Compressibility (1/GPa) = 0.02297686
#
# Stress axis : x y z
#
# Youngs Moduli (GPa) = 75.43708 43.73973 66.20681
#
# Poissons Ratio (x) = 0.23686 0.16256
# Poissons Ratio (y) = 0.40850 0.41395
# Poissons Ratio (z) = 0.18522 0.27348
#
# Static dielectric constant tensor:
#      x y z
#    x 1.803030 0.000000 0.000000 
#    y 0.000000 1.794740 0.000000 
#    z 0.000000 0.000000 1.762110 
# 
# From -- ./inp_files/3954.got.cif
#   From: 2010.05.17/outbox.cif.g08.bks.cpg/sg33_2_cif.got.tgz:3954.got - 2010.06.03 17:15:25.
