data_PCOD9344113
_publ_section_title
;
Structure prediction by ZEFSAII (Michael W. Deem and Ramdas Pophale) SiO2 
 PCOD9344113
Probable space group: P B A 2
;
_chemical_formula_sum "Si O2"
_cell_formula_units_Z 26
_cell_length_a 12.219566
_cell_length_b 11.129099
_cell_length_c 8.664498
_cell_angle_alpha 90.000000
_cell_angle_beta 90.000000
_cell_angle_gamma 90.000000
_cell_volume 1178.308995
_symmetry_space_group_name_H-M "P B A 2"
_symmetry_group_IT_number 32
_symmetry_cell_setting 'orthorhombic'
loop_
_space_group_symop_operation_xyz
x,y,z
-x,-y,z
1/2-x,1/2+y,z
1/2+x,1/2-y,z
loop_
_atom_site_type_symbol
_atom_site_label
_atom_site_fract_x
_atom_site_fract_y
_atom_site_fract_z
Si Si1 0.308299 0.054207 0.587900
Si Si2 0.296881 0.302255 0.479529
Si Si3 0.500000 0.000000 0.375660
Si Si4 0.549014 0.631672 0.718374
Si Si5 0.846628 0.680922 0.192684
Si Si6 0.760082 0.541965 0.899330
Si Si7 0.424409 0.617555 0.008072
O O1 0.247519 0.182367 0.564339
O O2 0.248207 0.935699 0.521633
O O3 0.415705 0.067218 0.486044
O O4 0.331295 0.018812 0.764626
O O5 0.417910 0.309794 0.556836
O O6 0.258392 0.290728 0.301689
O O7 0.426473 0.912070 0.275297
O O8 0.500000 0.500000 0.685913
O O9 0.663636 0.615178 0.811119
O O10 0.467705 0.681414 0.850422
O O11 0.917701 0.797702 0.153542
O O12 0.811844 0.624022 0.029392
O O13 0.696649 0.432383 0.980019
O O14 0.500000 0.500000 0.030915
#
# Coordination Sequence:
#
# PCOD9344113 Si02
#       7
#     4   4   2   4   4   4   4
#     4  10  23  45  65  95 132 181 230 273 343 428
#     4  10  23  42  68  97 136 178 225 284 357 415
#     4  10  26  44  54 100 136 170 226 280 356 412
#     4   8  18  42  62  99 126 169 228 272 326 417
#     4  11  24  42  67 100 140 175 226 297 355 415
#     4   9  21  39  70  93 128 176 227 276 341 413
#     4   9  21  41  69  99 132 169 236 279 342 416
#
# _framework density 22.065518000000001
#
# number of rings (size 3 to 8) (size 9 to 14) (size 15 to 20)
#    0.000    2.769    0.000    0.000    8.615    5.538 
#   13.846    3.077    0.000    0.000    0.000    0.000 
#    0.000    0.000    0.000    0.000    0.000    0.000 
#
# Total GULP energy -144751.123087 kJ/mol
# GULP energy per Si atom -5567.350888 kJ/mol
# Density = 2.201530 g / cm^3
# Si number density = 22.065518 Si / 1000 Ang^3
#
#
#
# Elastic Constant Matrix: (Units=GPa)
#
#
# Indices 1 2 3 4 5 6 
#
# 1 45.8411 22.0290 35.8657 0.0000 0.0000 0.0000
# 2 22.0290 106.8567 56.7160 0.0000 0.0000 0.0000
# 3 35.8657 56.7160 121.6814 0.0000 0.0000 0.0000
# 4 0.0000 0.0000 0.0000 98.9425 0.0000 0.0000
# 5 0.0000 0.0000 0.0000 0.0000 26.4746 0.0000
# 6 0.0000 0.0000 0.0000 0.0000 0.0000 15.4851
#
#
#
# Elastic Compliance Matrix: (Units=1/GPa)
#
#
# Indices 1 2 3 4 5 6 
#
# 1 0.028638 -0.001892 -0.007559 0.000000 0.000000 0.000000
# 2 -0.001892 0.012559 -0.005296 0.000000 0.000000 0.000000
# 3 -0.007559 -0.005296 0.012915 0.000000 0.000000 0.000000
# 4 0.000000 0.000000 0.000000 0.010107 0.000000 0.000000
# 5 0.000000 0.000000 0.000000 0.000000 0.037772 0.000000
# 6 0.000000 0.000000 0.000000 0.000000 0.000000 0.064578
#
#
# Mechanical properties :
#
#
# Convention : Reuss Voigt Hill
#
# Bulk Modulus (GPa) = 40.62146 55.95563 48.28854
# Shear Modulus (GPa) = 24.47741 38.83169 31.65455
#
# Velocity S-wave (km/s) = 3.33424 4.19959 3.79168
# Velocity P-wave (km/s) = 5.76821 6.99495 6.41099
#
# Compressibility (1/GPa) = 0.02461753
#
# Stress axis : x y z
#
# Youngs Moduli (GPa) = 34.91884 79.62122 77.42932
#
# Poissons Ratio (x) = 0.15061 0.58532
# Poissons Ratio (y) = 0.06605 0.41010
# Poissons Ratio (z) = 0.26396 0.42171
#
# Static dielectric constant tensor:
#      x y z
#    x 1.887680 0.000000 0.000000 
#    y 0.000000 1.859550 0.000000 
#    z 0.000000 0.000000 1.852600 
# 
# From -- ./inp_files/2754.got.cif
#   From: 2010.05.17/outbox.cif.g08.bks.cpg/sg32_2_cif.got.tgz:2754.got - 2010.06.03 17:12:27.
