data_PCOD9344319
_publ_section_title
;
Structure prediction by ZEFSAII (Michael W. Deem and Ramdas Pophale) SiO2 
 PCOD9344319
Probable space group: P B A 2
;
_chemical_formula_sum "Si O2"
_cell_formula_units_Z 14
_cell_length_a 5.442093
_cell_length_b 10.732652
_cell_length_c 8.618060
_cell_angle_alpha 90.000000
_cell_angle_beta 90.000000
_cell_angle_gamma 90.000000
_cell_volume 503.364427
_symmetry_space_group_name_H-M "P B A 2"
_symmetry_group_IT_number 32
_symmetry_cell_setting 'orthorhombic'
loop_
_space_group_symop_operation_xyz
x,y,z
-x,-y,z
1/2-x,1/2+y,z
1/2+x,1/2-y,z
loop_
_atom_site_type_symbol
_atom_site_label
_atom_site_fract_x
_atom_site_fract_y
_atom_site_fract_z
Si Si1 0.000000 0.500000 0.866441
Si Si2 0.286402 0.312988 0.658406
Si Si3 0.715865 0.833886 0.135336
Si Si4 0.749183 0.538054 0.409549
O O1 0.801333 0.572865 0.764715
O O2 0.848647 0.404739 0.976594
O O3 0.563416 0.279900 0.697311
O O4 0.260843 0.319762 0.466710
O O5 0.470659 0.744963 0.151359
O O6 0.742229 0.951034 0.256794
O O7 0.500000 0.500000 0.490807
O O8 0.000000 0.500000 0.487787
#
# Coordination Sequence:
#
# PCOD9344319 Si02
#       4
#     2   4   4   4
#     4  12  28  56  76 120 156 208 260 318 376 486
#     4  12  29  52  80 115 157 206 257 320 391 454
#     4  12  29  52  80 115 157 206 257 320 391 454
#     4  12  26  52  78 118 154 200 264 324 376 470
#
# _framework density 27.812850000000001
#
# number of rings (size 3 to 8) (size 9 to 14) (size 15 to 20)
#    0.000    0.000    2.857    5.143    0.000    9.143 
#    0.000    0.000    0.000    0.000    0.000    0.000 
#    0.000    0.000    0.000    0.000    0.000    0.000 
#
# Total GULP energy -77962.604651 kJ/mol
# GULP energy per Si atom -5568.757475 kJ/mol
# Density = 2.774955 g / cm^3
# Si number density = 27.812850 Si / 1000 Ang^3
#
#
#
# Elastic Constant Matrix: (Units=GPa)
#
#
# Indices 1 2 3 4 5 6 
#
# 1 195.3827 62.2823 47.4944 0.0000 0.0000 0.0000
# 2 62.2823 114.6602 93.5747 0.0000 0.0000 0.0000
# 3 47.4944 93.5747 175.7076 0.0000 0.0000 0.0000
# 4 0.0000 0.0000 0.0000 54.8540 0.0000 0.0000
# 5 0.0000 0.0000 0.0000 0.0000 143.5383 0.0000
# 6 0.0000 0.0000 0.0000 0.0000 0.0000 60.8380
#
#
#
# Elastic Compliance Matrix: (Units=1/GPa)
#
#
# Indices 1 2 3 4 5 6 
#
# 1 0.006194 -0.003534 0.000208 0.000000 0.000000 0.000000
# 2 -0.003534 0.017443 -0.008334 0.000000 0.000000 0.000000
# 3 0.000208 -0.008334 0.010073 0.000000 0.000000 0.000000
# 4 0.000000 0.000000 0.000000 0.018230 0.000000 0.000000
# 5 0.000000 0.000000 0.000000 0.000000 0.006967 0.000000
# 6 0.000000 0.000000 0.000000 0.000000 0.000000 0.016437
#
#
# Mechanical properties :
#
#
# Convention : Reuss Voigt Hill
#
# Bulk Modulus (GPa) = 96.25010 99.16148 97.70579
# Shear Modulus (GPa) = 48.95820 70.67265 59.81543
#
# Velocity S-wave (km/s) = 4.20011 5.04631 4.64253
# Velocity P-wave (km/s) = 7.62907 8.34770 7.99646
#
# Compressibility (1/GPa) = 0.01038960
#
# Stress axis : x y z
#
# Youngs Moduli (GPa) = 161.43963 57.33115 99.27198
#
# Poissons Ratio (x) = 0.20263 -0.02064
# Poissons Ratio (y) = 0.57058 0.82732
# Poissons Ratio (z) = -0.03357 0.47779
#
# Static dielectric constant tensor:
#      x y z
#    x 2.064840 0.000000 0.000000 
#    y 0.000000 2.553020 0.000000 
#    z 0.000000 0.000000 2.163140 
# 
# From -- ./inp_files/1859.got.cif
#   From: 2010.05.17/outbox.cif.g08.bks.cpg/sg32_1_cif.got.tgz:1859.got - 2010.06.03 17:12:27.
