data_PCOD9344258
_publ_section_title
;
Structure prediction by ZEFSAII (Michael W. Deem and Ramdas Pophale) SiO2 
 PCOD9344258
Probable space group: P B A 2
;
_chemical_formula_sum "Si O2"
_cell_formula_units_Z 22
_cell_length_a 9.122010
_cell_length_b 13.526425
_cell_length_c 7.899873
_cell_angle_alpha 90.000000
_cell_angle_beta 90.000000
_cell_angle_gamma 90.000000
_cell_volume 974.750984
_symmetry_space_group_name_H-M "P B A 2"
_symmetry_group_IT_number 32
_symmetry_cell_setting 'orthorhombic'
loop_
_space_group_symop_operation_xyz
x,y,z
-x,-y,z
1/2-x,1/2+y,z
1/2+x,1/2-y,z
loop_
_atom_site_type_symbol
_atom_site_label
_atom_site_fract_x
_atom_site_fract_y
_atom_site_fract_z
Si Si1 0.000000 0.000000 0.930501
Si Si2 0.751968 0.153467 0.615643
Si Si3 0.286723 0.572222 0.653508
Si Si4 0.465451 0.199342 0.780831
Si Si5 0.624885 0.687245 0.111671
Si Si6 0.137499 0.219944 0.345453
O O1 0.903595 0.928139 0.808688
O O2 0.106819 0.925522 0.036826
O O3 0.637463 0.178312 0.765347
O O4 0.894734 0.219847 0.650494
O O5 0.651419 0.181869 0.457299
O O6 0.791332 0.040983 0.601868
O O7 0.131843 0.604150 0.734040
O O8 0.311960 0.638497 0.485473
O O9 0.431855 0.242139 0.963362
O O10 0.765558 0.745757 0.184683
O O11 0.516415 0.688152 0.271870
#
# Coordination Sequence:
#
# PCOD9344258 Si02
#       6
#     2   4   4   4   4   4
#     4  12  26  42  78 102 136 190 250 276 350 428
#     4  11  23  45  70 100 138 193 235 282 340 444
#     4  11  25  44  74 101 134 196 241 276 342 446
#     4  11  23  45  70  98 141 184 237 281 351 413
#     4  12  25  45  67 106 142 177 225 308 350 400
#     4  11  26  42  71 101 149 175 228 297 365 399
#
# _framework density 22.569866999999999
#
# number of rings (size 3 to 8) (size 9 to 14) (size 15 to 20)
#    0.000    0.727    1.818    7.091    5.091    0.000 
#    0.000    0.000    0.000    0.000    0.000    0.000 
#    0.000    0.000    0.000    0.000    0.000    0.000 
#
# Total GULP energy -122740.297525 kJ/mol
# GULP energy per Si atom -5579.104433 kJ/mol
# Density = 2.251850 g / cm^3
# Si number density = 22.569867 Si / 1000 Ang^3
#
#
#
# Elastic Constant Matrix: (Units=GPa)
#
#
# Indices 1 2 3 4 5 6 
#
# 1 70.3283 7.4881 -6.6606 0.0000 0.0000 0.0000
# 2 7.4881 78.8627 -0.4281 0.0000 0.0000 0.0000
# 3 -6.6606 -0.4281 85.1535 0.0000 0.0000 0.0000
# 4 0.0000 0.0000 0.0000 43.6377 0.0000 0.0000
# 5 0.0000 0.0000 0.0000 0.0000 45.3827 0.0000
# 6 0.0000 0.0000 0.0000 0.0000 0.0000 26.2661
#
#
#
# Elastic Compliance Matrix: (Units=1/GPa)
#
#
# Indices 1 2 3 4 5 6 
#
# 1 0.014471 -0.001368 0.001125 0.000000 0.000000 0.000000
# 2 -0.001368 0.012810 -0.000043 0.000000 0.000000 0.000000
# 3 0.001125 -0.000043 0.011831 0.000000 0.000000 0.000000
# 4 0.000000 0.000000 0.000000 0.022916 0.000000 0.000000
# 5 0.000000 0.000000 0.000000 0.000000 0.022035 0.000000
# 6 0.000000 0.000000 0.000000 0.000000 0.000000 0.038072
#
#
# Mechanical properties :
#
#
# Convention : Reuss Voigt Hill
#
# Bulk Modulus (GPa) = 25.94611 26.12703 26.03657
# Shear Modulus (GPa) = 36.88585 38.65364 37.76974
#
# Velocity S-wave (km/s) = 4.04703 4.14287 4.09523
# Velocity P-wave (km/s) = 5.77571 5.87245 5.82428
#
# Compressibility (1/GPa) = 0.03854142
#
# Stress axis : x y z
#
# Youngs Moduli (GPa) = 69.10263 78.06445 84.52171
#
# Poissons Ratio (x) = 0.10679 -0.09509
# Poissons Ratio (y) = 0.09453 0.00360
# Poissons Ratio (z) = -0.07774 0.00333
#
# Static dielectric constant tensor:
#      x y z
#    x 1.920230 0.000000 0.000000 
#    y 0.000000 1.836860 0.000000 
#    z 0.000000 0.000000 1.919610 
# 
# From -- ./inp_files/2273.got.cif
#   From: 2010.05.17/outbox.cif.g08.bks.cpg/sg32_2_cif.got.tgz:2273.got - 2010.06.03 17:12:27.
