data_PCOD9344824
_publ_section_title
;
Structure prediction by ZEFSAII (Michael W. Deem and Ramdas Pophale) SiO2 
 PCOD9344824
Probable space group: P N A 21
;
_chemical_formula_sum "Si O2"
_cell_formula_units_Z 20
_cell_length_a 8.433324
_cell_length_b 12.043544
_cell_length_c 7.718200
_cell_angle_alpha 90.000000
_cell_angle_beta 90.000000
_cell_angle_gamma 90.000000
_cell_volume 783.915258
_symmetry_space_group_name_H-M "P N A 21"
_symmetry_group_IT_number 33
_symmetry_cell_setting 'orthorhombic'
loop_
_space_group_symop_operation_xyz
x,y,z
-x,-y,1/2+z
1/2-x,1/2+y,1/2+z
1/2+x,1/2-y,z
loop_
_atom_site_type_symbol
_atom_site_label
_atom_site_fract_x
_atom_site_fract_y
_atom_site_fract_z
Si Si1 0.266152 0.546227 0.194720
Si Si2 0.829243 0.757569 0.407575
Si Si3 0.446466 0.095316 0.981999
Si Si4 0.666322 0.871081 0.861376
Si Si5 0.496294 0.348457 0.248036
O O1 0.361354 0.658704 0.248927
O O2 0.164658 0.516508 0.368730
O O3 0.385855 0.445285 0.175824
O O4 0.133550 0.574289 0.048229
O O5 0.643461 0.785208 0.430441
O O6 0.882629 0.630360 0.405686
O O7 0.900658 0.798292 0.590545
O O8 0.410115 0.083200 0.184318
O O9 0.608039 0.743504 0.848329
O O10 0.856714 0.888394 0.864470
#
# Coordination Sequence:
#
# PCOD9344824 Si02
#       5
#     4   4   4   4   4
#     4  10  20  34  62  82 111 154 201 229 297 360
#     4   8  17  33  54  77 111 145 182 240 283 333
#     4   8  18  34  51  82 110 145 188 239 280 346
#     4  10  21  34  62  82 115 156 190 246 293 343
#     4  10  20  39  57  83 119 148 197 248 289 354
#
# _framework density 25.512965000000001
#
# number of rings (size 3 to 8) (size 9 to 14) (size 15 to 20)
#    1.200    1.600    0.000    1.200    2.800    0.000 
#    0.000    0.000   22.000    0.000    0.000    0.000 
#    0.000    0.000    0.000    0.000    0.000    0.000 
#
# Total GULP energy -111334.242587 kJ/mol
# GULP energy per Si atom -5566.712129 kJ/mol
# Density = 2.545490 g / cm^3
# Si number density = 25.512965 Si / 1000 Ang^3
#
#
#
# Elastic Constant Matrix: (Units=GPa)
#
#
# Indices 1 2 3 4 5 6 
#
# 1 67.4143 16.5259 -1.7288 0.0000 0.0000 0.0000
# 2 16.5259 86.2976 25.4942 0.0000 0.0000 0.0000
# 3 -1.7288 25.4942 97.3177 0.0000 0.0000 0.0000
# 4 0.0000 0.0000 0.0000 38.7821 0.0000 0.0000
# 5 0.0000 0.0000 0.0000 0.0000 37.1441 0.0000
# 6 0.0000 0.0000 0.0000 0.0000 0.0000 36.5433
#
#
#
# Elastic Compliance Matrix: (Units=1/GPa)
#
#
# Indices 1 2 3 4 5 6 
#
# 1 0.015683 -0.003344 0.001155 0.000000 0.000000 0.000000
# 2 -0.003344 0.013273 -0.003537 0.000000 0.000000 0.000000
# 3 0.001155 -0.003537 0.011223 0.000000 0.000000 0.000000
# 4 0.000000 0.000000 0.000000 0.025785 0.000000 0.000000
# 5 0.000000 0.000000 0.000000 0.000000 0.026922 0.000000
# 6 0.000000 0.000000 0.000000 0.000000 0.000000 0.027365
#
#
# Mechanical properties :
#
#
# Convention : Reuss Voigt Hill
#
# Bulk Modulus (GPa) = 34.81132 36.84581 35.82856
# Shear Modulus (GPa) = 35.39104 36.54313 35.96709
#
# Velocity S-wave (km/s) = 3.72853 3.78873 3.75875
# Velocity P-wave (km/s) = 5.67539 5.79764 5.73684
#
# Compressibility (1/GPa) = 0.02872629
#
# Stress axis : x y z
#
# Youngs Moduli (GPa) = 63.76280 75.34071 89.10590
#
# Poissons Ratio (x) = 0.25197 -0.10289
# Poissons Ratio (y) = 0.21325 0.31513
# Poissons Ratio (z) = -0.07363 0.26645
#
# Static dielectric constant tensor:
#      x y z
#    x 2.221100 0.000000 0.000000 
#    y 0.000000 2.257980 0.000000 
#    z 0.000000 0.000000 2.208930 
# 
# From -- ./inp_files/3114.got.cif
#   From: 2010.05.17/outbox.cif.g08.bks.cpg/sg33_2_cif.got.tgz:3114.got - 2010.06.03 17:15:25.
