data_PCOD9344889
_publ_section_title
;
Structure prediction by ZEFSAII (Michael W. Deem and Ramdas Pophale) SiO2 
 PCOD9344889
Probable space group: P N A 21
;
_chemical_formula_sum "Si O2"
_cell_formula_units_Z 32
_cell_length_a 9.752383
_cell_length_b 13.371639
_cell_length_c 12.231912
_cell_angle_alpha 90.000000
_cell_angle_beta 90.000000
_cell_angle_gamma 90.000000
_cell_volume 1595.106703
_symmetry_space_group_name_H-M "P N A 21"
_symmetry_group_IT_number 33
_symmetry_cell_setting 'orthorhombic'
loop_
_space_group_symop_operation_xyz
x,y,z
-x,-y,1/2+z
1/2-x,1/2+y,1/2+z
1/2+x,1/2-y,z
loop_
_atom_site_type_symbol
_atom_site_label
_atom_site_fract_x
_atom_site_fract_y
_atom_site_fract_z
Si Si1 0.679055 0.524860 0.460720
Si Si2 0.701248 0.979227 0.503106
Si Si3 0.448615 0.860661 0.506145
Si Si4 0.084011 0.158747 0.893242
Si Si5 0.320264 0.545196 0.722825
Si Si6 0.227110 0.871230 0.824274
Si Si7 0.972712 0.746747 0.735330
Si Si8 0.111000 0.052388 0.682953
O O1 0.793727 0.599523 0.506878
O O2 0.542262 0.587522 0.430593
O O3 0.722380 0.474541 0.347006
O O4 0.649357 0.445094 0.556338
O O5 0.546144 0.952418 0.473844
O O6 0.789494 0.883007 0.464061
O O7 0.710122 0.984238 0.633223
O O8 0.768520 0.073403 0.441358
O O9 0.453712 0.771072 0.420113
O O10 0.496648 0.810834 0.620952
O O11 0.123683 0.143713 0.766519
O O12 0.376937 0.657259 0.710463
O O13 0.452890 0.479300 0.692602
O O14 0.375938 0.824484 0.806239
O O15 0.107382 0.790642 0.796238
O O16 0.195610 0.961909 0.740021
#
# Coordination Sequence:
#
# PCOD9344889 Si02
#       8
#     4   4   4   4   4   4   4   4
#     4  11  21  39  62  92 123 165 212 262 317 378
#     4  11  22  39  60  92 130 162 201 266 330 375
#     4  12  23  35  64  96 127 156 218 271 308 368
#     4  10  20  36  63  88 119 162 210 259 312 377
#     4  10  21  36  64  87 122 166 208 253 316 384
#     4  10  22  38  63  91 125 160 210 267 316 370
#     4  11  21  38  64  96 117 169 220 261 303 385
#     4   9  18  37  60  90 115 160 209 255 310 375
#
# _framework density 20.061354000000001
#
# number of rings (size 3 to 8) (size 9 to 14) (size 15 to 20)
#    0.000    1.500    3.750    3.000    0.000    2.000 
#    0.000    1.250    0.000    0.000    0.000    0.000 
#    0.000    0.000    0.000    0.000    0.000    0.000 
#
# Total GULP energy -178515.428298 kJ/mol
# GULP energy per Si atom -5578.607134 kJ/mol
# Density = 2.001569 g / cm^3
# Si number density = 20.061354 Si / 1000 Ang^3
#
#
#
# Elastic Constant Matrix: (Units=GPa)
#
#
# Indices 1 2 3 4 5 6 
#
# 1 53.9268 24.5027 35.4619 0.0000 0.0000 0.0000
# 2 24.5027 44.7635 41.4703 0.0000 0.0000 0.0000
# 3 35.4619 41.4703 156.9070 0.0000 0.0000 0.0000
# 4 0.0000 0.0000 0.0000 16.0631 0.0000 0.0000
# 5 0.0000 0.0000 0.0000 0.0000 17.0939 0.0000
# 6 0.0000 0.0000 0.0000 0.0000 0.0000 18.0751
#
#
#
# Elastic Compliance Matrix: (Units=1/GPa)
#
#
# Indices 1 2 3 4 5 6 
#
# 1 0.025549 -0.011436 -0.002752 0.000000 0.000000 0.000000
# 2 -0.011436 0.034702 -0.006587 0.000000 0.000000 0.000000
# 3 -0.002752 -0.006587 0.008736 0.000000 0.000000 0.000000
# 4 0.000000 0.000000 0.000000 0.062254 0.000000 0.000000
# 5 0.000000 0.000000 0.000000 0.000000 0.058500 0.000000
# 6 0.000000 0.000000 0.000000 0.000000 0.000000 0.055325
#
#
# Mechanical properties :
#
#
# Convention : Reuss Voigt Hill
#
# Bulk Modulus (GPa) = 36.44609 50.94080 43.69344
# Shear Modulus (GPa) = 16.90546 20.52392 18.71469
#
# Velocity S-wave (km/s) = 2.90606 3.20200 3.05761
# Velocity P-wave (km/s) = 5.42835 6.25444 5.85598
#
# Compressibility (1/GPa) = 0.02743779
#
# Stress axis : x y z
#
# Youngs Moduli (GPa) = 39.13997 28.81682 114.46771
#
# Poissons Ratio (x) = 0.32955 0.31499
# Poissons Ratio (y) = 0.44760 0.75401
# Poissons Ratio (z) = 0.10771 0.18982
#
# Static dielectric constant tensor:
#      x y z
#    x 1.717700 0.000000 0.000000 
#    y 0.000000 1.708200 0.000000 
#    z 0.000000 0.000000 1.747930 
# 
# From -- ./inp_files/5965.got.cif
#   From: 2010.05.17/outbox.cif.g08.bks.cpg/sg33_3_cif.got.tgz:5965.got - 2010.06.03 17:15:25.
