data_PCOD9344095
_publ_section_title
;
Structure prediction by ZEFSAII (Michael W. Deem and Ramdas Pophale) SiO2 
 PCOD9344095
Probable space group: P B A 2
;
_chemical_formula_sum "Si O2"
_cell_formula_units_Z 28
_cell_length_a 10.684068
_cell_length_b 9.069161
_cell_length_c 11.972129
_cell_angle_alpha 90.000000
_cell_angle_beta 90.000000
_cell_angle_gamma 90.000000
_cell_volume 1160.045819
_symmetry_space_group_name_H-M "P B A 2"
_symmetry_group_IT_number 32
_symmetry_cell_setting 'orthorhombic'
loop_
_space_group_symop_operation_xyz
x,y,z
-x,-y,z
1/2-x,1/2+y,z
1/2+x,1/2-y,z
loop_
_atom_site_type_symbol
_atom_site_label
_atom_site_fract_x
_atom_site_fract_y
_atom_site_fract_z
Si Si1 0.571241 0.694828 0.539510
Si Si2 0.577898 0.131525 0.365286
Si Si3 0.138147 0.946165 0.068897
Si Si4 0.235735 0.523185 0.560234
Si Si5 0.281088 0.722025 0.172180
Si Si6 0.587285 0.145130 0.724352
Si Si7 0.384417 0.887421 0.967844
O O1 0.512104 0.749859 0.423476
O O2 0.373348 0.468872 0.530725
O O3 0.689682 0.809000 0.561110
O O4 0.476373 0.738206 0.640512
O O5 0.677305 0.212775 0.288673
O O6 0.500000 0.000000 0.306018
O O7 0.645222 0.048968 0.467616
O O8 0.198437 0.049330 0.165412
O O9 0.150648 0.783493 0.123332
O O10 0.000000 0.000000 0.041671
O O11 0.243703 0.958212 0.972051
O O12 0.209252 0.435277 0.674909
O O13 0.374166 0.786066 0.076487
O O14 0.602303 0.197466 0.850779
O O15 0.500000 0.000000 0.727265
O O16 0.500000 0.000000 0.976105
#
# Coordination Sequence:
#
# PCOD9344095 Si02
#       7
#     4   4   4   4   4   4   4
#     4   9  18  35  61  85 123 154 219 253 324 387
#     4   9  19  36  60  84 118 169 212 250 316 400
#     4  10  25  42  62  94 131 163 222 277 329 395
#     4   9  18  34  55  87 113 156 195 263 304 380
#     4  10  23  39  64  90 129 165 218 270 334 390
#     4   8  16  37  57  82 111 163 205 247 308 397
#     4   9  20  39  67  88 122 176 217 260 336 402
#
# _framework density 24.136979
#
# number of rings (size 3 to 8) (size 9 to 14) (size 15 to 20)
#    0.857    2.000    0.000    2.143    2.000    3.429 
#   10.286    2.857    0.000    0.000    0.000    3.000 
#    0.000    0.000    0.000    0.000    0.000    0.000 
#
# Total GULP energy -156159.080546 kJ/mol
# GULP energy per Si atom -5577.110019 kJ/mol
# Density = 2.408204 g / cm^3
# Si number density = 24.136979 Si / 1000 Ang^3
#
#
#
# Elastic Constant Matrix: (Units=GPa)
#
#
# Indices 1 2 3 4 5 6 
#
# 1 140.5708 18.4161 3.2509 0.0000 0.0000 0.0000
# 2 18.4161 55.0177 14.1465 0.0000 0.0000 0.0000
# 3 3.2509 14.1465 63.8767 0.0000 0.0000 0.0000
# 4 0.0000 0.0000 0.0000 19.0955 0.0000 0.0000
# 5 0.0000 0.0000 0.0000 0.0000 17.3388 0.0000
# 6 0.0000 0.0000 0.0000 0.0000 0.0000 34.5500
#
#
#
# Elastic Compliance Matrix: (Units=1/GPa)
#
#
# Indices 1 2 3 4 5 6 
#
# 1 0.007442 -0.002538 0.000183 0.000000 0.000000 0.000000
# 2 -0.002538 0.020139 -0.004331 0.000000 0.000000 0.000000
# 3 0.000183 -0.004331 0.016605 0.000000 0.000000 0.000000
# 4 0.000000 0.000000 0.000000 0.052368 0.000000 0.000000
# 5 0.000000 0.000000 0.000000 0.000000 0.057674 0.000000
# 6 0.000000 0.000000 0.000000 0.000000 0.000000 0.028944
#
#
# Mechanical properties :
#
#
# Convention : Reuss Voigt Hill
#
# Bulk Modulus (GPa) = 32.45211 36.78804 34.62007
# Shear Modulus (GPa) = 24.17614 29.10697 26.64156
#
# Velocity S-wave (km/s) = 3.16828 3.47639 3.32590
# Velocity P-wave (km/s) = 5.18248 5.60251 5.39658
#
# Compressibility (1/GPa) = 0.03081464
#
# Stress axis : x y z
#
# Youngs Moduli (GPa) = 134.36982 49.65438 60.22289
#
# Poissons Ratio (x) = 0.12604 -0.01104
# Poissons Ratio (y) = 0.34107 0.26082
# Poissons Ratio (z) = -0.02464 0.21505
#
# Static dielectric constant tensor:
#      x y z
#    x 2.065250 0.000000 0.000000 
#    y 0.000000 2.006120 0.000000 
#    z 0.000000 0.000000 1.879420 
# 
# From -- ./inp_files/3865.got.cif
#   From: 2010.05.17/outbox.cif.g08.bks.cpg/sg32_2_cif.got.tgz:3865.got - 2010.06.03 17:12:27.
