data_PCOD9344052
_publ_section_title
;
Structure prediction by ZEFSAII (Michael W. Deem and Ramdas Pophale) SiO2 
 PCOD9344052
Probable space group: P B A 2
;
_chemical_formula_sum "Si O2"
_cell_formula_units_Z 30
_cell_length_a 11.211313
_cell_length_b 18.490863
_cell_length_c 6.464093
_cell_angle_alpha 90.000000
_cell_angle_beta 90.000000
_cell_angle_gamma 90.000000
_cell_volume 1340.050776
_symmetry_space_group_name_H-M "P B A 2"
_symmetry_group_IT_number 32
_symmetry_cell_setting 'orthorhombic'
loop_
_space_group_symop_operation_xyz
x,y,z
-x,-y,z
1/2-x,1/2+y,z
1/2+x,1/2-y,z
loop_
_atom_site_type_symbol
_atom_site_label
_atom_site_fract_x
_atom_site_fract_y
_atom_site_fract_z
Si Si1 0.500000 0.500000 0.230400
Si Si2 0.005192 0.738081 0.726003
Si Si3 0.849423 0.670970 0.056324
Si Si4 0.976195 0.898884 0.591232
Si Si5 0.057404 0.633345 0.366802
Si Si6 0.177371 0.947724 0.922173
Si Si7 0.792898 0.307624 0.007851
Si Si8 0.287296 0.061950 0.680708
O O1 0.480211 0.428328 0.369400
O O2 0.385625 0.502810 0.080764
O O3 0.052884 0.700906 0.520934
O O4 0.107133 0.744131 0.901300
O O5 0.914237 0.681575 0.833583
O O6 0.958165 0.815112 0.649152
O O7 0.735684 0.620140 0.035130
O O8 0.811400 0.754951 0.086785
O O9 0.936713 0.636922 0.229759
O O10 0.846453 0.936033 0.591145
O O11 0.073661 0.924439 0.761075
O O12 0.107079 0.569889 0.514714
O O13 0.158972 0.649337 0.201935
O O14 0.286588 0.988399 0.809666
O O15 0.781314 0.368857 0.833004
#
# Coordination Sequence:
#
# PCOD9344052 Si02
#       8
#     2   4   4   4   4   4   4   4
#     4  12  26  40  68 116 134 182 248 292 380 432
#     4  10  23  43  65 102 137 173 232 289 368 424
#     4  11  24  44  70 102 140 184 236 291 361 439
#     4  12  23  41  71 104 138 175 232 307 366 431
#     4  10  26  42  67 105 129 185 239 278 354 434
#     4  12  26  46  69 105 145 189 236 304 367 433
#     4  10  22  41  69  98 137 180 225 296 355 424
#     4  11  23  45  67  96 147 186 229 291 364 426
#
# _framework density 22.387211000000001
#
# number of rings (size 3 to 8) (size 9 to 14) (size 15 to 20)
#    0.000    1.067    5.333    0.000    5.600    1.067 
#    0.000    7.333    0.000    0.000    0.000    0.000 
#    0.000    0.000    0.000    0.000    0.000    0.000 
#
# Total GULP energy -167196.351863 kJ/mol
# GULP energy per Si atom -5573.211729 kJ/mol
# Density = 2.233626 g / cm^3
# Si number density = 22.387211 Si / 1000 Ang^3
#
#
#
# Elastic Constant Matrix: (Units=GPa)
#
#
# Indices 1 2 3 4 5 6 
#
# 1 63.4442 19.5752 34.1533 0.0000 0.0000 0.0000
# 2 19.5752 62.6783 24.0405 0.0000 0.0000 0.0000
# 3 34.1533 24.0405 107.0915 0.0000 0.0000 0.0000
# 4 0.0000 0.0000 0.0000 12.4543 0.0000 0.0000
# 5 0.0000 0.0000 0.0000 0.0000 27.1093 0.0000
# 6 0.0000 0.0000 0.0000 0.0000 0.0000 31.8139
#
#
#
# Elastic Compliance Matrix: (Units=1/GPa)
#
#
# Indices 1 2 3 4 5 6 
#
# 1 0.019969 -0.004151 -0.005437 0.000000 0.000000 0.000000
# 2 -0.004151 0.018321 -0.002789 0.000000 0.000000 0.000000
# 3 -0.005437 -0.002789 0.011698 0.000000 0.000000 0.000000
# 4 0.000000 0.000000 0.000000 0.080293 0.000000 0.000000
# 5 0.000000 0.000000 0.000000 0.000000 0.036888 0.000000
# 6 0.000000 0.000000 0.000000 0.000000 0.000000 0.031433
#
#
# Mechanical properties :
#
#
# Convention : Reuss Voigt Hill
#
# Bulk Modulus (GPa) = 39.62897 43.19467 41.41182
# Shear Modulus (GPa) = 21.57342 24.63851 23.10596
#
# Velocity S-wave (km/s) = 3.10764 3.32107 3.21613
# Velocity P-wave (km/s) = 5.53323 5.83457 5.68590
#
# Compressibility (1/GPa) = 0.02523407
#
# Stress axis : x y z
#
# Youngs Moduli (GPa) = 50.07649 54.58315 85.48693
#
# Poissons Ratio (x) = 0.22660 0.46476
# Poissons Ratio (y) = 0.20789 0.23840
# Poissons Ratio (z) = 0.27225 0.15222
#
# Static dielectric constant tensor:
#      x y z
#    x 1.895650 0.000000 0.000000 
#    y 0.000000 1.844440 0.000000 
#    z 0.000000 0.000000 1.834430 
# 
# From -- ./inp_files/1042.got.cif
#   From: 2010.05.17/outbox.cif.g08.bks.cpg/sg32_1_cif.got.tgz:1042.got - 2010.06.03 17:12:27.
