data_PCOD9344515
_publ_section_title
;
Structure prediction by ZEFSAII (Michael W. Deem and Ramdas Pophale) SiO2 
 PCOD9344515
Probable space group: P N A 21
;
_chemical_formula_sum "Si O2"
_cell_formula_units_Z 32
_cell_length_a 15.834431
_cell_length_b 6.104305
_cell_length_c 16.516614
_cell_angle_alpha 90.000000
_cell_angle_beta 90.000000
_cell_angle_gamma 90.000000
_cell_volume 1596.466119
_symmetry_space_group_name_H-M "P N A 21"
_symmetry_group_IT_number 33
_symmetry_cell_setting 'orthorhombic'
loop_
_space_group_symop_operation_xyz
x,y,z
-x,-y,1/2+z
1/2-x,1/2+y,1/2+z
1/2+x,1/2-y,z
loop_
_atom_site_type_symbol
_atom_site_label
_atom_site_fract_x
_atom_site_fract_y
_atom_site_fract_z
Si Si1 0.000000 0.726442 0.319660
Si Si2 0.818855 0.944919 0.309522
Si Si3 0.061186 0.385891 0.985773
Si Si4 0.061186 0.614109 0.153547
Si Si5 0.218874 0.309282 0.193964
Si Si6 0.181145 0.944919 0.329797
Si Si7 0.846526 1.000000 0.569660
Si Si8 0.218873 0.690718 0.945356
O O1 0.001593 0.605996 0.232271
O O2 0.086769 0.860665 0.320910
O O3 0.998407 0.605996 0.407049
O O4 0.913231 0.860665 0.318410
O O5 0.800324 0.060009 0.223425
O O6 0.801955 0.129678 0.376832
O O7 0.750000 0.750000 0.319660
O O8 0.031135 0.500000 0.069660
O O9 0.092940 0.142012 0.010556
O O10 0.143467 0.518100 0.955973
O O11 0.143467 0.481900 0.183347
O O12 0.092940 0.857988 0.128764
O O13 0.198045 0.129678 0.262488
O O14 0.214527 0.173531 0.112189
O O15 0.199676 0.060009 0.415895
O O16 0.785473 0.173531 0.527130
#
# Coordination Sequence:
#
# PCOD9344515 Si02
#       8
#     4   4   4   4   4   4   4   4
#     4  12  22  42  72  92 142 180 224 290 350 396
#     4  11  22  40  64 100 127 175 230 281 335 416
#     4  10  22  40  69  95 131 180 227 280 344 412
#     4  10  22  40  69  95 131 180 227 280 344 412
#     4  10  20  39  67  90 132 171 230 276 341 409
#     4  11  22  40  64 100 127 175 230 281 335 416
#     4  10  18  40  66  90 128 178 218 286 340 402
#     4  10  20  39  67  90 132 171 230 276 341 409
#
# _framework density 20.044270999999998
#
# number of rings (size 3 to 8) (size 9 to 14) (size 15 to 20)
#    0.000    1.500    5.000    0.000    0.000    1.000 
#    0.000    0.000   35.750    0.000    0.000    0.000 
#    0.000    0.000    0.000    0.000    0.000    0.000 
#
# Total GULP energy -178326.438752 kJ/mol
# GULP energy per Si atom -5572.701211 kJ/mol
# Density = 1.999865 g / cm^3
# Si number density = 20.044271 Si / 1000 Ang^3
#
#
#
# Elastic Constant Matrix: (Units=GPa)
#
#
# Indices 1 2 3 4 5 6 
#
# 1 83.9923 26.7663 26.1906 0.0000 0.0000 0.0000
# 2 26.7663 85.9426 25.9332 0.0000 0.0000 0.0000
# 3 26.1906 25.9332 122.5011 0.0000 0.0000 0.0000
# 4 0.0000 0.0000 0.0000 47.1123 0.0000 0.0000
# 5 0.0000 0.0000 0.0000 0.0000 37.0641 0.0000
# 6 0.0000 0.0000 0.0000 0.0000 0.0000 12.1646
#
#
#
# Elastic Compliance Matrix: (Units=1/GPa)
#
#
# Indices 1 2 3 4 5 6 
#
# 1 0.013737 -0.003624 -0.002170 0.000000 0.000000 0.000000
# 2 -0.003624 0.013386 -0.002059 0.000000 0.000000 0.000000
# 3 -0.002170 -0.002059 0.009063 0.000000 0.000000 0.000000
# 4 0.000000 0.000000 0.000000 0.021226 0.000000 0.000000
# 5 0.000000 0.000000 0.000000 0.000000 0.026980 0.000000
# 6 0.000000 0.000000 0.000000 0.000000 0.000000 0.082206
#
#
# Mechanical properties :
#
#
# Convention : Reuss Voigt Hill
#
# Bulk Modulus (GPa) = 48.82621 50.02404 49.42512
# Shear Modulus (GPa) = 26.43693 33.50459 29.97076
#
# Velocity S-wave (km/s) = 3.63564 4.09287 3.87101
# Velocity P-wave (km/s) = 6.48351 6.88087 6.68515
#
# Compressibility (1/GPa) = 0.02048080
#
# Stress axis : x y z
#
# Youngs Moduli (GPa) = 72.79489 74.70765 110.33885
#
# Poissons Ratio (x) = 0.27071 0.23942
# Poissons Ratio (y) = 0.26378 0.22718
# Poissons Ratio (z) = 0.15796 0.15382
#
# Static dielectric constant tensor:
#      x y z
#    x 1.725450 0.000000 0.000000 
#    y 0.000000 1.746970 0.000000 
#    z 0.000000 0.000000 1.826210 
# 
# From -- ./inp_files/8797.got.cif
#   From: 2010.05.17/outbox.cif.g08.bks.cpg/sg33_5_cif.got.tgz:8797.got - 2010.06.03 17:15:25.
