data_PCOD9344948
_publ_section_title
;
Structure prediction by ZEFSAII (Michael W. Deem and Ramdas Pophale) SiO2 
 PCOD9344948
Probable space group: P N A 21
;
_chemical_formula_sum "Si O2"
_cell_formula_units_Z 32
_cell_length_a 8.956902
_cell_length_b 13.910198
_cell_length_c 12.335627
_cell_angle_alpha 90.000000
_cell_angle_beta 90.000000
_cell_angle_gamma 90.000000
_cell_volume 1536.923897
_symmetry_space_group_name_H-M "P N A 21"
_symmetry_group_IT_number 33
_symmetry_cell_setting 'orthorhombic'
loop_
_space_group_symop_operation_xyz
x,y,z
-x,-y,1/2+z
1/2-x,1/2+y,1/2+z
1/2+x,1/2-y,z
loop_
_atom_site_type_symbol
_atom_site_label
_atom_site_fract_x
_atom_site_fract_y
_atom_site_fract_z
Si Si1 0.633896 0.964791 0.034140
Si Si2 0.325054 0.957663 0.314210
Si Si3 0.700339 0.963845 0.582087
Si Si4 0.791822 0.118920 0.163983
Si Si5 0.589239 0.286724 0.083430
Si Si6 0.610839 0.845583 0.235154
Si Si7 0.067748 0.837067 0.361554
Si Si8 0.172793 0.018926 0.855895
O O1 0.475095 0.018425 0.058253
O O2 0.767487 0.029712 0.082203
O O3 0.633450 0.869770 0.108709
O O4 0.654405 0.960935 0.905396
O O5 0.482987 0.915955 0.278366
O O6 0.239825 0.868223 0.370209
O O7 0.259830 0.992893 0.199355
O O8 0.765594 0.856166 0.580018
O O9 0.784039 0.006698 0.477863
O O10 0.657410 0.190998 0.134820
O O11 0.953304 0.167429 0.151459
O O12 0.783551 0.068770 0.280091
O O13 0.511464 0.286701 0.964228
O O14 0.566066 0.737414 0.262697
O O15 0.746919 0.884246 0.308621
O O16 0.994947 0.942577 0.349324
#
# Coordination Sequence:
#
# PCOD9344948 Si02
#       8
#     4   4   4   4   4   4   4   4
#     4  10  20  38  58  90 120 161 206 257 319 376
#     4  11  20  38  63  84 127 163 213 250 321 375
#     4  10  22  39  61  90 119 171 210 259 313 385
#     4  11  22  39  60  92 123 161 205 272 316 364
#     4  11  23  36  63  93 124 156 223 264 304 373
#     4  10  21  35  61  89 119 155 207 264 311 370
#     4  11  22  36  61  94 124 160 210 272 309 372
#     4  10  22  39  61  86 130 159 210 260 325 371
#
# _framework density 20.820809000000001
#
# number of rings (size 3 to 8) (size 9 to 14) (size 15 to 20)
#    0.000    1.500    2.500    3.000    3.500    0.000 
#    0.000    1.250    2.750    0.000    0.000    0.000 
#    0.000    0.000    0.000    0.000    0.000    0.000 
#
# Total GULP energy -178378.481249 kJ/mol
# GULP energy per Si atom -5574.327539 kJ/mol
# Density = 2.077342 g / cm^3
# Si number density = 20.820809 Si / 1000 Ang^3
#
#
#
# Elastic Constant Matrix: (Units=GPa)
#
#
# Indices 1 2 3 4 5 6 
#
# 1 46.2808 9.1620 18.2054 0.0000 0.0000 0.0000
# 2 9.1620 69.3894 55.9500 0.0000 0.0000 0.0000
# 3 18.2054 55.9500 172.1710 0.0000 0.0000 0.0000
# 4 0.0000 0.0000 0.0000 26.4178 0.0000 0.0000
# 5 0.0000 0.0000 0.0000 0.0000 20.4259 0.0000
# 6 0.0000 0.0000 0.0000 0.0000 0.0000 22.2453
#
#
#
# Elastic Compliance Matrix: (Units=1/GPa)
#
#
# Indices 1 2 3 4 5 6 
#
# 1 0.022650 -0.001436 -0.001928 0.000000 0.000000 0.000000
# 2 -0.001436 0.019619 -0.006224 0.000000 0.000000 0.000000
# 3 -0.001928 -0.006224 0.008035 0.000000 0.000000 0.000000
# 4 0.000000 0.000000 0.000000 0.037853 0.000000 0.000000
# 5 0.000000 0.000000 0.000000 0.000000 0.048958 0.000000
# 6 0.000000 0.000000 0.000000 0.000000 0.000000 0.044953
#
#
# Mechanical properties :
#
#
# Convention : Reuss Voigt Hill
#
# Bulk Modulus (GPa) = 32.12538 50.49733 41.31136
# Shear Modulus (GPa) = 23.62722 27.45271 25.53996
#
# Velocity S-wave (km/s) = 3.37232 3.63509 3.50616
# Velocity P-wave (km/s) = 5.53410 6.47491 6.02290
#
# Compressibility (1/GPa) = 0.03112804
#
# Stress axis : x y z
#
# Youngs Moduli (GPa) = 44.15005 50.96990 124.46092
#
# Poissons Ratio (x) = 0.07318 0.24002
# Poissons Ratio (y) = 0.06339 0.77463
# Poissons Ratio (z) = 0.08514 0.31723
#
# Static dielectric constant tensor:
#      x y z
#    x 1.786250 0.000000 0.000000 
#    y 0.000000 1.770940 0.000000 
#    z 0.000000 0.000000 1.791630 
# 
# From -- ./inp_files/5963.got.cif
#   From: 2010.05.17/outbox.cif.g08.bks.cpg/sg33_3_cif.got.tgz:5963.got - 2010.06.03 17:15:25.
