data_PCOD9344660
_publ_section_title
;
Structure prediction by ZEFSAII (Michael W. Deem and Ramdas Pophale) SiO2 
 PCOD9344660
Probable space group: P N A 21
;
_chemical_formula_sum "Si O2"
_cell_formula_units_Z 32
_cell_length_a 5.263875
_cell_length_b 16.832615
_cell_length_c 16.523613
_cell_angle_alpha 90.000000
_cell_angle_beta 90.000000
_cell_angle_gamma 90.000000
_cell_volume 1464.071116
_symmetry_space_group_name_H-M "P N A 21"
_symmetry_group_IT_number 33
_symmetry_cell_setting 'orthorhombic'
loop_
_space_group_symop_operation_xyz
x,y,z
-x,-y,1/2+z
1/2-x,1/2+y,1/2+z
1/2+x,1/2-y,z
loop_
_atom_site_type_symbol
_atom_site_label
_atom_site_fract_x
_atom_site_fract_y
_atom_site_fract_z
Si Si1 0.927455 0.470875 0.628240
Si Si2 0.560211 0.473163 0.043220
Si Si3 0.587793 0.957361 0.315233
Si Si4 0.987265 0.206017 0.983984
Si Si5 0.097473 0.035513 0.377938
Si Si6 0.947025 0.272232 0.803947
Si Si7 0.275810 0.206525 0.371477
Si Si8 0.287244 0.204545 0.567389
O O1 0.667795 0.516906 0.606873
O O2 0.984915 0.475585 0.723078
O O3 0.872780 0.379238 0.604711
O O4 0.166121 0.505636 0.579146
O O5 0.546460 0.384505 0.005977
O O6 0.494916 0.534219 0.970704
O O7 0.591535 0.863065 0.325349
O O8 0.363816 0.989040 0.372384
O O9 0.863766 0.993802 0.332522
O O10 0.715938 0.237805 0.014123
O O11 0.970186 0.220368 0.886557
O O12 0.165137 0.122066 0.344609
O O13 0.706988 0.239401 0.757789
O O14 0.562040 0.229045 0.346670
O O15 0.291059 0.200016 0.469128
O O16 0.501418 0.269786 0.588126
#
# Coordination Sequence:
#
# PCOD9344660 Si02
#       8
#     4   4   4   4   4   4   4   4
#     4  12  26  43  62 100 140 183 213 266 347 408
#     4  12  24  41  70  96 133 177 228 277 324 404
#     4  12  26  42  66  97 141 175 217 275 344 413
#     4  10  19  36  61  94 124 157 216 276 322 369
#     4  12  23  42  68  97 124 173 228 280 329 385
#     4  10  20  37  60  91 129 167 210 260 322 394
#     4  10  21  37  63  95 123 156 215 281 323 375
#     4  10  21  38  62  92 132 168 211 259 315 398
#
# _framework density 21.856860999999999
#
# number of rings (size 3 to 8) (size 9 to 14) (size 15 to 20)
#    0.000    1.000    1.250    7.500    3.500    1.000 
#    0.000    0.000    0.000   15.000    0.000    0.000 
#    0.000    0.000    0.000    0.000    0.000    0.000 
#
# Total GULP energy -178963.121729 kJ/mol
# GULP energy per Si atom -5592.597554 kJ/mol
# Density = 2.180711 g / cm^3
# Si number density = 21.856861 Si / 1000 Ang^3
#
#
#
# Elastic Constant Matrix: (Units=GPa)
#
#
# Indices 1 2 3 4 5 6 
#
# 1 151.3229 30.9215 6.8662 0.0000 0.0000 0.0000
# 2 30.9215 78.8038 8.4581 0.0000 0.0000 0.0000
# 3 6.8662 8.4581 31.3578 0.0000 0.0000 0.0000
# 4 0.0000 0.0000 0.0000 -16.8452 0.0000 0.0000
# 5 0.0000 0.0000 0.0000 0.0000 20.5193 0.0000
# 6 0.0000 0.0000 0.0000 0.0000 0.0000 47.3852
#
#
#
# Elastic Compliance Matrix: (Units=1/GPa)
#
#
# Indices 1 2 3 4 5 6 
#
# 1 0.007206 -0.002737 -0.000839 0.000000 0.000000 0.000000
# 2 -0.002737 0.014108 -0.003206 0.000000 0.000000 0.000000
# 3 -0.000839 -0.003206 0.032939 0.000000 0.000000 0.000000
# 4 0.000000 0.000000 0.000000 -0.059364 0.000000 0.000000
# 5 0.000000 0.000000 0.000000 0.000000 0.048735 0.000000
# 6 0.000000 0.000000 0.000000 0.000000 0.000000 0.021104
#
#
# Mechanical properties :
#
#
# Convention : Reuss Voigt Hill
#
# Bulk Modulus (GPa) = 24.57801 39.33066 31.95434
# Shear Modulus (GPa) = 54.43406 24.56111 39.49758
#
# Velocity S-wave (km/s) = 4.99588 3.35584 4.25561
# Velocity P-wave (km/s) = 6.67442 5.74885 6.22885
#
# Compressibility (1/GPa) = 0.04068678
#
# Stress axis : x y z
#
# Youngs Moduli (GPa) = 138.77644 70.88208 30.35961
#
# Poissons Ratio (x) = 0.19403 0.02549
# Poissons Ratio (y) = 0.37988 0.09733
# Poissons Ratio (z) = 0.11650 0.22724
#
# Static dielectric constant tensor:
#      x y z
#    x 1.851110 0.000000 0.000000 
#    y 0.000000 1.802190 0.000000 
#    z 0.000000 0.000000 1.826730 
# 
# From -- ./inp_files/8360.got.cif
#   From: 2010.05.17/outbox.cif.g08.bks.cpg/sg33_5_cif.got.tgz:8360.got - 2010.06.03 17:15:25.
