data_PCOD9344603
_publ_section_title
;
Structure prediction by ZEFSAII (Michael W. Deem and Ramdas Pophale) SiO2 
 PCOD9344603
Probable space group: P N A 21
;
_chemical_formula_sum "Si O2"
_cell_formula_units_Z 32
_cell_length_a 5.170559
_cell_length_b 26.054685
_cell_length_c 11.589106
_cell_angle_alpha 90.000000
_cell_angle_beta 90.000000
_cell_angle_gamma 90.000000
_cell_volume 1561.252908
_symmetry_space_group_name_H-M "P N A 21"
_symmetry_group_IT_number 33
_symmetry_cell_setting 'orthorhombic'
loop_
_space_group_symop_operation_xyz
x,y,z
-x,-y,1/2+z
1/2-x,1/2+y,1/2+z
1/2+x,1/2-y,z
loop_
_atom_site_type_symbol
_atom_site_label
_atom_site_fract_x
_atom_site_fract_y
_atom_site_fract_z
Si Si1 0.829601 0.224012 0.565370
Si Si2 0.855148 0.531659 0.713571
Si Si3 0.464557 0.609965 0.049437
Si Si4 0.031284 0.428350 0.659338
Si Si5 0.363020 0.523847 0.865435
Si Si6 0.644376 0.584621 0.501358
Si Si7 0.372018 0.119877 0.886624
Si Si8 0.706657 0.767667 0.326427
O O1 0.543802 0.235804 0.521669
O O2 0.938219 0.168065 0.538065
O O3 0.808319 0.235705 0.704760
O O4 0.976136 0.487316 0.631216
O O5 0.590337 0.513582 0.773726
O O6 0.749454 0.576415 0.630738
O O7 0.090621 0.539515 0.804427
O O8 0.166288 0.606902 0.088214
O O9 0.672845 0.586883 0.140826
O O10 0.469052 0.571376 0.941535
O O11 0.931771 0.422098 0.789262
O O12 0.338600 0.471571 0.939598
O O13 0.354531 0.603850 0.474067
O O14 0.849220 0.623812 0.445655
O O15 0.296127 0.171386 0.817673
O O16 0.455181 0.750474 0.392052
#
# Coordination Sequence:
#
# PCOD9344603 Si02
#       8
#     4   4   4   4   4   4   4   4
#     4  10  20  37  55  87 126 153 197 256 319 390
#     4  12  25  41  59  86 130 173 212 276 296 373
#     4  12  24  37  64  91 127 175 205 256 332 394
#     4  12  21  35  59  90 124 166 214 247 317 370
#     4  12  24  42  59  91 127 174 225 262 313 387
#     4  12  24  40  59  90 127 172 221 257 312 392
#     4  12  23  37  61  92 127 174 203 253 333 394
#     4  10  19  35  56  85 126 153 195 255 316 390
#
# _framework density 20.496357
#
# number of rings (size 3 to 8) (size 9 to 14) (size 15 to 20)
#    0.000    0.500    3.750    7.500    1.750    0.000 
#    0.000    0.000    0.000    0.000    0.000   17.500 
#    0.000    0.000    0.000    0.000    0.000    0.000 
#
# Total GULP energy -178418.587491 kJ/mol
# GULP energy per Si atom -5575.580859 kJ/mol
# Density = 2.044971 g / cm^3
# Si number density = 20.496357 Si / 1000 Ang^3
#
#
#
# Elastic Constant Matrix: (Units=GPa)
#
#
# Indices 1 2 3 4 5 6 
#
# 1 128.2187 0.9138 14.9562 0.0000 0.0000 0.0000
# 2 0.9138 68.8579 8.3993 0.0000 0.0000 0.0000
# 3 14.9562 8.3993 18.2969 0.0000 0.0000 0.0000
# 4 0.0000 0.0000 0.0000 18.5798 0.0000 0.0000
# 5 0.0000 0.0000 0.0000 0.0000 26.9359 0.0000
# 6 0.0000 0.0000 0.0000 0.0000 0.0000 25.6372
#
#
#
# Elastic Compliance Matrix: (Units=1/GPa)
#
#
# Indices 1 2 3 4 5 6 
#
# 1 0.008662 0.000793 -0.007444 0.000000 0.000000 0.000000
# 2 0.000793 0.015457 -0.007744 0.000000 0.000000 0.000000
# 3 -0.007444 -0.007744 0.064294 0.000000 0.000000 0.000000
# 4 0.000000 0.000000 0.000000 0.053822 0.000000 0.000000
# 5 0.000000 0.000000 0.000000 0.000000 0.037125 0.000000
# 6 0.000000 0.000000 0.000000 0.000000 0.000000 0.039006
#
#
# Mechanical properties :
#
#
# Convention : Reuss Voigt Hill
#
# Bulk Modulus (GPa) = 16.77223 29.32359 23.04791
# Shear Modulus (GPa) = 18.72448 26.97085 22.84767
#
# Velocity S-wave (km/s) = 3.02578 3.63145 3.34236
# Velocity P-wave (km/s) = 4.51751 5.64987 5.11512
#
# Compressibility (1/GPa) = 0.05962237
#
# Stress axis : x y z
#
# Youngs Moduli (GPa) = 115.44831 64.69676 15.55353
#
# Poissons Ratio (x) = -0.05131 0.11579
# Poissons Ratio (y) = -0.09157 0.12044
# Poissons Ratio (z) = 0.85945 0.50100
#
# Static dielectric constant tensor:
#      x y z
#    x 1.808080 0.000000 0.000000 
#    y 0.000000 1.787730 0.000000 
#    z 0.000000 0.000000 1.792310 
# 
# From -- ./inp_files/5611.got.cif
#   From: 2010.05.17/outbox.cif.g08.bks.cpg/sg33_3_cif.got.tgz:5611.got - 2010.06.03 17:15:25.
