data_PCOD9344361
_publ_section_title
;
Structure prediction by ZEFSAII (Michael W. Deem and Ramdas Pophale) SiO2 
 PCOD9344361
Probable space group: P N A 21
;
_chemical_formula_sum "Si O2"
_cell_formula_units_Z 32
_cell_length_a 5.349397
_cell_length_b 8.085748
_cell_length_c 33.360087
_cell_angle_alpha 90.000000
_cell_angle_beta 90.000000
_cell_angle_gamma 90.000000
_cell_volume 1442.953070
_symmetry_space_group_name_H-M "P N A 21"
_symmetry_group_IT_number 33
_symmetry_cell_setting 'orthorhombic'
loop_
_space_group_symop_operation_xyz
x,y,z
-x,-y,1/2+z
1/2-x,1/2+y,1/2+z
1/2+x,1/2-y,z
loop_
_atom_site_type_symbol
_atom_site_label
_atom_site_fract_x
_atom_site_fract_y
_atom_site_fract_z
Si Si1 0.243258 0.803222 0.681390
Si Si2 0.441574 0.148169 0.885401
Si Si3 0.928517 0.936757 0.505231
Si Si4 0.013176 0.353618 0.795294
Si Si5 0.454171 0.659981 0.170063
Si Si6 0.945475 0.848948 0.073820
Si Si7 0.853040 0.694363 0.770728
Si Si8 0.927575 0.554869 0.472353
O O1 0.016084 0.703284 0.661107
O O2 0.299882 0.737420 0.726109
O O3 0.139865 0.986327 0.686066
O O4 0.653685 0.292995 0.887410
O O5 0.487677 0.078805 0.841078
O O6 0.502194 0.051015 0.925764
O O7 0.906237 0.745837 0.489915
O O8 0.661245 0.015939 0.496185
O O9 0.154257 0.014999 0.479874
O O10 0.004590 0.978586 0.550714
O O11 0.789193 0.221028 0.790074
O O12 0.949779 0.508218 0.767944
O O13 0.234836 0.788880 0.181606
O O14 0.451909 0.637512 0.121887
O O15 0.175552 0.726933 0.063308
O O16 0.579911 0.704935 0.790615
#
# Coordination Sequence:
#
# PCOD9344361 Si02
#       8
#     4   4   4   4   4   4   4   4
#     4  10  21  38  58  85 113 147 183 230 276 322
#     4  10  16  30  49  76 102 132 165 224 276 310
#     4  10  18  30  50  73  98 128 171 212 257 318
#     4  10  21  33  56  87 108 141 191 232 270 315
#     4  10  21  38  59  81 110 153 186 222 278 334
#     4  10  21  37  52  71 104 144 177 211 265 319
#     4  10  21  38  58  79 118 154 177 217 286 339
#     4  10  17  30  50  78  97 125 168 216 276 297
#
# _framework density 22.176746000000001
#
# number of rings (size 3 to 8) (size 9 to 14) (size 15 to 20)
#    0.000    2.000    2.500    2.250    0.000    1.000 
#    4.500    0.000    0.000    4.500    0.000    0.000 
#    0.000    0.000    0.000    0.000    0.000    0.000 
#
# Total GULP energy -178316.391482 kJ/mol
# GULP energy per Si atom -5572.387234 kJ/mol
# Density = 2.212627 g / cm^3
# Si number density = 22.176746 Si / 1000 Ang^3
#
#
#
# Elastic Constant Matrix: (Units=GPa)
#
#
# Indices 1 2 3 4 5 6 
#
# 1 119.9283 0.3474 7.1172 0.0000 0.0000 0.0000
# 2 0.3474 36.6712 8.2246 0.0000 0.0000 0.0000
# 3 7.1172 8.2246 30.9995 0.0000 0.0000 0.0000
# 4 0.0000 0.0000 0.0000 17.9847 0.0000 0.0000
# 5 0.0000 0.0000 0.0000 0.0000 17.1898 0.0000
# 6 0.0000 0.0000 0.0000 0.0000 0.0000 24.7846
#
#
#
# Elastic Compliance Matrix: (Units=1/GPa)
#
#
# Indices 1 2 3 4 5 6 
#
# 1 0.008458 0.000378 -0.002042 0.000000 0.000000 0.000000
# 2 0.000378 0.029012 -0.007784 0.000000 0.000000 0.000000
# 3 -0.002042 -0.007784 0.034793 0.000000 0.000000 0.000000
# 4 0.000000 0.000000 0.000000 0.055603 0.000000 0.000000
# 5 0.000000 0.000000 0.000000 0.000000 0.058174 0.000000
# 6 0.000000 0.000000 0.000000 0.000000 0.000000 0.040348
#
#
# Mechanical properties :
#
#
# Convention : Reuss Voigt Hill
#
# Bulk Modulus (GPa) = 18.73849 24.33082 21.53465
# Shear Modulus (GPa) = 19.00616 23.45245 21.22931
#
# Velocity S-wave (km/s) = 2.93069 3.25549 3.09735
# Velocity P-wave (km/s) = 4.46317 5.01259 4.74584
#
# Compressibility (1/GPa) = 0.05336609
#
# Stress axis : x y z
#
# Youngs Moduli (GPa) = 118.22542 34.46905 28.74171
#
# Poissons Ratio (x) = -0.01303 0.05870
# Poissons Ratio (y) = -0.04468 0.22372
# Poissons Ratio (z) = 0.24144 0.26830
#
# Static dielectric constant tensor:
#      x y z
#    x 1.959660 0.000000 0.000000 
#    y 0.000000 1.744030 0.000000 
#    z 0.000000 0.000000 1.856930 
# 
# From -- ./inp_files/9371.got.cif
#   From: 2010.05.17/outbox.cif.g08.bks.cpg/sg33_5_cif.got.tgz:9371.got - 2010.06.03 17:15:25.
