data_PCOD9344354
_publ_section_title
;
Structure prediction by ZEFSAII (Michael W. Deem and Ramdas Pophale) SiO2 
 PCOD9344354
Probable space group: P N A 21
;
_chemical_formula_sum "Si O2"
_cell_formula_units_Z 32
_cell_length_a 5.501405
_cell_length_b 13.204379
_cell_length_c 26.146255
_cell_angle_alpha 90.000000
_cell_angle_beta 90.000000
_cell_angle_gamma 90.000000
_cell_volume 1899.332902
_symmetry_space_group_name_H-M "P N A 21"
_symmetry_group_IT_number 33
_symmetry_cell_setting 'orthorhombic'
loop_
_space_group_symop_operation_xyz
x,y,z
-x,-y,1/2+z
1/2-x,1/2+y,1/2+z
1/2+x,1/2-y,z
loop_
_atom_site_type_symbol
_atom_site_label
_atom_site_fract_x
_atom_site_fract_y
_atom_site_fract_z
Si Si1 0.250913 0.354663 0.590100
Si Si2 0.248346 0.350992 0.389170
Si Si3 0.748342 0.374398 0.429504
Si Si4 0.249090 0.626306 0.049274
Si Si5 0.250123 0.808086 0.210659
Si Si6 0.248861 0.862167 0.773159
Si Si7 0.751052 0.461860 0.241777
Si Si8 0.749012 0.782665 0.672281
O O1 0.501434 0.409498 0.575595
O O2 0.251353 0.248500 0.558534
O O3 0.249920 0.324102 0.649232
O O4 0.000962 0.409628 0.575293
O O5 0.496877 0.408240 0.403234
O O6 0.247710 0.247812 0.421993
O O7 0.249931 0.317787 0.330021
O O8 0.999076 0.408037 0.402850
O O9 0.749754 0.396515 0.489431
O O10 0.500048 0.749943 0.223768
O O11 0.250359 0.919037 0.234767
O O12 0.248778 0.780753 0.726816
O O13 0.497099 0.925851 0.767474
O O14 0.999972 0.925472 0.767707
O O15 0.750719 0.399986 0.187921
O O16 0.498941 0.750091 0.646311
#
# Coordination Sequence:
#
# PCOD9344354 Si02
#       8
#     4   4   4   4   4   4   4   4
#     4  10  16  27  44  56  74 114 145 192 215 271
#     4  10  18  25  39  59  87 120 149 177 202 252
#     4  10  19  24  38  65  88 116 150 189 190 268
#     4  10  16  28  40  60  85 110 153 178 222 252
#     4  12  21  35  48  66  83 115 165 210 245 261
#     4  10  19  31  46  63  90 123 155 186 227 271
#     4  10  21  31  45  65  85 111 158 208 229 268
#     4   8  16  27  44  60  80 111 141 180 220 263
#
# _framework density 16.848020999999999
#
# number of rings (size 3 to 8) (size 9 to 14) (size 15 to 20)
#    0.000    2.000    2.500    5.250   10.500    0.000 
#    0.000    0.000    0.000    0.000    0.000    0.000 
#    0.000    0.000    0.000    0.000    0.000  435.000 
#
# Total GULP energy -178246.503170 kJ/mol
# GULP energy per Si atom -5570.203224 kJ/mol
# Density = 1.680967 g / cm^3
# Si number density = 16.848021 Si / 1000 Ang^3
#
#
#
# Elastic Constant Matrix: (Units=GPa)
#
#
# Indices 1 2 3 4 5 6 
#
# 1 203.6911 31.0570 8.6270 0.0000 0.0000 0.0000
# 2 31.0570 58.1755 2.7348 0.0000 0.0000 0.0000
# 3 8.6270 2.7348 16.2732 0.0000 0.0000 0.0000
# 4 0.0000 0.0000 0.0000 -2.4250 0.0000 0.0000
# 5 0.0000 0.0000 0.0000 0.0000 14.9337 0.0000
# 6 0.0000 0.0000 0.0000 0.0000 0.0000 15.0087
#
#
#
# Elastic Compliance Matrix: (Units=1/GPa)
#
#
# Indices 1 2 3 4 5 6 
#
# 1 0.005437 -0.002789 -0.002414 0.000000 0.000000 0.000000
# 2 -0.002789 0.018757 -0.001674 0.000000 0.000000 0.000000
# 3 -0.002414 -0.001674 0.063012 0.000000 0.000000 0.000000
# 4 0.000000 0.000000 0.000000 -0.412367 0.000000 0.000000
# 5 0.000000 0.000000 0.000000 0.000000 0.066963 0.000000
# 6 0.000000 0.000000 0.000000 0.000000 0.000000 0.066628
#
#
# Mechanical properties :
#
#
# Convention : Reuss Voigt Hill
#
# Bulk Modulus (GPa) = 13.61416 40.33082 26.97249
# Shear Modulus (GPa) = -32.60850 21.21821 -5.69515
#
# Velocity S-wave (km/s) = -4.40415 3.55264 -1.84056
# Velocity P-wave (km/s) = 4.21473 6.38892 3.39517
#
# Compressibility (1/GPa) = 0.07345291
#
# Stress axis : x y z
#
# Youngs Moduli (GPa) = 183.92975 53.31358 15.87008
#
# Poissons Ratio (x) = 0.14869 0.03830
# Poissons Ratio (y) = 0.51298 0.02656
# Poissons Ratio (z) = 0.44392 0.08923
#
# Static dielectric constant tensor:
#      x y z
#    x 1.668070 0.000000 0.000000 
#    y 0.000000 1.537620 0.000000 
#    z 0.000000 0.000000 1.553800 
# 
# From -- ./inp_files/9208.got.cif
#   From: 2010.05.17/outbox.cif.g08.bks.cpg/sg33_5_cif.got.tgz:9208.got - 2010.06.03 17:15:25.
