data_PCOD9344954
_publ_section_title
;
Structure prediction by ZEFSAII (Michael W. Deem and Ramdas Pophale) SiO2 
 PCOD9344954
Probable space group: P N A 21
;
_chemical_formula_sum "Si O2"
_cell_formula_units_Z 28
_cell_length_a 17.417658
_cell_length_b 6.200205
_cell_length_c 13.011904
_cell_angle_alpha 90.000000
_cell_angle_beta 90.000000
_cell_angle_gamma 90.000000
_cell_volume 1405.195202
_symmetry_space_group_name_H-M "P N A 21"
_symmetry_group_IT_number 33
_symmetry_cell_setting 'orthorhombic'
loop_
_space_group_symop_operation_xyz
x,y,z
-x,-y,1/2+z
1/2-x,1/2+y,1/2+z
1/2+x,1/2-y,z
loop_
_atom_site_type_symbol
_atom_site_label
_atom_site_fract_x
_atom_site_fract_y
_atom_site_fract_z
Si Si1 0.435006 0.182519 0.395450
Si Si2 0.703510 0.554482 0.875535
Si Si3 0.645044 0.168762 0.740495
Si Si4 0.354956 0.168762 0.907499
Si Si5 0.435006 0.817481 0.752544
Si Si6 0.038597 0.500000 0.573997
Si Si7 0.296490 0.554482 0.772460
O O1 0.367116 0.336400 0.432691
O O2 0.500000 0.292567 0.323997
O O3 0.396816 0.989551 0.325352
O O4 0.482905 0.102181 0.490963
O O5 0.663421 0.397114 0.792385
O O6 0.770088 0.424044 0.932513
O O7 0.750000 0.750000 0.823997
O O8 0.593199 0.160621 0.639077
O O9 0.729912 0.075956 0.715481
O O10 0.336579 0.397114 0.855609
O O11 0.396816 0.010449 0.822643
O O12 0.406801 0.160621 0.008917
O O13 0.482904 0.897820 0.657031
O O14 0.367116 0.663600 0.715304
#
# Coordination Sequence:
#
# PCOD9344954 Si02
#       7
#     4   4   4   4   4   4   4
#     4   9  19  36  57  85 119 153 200 252 305 360
#     4   9  18  38  59  80 115 166 199 242 307 363
#     4   9  19  38  60  82 123 157 196 252 307 360
#     4   9  19  38  60  82 123 157 196 252 307 360
#     4   9  19  36  57  85 119 153 200 252 305 360
#     4  10  20  38  60  94 120 154 208 256 302 364
#     4   9  18  38  59  80 115 166 199 242 307 363
#
# _framework density 19.926057
#
# number of rings (size 3 to 8) (size 9 to 14) (size 15 to 20)
#    0.000    2.857    0.000    0.000    0.000    3.429 
#   15.429   20.000    0.000    0.000    0.000    0.000 
#    0.000    0.000    0.000    0.000    0.000    0.000 
#
# Total GULP energy -155879.745497 kJ/mol
# GULP energy per Si atom -5567.133768 kJ/mol
# Density = 1.988070 g / cm^3
# Si number density = 19.926057 Si / 1000 Ang^3
#
#
#
# Elastic Constant Matrix: (Units=GPa)
#
#
# Indices 1 2 3 4 5 6 
#
# 1 164.6200 39.6155 56.2851 0.0000 0.0000 0.0000
# 2 39.6155 57.5201 5.1165 0.0000 0.0000 0.0000
# 3 56.2851 5.1165 77.3856 0.0000 0.0000 0.0000
# 4 0.0000 0.0000 0.0000 2.7737 0.0000 0.0000
# 5 0.0000 0.0000 0.0000 0.0000 19.5078 0.0000
# 6 0.0000 0.0000 0.0000 0.0000 0.0000 -10.3678
#
#
#
# Elastic Compliance Matrix: (Units=1/GPa)
#
#
# Indices 1 2 3 4 5 6 
#
# 1 0.009886 -0.006206 -0.006780 0.000000 0.000000 0.000000
# 2 -0.006206 0.021384 0.003100 0.000000 0.000000 0.000000
# 3 -0.006780 0.003100 0.017649 0.000000 0.000000 0.000000
# 4 0.000000 0.000000 0.000000 0.360526 0.000000 0.000000
# 5 0.000000 0.000000 0.000000 0.000000 0.051262 0.000000
# 6 0.000000 0.000000 0.000000 0.000000 0.000000 -0.096452
#
#
# Mechanical properties :
#
#
# Convention : Reuss Voigt Hill
#
# Bulk Modulus (GPa) = 34.30976 55.72890 45.01933
# Shear Modulus (GPa) = 12.69869 15.61665 14.15767
#
# Velocity S-wave (km/s) = 2.52720 2.80255 2.66843
# Velocity P-wave (km/s) = 5.07657 6.20492 5.66889
#
# Compressibility (1/GPa) = 0.02914622
#
# Stress axis : x y z
#
# Youngs Moduli (GPa) = 101.15065 46.76495 56.66083
#
# Poissons Ratio (x) = 0.29021 0.38418
# Poissons Ratio (y) = 0.62772 -0.17564
# Poissons Ratio (z) = 0.68583 -0.14496
#
# Static dielectric constant tensor:
#      x y z
#    x 1.722250 0.000000 0.000000 
#    y 0.000000 1.736650 0.000000 
#    z 0.000000 0.000000 1.794470 
# 
# From -- ./inp_files/6936.got.cif
#   From: 2010.05.17/outbox.cif.g08.bks.cpg/sg33_4_cif.got.tgz:6936.got - 2010.06.03 17:15:25.
