data_PCOD9344852
_publ_section_title
;
Structure prediction by ZEFSAII (Michael W. Deem and Ramdas Pophale) SiO2 
 PCOD9344852
Probable space group: P N A 21
;
_chemical_formula_sum "Si O2"
_cell_formula_units_Z 32
_cell_length_a 17.147090
_cell_length_b 14.167691
_cell_length_c 5.716707
_cell_angle_alpha 90.000000
_cell_angle_beta 90.000000
_cell_angle_gamma 90.000000
_cell_volume 1388.786344
_symmetry_space_group_name_H-M "P N A 21"
_symmetry_group_IT_number 33
_symmetry_cell_setting 'orthorhombic'
loop_
_space_group_symop_operation_xyz
x,y,z
-x,-y,1/2+z
1/2-x,1/2+y,1/2+z
1/2+x,1/2-y,z
loop_
_atom_site_type_symbol
_atom_site_label
_atom_site_fract_x
_atom_site_fract_y
_atom_site_fract_z
Si Si1 0.437465 0.137329 0.765840
Si Si2 0.320745 0.902692 0.257957
Si Si3 0.326357 0.453216 0.997534
Si Si4 0.636870 0.372159 0.156459
Si Si5 0.956271 0.569437 0.619759
Si Si6 0.429466 0.780944 0.003403
Si Si7 0.506508 0.553246 0.435949
Si Si8 0.772785 0.434548 0.888725
O O1 0.485270 0.217657 0.626591
O O2 0.345154 0.119554 0.765663
O O3 0.474863 0.037879 0.677746
O O4 0.471559 0.132020 0.027407
O O5 0.383839 0.937798 0.444495
O O6 0.238951 0.887837 0.385572
O O7 0.359364 0.805285 0.177856
O O8 0.306672 0.985399 0.066040
O O9 0.410336 0.403020 0.014213
O O10 0.285504 0.507108 0.215522
O O11 0.346785 0.534462 0.810129
O O12 0.597665 0.302404 0.339706
O O13 0.570459 0.384300 0.960854
O O14 0.719802 0.360147 0.031473
O O15 0.927737 0.626729 0.840635
O O16 0.505315 0.518098 0.163769
#
# Coordination Sequence:
#
# PCOD9344852 Si02
#       8
#     4   4   4   4   4   4   4   4
#     4  11  20  33  62  92 122 169 220 267 322 420
#     4  10  20  35  63  97 123 170 220 282 333 410
#     4  10  20  38  71  93 124 172 234 287 335 416
#     4  10  24  40  64  94 133 177 222 288 364 416
#     4  11  19  35  62  88 126 166 214 257 324 412
#     4  11  23  38  62  94 139 171 215 279 352 422
#     4  10  20  41  70 100 126 178 238 289 346 429
#     4  11  20  38  66  92 123 167 233 281 336 413
#
# _framework density 23.041701
#
# number of rings (size 3 to 8) (size 9 to 14) (size 15 to 20)
#    0.000    1.500    5.000    0.750    0.000    2.000 
#    0.000    0.000   16.500    0.000    0.000    0.000 
#    0.000    0.000    0.000    0.000    0.000    0.000 
#
# Total GULP energy -178300.638696 kJ/mol
# GULP energy per Si atom -5571.894959 kJ/mol
# Density = 2.298926 g / cm^3
# Si number density = 23.041701 Si / 1000 Ang^3
#
#
#
# Elastic Constant Matrix: (Units=GPa)
#
#
# Indices 1 2 3 4 5 6 
#
# 1 159.8206 14.4882 22.5909 0.0000 0.0000 0.0000
# 2 14.4882 26.2792 1.9163 0.0000 0.0000 0.0000
# 3 22.5909 1.9163 43.2152 0.0000 0.0000 0.0000
# 4 0.0000 0.0000 0.0000 43.7057 0.0000 0.0000
# 5 0.0000 0.0000 0.0000 0.0000 43.6666 0.0000
# 6 0.0000 0.0000 0.0000 0.0000 0.0000 17.6790
#
#
#
# Elastic Compliance Matrix: (Units=1/GPa)
#
#
# Indices 1 2 3 4 5 6 
#
# 1 0.007089 -0.003650 -0.003544 0.000000 0.000000 0.000000
# 2 -0.003650 0.040055 0.000132 0.000000 0.000000 0.000000
# 3 -0.003544 0.000132 0.024987 0.000000 0.000000 0.000000
# 4 0.000000 0.000000 0.000000 0.022880 0.000000 0.000000
# 5 0.000000 0.000000 0.000000 0.000000 0.022901 0.000000
# 6 0.000000 0.000000 0.000000 0.000000 0.000000 0.056564
#
#
# Mechanical properties :
#
#
# Convention : Reuss Voigt Hill
#
# Bulk Modulus (GPa) = 17.23922 34.14508 25.69215
# Shear Modulus (GPa) = 24.04586 33.69824 28.87205
#
# Velocity S-wave (km/s) = 3.23395 3.82840 3.54366
# Velocity P-wave (km/s) = 4.63062 5.86457 5.28374
#
# Compressibility (1/GPa) = 0.05800726
#
# Stress axis : x y z
#
# Youngs Moduli (GPa) = 141.06743 24.96538 40.02123
#
# Poissons Ratio (x) = 0.09112 0.14183
# Poissons Ratio (y) = 0.51486 -0.00527
# Poissons Ratio (z) = 0.49992 -0.00329
#
# Static dielectric constant tensor:
#      x y z
#    x 1.913890 0.000000 0.000000 
#    y 0.000000 1.887600 0.000000 
#    z 0.000000 0.000000 2.038400 
# 
# From -- ./inp_files/1802.got.cif
#   From: 2010.05.17/outbox.cif.g08.bks.cpg/sg33_1_cif.got.tgz:1802.got - 2010.06.03 17:15:25.
