data_PCOD9344657
_publ_section_title
;
Structure prediction by ZEFSAII (Michael W. Deem and Ramdas Pophale) SiO2 
 PCOD9344657
Probable space group: P N A 21
;
_chemical_formula_sum "Si O2"
_cell_formula_units_Z 32
_cell_length_a 16.388490
_cell_length_b 11.786674
_cell_length_c 7.611850
_cell_angle_alpha 90.000000
_cell_angle_beta 90.000000
_cell_angle_gamma 90.000000
_cell_volume 1470.349011
_symmetry_space_group_name_H-M "P N A 21"
_symmetry_group_IT_number 33
_symmetry_cell_setting 'orthorhombic'
loop_
_space_group_symop_operation_xyz
x,y,z
-x,-y,1/2+z
1/2-x,1/2+y,1/2+z
1/2+x,1/2-y,z
loop_
_atom_site_type_symbol
_atom_site_label
_atom_site_fract_x
_atom_site_fract_y
_atom_site_fract_z
Si Si1 0.266946 0.618004 0.844080
Si Si2 0.455483 0.824111 0.482204
Si Si3 0.129304 0.716685 0.635114
Si Si4 0.889268 0.042317 0.990039
Si Si5 0.034200 0.115067 0.756720
Si Si6 0.873817 0.674713 0.837657
Si Si7 0.040280 0.729003 0.008463
Si Si8 0.636370 0.970689 0.108714
O O1 0.207670 0.638351 0.676964
O O2 0.341338 0.529469 0.842747
O O3 0.302683 0.741526 0.893014
O O4 0.215145 0.567159 0.004409
O O5 0.551288 0.831927 0.529772
O O6 0.435271 0.736638 0.329081
O O7 0.410313 0.774216 0.655255
O O8 0.416762 0.949265 0.475596
O O9 0.092351 0.738203 0.830649
O O10 0.149777 0.836695 0.542912
O O11 0.979055 0.067036 0.912694
O O12 0.901107 0.966739 0.165576
O O13 0.973089 0.152164 0.600810
O O14 0.849050 0.548868 0.777575
O O15 0.951673 0.678212 0.961945
O O16 0.084616 0.641791 0.138062
#
# Coordination Sequence:
#
# PCOD9344657 Si02
#       8
#     4   4   4   4   4   4   4   4
#     4  11  20  37  64  91 126 166 202 262 326 364
#     4   8  20  38  62  89 114 161 216 251 294 384
#     4   9  20  39  61  85 122 165 210 253 309 377
#     4  11  23  38  62  88 125 168 201 261 318 365
#     4  11  22  36  64  90 119 159 216 251 305 380
#     4   9  19  37  59  89 123 159 203 255 311 368
#     4  10  19  36  61  89 120 159 210 255 299 375
#     4   9  21  35  65  87 123 165 202 256 314 367
#
# _framework density 21.763542000000001
#
# number of rings (size 3 to 8) (size 9 to 14) (size 15 to 20)
#    0.750    1.500    1.250    1.500    5.250    0.000 
#    0.000    2.500    5.500    0.000    0.000    0.000 
#    0.000    0.000    0.000    0.000    0.000    0.000 
#
# Total GULP energy -178315.650369 kJ/mol
# GULP energy per Si atom -5572.364074 kJ/mol
# Density = 2.171401 g / cm^3
# Si number density = 21.763542 Si / 1000 Ang^3
#
#
#
# Elastic Constant Matrix: (Units=GPa)
#
#
# Indices 1 2 3 4 5 6 
#
# 1 46.1024 29.2676 -7.0793 0.0000 0.0000 0.0000
# 2 29.2676 90.5512 13.8986 0.0000 0.0000 0.0000
# 3 -7.0793 13.8986 53.5001 0.0000 0.0000 0.0000
# 4 0.0000 0.0000 0.0000 41.5631 0.0000 0.0000
# 5 0.0000 0.0000 0.0000 0.0000 5.2985 0.0000
# 6 0.0000 0.0000 0.0000 0.0000 0.0000 31.7296
#
#
#
# Elastic Compliance Matrix: (Units=1/GPa)
#
#
# Indices 1 2 3 4 5 6 
#
# 1 0.029381 -0.010512 0.006619 0.000000 0.000000 0.000000
# 2 -0.010512 0.015263 -0.005356 0.000000 0.000000 0.000000
# 3 0.006619 -0.005356 0.020959 0.000000 0.000000 0.000000
# 4 0.000000 0.000000 0.000000 0.024060 0.000000 0.000000
# 5 0.000000 0.000000 0.000000 0.000000 0.188733 0.000000
# 6 0.000000 0.000000 0.000000 0.000000 0.000000 0.031516
#
#
# Mechanical properties :
#
#
# Convention : Reuss Voigt Hill
#
# Bulk Modulus (GPa) = 21.22992 29.14751 25.18871
# Shear Modulus (GPa) = 14.53012 25.98937 20.25975
#
# Velocity S-wave (km/s) = 2.58667 3.45943 3.05438
# Velocity P-wave (km/s) = 4.32402 5.42021 4.90285
#
# Compressibility (1/GPa) = 0.04710334
#
# Stress axis : x y z
#
# Youngs Moduli (GPa) = 34.03593 65.51657 47.71260
#
# Poissons Ratio (x) = 0.68872 -0.31579
# Poissons Ratio (y) = 0.35779 0.25556
# Poissons Ratio (z) = -0.22527 0.35092
#
# Static dielectric constant tensor:
#      x y z
#    x 1.829350 0.000000 0.000000 
#    y 0.000000 1.804130 0.000000 
#    z 0.000000 0.000000 1.808030 
# 
# From -- ./inp_files/4844.got.cif
#   From: 2010.05.17/outbox.cif.g08.bks.cpg/sg33_3_cif.got.tgz:4844.got - 2010.06.03 17:15:25.
