data_PCOD9344895
_publ_section_title
;
Structure prediction by ZEFSAII (Michael W. Deem and Ramdas Pophale) SiO2 
 PCOD9344895
Probable space group: P N A 21
;
_chemical_formula_sum "Si O2"
_cell_formula_units_Z 24
_cell_length_a 12.868264
_cell_length_b 6.343644
_cell_length_c 13.482177
_cell_angle_alpha 90.000000
_cell_angle_beta 90.000000
_cell_angle_gamma 90.000000
_cell_volume 1100.572836
_symmetry_space_group_name_H-M "P N A 21"
_symmetry_group_IT_number 33
_symmetry_cell_setting 'orthorhombic'
loop_
_space_group_symop_operation_xyz
x,y,z
-x,-y,1/2+z
1/2-x,1/2+y,1/2+z
1/2+x,1/2-y,z
loop_
_atom_site_type_symbol
_atom_site_label
_atom_site_fract_x
_atom_site_fract_y
_atom_site_fract_z
Si Si1 0.343339 0.387752 0.842600
Si Si2 0.807671 0.662863 0.610411
Si Si3 0.859155 0.876056 0.046442
Si Si4 0.713636 0.990697 0.455031
Si Si5 0.992771 0.876606 0.695560
Si Si6 0.679849 0.797882 0.805261
O O1 0.414498 0.468635 0.753834
O O2 0.224522 0.468208 0.824649
O O3 0.344005 0.143653 0.870163
O O4 0.379677 0.510287 0.941524
O O5 0.758611 0.439759 0.579571
O O6 0.748305 0.721200 0.711744
O O7 0.927146 0.708927 0.631569
O O8 0.771652 0.824765 0.524874
O O9 0.935284 0.977883 0.126300
O O10 0.861220 0.629199 0.024576
O O11 0.788829 0.152408 0.398200
O O12 0.063100 0.746105 0.772831
#
# Coordination Sequence:
#
# PCOD9344895 Si02
#       6
#     4   4   4   4   4   4
#     4   9  20  40  63  90 130 169 210 267 322 382
#     4   9  20  38  61  88 127 167 212 267 318 383
#     4   9  20  40  63  90 130 169 210 267 322 382
#     4  10  20  40  62  86 134 178 204 262 338 374
#     4  10  20  36  66  94 128 164 226 264 320 390
#     4   9  20  38  61  88 127 167 212 267 318 383
#
# _framework density 21.806826000000001
#
# number of rings (size 3 to 8) (size 9 to 14) (size 15 to 20)
#    0.000    2.667    0.000    0.000    2.333    5.333 
#    0.000   26.667   14.667    0.000    0.000    0.000 
#    0.000    0.000    0.000    0.000    0.000    0.000 
#
# Total GULP energy -133907.532551 kJ/mol
# GULP energy per Si atom -5579.480523 kJ/mol
# Density = 2.175719 g / cm^3
# Si number density = 21.806826 Si / 1000 Ang^3
#
#
#
# Elastic Constant Matrix: (Units=GPa)
#
#
# Indices 1 2 3 4 5 6 
#
# 1 65.8311 34.0838 3.0331 0.0000 0.0000 0.0000
# 2 34.0838 85.0178 10.9412 0.0000 0.0000 0.0000
# 3 3.0331 10.9412 63.8985 0.0000 0.0000 0.0000
# 4 0.0000 0.0000 0.0000 25.7020 0.0000 0.0000
# 5 0.0000 0.0000 0.0000 0.0000 27.2852 0.0000
# 6 0.0000 0.0000 0.0000 0.0000 0.0000 2.3726
#
#
#
# Elastic Compliance Matrix: (Units=1/GPa)
#
#
# Indices 1 2 3 4 5 6 
#
# 1 0.019180 -0.007743 0.000415 0.000000 0.000000 0.000000
# 2 -0.007743 0.015153 -0.002227 0.000000 0.000000 0.000000
# 3 0.000415 -0.002227 0.016011 0.000000 0.000000 0.000000
# 4 0.000000 0.000000 0.000000 0.038907 0.000000 0.000000
# 5 0.000000 0.000000 0.000000 0.000000 0.036650 0.000000
# 6 0.000000 0.000000 0.000000 0.000000 0.000000 0.421478
#
#
# Mechanical properties :
#
#
# Convention : Reuss Voigt Hill
#
# Bulk Modulus (GPa) = 32.01490 34.54038 33.27764
# Shear Modulus (GPa) = 8.66701 22.18459 15.42580
#
# Velocity S-wave (km/s) = 1.99576 3.19301 2.66255
# Velocity P-wave (km/s) = 4.47479 5.42839 4.97449
#
# Compressibility (1/GPa) = 0.03123545
#
# Stress axis : x y z
#
# Youngs Moduli (GPa) = 52.13756 65.99377 62.45532
#
# Poissons Ratio (x) = 0.51097 -0.02594
# Poissons Ratio (y) = 0.40369 0.13909
# Poissons Ratio (z) = -0.02166 0.14697
#
# Static dielectric constant tensor:
#      x y z
#    x 1.830940 0.000000 0.000000 
#    y 0.000000 1.826190 0.000000 
#    z 0.000000 0.000000 1.814470 
# 
# From -- ./inp_files/7833.got.cif
#   From: 2010.05.17/outbox.cif.g08.bks.cpg/sg33_4_cif.got.tgz:7833.got - 2010.06.03 17:15:25.
