data_PCOD9344773
_publ_section_title
;
Structure prediction by ZEFSAII (Michael W. Deem and Ramdas Pophale) SiO2 
 PCOD9344773
Probable space group: P N A 21
;
_chemical_formula_sum "Si O2"
_cell_formula_units_Z 24
_cell_length_a 10.069464
_cell_length_b 6.322903
_cell_length_c 12.723965
_cell_angle_alpha 90.000000
_cell_angle_beta 90.000000
_cell_angle_gamma 90.000000
_cell_volume 810.112510
_symmetry_space_group_name_H-M "P N A 21"
_symmetry_group_IT_number 33
_symmetry_cell_setting 'orthorhombic'
loop_
_space_group_symop_operation_xyz
x,y,z
-x,-y,1/2+z
1/2-x,1/2+y,1/2+z
1/2+x,1/2-y,z
loop_
_atom_site_type_symbol
_atom_site_label
_atom_site_fract_x
_atom_site_fract_y
_atom_site_fract_z
Si Si1 0.836557 0.435627 0.723910
Si Si2 0.336923 0.674022 0.883216
Si Si3 0.074473 0.245281 0.049335
Si Si4 0.501869 0.580382 0.235037
Si Si5 0.171221 0.530775 0.519412
Si Si6 0.329523 0.903119 0.247068
O O1 0.831025 0.615658 0.812844
O O2 0.860880 0.557973 0.613555
O O3 0.833784 0.168202 0.722899
O O4 0.005968 0.357678 0.747964
O O5 0.466657 0.552494 0.842010
O O6 0.209639 0.531694 0.853668
O O7 0.341538 0.781347 0.996701
O O8 0.953933 0.336671 0.981613
O O9 0.190617 0.130056 0.985710
O O10 0.016485 0.075996 0.133027
O O11 0.335448 0.624776 0.233563
O O12 0.166676 0.556410 0.644904
#
# Coordination Sequence:
#
# PCOD9344773 Si02
#       6
#     4   4   4   4   4   4
#     4  10  19  44  69 108 150 211 254 328 406 479
#     4  10  25  45  70 117 163 206 278 339 414 494
#     4  11  23  46  79 117 158 216 275 335 413 495
#     4  10  21  43  76 108 152 217 267 336 410 484
#     4  12  24  49  81 117 164 215 275 339 411 504
#     4  11  22  45  79 105 161 215 265 337 416 484
#
# _framework density 29.625515
#
# number of rings (size 3 to 8) (size 9 to 14) (size 15 to 20)
#    0.000    1.333    6.667    1.000    0.000    0.000 
#   15.000    3.333    3.667    2.000    0.000    0.000 
#    0.000    0.000    0.000    0.000    0.000    0.000 
#
# Total GULP energy -134361.675946 kJ/mol
# GULP energy per Si atom -5598.403164 kJ/mol
# Density = 2.955809 g / cm^3
# Si number density = 29.625515 Si / 1000 Ang^3
#
#
#
# Elastic Constant Matrix: (Units=GPa)
#
#
# Indices 1 2 3 4 5 6 
#
# 1 316.2080 123.6422 39.2246 0.0000 0.0000 0.0000
# 2 123.6422 192.8037 52.4476 0.0000 0.0000 0.0000
# 3 39.2246 52.4476 87.7801 0.0000 0.0000 0.0000
# 4 0.0000 0.0000 0.0000 43.4274 0.0000 0.0000
# 5 0.0000 0.0000 0.0000 0.0000 30.1257 0.0000
# 6 0.0000 0.0000 0.0000 0.0000 0.0000 97.7378
#
#
#
# Elastic Compliance Matrix: (Units=1/GPa)
#
#
# Indices 1 2 3 4 5 6 
#
# 1 0.004228 -0.002624 -0.000322 0.000000 0.000000 0.000000
# 2 -0.002624 0.007822 -0.003501 0.000000 0.000000 0.000000
# 3 -0.000322 -0.003501 0.013627 0.000000 0.000000 0.000000
# 4 0.000000 0.000000 0.000000 0.023027 0.000000 0.000000
# 5 0.000000 0.000000 0.000000 0.000000 0.033194 0.000000
# 6 0.000000 0.000000 0.000000 0.000000 0.000000 0.010231
#
#
# Mechanical properties :
#
#
# Convention : Reuss Voigt Hill
#
# Bulk Modulus (GPa) = 78.21901 114.15784 96.18842
# Shear Modulus (GPa) = 45.75194 59.69002 52.72098
#
# Velocity S-wave (km/s) = 3.93408 4.49354 4.22308
# Velocity P-wave (km/s) = 6.86264 8.09567 7.50452
#
# Compressibility (1/GPa) = 0.01278462
#
# Stress axis : x y z
#
# Youngs Moduli (GPa) = 236.49283 127.84819 73.38104
#
# Poissons Ratio (x) = 0.33550 0.02360
# Poissons Ratio (y) = 0.62060 0.25689
# Poissons Ratio (z) = 0.07605 0.44757
#
# Static dielectric constant tensor:
#      x y z
#    x 2.406190 0.000000 0.000000 
#    y 0.000000 2.217500 0.000000 
#    z 0.000000 0.000000 2.220150 
# 
# From -- ./inp_files/7865.got.cif
#   From: 2010.05.17/outbox.cif.g08.bks.cpg/sg33_4_cif.got.tgz:7865.got - 2010.06.03 17:15:25.
