data_PCOD9344627
_publ_section_title
;
Structure prediction by ZEFSAII (Michael W. Deem and Ramdas Pophale) SiO2 
 PCOD9344627
Probable space group: P N A 21
;
_chemical_formula_sum "Si O2"
_cell_formula_units_Z 32
_cell_length_a 5.696750
_cell_length_b 17.252769
_cell_length_c 13.932619
_cell_angle_alpha 90.000000
_cell_angle_beta 90.000000
_cell_angle_gamma 90.000000
_cell_volume 1369.363443
_symmetry_space_group_name_H-M "P N A 21"
_symmetry_group_IT_number 33
_symmetry_cell_setting 'orthorhombic'
loop_
_space_group_symop_operation_xyz
x,y,z
-x,-y,1/2+z
1/2-x,1/2+y,1/2+z
1/2+x,1/2-y,z
loop_
_atom_site_type_symbol
_atom_site_label
_atom_site_fract_x
_atom_site_fract_y
_atom_site_fract_z
Si Si1 0.447630 0.330002 0.405030
Si Si2 0.173811 0.114144 0.226333
Si Si3 0.439253 0.220457 0.576158
Si Si4 0.592453 0.295456 0.813935
Si Si5 0.054978 0.449263 0.348356
Si Si6 0.093663 0.205020 0.038993
Si Si7 0.296902 0.064266 0.528348
Si Si8 0.391274 0.539525 0.228097
O O1 0.558672 0.323674 0.299582
O O2 0.413579 0.253100 0.466705
O O3 0.613464 0.382212 0.471973
O O4 0.224660 0.384532 0.392632
O O5 0.434271 0.100520 0.263543
O O6 0.127427 0.138363 0.118431
O O7 0.070057 0.029292 0.251483
O O8 0.682179 0.255237 0.616062
O O9 0.465629 0.128318 0.577677
O O10 0.360770 0.239361 0.801127
O O11 0.541524 0.372781 0.751388
O O12 0.591440 0.318676 0.927273
O O13 0.914318 0.480411 0.441049
O O14 0.174411 0.520690 0.296816
O O15 0.334389 0.256054 0.054238
O O16 0.176353 0.024786 0.617619
#
# Coordination Sequence:
#
# PCOD9344627 Si02
#       8
#     4   4   4   4   4   4   4   4
#     4   9  20  38  59  92 134 176 214 275 350 414
#     4  10  24  41  67 103 141 182 239 290 367 430
#     4  10  19  35  60  90 129 172 213 268 338 406
#     4  10  25  51  76 103 141 191 250 307 365 429
#     4  10  22  43  62  97 137 178 229 285 358 429
#     4  10  24  45  72 105 143 193 245 303 361 432
#     4  10  22  40  61  97 134 176 229 280 357 424
#     4  11  26  43  71 103 137 190 239 302 364 436
#
# _framework density 23.368521999999999
#
# number of rings (size 3 to 8) (size 9 to 14) (size 15 to 20)
#    0.000    2.000    1.250    0.000    5.250   10.000 
#    2.250    0.000    0.000    0.000    0.000    0.000 
#    0.000    0.000    0.000    0.000    0.000    0.000 
#
# Total GULP energy -178429.721891 kJ/mol
# GULP energy per Si atom -5575.928809 kJ/mol
# Density = 2.331533 g / cm^3
# Si number density = 23.368522 Si / 1000 Ang^3
#
#
#
# Elastic Constant Matrix: (Units=GPa)
#
#
# Indices 1 2 3 4 5 6 
#
# 1 89.6293 17.0292 35.2008 0.0000 0.0000 0.0000
# 2 17.0292 48.9891 26.7388 0.0000 0.0000 0.0000
# 3 35.2008 26.7388 87.4897 0.0000 0.0000 0.0000
# 4 0.0000 0.0000 0.0000 20.8367 0.0000 0.0000
# 5 0.0000 0.0000 0.0000 0.0000 -8.3583 0.0000
# 6 0.0000 0.0000 0.0000 0.0000 0.0000 15.1193
#
#
#
# Elastic Compliance Matrix: (Units=1/GPa)
#
#
# Indices 1 2 3 4 5 6 
#
# 1 0.013422 -0.002062 -0.004770 0.000000 0.000000 0.000000
# 2 -0.002062 0.024816 -0.006755 0.000000 0.000000 0.000000
# 3 -0.004770 -0.006755 0.015414 0.000000 0.000000 0.000000
# 4 0.000000 0.000000 0.000000 0.047992 0.000000 0.000000
# 5 0.000000 0.000000 0.000000 0.000000 -0.119641 0.000000
# 6 0.000000 0.000000 0.000000 0.000000 0.000000 0.066140
#
#
# Mechanical properties :
#
#
# Convention : Reuss Voigt Hill
#
# Bulk Modulus (GPa) = 37.76701 42.67176 40.21938
# Shear Modulus (GPa) = 59.42192 15.32882 37.37537
#
# Velocity S-wave (km/s) = 5.04811 2.56395 4.00358
# Velocity P-wave (km/s) = 7.08339 5.20242 6.21448
#
# Compressibility (1/GPa) = 0.02647814
#
# Stress axis : x y z
#
# Youngs Moduli (GPa) = 74.50308 40.29594 64.87810
#
# Poissons Ratio (x) = 0.08310 0.30947
# Poissons Ratio (y) = 0.15364 0.43824
# Poissons Ratio (z) = 0.35539 0.27219
#
# Static dielectric constant tensor:
#      x y z
#    x 2.034750 0.000000 0.000000 
#    y 0.000000 1.865500 0.000000 
#    z 0.000000 0.000000 1.921050 
# 
# From -- ./inp_files/7460.got.cif
#   From: 2010.05.17/outbox.cif.g08.bks.cpg/sg33_4_cif.got.tgz:7460.got - 2010.06.03 17:15:25.
