data_PCOD9344227
_publ_section_title
;
Structure prediction by ZEFSAII (Michael W. Deem and Ramdas Pophale) SiO2 
 PCOD9344227
Probable space group: P B A 2
;
_chemical_formula_sum "Si O2"
_cell_formula_units_Z 32
_cell_length_a 11.346216
_cell_length_b 13.860708
_cell_length_c 8.296403
_cell_angle_alpha 90.000000
_cell_angle_beta 90.000000
_cell_angle_gamma 90.000000
_cell_volume 1304.746983
_symmetry_space_group_name_H-M "P B A 2"
_symmetry_group_IT_number 32
_symmetry_cell_setting 'orthorhombic'
loop_
_space_group_symop_operation_xyz
x,y,z
-x,-y,z
1/2-x,1/2+y,z
1/2+x,1/2-y,z
loop_
_atom_site_type_symbol
_atom_site_label
_atom_site_fract_x
_atom_site_fract_y
_atom_site_fract_z
Si Si1 0.420463 0.848986 0.639980
Si Si2 0.804162 0.851588 0.239518
Si Si3 0.527211 0.397057 0.989031
Si Si4 0.219390 0.865387 0.165951
Si Si5 0.445592 0.104371 0.312995
Si Si6 0.316467 0.436923 0.533083
Si Si7 0.934632 0.856564 0.546295
Si Si8 0.446221 0.830014 0.984675
O O1 0.500038 0.859203 0.480555
O O2 0.304091 0.913076 0.622256
O O3 0.380524 0.736937 0.628966
O O4 0.482852 0.870312 0.809890
O O5 0.855694 0.915729 0.096532
O O6 0.756542 0.745976 0.198552
O O7 0.693941 0.898336 0.327496
O O8 0.915364 0.840080 0.356425
O O9 0.500000 0.500000 0.899961
O O10 0.405287 0.379319 0.082558
O O11 0.558639 0.285444 0.945730
O O12 0.209134 0.913312 0.343462
O O13 0.326366 0.885704 0.040553
O O14 0.475604 0.158213 0.145327
O O15 0.500000 0.000000 0.290678
O O16 0.427111 0.368378 0.582351
O O17 0.366570 0.543114 0.571210
#
# Coordination Sequence:
#
# PCOD9344227 Si02
#       8
#     4   4   4   4   4   4   4   4
#     4  12  26  50  74 106 155 202 248 312 384 444
#     4  11  21  39  70 108 141 192 247 305 378 448
#     4  11  23  43  75 108 150 192 249 316 378 442
#     4  11  20  41  70 101 145 187 242 304 375 438
#     4  12  26  47  77 107 149 202 253 302 380 460
#     4  11  22  43  75 109 146 193 253 316 374 454
#     4  11  23  41  74 109 145 194 255 313 379 448
#     4  11  27  48  73 110 151 200 246 310 376 459
#
# _framework density 24.525828000000001
#
# number of rings (size 3 to 8) (size 9 to 14) (size 15 to 20)
#    0.000    0.750    5.000    3.000    1.750    1.500 
#    4.500    0.000    0.000    0.000    0.000    0.000 
#    0.000    0.000    0.000    0.000    0.000    0.000 
#
# Total GULP energy -178503.505292 kJ/mol
# GULP energy per Si atom -5578.234540 kJ/mol
# Density = 2.447001 g / cm^3
# Si number density = 24.525828 Si / 1000 Ang^3
#
#
#
# Elastic Constant Matrix: (Units=GPa)
#
#
# Indices 1 2 3 4 5 6 
#
# 1 106.9609 6.4203 29.6297 0.0000 0.0000 0.0000
# 2 6.4203 106.0721 28.7795 0.0000 0.0000 0.0000
# 3 29.6297 28.7795 132.5787 0.0000 0.0000 0.0000
# 4 0.0000 0.0000 0.0000 -15.4609 0.0000 0.0000
# 5 0.0000 0.0000 0.0000 0.0000 -3.5444 0.0000
# 6 0.0000 0.0000 0.0000 0.0000 0.0000 36.6726
#
#
#
# Elastic Compliance Matrix: (Units=1/GPa)
#
#
# Indices 1 2 3 4 5 6 
#
# 1 0.009966 0.000001 -0.002228 0.000000 0.000000 0.000000
# 2 0.000001 0.010018 -0.002175 0.000000 0.000000 0.000000
# 3 -0.002228 -0.002175 0.008513 0.000000 0.000000 0.000000
# 4 0.000000 0.000000 0.000000 -0.064679 0.000000 0.000000
# 5 0.000000 0.000000 0.000000 0.000000 -0.282138 0.000000
# 6 0.000000 0.000000 0.000000 0.000000 0.000000 0.027268
#
#
# Mechanical properties :
#
#
# Convention : Reuss Voigt Hill
#
# Bulk Modulus (GPa) = 50.77711 52.80786 51.79248
# Shear Modulus (GPa) = -18.13658 22.25227 2.05784
#
# Velocity S-wave (km/s) = -2.72231 3.01541 0.91699
# Velocity P-wave (km/s) = 3.29655 5.80533 4.72065
#
# Compressibility (1/GPa) = 0.01969391
#
# Stress axis : x y z
#
# Youngs Moduli (GPa) = 100.33897 99.82481 117.47252
#
# Poissons Ratio (x) = -0.00012 0.26168
# Poissons Ratio (y) = -0.00012 0.25548
# Poissons Ratio (z) = 0.22351 0.21710
#
# Static dielectric constant tensor:
#      x y z
#    x 1.930010 0.000000 0.000000 
#    y 0.000000 2.041330 0.000000 
#    z 0.000000 0.000000 2.071180 
# 
# From -- ./inp_files/2862.got.cif
#   From: 2010.05.17/outbox.cif.g08.bks.cpg/sg32_2_cif.got.tgz:2862.got - 2010.06.03 17:12:27.
