data_PCOD9344382
_publ_section_title
;
Structure prediction by ZEFSAII (Michael W. Deem and Ramdas Pophale) SiO2 
 PCOD9344382
Probable space group: P N A 21
;
_chemical_formula_sum "Si O2"
_cell_formula_units_Z 32
_cell_length_a 5.678017
_cell_length_b 25.510028
_cell_length_c 9.373638
_cell_angle_alpha 90.000000
_cell_angle_beta 90.000000
_cell_angle_gamma 90.000000
_cell_volume 1357.737463
_symmetry_space_group_name_H-M "P N A 21"
_symmetry_group_IT_number 33
_symmetry_cell_setting 'orthorhombic'
loop_
_space_group_symop_operation_xyz
x,y,z
-x,-y,1/2+z
1/2-x,1/2+y,1/2+z
1/2+x,1/2-y,z
loop_
_atom_site_type_symbol
_atom_site_label
_atom_site_fract_x
_atom_site_fract_y
_atom_site_fract_z
Si Si1 0.405374 0.972785 0.085020
Si Si2 0.791809 0.832204 0.227130
Si Si3 0.208081 0.263738 0.541957
Si Si4 0.567261 0.514536 0.839546
Si Si5 0.921406 0.410419 0.151916
Si Si6 0.713383 0.134475 0.720110
Si Si7 0.740773 0.398170 0.447753
Si Si8 0.420900 0.432311 0.047950
O O1 0.275621 0.924023 0.159121
O O2 0.421195 0.025975 0.173808
O O3 0.298911 0.991926 0.934620
O O4 0.641134 0.943719 0.040631
O O5 0.545590 0.854437 0.289084
O O6 0.039192 0.850615 0.295641
O O7 0.785979 0.770482 0.190827
O O8 0.803456 0.854367 0.063908
O O9 0.458738 0.250614 0.470176
O O10 0.202746 0.323994 0.588924
O O11 0.483639 0.573033 0.883130
O O12 0.574613 0.522195 0.671489
O O13 0.419719 0.466052 0.903077
O O14 0.898629 0.384986 0.308994
O O15 0.670166 0.402024 0.071373
O O16 0.174174 0.401997 0.075423
#
# Coordination Sequence:
#
# PCOD9344382 Si02
#       8
#     4   4   4   4   4   4   4   4
#     4  10  17  27  41  55  80 106 145 170 207 246
#     4   9  16  24  38  53  73 100 132 168 199 249
#     4   8  14  24  34  52  72  94 128 162 200 244
#     4  10  18  30  42  60  80 108 146 176 212 246
#     4  10  20  28  40  58  80 106 142 182 204 244
#     4   9  16  24  38  53  73 100 132 168 199 249
#     4  10  17  27  41  55  80 106 145 170 207 246
#     4  10  20  30  44  58  80 106 142 184 210 246
#
# _framework density 23.568621
#
# number of rings (size 3 to 8) (size 9 to 14) (size 15 to 20)
#    0.000    2.500    3.750    0.000    0.000    0.000 
#    0.000    0.000    0.000    0.000    0.000    0.000 
#    0.000    0.000    0.000    0.000    4.750   56.500 
#
# Total GULP energy -178206.260724 kJ/mol
# GULP energy per Si atom -5568.945648 kJ/mol
# Density = 2.351498 g / cm^3
# Si number density = 23.568621 Si / 1000 Ang^3
#
#
#
# Elastic Constant Matrix: (Units=GPa)
#
#
# Indices 1 2 3 4 5 6 
#
# 1 197.6970 6.4267 24.6877 0.0000 0.0000 0.0000
# 2 6.4267 50.0391 16.2343 0.0000 0.0000 0.0000
# 3 24.6877 16.2343 77.6987 0.0000 0.0000 0.0000
# 4 0.0000 0.0000 0.0000 7.1343 0.0000 0.0000
# 5 0.0000 0.0000 0.0000 0.0000 25.3193 0.0000
# 6 0.0000 0.0000 0.0000 0.0000 0.0000 31.9705
#
#
#
# Elastic Compliance Matrix: (Units=1/GPa)
#
#
# Indices 1 2 3 4 5 6 
#
# 1 0.005268 -0.000143 -0.001644 0.000000 0.000000 0.000000
# 2 -0.000143 0.021441 -0.004434 0.000000 0.000000 0.000000
# 3 -0.001644 -0.004434 0.014319 0.000000 0.000000 0.000000
# 4 0.000000 0.000000 0.000000 0.140168 0.000000 0.000000
# 5 0.000000 0.000000 0.000000 0.000000 0.039496 0.000000
# 6 0.000000 0.000000 0.000000 0.000000 0.000000 0.031279
#
#
# Mechanical properties :
#
#
# Convention : Reuss Voigt Hill
#
# Bulk Modulus (GPa) = 34.98287 46.68136 40.83212
# Shear Modulus (GPa) = 18.25198 31.42387 24.83792
#
# Velocity S-wave (km/s) = 2.78586 3.65539 3.24984
# Velocity P-wave (km/s) = 5.02227 6.13721 5.60752
#
# Compressibility (1/GPa) = 0.02858542
#
# Stress axis : x y z
#
# Youngs Moduli (GPa) = 189.81826 46.63861 69.83673
#
# Poissons Ratio (x) = 0.00668 0.11481
# Poissons Ratio (y) = 0.02719 0.30969
# Poissons Ratio (z) = 0.31206 0.20682
#
# Static dielectric constant tensor:
#      x y z
#    x 2.181310 0.000000 0.000000 
#    y 0.000000 1.916980 0.000000 
#    z 0.000000 0.000000 1.926090 
# 
# From -- ./inp_files/5664.got.cif
#   From: 2010.05.17/outbox.cif.g08.bks.cpg/sg33_3_cif.got.tgz:5664.got - 2010.06.03 17:15:25.
