data_PCOD9344265
_publ_section_title
;
Structure prediction by ZEFSAII (Michael W. Deem and Ramdas Pophale) SiO2 
 PCOD9344265
Probable space group: P B A 2
;
_chemical_formula_sum "Si O2"
_cell_formula_units_Z 20
_cell_length_a 4.790137
_cell_length_b 28.667167
_cell_length_c 5.777901
_cell_angle_alpha 90.000000
_cell_angle_beta 90.000000
_cell_angle_gamma 90.000000
_cell_volume 793.419385
_symmetry_space_group_name_H-M "P B A 2"
_symmetry_group_IT_number 32
_symmetry_cell_setting 'orthorhombic'
loop_
_space_group_symop_operation_xyz
x,y,z
-x,-y,z
1/2-x,1/2+y,z
1/2+x,1/2-y,z
loop_
_atom_site_type_symbol
_atom_site_label
_atom_site_fract_x
_atom_site_fract_y
_atom_site_fract_z
Si Si1 0.257490 0.424031 0.859580
Si Si2 0.000000 0.000000 0.516648
Si Si3 0.000000 0.500000 0.194357
Si Si4 0.559279 0.146838 0.520530
Si Si5 0.977298 0.857150 0.190811
Si Si6 0.203583 0.280899 0.887334
O O1 0.387533 0.459050 0.675935
O O2 0.042140 0.387619 0.740156
O O3 0.104613 0.457496 0.039928
O O4 0.501495 0.394575 0.985641
O O5 0.249700 0.017112 0.355372
O O6 0.853873 0.186554 0.076175
O O7 0.693300 0.193568 0.637083
O O8 0.299995 0.152827 0.343321
O O9 0.196029 0.876296 0.375384
O O10 0.380639 0.233344 0.908053
#
# Coordination Sequence:
#
# PCOD9344265 Si02
#       6
#     4   2   2   4   4   4
#     4  11  28  48  71 104 144 186 243 302 358 433
#     4  12  28  48  74 106 142 190 246 304 366 430
#     4  12  28  48  74 106 142 190 246 304 366 430
#     4  11  26  46  71 103 143 190 237 294 365 433
#     4  11  26  46  71 103 143 190 237 294 365 433
#     4  11  24  44  71 106 144 184 239 298 356 435
#
# _framework density 25.207348
#
# number of rings (size 3 to 8) (size 9 to 14) (size 15 to 20)
#    0.000    0.800    0.000    4.800    0.000   25.600 
#    0.000    0.000    0.000    0.000    0.000    0.000 
#    0.000    0.000    0.000    0.000    0.000    0.000 
#
# Total GULP energy -111850.525402 kJ/mol
# GULP energy per Si atom -5592.526270 kJ/mol
# Density = 2.514998 g / cm^3
# Si number density = 25.207348 Si / 1000 Ang^3
#
#
#
# Elastic Constant Matrix: (Units=GPa)
#
#
# Indices 1 2 3 4 5 6 
#
# 1 169.5084 25.8785 81.6345 0.0000 0.0000 0.0000
# 2 25.8785 85.0640 52.8891 0.0000 0.0000 0.0000
# 3 81.6345 52.8891 143.6160 0.0000 0.0000 0.0000
# 4 0.0000 0.0000 0.0000 78.6257 0.0000 0.0000
# 5 0.0000 0.0000 0.0000 0.0000 69.2643 0.0000
# 6 0.0000 0.0000 0.0000 0.0000 0.0000 19.1339
#
#
#
# Elastic Compliance Matrix: (Units=1/GPa)
#
#
# Indices 1 2 3 4 5 6 
#
# 1 0.008141 0.000519 -0.004819 0.000000 0.000000 0.000000
# 2 0.000519 0.015280 -0.005922 0.000000 0.000000 0.000000
# 3 -0.004819 -0.005922 0.011883 0.000000 0.000000 0.000000
# 4 0.000000 0.000000 0.000000 0.012718 0.000000 0.000000
# 5 0.000000 0.000000 0.000000 0.000000 0.014437 0.000000
# 6 0.000000 0.000000 0.000000 0.000000 0.000000 0.052263
#
#
# Mechanical properties :
#
#
# Convention : Reuss Voigt Hill
#
# Bulk Modulus (GPa) = 67.29185 79.88807 73.58996
# Shear Modulus (GPa) = 35.68364 49.25720 42.47042
#
# Velocity S-wave (km/s) = 3.76653 4.42529 4.10914
# Velocity P-wave (km/s) = 6.75788 7.60737 7.19518
#
# Compressibility (1/GPa) = 0.01486064
#
# Stress axis : x y z
#
# Youngs Moduli (GPa) = 122.83851 65.44438 84.15311
#
# Poissons Ratio (x) = -0.03399 0.40551
# Poissons Ratio (y) = -0.06381 0.49839
# Poissons Ratio (z) = 0.59192 0.38759
#
# Static dielectric constant tensor:
#      x y z
#    x 1.926270 0.000000 0.000000 
#    y 0.000000 1.988030 0.000000 
#    z 0.000000 0.000000 2.152340 
# 
# From -- ./inp_files/212.got.cif
#   From: 2010.05.17/outbox.cif.g08.bks.cpg/sg32_1_cif.got.tgz:212.got - 2010.06.03 17:12:27.
