data_PCOD9344220
_publ_section_title
;
Structure prediction by ZEFSAII (Michael W. Deem and Ramdas Pophale) SiO2 
 PCOD9344220
Probable space group: P B A 2
;
_chemical_formula_sum "Si O2"
_cell_formula_units_Z 20
_cell_length_a 9.644464
_cell_length_b 14.370218
_cell_length_c 5.956291
_cell_angle_alpha 90.000000
_cell_angle_beta 90.000000
_cell_angle_gamma 90.000000
_cell_volume 825.500537
_symmetry_space_group_name_H-M "P B A 2"
_symmetry_group_IT_number 32
_symmetry_cell_setting 'orthorhombic'
loop_
_space_group_symop_operation_xyz
x,y,z
-x,-y,z
1/2-x,1/2+y,z
1/2+x,1/2-y,z
loop_
_atom_site_type_symbol
_atom_site_label
_atom_site_fract_x
_atom_site_fract_y
_atom_site_fract_z
Si Si1 0.500000 0.500000 0.758540
Si Si2 0.731039 0.573346 0.419068
Si Si3 0.084032 0.693003 0.804866
Si Si4 0.500000 0.000000 0.627491
Si Si5 0.994574 0.145042 0.115102
Si Si6 0.152225 0.223132 0.517533
O O1 0.623631 0.540578 0.609096
O O2 0.449269 0.584471 0.911694
O O3 0.867138 0.511976 0.464549
O O4 0.785736 0.678505 0.440928
O O5 0.635252 0.582749 0.200331
O O6 0.061164 0.753666 0.030620
O O7 0.237306 0.690277 0.702347
O O8 0.020555 0.589867 0.786889
O O9 0.993978 0.751614 0.627191
O O10 0.110327 0.158733 0.307599
#
# Coordination Sequence:
#
# PCOD9344220 Si02
#       6
#     2   4   4   2   4   4
#     4  12  26  46  78 120 156 196 270 324 390 492
#     4  11  26  51  72 118 151 201 267 325 387 480
#     4  11  26  48  76 112 156 208 259 331 386 478
#     4  10  28  48  80 110 166 190 262 342 386 452
#     4  12  26  45  86 107 157 214 260 315 424 470
#     4  11  24  48  75 107 156 202 264 322 382 482
#
# _framework density 24.227723000000001
#
# number of rings (size 3 to 8) (size 9 to 14) (size 15 to 20)
#    0.000    0.800    4.000    0.600   11.200    0.000 
#    0.000    5.000    0.000    0.000    0.000    0.000 
#    0.000    0.000    0.000    0.000    0.000    0.000 
#
# Total GULP energy -111826.236151 kJ/mol
# GULP energy per Si atom -5591.311808 kJ/mol
# Density = 2.417258 g / cm^3
# Si number density = 24.227723 Si / 1000 Ang^3
#
#
#
# Elastic Constant Matrix: (Units=GPa)
#
#
# Indices 1 2 3 4 5 6 
#
# 1 156.9193 30.7038 46.7221 0.0000 0.0000 0.0000
# 2 30.7038 128.3662 39.2713 0.0000 0.0000 0.0000
# 3 46.7221 39.2713 75.1367 0.0000 0.0000 0.0000
# 4 0.0000 0.0000 0.0000 56.1691 0.0000 0.0000
# 5 0.0000 0.0000 0.0000 0.0000 16.6938 0.0000
# 6 0.0000 0.0000 0.0000 0.0000 0.0000 44.1934
#
#
#
# Elastic Compliance Matrix: (Units=1/GPa)
#
#
# Indices 1 2 3 4 5 6 
#
# 1 0.007843 -0.000457 -0.004638 0.000000 0.000000 0.000000
# 2 -0.000457 0.009300 -0.004576 0.000000 0.000000 0.000000
# 3 -0.004638 -0.004576 0.018585 0.000000 0.000000 0.000000
# 4 0.000000 0.000000 0.000000 0.017803 0.000000 0.000000
# 5 0.000000 0.000000 0.000000 0.000000 0.059902 0.000000
# 6 0.000000 0.000000 0.000000 0.000000 0.000000 0.022628
#
#
# Mechanical properties :
#
#
# Convention : Reuss Voigt Hill
#
# Bulk Modulus (GPa) = 61.03271 65.97964 63.50618
# Shear Modulus (GPa) = 31.08174 39.65962 35.37068
#
# Velocity S-wave (km/s) = 3.58564 4.05032 3.82504
# Velocity P-wave (km/s) = 6.51064 7.01182 6.76587
#
# Compressibility (1/GPa) = 0.01638466
#
# Stress axis : x y z
#
# Youngs Moduli (GPa) = 127.50006 107.53170 53.80638
#
# Poissons Ratio (x) = 0.04914 0.24957
# Poissons Ratio (y) = 0.05827 0.24624
# Poissons Ratio (z) = 0.59137 0.49211
#
# Static dielectric constant tensor:
#      x y z
#    x 1.946200 0.000000 0.000000 
#    y 0.000000 1.978310 0.000000 
#    z 0.000000 0.000000 1.946700 
# 
# From -- ./inp_files/441.got.cif
#   From: 2010.05.17/outbox.cif.g08.bks.cpg/sg32_1_cif.got.tgz:441.got - 2010.06.03 17:12:27.
