data_PCOD9344859
_publ_section_title
;
Structure prediction by ZEFSAII (Michael W. Deem and Ramdas Pophale) SiO2 
 PCOD9344859
Probable space group: P N A 21
;
_chemical_formula_sum "Si O2"
_cell_formula_units_Z 24
_cell_length_a 25.008379
_cell_length_b 9.594347
_cell_length_c 5.118724
_cell_angle_alpha 90.000000
_cell_angle_beta 90.000000
_cell_angle_gamma 90.000000
_cell_volume 1228.181856
_symmetry_space_group_name_H-M "P N A 21"
_symmetry_group_IT_number 33
_symmetry_cell_setting 'orthorhombic'
loop_
_space_group_symop_operation_xyz
x,y,z
-x,-y,1/2+z
1/2-x,1/2+y,1/2+z
1/2+x,1/2-y,z
loop_
_atom_site_type_symbol
_atom_site_label
_atom_site_fract_x
_atom_site_fract_y
_atom_site_fract_z
Si Si1 0.466040 0.967368 0.291940
Si Si2 0.519665 0.326633 0.987632
Si Si3 0.737635 0.943812 0.010305
Si Si4 0.132705 0.656929 0.788053
Si Si5 0.735978 0.770727 0.517561
Si Si6 0.051538 0.870556 0.991499
O O1 0.452221 0.815059 0.401966
O O2 0.494835 0.038144 0.542540
O O3 0.414980 0.055796 0.205322
O O4 0.471419 0.343155 0.779155
O O5 0.556005 0.463050 0.962758
O O6 0.492730 0.325718 0.273399
O O7 0.752976 0.857796 0.266013
O O8 0.673526 0.927256 0.972673
O O9 0.759803 0.854511 0.765571
O O10 0.751596 0.106743 0.010958
O O11 0.171923 0.711521 0.562025
O O12 0.104728 0.785922 0.931534
#
# Coordination Sequence:
#
# PCOD9344859 Si02
#       6
#     4   4   4   4   4   4
#     4  12  22  36  59  89 126 165 203 256 303 383
#     4  10  20  36  54  81 124 156 204 237 303 352
#     4  10  23  43  68  91 127 166 216 274 337 387
#     4  10  24  36  68  87 127 163 217 254 337 375
#     4  10  23  43  68  93 126 166 214 278 333 388
#     4  10  20  36  57  81 116 164 194 253 293 375
#
# _framework density 19.541079
#
# number of rings (size 3 to 8) (size 9 to 14) (size 15 to 20)
#    1.000    0.667    3.333    1.000    4.667    0.000 
#    3.000    0.000    0.000    0.000    0.000    0.000 
#    0.000    0.000    0.000    0.000    0.000    0.000 
#
# Total GULP energy -133757.688905 kJ/mol
# GULP energy per Si atom -5573.237038 kJ/mol
# Density = 1.949660 g / cm^3
# Si number density = 19.541079 Si / 1000 Ang^3
#
#
#
# Elastic Constant Matrix: (Units=GPa)
#
#
# Indices 1 2 3 4 5 6 
#
# 1 51.0835 40.9811 7.3083 0.0000 0.0000 0.0000
# 2 40.9811 196.0832 40.2159 0.0000 0.0000 0.0000
# 3 7.3083 40.2159 109.1014 0.0000 0.0000 0.0000
# 4 0.0000 0.0000 0.0000 32.7393 0.0000 0.0000
# 5 0.0000 0.0000 0.0000 0.0000 3.5603 0.0000
# 6 0.0000 0.0000 0.0000 0.0000 0.0000 40.6699
#
#
#
# Elastic Compliance Matrix: (Units=1/GPa)
#
#
# Indices 1 2 3 4 5 6 
#
# 1 0.023526 -0.004969 0.000256 0.000000 0.000000 0.000000
# 2 -0.004969 0.006567 -0.002088 0.000000 0.000000 0.000000
# 3 0.000256 -0.002088 0.009918 0.000000 0.000000 0.000000
# 4 0.000000 0.000000 0.000000 0.030544 0.000000 0.000000
# 5 0.000000 0.000000 0.000000 0.000000 0.280875 0.000000
# 6 0.000000 0.000000 0.000000 0.000000 0.000000 0.024588
#
#
# Mechanical properties :
#
#
# Convention : Reuss Voigt Hill
#
# Bulk Modulus (GPa) = 37.86686 59.25317 48.56002
# Shear Modulus (GPa) = 12.54948 33.24477 22.89713
#
# Velocity S-wave (km/s) = 2.53694 4.12913 3.42679
# Velocity P-wave (km/s) = 5.29165 7.28842 6.36878
#
# Compressibility (1/GPa) = 0.02640832
#
# Stress axis : x y z
#
# Youngs Moduli (GPa) = 42.50659 152.28526 100.82496
#
# Poissons Ratio (x) = 0.75675 -0.02580
# Poissons Ratio (y) = 0.21123 0.21049
# Poissons Ratio (z) = -0.01088 0.31792
#
# Static dielectric constant tensor:
#      x y z
#    x 1.672230 0.000000 0.000000 
#    y 0.000000 1.705390 0.000000 
#    z 0.000000 0.000000 1.712920 
# 
# From -- ./inp_files/2189.got.cif
#   From: 2010.05.17/outbox.cif.g08.bks.cpg/sg33_2_cif.got.tgz:2189.got - 2010.06.03 17:15:25.
