data_PCOD9344295
_publ_section_title
;
Structure prediction by ZEFSAII (Michael W. Deem and Ramdas Pophale) SiO2 
 PCOD9344295
Probable space group: P B A 2
;
_chemical_formula_sum "Si O2"
_cell_formula_units_Z 16
_cell_length_a 9.257933
_cell_length_b 8.817931
_cell_length_c 7.622564
_cell_angle_alpha 90.000000
_cell_angle_beta 90.000000
_cell_angle_gamma 90.000000
_cell_volume 622.274220
_symmetry_space_group_name_H-M "P B A 2"
_symmetry_group_IT_number 32
_symmetry_cell_setting 'orthorhombic'
loop_
_space_group_symop_operation_xyz
x,y,z
-x,-y,z
1/2-x,1/2+y,z
1/2+x,1/2-y,z
loop_
_atom_site_type_symbol
_atom_site_label
_atom_site_fract_x
_atom_site_fract_y
_atom_site_fract_z
Si Si1 0.959311 0.717263 0.287340
Si Si2 0.338075 0.444931 0.786466
Si Si3 0.276377 0.060712 0.418397
Si Si4 0.111032 0.625241 0.927757
O O1 0.866479 0.864601 0.334341
O O2 0.847721 0.577976 0.312088
O O3 0.094197 0.685338 0.416918
O O4 0.032740 0.698072 0.096857
O O5 0.500000 0.500000 0.779236
O O6 0.260106 0.497371 0.609330
O O7 0.255780 0.526669 0.947278
O O8 0.340405 0.266373 0.812493
O O9 0.000000 0.500000 0.853619
#
# Coordination Sequence:
#
# PCOD9344295 Si02
#       4
#     4   4   4   4
#     4  11  28  51  86 126 174 219 293 354 433 517
#     4  12  30  51  84 122 175 232 282 359 438 521
#     4  11  27  53  82 127 167 229 281 361 425 524
#     4  12  28  54  84 126 171 223 287 361 436 529
#
# _framework density 25.712136999999998
#
# number of rings (size 3 to 8) (size 9 to 14) (size 15 to 20)
#    0.000    0.500    2.500    3.000   17.500    0.000 
#    0.000    0.000    0.000    0.000    0.000    0.000 
#    0.000    0.000    0.000    0.000    0.000    0.000 
#
# Total GULP energy -89695.648121 kJ/mol
# GULP energy per Si atom -5605.978008 kJ/mol
# Density = 2.565361 g / cm^3
# Si number density = 25.712137 Si / 1000 Ang^3
#
#
#
# Elastic Constant Matrix: (Units=GPa)
#
#
# Indices 1 2 3 4 5 6 
#
# 1 168.2720 71.8189 98.0538 0.0000 0.0000 0.0000
# 2 71.8189 150.7574 76.9462 0.0000 0.0000 0.0000
# 3 98.0538 76.9462 147.3142 0.0000 0.0000 0.0000
# 4 0.0000 0.0000 0.0000 21.7189 0.0000 0.0000
# 5 0.0000 0.0000 0.0000 0.0000 68.6662 0.0000
# 6 0.0000 0.0000 0.0000 0.0000 0.0000 53.5430
#
#
#
# Elastic Compliance Matrix: (Units=1/GPa)
#
#
# Indices 1 2 3 4 5 6 
#
# 1 0.010084 -0.001879 -0.005731 0.000000 0.000000 0.000000
# 2 -0.001879 0.009394 -0.003656 0.000000 0.000000 0.000000
# 3 -0.005731 -0.003656 0.012512 0.000000 0.000000 0.000000
# 4 0.000000 0.000000 0.000000 0.046043 0.000000 0.000000
# 5 0.000000 0.000000 0.000000 0.000000 0.014563 0.000000
# 6 0.000000 0.000000 0.000000 0.000000 0.000000 0.018677
#
#
# Mechanical properties :
#
#
# Convention : Reuss Voigt Hill
#
# Bulk Modulus (GPa) = 105.71890 106.66461 106.19175
# Shear Modulus (GPa) = 36.50753 43.42060 39.96407
#
# Velocity S-wave (km/s) = 3.77219 4.11386 3.94672
# Velocity P-wave (km/s) = 7.75746 8.00871 7.88408
#
# Compressibility (1/GPa) = 0.00945905
#
# Stress axis : x y z
#
# Youngs Moduli (GPa) = 99.16727 106.44545 79.92142
#
# Poissons Ratio (x) = 0.20001 0.45799
# Poissons Ratio (y) = 0.18634 0.29222
# Poissons Ratio (z) = 0.56828 0.38920
#
# Static dielectric constant tensor:
#      x y z
#    x 1.950710 0.000000 0.000000 
#    y 0.000000 2.121480 0.000000 
#    z 0.000000 0.000000 2.121070 
# 
# From -- ./inp_files/2111.got.cif
#   From: 2010.05.17/outbox.cif.g08.bks.cpg/sg32_2_cif.got.tgz:2111.got - 2010.06.03 17:12:27.
