data_PCOD9344923
_publ_section_title
;
Structure prediction by ZEFSAII (Michael W. Deem and Ramdas Pophale) SiO2 
 PCOD9344923
Probable space group: P N A 21
;
_chemical_formula_sum "Si O2"
_cell_formula_units_Z 24
_cell_length_a 24.368866
_cell_length_b 9.211363
_cell_length_c 5.062761
_cell_angle_alpha 90.000000
_cell_angle_beta 90.000000
_cell_angle_gamma 90.000000
_cell_volume 1136.440344
_symmetry_space_group_name_H-M "P N A 21"
_symmetry_group_IT_number 33
_symmetry_cell_setting 'orthorhombic'
loop_
_space_group_symop_operation_xyz
x,y,z
-x,-y,1/2+z
1/2-x,1/2+y,1/2+z
1/2+x,1/2-y,z
loop_
_atom_site_type_symbol
_atom_site_label
_atom_site_fract_x
_atom_site_fract_y
_atom_site_fract_z
Si Si1 0.693609 0.157388 0.547930
Si Si2 0.017120 0.084039 0.612974
Si Si3 0.144323 0.629430 0.670407
Si Si4 0.863867 0.950209 0.931062
Si Si5 0.234674 0.840333 0.575587
Si Si6 0.089626 0.777353 0.168726
O O1 0.666394 0.297080 0.408392
O O2 0.727315 0.092552 0.302082
O O3 0.649348 0.043084 0.655788
O O4 0.734047 0.184645 0.797916
O O5 0.082412 0.090194 0.601879
O O6 0.976308 0.213790 0.691268
O O7 0.997358 0.041753 0.320261
O O8 0.206721 0.691489 0.678176
O O9 0.115784 0.689652 0.408654
O O10 0.111109 0.699632 0.909098
O O11 0.887744 0.055566 0.698610
O O12 0.817048 0.053032 0.048931
#
# Coordination Sequence:
#
# PCOD9344923 Si02
#       6
#     4   4   4   4   4   4
#     4  12  24  38  58  88 119 155 198 243 291 353
#     4  10  20  37  63  90 113 146 199 246 285 341
#     4  11  22  39  58  84 120 156 190 241 306 358
#     4  10  23  40  63  89 116 154 203 247 286 349
#     4  11  22  38  58  84 117 158 197 240 290 350
#     4  10  21  40  62  85 117 155 193 241 302 355
#
# _framework density 21.118575
#
# number of rings (size 3 to 8) (size 9 to 14) (size 15 to 20)
#    0.000    1.333    0.000    8.000    0.000    6.667 
#    0.000    1.667    0.000    0.000    0.000    0.000 
#    0.000    0.000    0.000    0.000    0.000    0.000 
#
# Total GULP energy -133841.067309 kJ/mol
# GULP energy per Si atom -5576.711138 kJ/mol
# Density = 2.107051 g / cm^3
# Si number density = 21.118575 Si / 1000 Ang^3
#
#
#
# Elastic Constant Matrix: (Units=GPa)
#
#
# Indices 1 2 3 4 5 6 
#
# 1 105.1927 8.9038 48.8777 0.0000 0.0000 0.0000
# 2 8.9038 68.3129 3.6829 0.0000 0.0000 0.0000
# 3 48.8777 3.6829 173.1745 0.0000 0.0000 0.0000
# 4 0.0000 0.0000 0.0000 15.2388 0.0000 0.0000
# 5 0.0000 0.0000 0.0000 0.0000 42.4644 0.0000
# 6 0.0000 0.0000 0.0000 0.0000 0.0000 33.5272
#
#
#
# Elastic Compliance Matrix: (Units=1/GPa)
#
#
# Indices 1 2 3 4 5 6 
#
# 1 0.011051 -0.001274 -0.003092 0.000000 0.000000 0.000000
# 2 -0.001274 0.014802 0.000045 0.000000 0.000000 0.000000
# 3 -0.003092 0.000045 0.006646 0.000000 0.000000 0.000000
# 4 0.000000 0.000000 0.000000 0.065622 0.000000 0.000000
# 5 0.000000 0.000000 0.000000 0.000000 0.023549 0.000000
# 6 0.000000 0.000000 0.000000 0.000000 0.000000 0.029827
#
#
# Mechanical properties :
#
#
# Convention : Reuss Voigt Hill
#
# Bulk Modulus (GPa) = 41.91576 52.17877 47.04727
# Shear Modulus (GPa) = 29.74573 37.26044 33.50309
#
# Velocity S-wave (km/s) = 3.75708 4.20497 3.98732
# Velocity P-wave (km/s) = 6.22188 6.95247 6.59730
#
# Compressibility (1/GPa) = 0.02385737
#
# Stress axis : x y z
#
# Youngs Moduli (GPa) = 90.49077 67.55788 150.46044
#
# Poissons Ratio (x) = 0.08604 0.46522
# Poissons Ratio (y) = 0.11525 -0.00672
# Poissons Ratio (z) = 0.27979 -0.00302
#
# Static dielectric constant tensor:
#      x y z
#    x 1.815100 0.000000 0.000000 
#    y 0.000000 1.810440 0.000000 
#    z 0.000000 0.000000 1.764040 
# 
# From -- ./inp_files/2201.got.cif
#   From: 2010.05.17/outbox.cif.g08.bks.cpg/sg33_2_cif.got.tgz:2201.got - 2010.06.03 17:15:25.
