data_PCOD9344711
_publ_section_title
;
Structure prediction by ZEFSAII (Michael W. Deem and Ramdas Pophale) SiO2 
 PCOD9344711
Probable space group: P N A 21
;
_chemical_formula_sum "Si O2"
_cell_formula_units_Z 28
_cell_length_a 17.089177
_cell_length_b 12.117068
_cell_length_c 6.129588
_cell_angle_alpha 90.000000
_cell_angle_beta 90.000000
_cell_angle_gamma 90.000000
_cell_volume 1269.258199
_symmetry_space_group_name_H-M "P N A 21"
_symmetry_group_IT_number 33
_symmetry_cell_setting 'orthorhombic'
loop_
_space_group_symop_operation_xyz
x,y,z
-x,-y,1/2+z
1/2-x,1/2+y,1/2+z
1/2+x,1/2-y,z
loop_
_atom_site_type_symbol
_atom_site_label
_atom_site_fract_x
_atom_site_fract_y
_atom_site_fract_z
Si Si1 0.536165 0.161487 0.970370
Si Si2 0.108283 0.041304 0.383062
Si Si3 0.541308 0.647798 0.694113
Si Si4 0.677106 0.126744 0.722255
Si Si5 0.741941 0.970486 0.106932
Si Si6 0.675187 0.609504 0.992513
Si Si7 0.405556 0.998901 0.832267
O O1 0.608158 0.200991 0.820740
O O2 0.485292 0.064805 0.863068
O O3 0.475421 0.255919 0.026100
O O4 0.573703 0.108188 0.187394
O O5 0.187103 0.092129 0.487230
O O6 0.041020 0.123768 0.309919
O O7 0.069719 0.959518 0.561262
O O8 0.134631 0.968632 0.173414
O O9 0.608057 0.676189 0.868701
O O10 0.753491 0.174700 0.604350
O O11 0.712856 0.057105 0.923069
O O12 0.633309 0.043649 0.555810
O O13 0.660394 0.928286 0.207165
O O14 0.783017 0.034301 0.308196
#
# Coordination Sequence:
#
# PCOD9344711 Si02
#       7
#     4   4   4   4   4   4   4
#     4  11  22  36  64  93 122 160 209 253 306 372
#     4  10  19  38  62  88 123 158 202 257 305 360
#     4  11  22  36  64  93 122 160 209 253 306 372
#     4   9  18  37  63  83 121 163 196 253 315 357
#     4   8  18  34  66  80 116 168 198 250 314 354
#     4   9  18  37  63  83 121 163 196 253 315 357
#     4  10  19  38  62  88 123 158 202 257 305 360
#
# _framework density 22.060129
#
# number of rings (size 3 to 8) (size 9 to 14) (size 15 to 20)
#    0.000    2.286    2.857    0.000    0.000    1.143 
#    0.000    0.000   75.429    0.000    0.000    0.000 
#    0.000    0.000    0.000    0.000    0.000    0.000 
#
# Total GULP energy -156170.098915 kJ/mol
# GULP energy per Si atom -5577.503533 kJ/mol
# Density = 2.200992 g / cm^3
# Si number density = 22.060129 Si / 1000 Ang^3
#
#
#
# Elastic Constant Matrix: (Units=GPa)
#
#
# Indices 1 2 3 4 5 6 
#
# 1 130.9771 8.0630 44.7982 0.0000 0.0000 0.0000
# 2 8.0630 22.7551 -0.1967 0.0000 0.0000 0.0000
# 3 44.7982 -0.1967 75.7037 0.0000 0.0000 0.0000
# 4 0.0000 0.0000 0.0000 12.3094 0.0000 0.0000
# 5 0.0000 0.0000 0.0000 0.0000 64.8699 0.0000
# 6 0.0000 0.0000 0.0000 0.0000 0.0000 5.5130
#
#
#
# Elastic Compliance Matrix: (Units=1/GPa)
#
#
# Indices 1 2 3 4 5 6 
#
# 1 0.009850 -0.003541 -0.005838 0.000000 0.000000 0.000000
# 2 -0.003541 0.045220 0.002213 0.000000 0.000000 0.000000
# 3 -0.005838 0.002213 0.016670 0.000000 0.000000 0.000000
# 4 0.000000 0.000000 0.000000 0.081239 0.000000 0.000000
# 5 0.000000 0.000000 0.000000 0.000000 0.015415 0.000000
# 6 0.000000 0.000000 0.000000 0.000000 0.000000 0.181389
#
#
# Mechanical properties :
#
#
# Convention : Reuss Voigt Hill
#
# Bulk Modulus (GPa) = 17.41927 37.19612 27.30769
# Shear Modulus (GPa) = 13.04633 28.32321 20.68477
#
# Velocity S-wave (km/s) = 2.43451 3.58706 3.06544
# Velocity P-wave (km/s) = 3.97691 5.83556 4.99348
#
# Compressibility (1/GPa) = 0.05740768
#
# Stress axis : x y z
#
# Youngs Moduli (GPa) = 101.52728 22.11421 59.98915
#
# Poissons Ratio (x) = 0.07830 0.35020
# Poissons Ratio (y) = 0.35946 -0.13273
# Poissons Ratio (z) = 0.59269 -0.04893
#
# Static dielectric constant tensor:
#      x y z
#    x 1.827480 0.000000 0.000000 
#    y 0.000000 1.761470 0.000000 
#    z 0.000000 0.000000 1.825960 
# 
# From -- ./inp_files/1751.got.cif
#   From: 2010.05.17/outbox.cif.g08.bks.cpg/sg33_1_cif.got.tgz:1751.got - 2010.06.03 17:15:25.
