data_PCOD9344104
_publ_section_title
;
Structure prediction by ZEFSAII (Michael W. Deem and Ramdas Pophale) SiO2 
 PCOD9344104
Probable space group: P B A 2
;
_chemical_formula_sum "Si O2"
_cell_formula_units_Z 20
_cell_length_a 9.125633
_cell_length_b 11.056922
_cell_length_c 7.319005
_cell_angle_alpha 90.000000
_cell_angle_beta 90.000000
_cell_angle_gamma 90.000000
_cell_volume 738.497941
_symmetry_space_group_name_H-M "P B A 2"
_symmetry_group_IT_number 32
_symmetry_cell_setting 'orthorhombic'
loop_
_space_group_symop_operation_xyz
x,y,z
-x,-y,z
1/2-x,1/2+y,z
1/2+x,1/2-y,z
loop_
_atom_site_type_symbol
_atom_site_label
_atom_site_fract_x
_atom_site_fract_y
_atom_site_fract_z
Si Si1 0.318321 0.582283 0.169240
Si Si2 0.377324 0.913615 0.970183
Si Si3 0.854140 0.734613 0.645232
Si Si4 0.527631 0.776182 0.269401
Si Si5 0.331328 0.503128 0.571068
O O1 0.471067 0.653599 0.173513
O O2 0.322881 0.504681 0.353234
O O3 0.192142 0.684530 0.216084
O O4 0.265019 0.497592 0.003552
O O5 0.391578 0.790215 0.855692
O O6 0.500000 0.000000 0.882762
O O7 0.432348 0.880163 0.172536
O O8 0.976071 0.732591 0.482264
O O9 0.754696 0.615567 0.625009
O O10 0.776646 0.864068 0.629184
O O11 0.500000 0.500000 0.631578
#
# Coordination Sequence:
#
# PCOD9344104 Si02
#       5
#     4   4   4   4   4
#     4  10  23  44  76 102 155 193 261 309 393 454
#     4  10  23  41  68 107 140 197 252 304 381 451
#     4  11  26  44  77  98 156 194 249 315 381 455
#     4  10  23  44  66 107 140 202 245 316 370 463
#     4  11  27  48  74 115 148 201 261 319 385 462
#
# _framework density 27.082001000000002
#
# number of rings (size 3 to 8) (size 9 to 14) (size 15 to 20)
#    0.000    1.600    2.000    0.000   16.800    0.000 
#    3.600    1.000    0.000    0.000    0.000    0.000 
#    0.000    0.000    0.000    0.000    0.000    0.000 
#
# Total GULP energy -111812.465558 kJ/mol
# GULP energy per Si atom -5590.623278 kJ/mol
# Density = 2.702036 g / cm^3
# Si number density = 27.082001 Si / 1000 Ang^3
#
#
#
# Elastic Constant Matrix: (Units=GPa)
#
#
# Indices 1 2 3 4 5 6 
#
# 1 100.5245 37.0763 16.7792 0.0000 0.0000 0.0000
# 2 37.0763 150.6295 47.1701 0.0000 0.0000 0.0000
# 3 16.7792 47.1701 121.7194 0.0000 0.0000 0.0000
# 4 0.0000 0.0000 0.0000 59.6428 0.0000 0.0000
# 5 0.0000 0.0000 0.0000 0.0000 16.2549 0.0000
# 6 0.0000 0.0000 0.0000 0.0000 0.0000 54.3123
#
#
#
# Elastic Compliance Matrix: (Units=1/GPa)
#
#
# Indices 1 2 3 4 5 6 
#
# 1 0.010971 -0.002534 -0.000530 0.000000 0.000000 0.000000
# 2 -0.002534 0.008141 -0.002806 0.000000 0.000000 0.000000
# 3 -0.000530 -0.002806 0.009376 0.000000 0.000000 0.000000
# 4 0.000000 0.000000 0.000000 0.016766 0.000000 0.000000
# 5 0.000000 0.000000 0.000000 0.000000 0.061520 0.000000
# 6 0.000000 0.000000 0.000000 0.000000 0.000000 0.018412
#
#
# Mechanical properties :
#
#
# Convention : Reuss Voigt Hill
#
# Bulk Modulus (GPa) = 59.70929 63.88050 61.79489
# Shear Modulus (GPa) = 35.08527 44.16518 39.62522
#
# Velocity S-wave (km/s) = 3.60324 4.04269 3.82927
# Velocity P-wave (km/s) = 6.27746 6.74019 6.51294
#
# Compressibility (1/GPa) = 0.01674781
#
# Stress axis : x y z
#
# Youngs Moduli (GPa) = 91.14862 122.83182 106.65567
#
# Poissons Ratio (x) = 0.31131 0.05655
# Poissons Ratio (y) = 0.23101 0.29923
# Poissons Ratio (z) = 0.04833 0.34462
#
# Static dielectric constant tensor:
#      x y z
#    x 2.267910 0.000000 0.000000 
#    y 0.000000 2.176370 0.000000 
#    z 0.000000 0.000000 2.252660 
# 
# From -- ./inp_files/2191.got.cif
#   From: 2010.05.17/outbox.cif.g08.bks.cpg/sg32_2_cif.got.tgz:2191.got - 2010.06.03 17:12:27.
