data_PCOD9344388
_publ_section_title
;
Structure prediction by ZEFSAII (Michael W. Deem and Ramdas Pophale) SiO2 
 PCOD9344388
Probable space group: P N A 21
;
_chemical_formula_sum "Si O2"
_cell_formula_units_Z 32
_cell_length_a 16.866058
_cell_length_b 13.181353
_cell_length_c 5.337421
_cell_angle_alpha 90.000000
_cell_angle_beta 90.000000
_cell_angle_gamma 90.000000
_cell_volume 1186.601902
_symmetry_space_group_name_H-M "P N A 21"
_symmetry_group_IT_number 33
_symmetry_cell_setting 'orthorhombic'
loop_
_space_group_symop_operation_xyz
x,y,z
-x,-y,1/2+z
1/2-x,1/2+y,1/2+z
1/2+x,1/2-y,z
loop_
_atom_site_type_symbol
_atom_site_label
_atom_site_fract_x
_atom_site_fract_y
_atom_site_fract_z
Si Si1 0.196248 0.903739 0.638620
Si Si2 0.294444 0.740565 0.163527
Si Si3 0.484628 0.444717 0.256635
Si Si4 0.953212 0.521099 0.715346
Si Si5 0.891102 0.314185 0.642569
Si Si6 0.777289 0.535918 0.143501
Si Si7 0.005902 0.729445 0.642510
Si Si8 0.265583 0.677396 0.659860
O O1 0.106274 0.918180 0.705162
O O2 0.214572 0.949909 0.368129
O O3 0.223079 0.786573 0.637966
O O4 0.244607 0.952539 0.865070
O O5 0.196514 0.734073 0.147251
O O6 0.315095 0.675697 0.404970
O O7 0.324644 0.857105 0.174515
O O8 0.316081 0.684585 0.910293
O O9 0.493658 0.472048 0.547645
O O10 0.526788 0.341067 0.176326
O O11 0.887084 0.437144 0.663559
O O12 0.019319 0.492411 0.503407
O O13 0.941193 0.639053 0.659075
O O14 0.937968 0.289714 0.386804
O O15 0.944596 0.280694 0.882233
O O16 0.795913 0.416499 0.167646
#
# Coordination Sequence:
#
# PCOD9344388 Si02
#       8
#     4   4   4   4   4   4   4   4
#     4  10  21  38  59  87 117 152 195 240 292 353
#     4  10  19  31  52  83 112 141 181 228 279 345
#     4  12  24  38  59  87 118 159 204 244 290 348
#     4   8  16  27  47  75 103 136 177 224 270 314
#     4  10  17  31  54  81 106 140 184 228 278 335
#     4  10  19  35  59  85 115 148 187 239 296 346
#     4  10  18  32  51  75 108 146 189 233 275 326
#     4  10  20  34  57  85 113 148 187 236 290 343
#
# _framework density 26.967763000000001
#
# number of rings (size 3 to 8) (size 9 to 14) (size 15 to 20)
#    0.000    2.000    0.000    6.000    0.000    0.000 
#    0.000    0.000    0.000   18.000    0.000    0.000 
#    0.000    0.000    0.000    0.000    0.000    0.000 
#
# Total GULP energy -179061.164453 kJ/mol
# GULP energy per Si atom -5595.661389 kJ/mol
# Density = 2.690638 g / cm^3
# Si number density = 26.967763 Si / 1000 Ang^3
#
#
#
# Elastic Constant Matrix: (Units=GPa)
#
#
# Indices 1 2 3 4 5 6 
#
# 1 66.0389 7.5294 36.2752 0.0000 0.0000 0.0000
# 2 7.5294 172.3629 17.1131 0.0000 0.0000 0.0000
# 3 36.2752 17.1131 193.1546 0.0000 0.0000 0.0000
# 4 0.0000 0.0000 0.0000 30.5629 0.0000 0.0000
# 5 0.0000 0.0000 0.0000 0.0000 40.5832 0.0000
# 6 0.0000 0.0000 0.0000 0.0000 0.0000 12.1127
#
#
#
# Elastic Compliance Matrix: (Units=1/GPa)
#
#
# Indices 1 2 3 4 5 6 
#
# 1 0.016916 -0.000427 -0.003139 0.000000 0.000000 0.000000
# 2 -0.000427 0.005864 -0.000439 0.000000 0.000000 0.000000
# 3 -0.003139 -0.000439 0.005806 0.000000 0.000000 0.000000
# 4 0.000000 0.000000 0.000000 0.032719 0.000000 0.000000
# 5 0.000000 0.000000 0.000000 0.000000 0.024641 0.000000
# 6 0.000000 0.000000 0.000000 0.000000 0.000000 0.082558
#
#
# Mechanical properties :
#
#
# Convention : Reuss Voigt Hill
#
# Bulk Modulus (GPa) = 48.60474 61.48798 55.04636
# Shear Modulus (GPa) = 27.26696 41.36102 34.31399
#
# Velocity S-wave (km/s) = 3.18322 3.92052 3.57095
# Velocity P-wave (km/s) = 5.61898 6.58362 6.12033
#
# Compressibility (1/GPa) = 0.02057412
#
# Stress axis : x y z
#
# Youngs Moduli (GPa) = 59.11721 170.53224 172.24664
#
# Poissons Ratio (x) = 0.07286 0.54067
# Poissons Ratio (y) = 0.02526 0.07567
# Poissons Ratio (z) = 0.18557 0.07491
#
# Static dielectric constant tensor:
#      x y z
#    x 2.125830 0.000000 0.000000 
#    y 0.000000 2.092130 0.000000 
#    z 0.000000 0.000000 2.170740 
# 
# From -- ./inp_files/2308.got.cif
#   From: 2010.05.17/outbox.cif.g08.bks.cpg/sg33_2_cif.got.tgz:2308.got - 2010.06.03 17:15:25.
