data_PCOD9344497
_publ_section_title
;
Structure prediction by ZEFSAII (Michael W. Deem and Ramdas Pophale) SiO2 
 PCOD9344497
Probable space group: P N A 21
;
_chemical_formula_sum "Si O2"
_cell_formula_units_Z 32
_cell_length_a 8.211970
_cell_length_b 12.077283
_cell_length_c 12.950147
_cell_angle_alpha 90.000000
_cell_angle_beta 90.000000
_cell_angle_gamma 90.000000
_cell_volume 1284.373379
_symmetry_space_group_name_H-M "P N A 21"
_symmetry_group_IT_number 33
_symmetry_cell_setting 'orthorhombic'
loop_
_space_group_symop_operation_xyz
x,y,z
-x,-y,1/2+z
1/2-x,1/2+y,1/2+z
1/2+x,1/2-y,z
loop_
_atom_site_type_symbol
_atom_site_label
_atom_site_fract_x
_atom_site_fract_y
_atom_site_fract_z
Si Si1 0.789532 0.855079 0.966270
Si Si2 0.925948 0.625052 0.021131
Si Si3 0.070368 0.915191 0.391383
Si Si4 0.345075 0.887817 0.666855
Si Si5 0.268027 0.489195 0.704724
Si Si6 0.598276 0.207470 0.946490
Si Si7 0.561214 0.970018 0.328601
Si Si8 0.661501 0.790980 0.743100
O O1 0.725547 0.799271 0.859355
O O2 0.897311 0.965359 0.945585
O O3 0.622752 0.887003 0.025348
O O4 0.890575 0.755669 0.015649
O O5 0.814395 0.578528 0.113419
O O6 0.882615 0.551241 0.920109
O O7 0.079853 0.941117 0.267954
O O8 0.225100 0.837484 0.416001
O O9 0.923978 0.839349 0.434057
O O10 0.418707 0.856472 0.556395
O O11 0.473263 0.822684 0.739954
O O12 0.178544 0.825209 0.685592
O O13 0.768216 0.880895 0.678375
O O14 0.125804 0.493982 0.793066
O O15 0.463945 0.151837 0.871637
O O16 0.659582 0.994719 0.224171
#
# Coordination Sequence:
#
# PCOD9344497 Si02
#       8
#     4   4   4   4   4   4   4   4
#     4  11  22  42  64  94 135 168 215 281 332 391
#     4  12  21  41  69  94 128 175 218 271 344 402
#     4  10  23  45  62  93 138 172 218 281 328 397
#     4  11  20  35  64  91 122 167 223 271 322 397
#     4   9  21  38  65  89 130 178 213 268 343 398
#     4  11  22  41  66  90 131 180 218 270 336 396
#     4  10  19  37  63  89 127 171 214 267 335 390
#     4  10  18  37  59  90 125 167 213 277 324 383
#
# _framework density 24.914871999999999
#
# number of rings (size 3 to 8) (size 9 to 14) (size 15 to 20)
#    0.000    1.500    6.250    2.250    0.000    2.000 
#    4.500    1.250    0.000    0.000    0.000    0.000 
#    0.000    0.000    0.000    0.000    0.000    0.000 
#
# Total GULP energy -178376.499068 kJ/mol
# GULP energy per Si atom -5574.265596 kJ/mol
# Density = 2.485817 g / cm^3
# Si number density = 24.914872 Si / 1000 Ang^3
#
#
#
# Elastic Constant Matrix: (Units=GPa)
#
#
# Indices 1 2 3 4 5 6 
#
# 1 30.4458 0.6196 3.8883 0.0000 0.0000 0.0000
# 2 0.6196 90.6531 26.6277 0.0000 0.0000 0.0000
# 3 3.8883 26.6277 95.1960 0.0000 0.0000 0.0000
# 4 0.0000 0.0000 0.0000 25.6244 0.0000 0.0000
# 5 0.0000 0.0000 0.0000 0.0000 6.9880 0.0000
# 6 0.0000 0.0000 0.0000 0.0000 0.0000 38.9162
#
#
#
# Elastic Compliance Matrix: (Units=1/GPa)
#
#
# Indices 1 2 3 4 5 6 
#
# 1 0.033020 0.000186 -0.001401 0.000000 0.000000 0.000000
# 2 0.000186 0.012020 -0.003370 0.000000 0.000000 0.000000
# 3 -0.001401 -0.003370 0.011504 0.000000 0.000000 0.000000
# 4 0.000000 0.000000 0.000000 0.039025 0.000000 0.000000
# 5 0.000000 0.000000 0.000000 0.000000 0.143103 0.000000
# 6 0.000000 0.000000 0.000000 0.000000 0.000000 0.025696
#
#
# Mechanical properties :
#
#
# Convention : Reuss Voigt Hill
#
# Bulk Modulus (GPa) = 21.10811 30.95180 26.02996
# Shear Modulus (GPa) = 17.28135 26.64967 21.96551
#
# Velocity S-wave (km/s) = 2.63652 3.27407 2.97243
# Velocity P-wave (km/s) = 4.21412 5.17133 4.71707
#
# Compressibility (1/GPa) = 0.04737515
#
# Stress axis : x y z
#
# Youngs Moduli (GPa) = 30.28433 83.19767 86.92331
#
# Poissons Ratio (x) = -0.01545 0.12175
# Poissons Ratio (y) = -0.00562 0.29290
# Poissons Ratio (z) = 0.04242 0.28035
#
# Static dielectric constant tensor:
#      x y z
#    x 2.015250 0.000000 0.000000 
#    y 0.000000 2.185560 0.000000 
#    z 0.000000 0.000000 2.050400 
# 
# From -- ./inp_files/7661.got.cif
#   From: 2010.05.17/outbox.cif.g08.bks.cpg/sg33_4_cif.got.tgz:7661.got - 2010.06.03 17:15:25.
