data_PCOD9344412
_publ_section_title
;
Structure prediction by ZEFSAII (Michael W. Deem and Ramdas Pophale) SiO2 
 PCOD9344412
Probable space group: P N A 21
;
_chemical_formula_sum "Si O2"
_cell_formula_units_Z 32
_cell_length_a 7.315256
_cell_length_b 17.491143
_cell_length_c 8.626217
_cell_angle_alpha 90.000000
_cell_angle_beta 90.000000
_cell_angle_gamma 90.000000
_cell_volume 1103.743346
_symmetry_space_group_name_H-M "P N A 21"
_symmetry_group_IT_number 33
_symmetry_cell_setting 'orthorhombic'
loop_
_space_group_symop_operation_xyz
x,y,z
-x,-y,1/2+z
1/2-x,1/2+y,1/2+z
1/2+x,1/2-y,z
loop_
_atom_site_type_symbol
_atom_site_label
_atom_site_fract_x
_atom_site_fract_y
_atom_site_fract_z
Si Si1 0.373561 0.741566 0.157130
Si Si2 0.698314 0.615628 0.157130
Si Si3 0.831658 0.272208 0.983772
Si Si4 0.951736 0.097444 0.979100
Si Si5 0.951736 0.097444 0.335159
Si Si6 0.875657 0.435472 0.979890
Si Si7 0.624344 0.935472 0.834370
Si Si8 0.668342 0.772208 0.830488
O O1 0.385177 0.834750 0.157130
O O2 0.272864 0.726386 0.320086
O O3 0.540728 0.682455 0.157130
O O4 0.272865 0.726386 0.994174
O O5 0.661291 0.575617 0.323013
O O6 0.661291 0.575617 0.991247
O O7 0.916580 0.188195 0.990225
O O8 0.957165 0.348487 0.974560
O O9 0.745238 0.281447 0.157130
O O10 0.162751 0.078962 0.937032
O O11 0.911547 0.067859 0.157130
O O12 0.162751 0.078962 0.377228
O O13 0.916580 0.188195 0.324035
O O14 0.000001 0.500000 0.907130
O O15 0.871575 0.457906 0.157130
O O16 0.542836 0.848487 0.839700
#
# Coordination Sequence:
#
# PCOD9344412 Si02
#       8
#     4   4   4   4   4   4   4   4
#     4  10  18  28  48  70 100 130 164 212 262 302
#     4  10  18  28  48  70 100 130 164 212 262 302
#     4   9  18  32  47  67  97 133 175 208 249 306
#     4   9  18  32  47  67  97 133 175 208 249 306
#     4   9  18  32  47  67  97 133 175 208 249 306
#     4  10  20  30  48  74 103 134 162 214 273 313
#     4  10  20  30  48  74 103 134 162 214 273 313
#     4   9  18  32  47  67  97 133 175 208 249 306
#
# _framework density 28.992246999999999
#
# number of rings (size 3 to 8) (size 9 to 14) (size 15 to 20)
#    0.000    2.500    2.500    0.000    3.500    0.000 
#    0.000    0.000    0.000    0.000    0.000    1.750 
#    0.000    0.000    0.000    0.000    0.000    0.000 
#
# Total GULP energy -178740.734855 kJ/mol
# GULP energy per Si atom -5585.647964 kJ/mol
# Density = 2.892626 g / cm^3
# Si number density = 28.992247 Si / 1000 Ang^3
#
#
#
# Elastic Constant Matrix: (Units=GPa)
#
#
# Indices 1 2 3 4 5 6 
#
# 1 98.8243 28.7384 71.0631 0.0000 0.0000 0.0000
# 2 28.7384 146.7802 35.0848 0.0000 0.0000 0.0000
# 3 71.0631 35.0848 281.5039 0.0000 0.0000 0.0000
# 4 0.0000 0.0000 0.0000 58.1230 0.0000 0.0000
# 5 0.0000 0.0000 0.0000 0.0000 68.0829 0.0000
# 6 0.0000 0.0000 0.0000 0.0000 0.0000 31.6779
#
#
#
# Elastic Compliance Matrix: (Units=1/GPa)
#
#
# Indices 1 2 3 4 5 6 
#
# 1 0.012803 -0.001787 -0.003009 0.000000 0.000000 0.000000
# 2 -0.001787 0.007272 -0.000455 0.000000 0.000000 0.000000
# 3 -0.003009 -0.000455 0.004369 0.000000 0.000000 0.000000
# 4 0.000000 0.000000 0.000000 0.017205 0.000000 0.000000
# 5 0.000000 0.000000 0.000000 0.000000 0.014688 0.000000
# 6 0.000000 0.000000 0.000000 0.000000 0.000000 0.031568
#
#
# Mechanical properties :
#
#
# Convention : Reuss Voigt Hill
#
# Bulk Modulus (GPa) = 71.73735 88.54232 80.13983
# Shear Modulus (GPa) = 48.51861 57.72490 53.12175
#
# Velocity S-wave (km/s) = 4.09528 4.46695 4.28515
# Velocity P-wave (km/s) = 6.86725 7.56381 7.22393
#
# Compressibility (1/GPa) = 0.01393974
#
# Stress axis : x y z
#
# Youngs Moduli (GPa) = 78.10938 137.52061 228.90141
#
# Poissons Ratio (x) = 0.24580 0.68879
# Poissons Ratio (y) = 0.13961 0.10417
# Poissons Ratio (z) = 0.23504 0.06258
#
# Static dielectric constant tensor:
#      x y z
#    x 2.701700 0.000000 0.000000 
#    y 0.000000 2.409300 0.000000 
#    z 0.000000 0.000000 2.194830 
# 
# From -- ./inp_files/4080.got.cif
#   From: 2010.05.17/outbox.cif.g08.bks.cpg/sg33_3_cif.got.tgz:4080.got - 2010.06.03 17:15:25.
