data_PCOD9344731
_publ_section_title
;
Structure prediction by ZEFSAII (Michael W. Deem and Ramdas Pophale) SiO2 
 PCOD9344731
Probable space group: P N A 21
;
_chemical_formula_sum "Si O2"
_cell_formula_units_Z 32
_cell_length_a 13.615295
_cell_length_b 12.365784
_cell_length_c 9.392049
_cell_angle_alpha 90.000000
_cell_angle_beta 90.000000
_cell_angle_gamma 90.000000
_cell_volume 1581.281032
_symmetry_space_group_name_H-M "P N A 21"
_symmetry_group_IT_number 33
_symmetry_cell_setting 'orthorhombic'
loop_
_space_group_symop_operation_xyz
x,y,z
-x,-y,1/2+z
1/2-x,1/2+y,1/2+z
1/2+x,1/2-y,z
loop_
_atom_site_type_symbol
_atom_site_label
_atom_site_fract_x
_atom_site_fract_y
_atom_site_fract_z
Si Si1 0.532469 0.105727 0.488710
Si Si2 0.380687 0.208451 0.275490
Si Si3 0.600170 0.571117 0.092849
Si Si4 0.145850 0.617292 0.471118
Si Si5 0.823217 0.865100 0.261152
Si Si6 0.009989 0.726535 0.255780
Si Si7 0.732880 0.216026 0.511957
Si Si8 0.464399 0.441299 0.271414
O O1 0.449170 0.134159 0.375238
O O2 0.498384 0.122683 0.652414
O O3 0.620751 0.192071 0.475594
O O4 0.581348 0.990802 0.463641
O O5 0.344169 0.150640 0.134262
O O6 0.292271 0.248070 0.374668
O O7 0.439614 0.318102 0.235913
O O8 0.554567 0.681829 0.153542
O O9 0.713075 0.606489 0.068674
O O10 0.567339 0.480392 0.205073
O O11 0.548205 0.546982 0.942006
O O12 0.248450 0.608876 0.387648
O O13 0.081360 0.705642 0.386175
O O14 0.905168 0.775244 0.303089
O O15 0.765535 0.809094 0.131319
O O16 0.882091 0.973106 0.216063
#
# Coordination Sequence:
#
# PCOD9344731 Si02
#       8
#     4   4   4   4   4   4   4   4
#     4  11  22  43  65  87 122 175 208 258 321 382
#     4  11  24  41  63  96 130 162 214 276 314 381
#     4  10  19  39  63  88 127 162 205 255 318 387
#     4  12  23  39  65  93 125 164 217 264 306 387
#     4  10  22  40  65  90 126 167 210 258 317 391
#     4  10  21  41  62  87 127 170 198 252 328 370
#     4  10  21  43  64  89 129 170 205 257 332 383
#     4  10  22  38  65  96 122 166 211 264 326 375
#
# _framework density 20.236757999999998
#
# number of rings (size 3 to 8) (size 9 to 14) (size 15 to 20)
#    0.000    1.500    3.750    2.250    3.500    1.000 
#    2.250    5.000    0.000    0.000    0.000    0.000 
#    0.000    0.000    0.000    0.000    0.000    0.000 
#
# Total GULP energy -178697.982864 kJ/mol
# GULP energy per Si atom -5584.311965 kJ/mol
# Density = 2.019070 g / cm^3
# Si number density = 20.236758 Si / 1000 Ang^3
#
#
#
# Elastic Constant Matrix: (Units=GPa)
#
#
# Indices 1 2 3 4 5 6 
#
# 1 40.1822 -20.1435 8.3541 0.0000 0.0000 0.0000
# 2 -20.1435 49.6589 9.5992 0.0000 0.0000 0.0000
# 3 8.3541 9.5992 67.5829 0.0000 0.0000 0.0000
# 4 0.0000 0.0000 0.0000 33.1079 0.0000 0.0000
# 5 0.0000 0.0000 0.0000 0.0000 17.3911 0.0000
# 6 0.0000 0.0000 0.0000 0.0000 0.0000 24.8005
#
#
#
# Elastic Compliance Matrix: (Units=1/GPa)
#
#
# Indices 1 2 3 4 5 6 
#
# 1 0.033637 0.014856 -0.006268 0.000000 0.000000 0.000000
# 2 0.014856 0.027267 -0.005709 0.000000 0.000000 0.000000
# 3 -0.006268 -0.005709 0.016382 0.000000 0.000000 0.000000
# 4 0.000000 0.000000 0.000000 0.030204 0.000000 0.000000
# 5 0.000000 0.000000 0.000000 0.000000 0.057501 0.000000
# 6 0.000000 0.000000 0.000000 0.000000 0.000000 0.040322
#
#
# Mechanical properties :
#
#
# Convention : Reuss Voigt Hill
#
# Bulk Modulus (GPa) = 12.04177 17.00484 14.52331
# Shear Modulus (GPa) = 22.00341 25.70085 23.85213
#
# Velocity S-wave (km/s) = 3.30100 3.56758 3.43688
# Velocity P-wave (km/s) = 4.52683 5.03899 4.78976
#
# Compressibility (1/GPa) = 0.08304426
#
# Stress axis : x y z
#
# Youngs Moduli (GPa) = 29.72894 36.67414 61.04118
#
# Poissons Ratio (x) = -0.54484 0.38261
# Poissons Ratio (y) = -0.44166 0.34850
# Poissons Ratio (z) = 0.18634 0.20938
#
# Static dielectric constant tensor:
#      x y z
#    x 1.735850 0.000000 0.000000 
#    y 0.000000 1.736230 0.000000 
#    z 0.000000 0.000000 1.713650 
# 
# From -- ./inp_files/4421.got.cif
#   From: 2010.05.17/outbox.cif.g08.bks.cpg/sg33_3_cif.got.tgz:4421.got - 2010.06.03 17:15:25.
