data_PCOD9344084
_publ_section_title
;
Structure prediction by ZEFSAII (Michael W. Deem and Ramdas Pophale) SiO2 
 PCOD9344084
Probable space group: P B A 2
;
_chemical_formula_sum "Si O2"
_cell_formula_units_Z 30
_cell_length_a 26.529678
_cell_length_b 6.207890
_cell_length_c 7.967232
_cell_angle_alpha 90.000000
_cell_angle_beta 90.000000
_cell_angle_gamma 90.000000
_cell_volume 1312.149911
_symmetry_space_group_name_H-M "P B A 2"
_symmetry_group_IT_number 32
_symmetry_cell_setting 'orthorhombic'
loop_
_space_group_symop_operation_xyz
x,y,z
-x,-y,z
1/2-x,1/2+y,z
1/2+x,1/2-y,z
loop_
_atom_site_type_symbol
_atom_site_label
_atom_site_fract_x
_atom_site_fract_y
_atom_site_fract_z
Si Si1 0.426651 0.671804 0.510220
Si Si2 0.753947 0.992469 0.637584
Si Si3 0.653199 0.270727 0.053333
Si Si4 0.000000 0.500000 0.657212
Si Si5 0.587133 0.887886 0.914495
Si Si6 0.647118 0.529453 0.743486
Si Si7 0.095745 0.851458 0.240726
Si Si8 0.335192 0.968207 0.368094
O O1 0.474824 0.816579 0.544587
O O2 0.404896 0.574933 0.683161
O O3 0.434931 0.473328 0.384365
O O4 0.381118 0.824958 0.443607
O O5 0.747613 0.743885 0.711186
O O6 0.813391 0.003790 0.592006
O O7 0.711143 0.003404 0.494672
O O8 0.626283 0.459062 0.153126
O O9 0.683878 0.138547 0.192784
O O10 0.673766 0.395678 0.892293
O O11 0.611911 0.106310 0.980355
O O12 0.956297 0.416485 0.779916
O O13 0.631836 0.758296 0.819284
O O14 0.569059 0.766298 0.083803
O O15 0.135510 0.686304 0.320774
#
# Coordination Sequence:
#
# PCOD9344084 Si02
#       8
#     4   4   4   2   4   4   4   4
#     4  11  23  43  70 103 146 185 248 310 379 446
#     4  12  27  43  74 111 144 198 249 309 389 459
#     4   9  20  44  70 100 138 192 238 307 375 456
#     4  12  26  42  74 110 148 196 252 328 382 462
#     4  10  23  45  72 100 147 195 249 308 387 457
#     4  11  23  43  76 101 147 193 246 316 383 451
#     4   9  21  44  75  96 140 192 235 307 384 455
#     4  10  22  45  72 102 147 188 245 306 379 464
#
# _framework density 22.863240000000001
#
# number of rings (size 3 to 8) (size 9 to 14) (size 15 to 20)
#    0.000    1.600    2.667    0.800    7.467    0.533 
#    0.000    8.667    0.000    0.000    0.000    0.000 
#    0.000    0.000    0.000    0.000    0.000    0.000 
#
# Total GULP energy -167152.472782 kJ/mol
# GULP energy per Si atom -5571.749093 kJ/mol
# Density = 2.281120 g / cm^3
# Si number density = 22.863240 Si / 1000 Ang^3
#
#
#
# Elastic Constant Matrix: (Units=GPa)
#
#
# Indices 1 2 3 4 5 6 
#
# 1 79.3631 37.1649 18.7407 0.0000 0.0000 0.0000
# 2 37.1649 156.7205 45.0226 0.0000 0.0000 0.0000
# 3 18.7407 45.0226 55.4450 0.0000 0.0000 0.0000
# 4 0.0000 0.0000 0.0000 22.7140 0.0000 0.0000
# 5 0.0000 0.0000 0.0000 0.0000 10.2528 0.0000
# 6 0.0000 0.0000 0.0000 0.0000 0.0000 11.7331
#
#
#
# Elastic Compliance Matrix: (Units=1/GPa)
#
#
# Indices 1 2 3 4 5 6 
#
# 1 0.014489 -0.002646 -0.002748 0.000000 0.000000 0.000000
# 2 -0.002646 0.008805 -0.006256 0.000000 0.000000 0.000000
# 3 -0.002748 -0.006256 0.024045 0.000000 0.000000 0.000000
# 4 0.000000 0.000000 0.000000 0.044026 0.000000 0.000000
# 5 0.000000 0.000000 0.000000 0.000000 0.097534 0.000000
# 6 0.000000 0.000000 0.000000 0.000000 0.000000 0.085229
#
#
# Mechanical properties :
#
#
# Convention : Reuss Voigt Hill
#
# Bulk Modulus (GPa) = 41.60104 54.82053 48.21079
# Shear Modulus (GPa) = 16.36976 21.64667 19.00822
#
# Velocity S-wave (km/s) = 2.67869 3.08033 2.88651
# Velocity P-wave (km/s) = 5.27279 6.05648 5.67817
#
# Compressibility (1/GPa) = 0.02403786
#
# Stress axis : x y z
#
# Youngs Moduli (GPa) = 69.02014 113.56547 41.58918
#
# Poissons Ratio (x) = 0.30053 0.11430
# Poissons Ratio (y) = 0.18265 0.26017
# Poissons Ratio (z) = 0.18969 0.71044
#
# Static dielectric constant tensor:
#      x y z
#    x 1.833440 0.000000 0.000000 
#    y 0.000000 1.927720 0.000000 
#    z 0.000000 0.000000 1.930520 
# 
# From -- ./inp_files/3427.got.cif
#   From: 2010.05.17/outbox.cif.g08.bks.cpg/sg32_2_cif.got.tgz:3427.got - 2010.06.03 17:12:27.
