data_PCOD9344955
_publ_section_title
;
Structure prediction by ZEFSAII (Michael W. Deem and Ramdas Pophale) SiO2 
 PCOD9344955
Probable space group: P N A 21
;
_chemical_formula_sum "Si O2"
_cell_formula_units_Z 24
_cell_length_a 13.896402
_cell_length_b 12.411498
_cell_length_c 5.306993
_cell_angle_alpha 90.000000
_cell_angle_beta 90.000000
_cell_angle_gamma 90.000000
_cell_volume 915.324497
_symmetry_space_group_name_H-M "P N A 21"
_symmetry_group_IT_number 33
_symmetry_cell_setting 'orthorhombic'
loop_
_space_group_symop_operation_xyz
x,y,z
-x,-y,1/2+z
1/2-x,1/2+y,1/2+z
1/2+x,1/2-y,z
loop_
_atom_site_type_symbol
_atom_site_label
_atom_site_fract_x
_atom_site_fract_y
_atom_site_fract_z
Si Si1 0.448152 0.819266 0.213060
Si Si2 0.267470 0.754913 0.939481
Si Si3 0.268894 0.064218 0.746641
Si Si4 0.109498 0.141085 0.057687
Si Si5 0.567134 0.710368 0.832554
Si Si6 0.110767 0.538964 0.749472
O O1 0.401832 0.761792 0.450285
O O2 0.469219 0.944089 0.251441
O O3 0.360959 0.818720 0.014478
O O4 0.523580 0.730990 0.111288
O O5 0.309983 0.657907 0.771134
O O6 0.179318 0.819377 0.822132
O O7 0.223627 0.692594 0.179996
O O8 0.320521 0.016129 0.495875
O O9 0.156279 0.064517 0.844754
O O10 0.329199 0.036423 0.992316
O O11 0.004887 0.130416 0.186891
O O12 0.569747 0.838682 0.755263
#
# Coordination Sequence:
#
# PCOD9344955 Si02
#       6
#     4   4   4   4   4   4
#     4  10  24  35  61  97 131 158 210 257 326 384
#     4   9  20  41  58  88 124 171 209 252 310 372
#     4  10  20  40  60  84 125 171 205 242 308 381
#     4  10  20  38  60  95 119 174 216 246 300 391
#     4  10  22  35  63  92 129 164 211 267 306 374
#     4  11  24  37  62  94 134 160 195 266 334 364
#
# _framework density 26.220208
#
# number of rings (size 3 to 8) (size 9 to 14) (size 15 to 20)
#    0.000    2.000    3.333    0.000   11.667    0.000 
#    0.000    0.000    0.000    0.000   17.333    0.000 
#    0.000    0.000    0.000    0.000    0.000    0.000 
#
# Total GULP energy -133638.383227 kJ/mol
# GULP energy per Si atom -5568.265968 kJ/mol
# Density = 2.616053 g / cm^3
# Si number density = 26.220208 Si / 1000 Ang^3
#
#
#
# Elastic Constant Matrix: (Units=GPa)
#
#
# Indices 1 2 3 4 5 6 
#
# 1 152.7416 -32.2663 26.7889 0.0000 0.0000 0.0000
# 2 -32.2663 30.8318 -10.6482 0.0000 0.0000 0.0000
# 3 26.7889 -10.6482 110.7567 0.0000 0.0000 0.0000
# 4 0.0000 0.0000 0.0000 4.3570 0.0000 0.0000
# 5 0.0000 0.0000 0.0000 0.0000 26.1688 0.0000
# 6 0.0000 0.0000 0.0000 0.0000 0.0000 16.7659
#
#
#
# Elastic Compliance Matrix: (Units=1/GPa)
#
#
# Indices 1 2 3 4 5 6 
#
# 1 0.008570 0.008536 -0.001252 0.000000 0.000000 0.000000
# 2 0.008536 0.042051 0.001978 0.000000 0.000000 0.000000
# 3 -0.001252 0.001978 0.009522 0.000000 0.000000 0.000000
# 4 0.000000 0.000000 0.000000 0.229518 0.000000 0.000000
# 5 0.000000 0.000000 0.000000 0.000000 0.038214 0.000000
# 6 0.000000 0.000000 0.000000 0.000000 0.000000 0.059645
#
#
# Mechanical properties :
#
#
# Convention : Reuss Voigt Hill
#
# Bulk Modulus (GPa) = 12.71190 29.11988 20.91589
# Shear Modulus (GPa) = 12.65129 30.15537 21.40333
#
# Velocity S-wave (km/s) = 2.19898 3.39496 2.86018
# Velocity P-wave (km/s) = 3.36244 5.14759 4.34763
#
# Compressibility (1/GPa) = 0.07866643
#
# Stress axis : x y z
#
# Youngs Moduli (GPa) = 116.68820 23.78091 105.02183
#
# Poissons Ratio (x) = -0.20300 0.13150
# Poissons Ratio (y) = -0.99607 -0.20775
# Poissons Ratio (z) = 0.14611 -0.04704
#
# Static dielectric constant tensor:
#      x y z
#    x 2.371020 0.000000 0.000000 
#    y 0.000000 2.097620 0.000000 
#    z 0.000000 0.000000 2.178080 
# 
# From -- ./inp_files/889.got.cif
#   From: 2010.05.17/outbox.cif.g08.bks.cpg/sg33_1_cif.got.tgz:889.got - 2010.06.03 17:15:25.
