data_PCOD9344134
_publ_section_title
;
Structure prediction by ZEFSAII (Michael W. Deem and Ramdas Pophale) SiO2 
 PCOD9344134
Probable space group: P B A 2
;
_chemical_formula_sum "Si O2"
_cell_formula_units_Z 22
_cell_length_a 5.072546
_cell_length_b 16.449822
_cell_length_c 11.356497
_cell_angle_alpha 90.000000
_cell_angle_beta 90.000000
_cell_angle_gamma 90.000000
_cell_volume 947.614260
_symmetry_space_group_name_H-M "P B A 2"
_symmetry_group_IT_number 32
_symmetry_cell_setting 'orthorhombic'
loop_
_space_group_symop_operation_xyz
x,y,z
-x,-y,z
1/2-x,1/2+y,z
1/2+x,1/2-y,z
loop_
_atom_site_type_symbol
_atom_site_label
_atom_site_fract_x
_atom_site_fract_y
_atom_site_fract_z
Si Si1 0.141357 0.930472 0.606650
Si Si2 0.000000 0.500000 0.802300
Si Si3 0.580449 0.195364 0.449529
Si Si4 0.339899 0.414993 0.975215
Si Si5 0.876305 0.696314 0.174072
Si Si6 0.597030 0.304127 0.782930
O O1 0.267825 0.985924 0.709527
O O2 0.352076 0.880114 0.532123
O O3 0.970524 0.862690 0.674062
O O4 0.000000 0.000000 0.529941
O O5 0.082400 0.430178 0.893542
O O6 0.294605 0.233233 0.470278
O O7 0.622865 0.174156 0.312152
O O8 0.500000 0.500000 0.987307
O O9 0.521980 0.352963 0.901325
O O10 0.229921 0.376327 0.094015
O O11 0.669199 0.769894 0.150729
O O12 0.890738 0.270312 0.777362
#
# Coordination Sequence:
#
# PCOD9344134 Si02
#       6
#     4   2   4   4   4   4
#     4  11  25  40  65  94 137 172 216 280 331 393
#     4  10  24  40  58  90 132 170 216 262 326 396
#     4  10  23  45  71  98 130 174 226 273 326 396
#     4  11  25  40  65  94 137 172 216 280 331 393
#     4  10  23  45  71  98 130 174 226 273 326 396
#     4  11  24  39  62  88 124 173 220 257 321 387
#
# _framework density 23.216197999999999
#
# number of rings (size 3 to 8) (size 9 to 14) (size 15 to 20)
#    0.000    1.455    0.000    4.364   15.273    0.727 
#    0.000    0.909    0.000    0.000    0.000    0.000 
#    0.000    0.000    0.000    0.000    0.000    0.000 
#
# Total GULP energy -122976.957987 kJ/mol
# GULP energy per Si atom -5589.861727 kJ/mol
# Density = 2.316336 g / cm^3
# Si number density = 23.216198 Si / 1000 Ang^3
#
#
#
# Elastic Constant Matrix: (Units=GPa)
#
#
# Indices 1 2 3 4 5 6 
#
# 1 79.8730 26.3459 22.7778 0.0000 0.0000 0.0000
# 2 26.3459 84.1972 35.4521 0.0000 0.0000 0.0000
# 3 22.7778 35.4521 90.6382 0.0000 0.0000 0.0000
# 4 0.0000 0.0000 0.0000 -0.6691 0.0000 0.0000
# 5 0.0000 0.0000 0.0000 0.0000 21.9451 0.0000
# 6 0.0000 0.0000 0.0000 0.0000 0.0000 17.2197
#
#
#
# Elastic Compliance Matrix: (Units=1/GPa)
#
#
# Indices 1 2 3 4 5 6 
#
# 1 0.014321 -0.003551 -0.002210 0.000000 0.000000 0.000000
# 2 -0.003551 0.015099 -0.005013 0.000000 0.000000 0.000000
# 3 -0.002210 -0.005013 0.013549 0.000000 0.000000 0.000000
# 4 0.000000 0.000000 0.000000 -1.494526 0.000000 0.000000
# 5 0.000000 0.000000 0.000000 0.000000 0.045568 0.000000
# 6 0.000000 0.000000 0.000000 0.000000 0.000000 0.058073
#
#
# Mechanical properties :
#
#
# Convention : Reuss Voigt Hill
#
# Bulk Modulus (GPa) = 46.68346 47.09555 46.88951
# Shear Modulus (GPa) = -3.79010 19.04132 7.62561
#
# Velocity S-wave (km/s) = -1.27909 2.86698 1.81431
# Velocity P-wave (km/s) = 4.23915 5.59366 4.96283
#
# Compressibility (1/GPa) = 0.02142086
#
# Stress axis : x y z
#
# Youngs Moduli (GPa) = 69.82590 66.23018 73.80471
#
# Poissons Ratio (x) = 0.23516 0.16313
# Poissons Ratio (y) = 0.24792 0.37002
# Poissons Ratio (z) = 0.15433 0.33204
#
# Static dielectric constant tensor:
#      x y z
#    x 1.953110 0.000000 0.000000 
#    y 0.000000 1.884310 0.000000 
#    z 0.000000 0.000000 1.850720 
# 
# From -- ./inp_files/3502.got.cif
#   From: 2010.05.17/outbox.cif.g08.bks.cpg/sg32_2_cif.got.tgz:3502.got - 2010.06.03 17:12:27.
