data_PCOD9344188
_publ_section_title
;
Structure prediction by ZEFSAII (Michael W. Deem and Ramdas Pophale) SiO2 
 PCOD9344188
Probable space group: P B A 2
;
_chemical_formula_sum "Si O2"
_cell_formula_units_Z 18
_cell_length_a 15.604644
_cell_length_b 8.545016
_cell_length_c 5.236013
_cell_angle_alpha 90.000000
_cell_angle_beta 90.000000
_cell_angle_gamma 90.000000
_cell_volume 698.180093
_symmetry_space_group_name_H-M "P B A 2"
_symmetry_group_IT_number 32
_symmetry_cell_setting 'orthorhombic'
loop_
_space_group_symop_operation_xyz
x,y,z
-x,-y,z
1/2-x,1/2+y,z
1/2+x,1/2-y,z
loop_
_atom_site_type_symbol
_atom_site_label
_atom_site_fract_x
_atom_site_fract_y
_atom_site_fract_z
Si Si1 0.717091 0.664135 0.721180
Si Si2 0.000000 0.000000 0.005502
Si Si3 0.438699 0.221928 0.376385
Si Si4 0.125107 0.387164 0.369675
Si Si5 0.668370 0.392588 0.983259
O O1 0.629593 0.706543 0.575430
O O2 0.792561 0.590161 0.548395
O O3 0.702603 0.569646 0.987503
O O4 0.762985 0.820519 0.800771
O O5 0.038298 0.861917 0.182036
O O6 0.923635 0.921669 0.852995
O O7 0.531585 0.163434 0.481862
O O8 0.396074 0.061977 0.257991
O O9 0.149923 0.234424 0.199657
#
# Coordination Sequence:
#
# PCOD9344188 Si02
#       5
#     4   2   4   4   4
#     4  12  26  44  75 110 147 200 259 321 386 467
#     4  10  26  48  80 106 154 200 254 320 394 456
#     4  10  24  49  77 103 153 205 243 318 401 459
#     4  10  25  50  72 108 153 200 254 324 388 464
#     4  11  28  44  73 110 146 202 260 319 384 469
#
# _framework density 25.781312
#
# number of rings (size 3 to 8) (size 9 to 14) (size 15 to 20)
#    0.000    1.333    2.222    0.000   15.556    0.000 
#    0.000    2.222    0.000    0.000    0.000    0.000 
#    0.000    0.000    0.000    0.000    0.000    0.000 
#
# Total GULP energy -100251.900480 kJ/mol
# GULP energy per Si atom -5569.550027 kJ/mol
# Density = 2.572263 g / cm^3
# Si number density = 25.781312 Si / 1000 Ang^3
#
#
#
# Elastic Constant Matrix: (Units=GPa)
#
#
# Indices 1 2 3 4 5 6 
#
# 1 184.9223 89.5146 56.4771 0.0000 0.0000 0.0000
# 2 89.5146 171.9964 45.1406 0.0000 0.0000 0.0000
# 3 56.4771 45.1406 31.3183 0.0000 0.0000 0.0000
# 4 0.0000 0.0000 0.0000 -85.7237 0.0000 0.0000
# 5 0.0000 0.0000 0.0000 0.0000 74.1685 0.0000
# 6 0.0000 0.0000 0.0000 0.0000 0.0000 139.9706
#
#
#
# Elastic Compliance Matrix: (Units=1/GPa)
#
#
# Indices 1 2 3 4 5 6 
#
# 1 0.012127 -0.000920 -0.020543 0.000000 0.000000 0.000000
# 2 -0.000920 0.009421 -0.011921 0.000000 0.000000 0.000000
# 3 -0.020543 -0.011921 0.086158 0.000000 0.000000 0.000000
# 4 0.000000 0.000000 0.000000 -0.011665 0.000000 0.000000
# 5 0.000000 0.000000 0.000000 0.000000 0.013483 0.000000
# 6 0.000000 0.000000 0.000000 0.000000 0.000000 0.007144
#
#
# Mechanical properties :
#
#
# Convention : Reuss Voigt Hill
#
# Bulk Modulus (GPa) = 24.42650 85.61129 55.01889
# Shear Modulus (GPa) = 25.37011 38.82340 32.09675
#
# Velocity S-wave (km/s) = 3.14036 3.88477 3.53223
# Velocity P-wave (km/s) = 4.75859 7.30758 6.16624
#
# Compressibility (1/GPa) = 0.04093915
#
# Stress axis : x y z
#
# Youngs Moduli (GPa) = 82.46022 106.14114 11.60656
#
# Poissons Ratio (x) = 0.09764 0.23844
# Poissons Ratio (y) = 0.07585 0.13836
# Poissons Ratio (z) = 1.69399 1.26527
#
# Static dielectric constant tensor:
#      x y z
#    x 2.036580 0.000000 0.000000 
#    y 0.000000 3.039650 0.000000 
#    z 0.000000 0.000000 2.068820 
# 
# From -- ./inp_files/1386.got.cif
#   From: 2010.05.17/outbox.cif.g08.bks.cpg/sg32_1_cif.got.tgz:1386.got - 2010.06.03 17:12:27.
