data_PCOD9344980
_publ_section_title
;
Structure prediction by ZEFSAII (Michael W. Deem and Ramdas Pophale) SiO2 
 PCOD9344980
Probable space group: P N A 21
;
_chemical_formula_sum "Si O2"
_cell_formula_units_Z 32
_cell_length_a 18.457037
_cell_length_b 7.525146
_cell_length_c 8.861591
_cell_angle_alpha 90.000000
_cell_angle_beta 90.000000
_cell_angle_gamma 90.000000
_cell_volume 1230.803195
_symmetry_space_group_name_H-M "P N A 21"
_symmetry_group_IT_number 33
_symmetry_cell_setting 'orthorhombic'
loop_
_space_group_symop_operation_xyz
x,y,z
-x,-y,1/2+z
1/2-x,1/2+y,1/2+z
1/2+x,1/2-y,z
loop_
_atom_site_type_symbol
_atom_site_label
_atom_site_fract_x
_atom_site_fract_y
_atom_site_fract_z
Si Si1 0.740982 0.409067 0.079860
Si Si2 0.596689 0.044279 0.220529
Si Si3 0.141356 0.015969 0.546570
Si Si4 0.473337 0.397655 0.509254
Si Si5 0.136856 0.822759 0.257848
Si Si6 0.376010 0.686870 0.356098
Si Si7 0.456151 0.012054 0.397982
Si Si8 0.220990 0.277131 0.356294
O O1 0.694112 0.549683 0.178285
O O2 0.772222 0.283969 0.215752
O O3 0.689902 0.289929 0.972159
O O4 0.774958 0.544806 0.957255
O O5 0.649567 0.877248 0.205063
O O6 0.537192 0.990942 0.341989
O O7 0.643086 0.207904 0.273087
O O8 0.554757 0.064094 0.065303
O O9 0.148060 0.056377 0.722554
O O10 0.208758 0.121750 0.475097
O O11 0.059806 0.094524 0.516006
O O12 0.138992 0.842426 0.438710
O O13 0.439477 0.374250 0.677032
O O14 0.438750 0.573975 0.439228
O O15 0.446067 0.224642 0.414201
O O16 0.404043 0.880840 0.303236
#
# Coordination Sequence:
#
# PCOD9344980 Si02
#       8
#     4   4   4   4   4   4   4   4
#     4  10  24  48  68  94 137 191 244 300 357 431
#     4  11  22  41  67 101 141 175 227 289 365 434
#     4  11  21  40  62  99 134 172 228 289 353 429
#     4  10  20  38  63  98 138 178 217 277 361 435
#     4   9  22  40  63  92 135 180 226 284 351 430
#     4  11  23  41  67 101 137 180 228 290 360 432
#     4  11  22  38  65 104 138 176 222 284 359 441
#     4  11  24  46  69  95 140 188 244 303 358 436
#
# _framework density 25.999282000000001
#
# number of rings (size 3 to 8) (size 9 to 14) (size 15 to 20)
#    0.000    1.500    2.500    3.000    0.000    4.000 
#    6.750    2.500    0.000    0.000    0.000    0.000 
#    0.000    0.000    0.000    0.000    0.000    0.000 
#
# Total GULP energy -178643.489630 kJ/mol
# GULP energy per Si atom -5582.609051 kJ/mol
# Density = 2.594011 g / cm^3
# Si number density = 25.999282 Si / 1000 Ang^3
#
#
#
# Elastic Constant Matrix: (Units=GPa)
#
#
# Indices 1 2 3 4 5 6 
#
# 1 34.6630 14.5544 33.0471 0.0000 0.0000 0.0000
# 2 14.5544 109.5663 22.7012 0.0000 0.0000 0.0000
# 3 33.0471 22.7012 136.7099 0.0000 0.0000 0.0000
# 4 0.0000 0.0000 0.0000 38.0943 0.0000 0.0000
# 5 0.0000 0.0000 0.0000 0.0000 33.7599 0.0000
# 6 0.0000 0.0000 0.0000 0.0000 0.0000 29.0121
#
#
#
# Elastic Compliance Matrix: (Units=1/GPa)
#
#
# Indices 1 2 3 4 5 6 
#
# 1 0.038614 -0.003309 -0.008785 0.000000 0.000000 0.000000
# 2 -0.003309 0.009736 -0.000817 0.000000 0.000000 0.000000
# 3 -0.008785 -0.000817 0.009574 0.000000 0.000000 0.000000
# 4 0.000000 0.000000 0.000000 0.026251 0.000000 0.000000
# 5 0.000000 0.000000 0.000000 0.000000 0.029621 0.000000
# 6 0.000000 0.000000 0.000000 0.000000 0.000000 0.034468
#
#
# Mechanical properties :
#
#
# Convention : Reuss Voigt Hill
#
# Bulk Modulus (GPa) = 31.15048 46.83829 38.99438
# Shear Modulus (GPa) = 27.05844 34.21571 30.63708
#
# Velocity S-wave (km/s) = 3.22955 3.63164 3.43648
# Velocity P-wave (km/s) = 5.09057 5.96988 5.54767
#
# Compressibility (1/GPa) = 0.03210224
#
# Stress axis : x y z
#
# Youngs Moduli (GPa) = 25.89747 102.71489 104.45060
#
# Poissons Ratio (x) = 0.33991 0.91756
# Poissons Ratio (y) = 0.08570 0.08531
# Poissons Ratio (z) = 0.22750 0.08389
#
# Static dielectric constant tensor:
#      x y z
#    x 2.032070 0.000000 0.000000 
#    y 0.000000 2.120280 0.000000 
#    z 0.000000 0.000000 2.072270 
# 
# From -- ./inp_files/5045.got.cif
#   From: 2010.05.17/outbox.cif.g08.bks.cpg/sg33_3_cif.got.tgz:5045.got - 2010.06.03 17:15:25.
