data_PCOD9344631
_publ_section_title
;
Structure prediction by ZEFSAII (Michael W. Deem and Ramdas Pophale) SiO2 
 PCOD9344631
Probable space group: P N A 21
;
_chemical_formula_sum "Si O2"
_cell_formula_units_Z 24
_cell_length_a 5.473887
_cell_length_b 30.770168
_cell_length_c 4.896515
_cell_angle_alpha 90.000000
_cell_angle_beta 90.000000
_cell_angle_gamma 90.000000
_cell_volume 824.731884
_symmetry_space_group_name_H-M "P N A 21"
_symmetry_group_IT_number 33
_symmetry_cell_setting 'orthorhombic'
loop_
_space_group_symop_operation_xyz
x,y,z
-x,-y,1/2+z
1/2-x,1/2+y,1/2+z
1/2+x,1/2-y,z
loop_
_atom_site_type_symbol
_atom_site_label
_atom_site_fract_x
_atom_site_fract_y
_atom_site_fract_z
Si Si1 0.327628 0.401464 0.530880
Si Si2 0.664080 0.921110 0.708171
Si Si3 0.321118 0.315979 0.905414
Si Si4 0.679418 0.764452 0.003176
Si Si5 0.848129 0.009508 0.811987
Si Si6 0.817368 0.340925 0.909164
O O1 0.582318 0.409785 0.369110
O O2 0.329496 0.354882 0.678167
O O3 0.298034 0.440593 0.749688
O O4 0.085410 0.406021 0.348674
O O5 0.661891 0.973281 0.699988
O O6 0.684469 0.892934 0.429611
O O7 0.322559 0.269543 0.761474
O O8 0.572535 0.325250 0.057699
O O9 0.066163 0.325274 0.048153
O O10 0.428491 0.750500 0.862214
O O11 0.681507 0.812775 0.129995
O O12 0.086972 0.998548 0.625761
#
# Coordination Sequence:
#
# PCOD9344631 Si02
#       6
#     4   4   4   4   4   4
#     4  11  24  40  62  94 133 174 220 276 337 401
#     4  11  24  40  62  94 133 174 220 276 337 401
#     4  10  19  35  61  86 117 163 217 270 330 394
#     4   8  16  30  54  82 110 152 214 270 326 388
#     4  10  24  46  70 102 140 180 228 280 338 406
#     4  10  19  35  61  86 117 163 217 270 330 394
#
# _framework density 29.100363000000002
#
# number of rings (size 3 to 8) (size 9 to 14) (size 15 to 20)
#    0.000    2.000    0.000    3.000    0.000    9.333 
#    0.000    0.000    0.000   54.000    0.000    0.000 
#    0.000    0.000    0.000    0.000    0.000    0.000 
#
# Total GULP energy -134497.985930 kJ/mol
# GULP energy per Si atom -5604.082747 kJ/mol
# Density = 2.903413 g / cm^3
# Si number density = 29.100363 Si / 1000 Ang^3
#
#
#
# Elastic Constant Matrix: (Units=GPa)
#
#
# Indices 1 2 3 4 5 6 
#
# 1 254.1576 36.2552 32.1445 0.0000 0.0000 0.0000
# 2 36.2552 182.1012 64.6378 0.0000 0.0000 0.0000
# 3 32.1445 64.6378 94.8380 0.0000 0.0000 0.0000
# 4 0.0000 0.0000 0.0000 71.6278 0.0000 0.0000
# 5 0.0000 0.0000 0.0000 0.0000 -19.1612 0.0000
# 6 0.0000 0.0000 0.0000 0.0000 0.0000 50.1368
#
#
#
# Elastic Compliance Matrix: (Units=1/GPa)
#
#
# Indices 1 2 3 4 5 6 
#
# 1 0.004136 -0.000430 -0.001109 0.000000 0.000000 0.000000
# 2 -0.000430 0.007289 -0.004822 0.000000 0.000000 0.000000
# 3 -0.001109 -0.004822 0.014207 0.000000 0.000000 0.000000
# 4 0.000000 0.000000 0.000000 0.013961 0.000000 0.000000
# 5 0.000000 0.000000 0.000000 0.000000 -0.052189 0.000000
# 6 0.000000 0.000000 0.000000 0.000000 0.000000 0.019945
#
#
# Mechanical properties :
#
#
# Convention : Reuss Voigt Hill
#
# Bulk Modulus (GPa) = 77.45994 88.57466 83.01730
# Shear Modulus (GPa) = 205.13925 47.05796 126.09861
#
# Velocity S-wave (km/s) = 8.40516 4.02567 6.58987
# Velocity P-wave (km/s) = 10.99416 7.21885 9.30009
#
# Compressibility (1/GPa) = 0.01290990
#
# Stress axis : x y z
#
# Youngs Moduli (GPa) = 241.77143 137.20044 70.38983
#
# Poissons Ratio (x) = 0.05898 0.07806
# Poissons Ratio (y) = 0.10393 0.33941
# Poissons Ratio (z) = 0.26811 0.66157
#
# Static dielectric constant tensor:
#      x y z
#    x 2.380540 0.000000 0.000000 
#    y 0.000000 2.204170 0.000000 
#    z 0.000000 0.000000 2.144310 
# 
# From -- ./inp_files/224.got.cif
#   From: 2010.05.17/outbox.cif.g08.bks.cpg/sg33_1_cif.got.tgz:224.got - 2010.06.03 17:15:25.
