data_PCOD9344449
_publ_section_title
;
Structure prediction by ZEFSAII (Michael W. Deem and Ramdas Pophale) SiO2 
 PCOD9344449
Probable space group: P N A 21
;
_chemical_formula_sum "Si O2"
_cell_formula_units_Z 24
_cell_length_a 9.193593
_cell_length_b 13.788752
_cell_length_c 8.029880
_cell_angle_alpha 90.000000
_cell_angle_beta 90.000000
_cell_angle_gamma 90.000000
_cell_volume 1017.933224
_symmetry_space_group_name_H-M "P N A 21"
_symmetry_group_IT_number 33
_symmetry_cell_setting 'orthorhombic'
loop_
_space_group_symop_operation_xyz
x,y,z
-x,-y,1/2+z
1/2-x,1/2+y,1/2+z
1/2+x,1/2-y,z
loop_
_atom_site_type_symbol
_atom_site_label
_atom_site_fract_x
_atom_site_fract_y
_atom_site_fract_z
Si Si1 0.417992 0.757076 0.186630
Si Si2 0.859025 0.759866 0.553965
Si Si3 0.172737 0.844600 0.045284
Si Si4 0.595266 0.809950 0.773010
Si Si5 0.803513 0.928160 0.981332
Si Si6 0.519144 0.457423 0.140744
O O1 0.369110 0.782564 0.371442
O O2 0.345519 0.840594 0.074162
O O3 0.585590 0.725299 0.177619
O O4 0.344652 0.664113 0.095354
O O5 0.704436 0.797067 0.617832
O O6 0.935976 0.694065 0.694479
O O7 0.951778 0.859146 0.543158
O O8 0.113675 0.951961 0.072505
O O9 0.123991 0.788275 0.879167
O O10 0.653434 0.898193 0.889058
O O11 0.912915 0.942213 0.824021
O O12 0.850230 0.014665 0.106102
#
# Coordination Sequence:
#
# PCOD9344449 Si02
#       6
#     4   4   4   4   4   4
#     4  10  20  34  55  84 116 155 196 246 302 364
#     4  11  21  36  60  88 118 156 204 250 300 359
#     4  10  19  35  57  82 114 152 198 249 300 359
#     4  10  21  37  59  89 123 162 203 249 307 374
#     4   9  19  33  55  84 119 150 197 251 296 348
#     4  10  18  33  58  87 112 149 200 249 287 348
#
# _framework density 23.577185
#
# number of rings (size 3 to 8) (size 9 to 14) (size 15 to 20)
#    0.000    2.000    0.000    8.000    0.000    0.000 
#    0.000    0.000    0.000   46.000    0.000    0.000 
#    0.000    0.000    0.000    0.000    0.000    0.000 
#
# Total GULP energy -133639.870199 kJ/mol
# GULP energy per Si atom -5568.327925 kJ/mol
# Density = 2.352352 g / cm^3
# Si number density = 23.577185 Si / 1000 Ang^3
#
#
#
# Elastic Constant Matrix: (Units=GPa)
#
#
# Indices 1 2 3 4 5 6 
#
# 1 53.0955 -1.2064 -2.5109 0.0000 0.0000 0.0000
# 2 -1.2064 39.8070 -6.7186 0.0000 0.0000 0.0000
# 3 -2.5109 -6.7186 103.6761 0.0000 0.0000 0.0000
# 4 0.0000 0.0000 0.0000 27.9141 0.0000 0.0000
# 5 0.0000 0.0000 0.0000 0.0000 33.7008 0.0000
# 6 0.0000 0.0000 0.0000 0.0000 0.0000 43.9000
#
#
#
# Elastic Compliance Matrix: (Units=1/GPa)
#
#
# Indices 1 2 3 4 5 6 
#
# 1 0.018873 0.000656 0.000500 0.000000 0.000000 0.000000
# 2 0.000656 0.025422 0.001663 0.000000 0.000000 0.000000
# 3 0.000500 0.001663 0.009765 0.000000 0.000000 0.000000
# 4 0.000000 0.000000 0.000000 0.035824 0.000000 0.000000
# 5 0.000000 0.000000 0.000000 0.000000 0.029673 0.000000
# 6 0.000000 0.000000 0.000000 0.000000 0.000000 0.022779
#
#
# Mechanical properties :
#
#
# Convention : Reuss Voigt Hill
#
# Bulk Modulus (GPa) = 16.75095 19.52297 18.13696
# Shear Modulus (GPa) = 31.92914 34.90395 33.41654
#
# Velocity S-wave (km/s) = 3.68399 3.85179 3.76882
# Velocity P-wave (km/s) = 5.02154 5.29907 5.16217
#
# Compressibility (1/GPa) = 0.05969809
#
# Stress axis : x y z
#
# Youngs Moduli (GPa) = 52.98707 39.33624 102.40324
#
# Poissons Ratio (x) = -0.02582 -0.05116
# Poissons Ratio (y) = -0.03477 -0.17033
# Poissons Ratio (z) = -0.02647 -0.06543
#
# Static dielectric constant tensor:
#      x y z
#    x 2.038570 0.000000 0.000000 
#    y 0.000000 1.895530 0.000000 
#    z 0.000000 0.000000 1.999180 
# 
# From -- ./inp_files/3193.got.cif
#   From: 2010.05.17/outbox.cif.g08.bks.cpg/sg33_2_cif.got.tgz:3193.got - 2010.06.03 17:15:25.
