data_PCOD9344284
_publ_section_title
;
Structure prediction by ZEFSAII (Michael W. Deem and Ramdas Pophale) SiO2 
 PCOD9344284
Probable space group: P B A 2
;
_chemical_formula_sum "Si O2"
_cell_formula_units_Z 16
_cell_length_a 9.217862
_cell_length_b 9.110940
_cell_length_c 8.409685
_cell_angle_alpha 90.000000
_cell_angle_beta 90.000000
_cell_angle_gamma 90.000000
_cell_volume 706.273835
_symmetry_space_group_name_H-M "P B A 2"
_symmetry_group_IT_number 32
_symmetry_cell_setting 'orthorhombic'
loop_
_space_group_symop_operation_xyz
x,y,z
-x,-y,z
1/2-x,1/2+y,z
1/2+x,1/2-y,z
loop_
_atom_site_type_symbol
_atom_site_label
_atom_site_fract_x
_atom_site_fract_y
_atom_site_fract_z
Si Si1 0.577086 0.295619 0.069790
Si Si2 0.280027 0.423108 0.199275
Si Si3 0.850077 0.576501 0.538432
Si Si4 0.374922 0.613798 0.704984
O O1 0.415805 0.330080 0.130601
O O2 0.678994 0.409695 0.164634
O O3 0.638056 0.135955 0.109046
O O4 0.596655 0.339115 0.886419
O O5 0.253245 0.408770 0.386003
O O6 0.773474 0.473753 0.670695
O O7 0.877501 0.738213 0.604366
O O8 0.000000 0.500000 0.489803
O O9 0.500000 0.500000 0.658581
#
# Coordination Sequence:
#
# PCOD9344284 Si02
#       4
#     4   4   4   4
#     4  11  26  48  75 107 151 198 248 311 365 452
#     4  11  26  47  72 108 149 195 248 302 373 441
#     4  12  29  46  78 112 152 201 247 314 384 449
#     4  12  26  50  76 110 154 195 254 312 377 452
#
# _framework density 22.654102000000002
#
# number of rings (size 3 to 8) (size 9 to 14) (size 15 to 20)
#    0.000    0.500    2.500    4.500   17.500    0.000 
#    0.000    0.000    0.000    0.000    0.000    0.000 
#    0.000    0.000    0.000    0.000    0.000    0.000 
#
# Total GULP energy -89631.823303 kJ/mol
# GULP energy per Si atom -5601.988956 kJ/mol
# Density = 2.260254 g / cm^3
# Si number density = 22.654102 Si / 1000 Ang^3
#
#
#
# Elastic Constant Matrix: (Units=GPa)
#
#
# Indices 1 2 3 4 5 6 
#
# 1 69.6959 27.6095 50.5306 0.0000 0.0000 0.0000
# 2 27.6095 97.7561 43.4038 0.0000 0.0000 0.0000
# 3 50.5306 43.4038 155.5947 0.0000 0.0000 0.0000
# 4 0.0000 0.0000 0.0000 36.1837 0.0000 0.0000
# 5 0.0000 0.0000 0.0000 0.0000 44.8455 0.0000
# 6 0.0000 0.0000 0.0000 0.0000 0.0000 41.3592
#
#
#
# Elastic Compliance Matrix: (Units=1/GPa)
#
#
# Indices 1 2 3 4 5 6 
#
# 1 0.019549 -0.003084 -0.005488 0.000000 0.000000 0.000000
# 2 -0.003084 0.012162 -0.002391 0.000000 0.000000 0.000000
# 3 -0.005488 -0.002391 0.008876 0.000000 0.000000 0.000000
# 4 0.000000 0.000000 0.000000 0.027637 0.000000 0.000000
# 5 0.000000 0.000000 0.000000 0.000000 0.022299 0.000000
# 6 0.000000 0.000000 0.000000 0.000000 0.000000 0.024178
#
#
# Mechanical properties :
#
#
# Convention : Reuss Voigt Hill
#
# Bulk Modulus (GPa) = 53.59033 62.90383 58.24708
# Shear Modulus (GPa) = 35.00197 37.91121 36.45659
#
# Velocity S-wave (km/s) = 3.93499 4.09526 4.01592
# Velocity P-wave (km/s) = 6.65979 7.08441 6.87538
#
# Compressibility (1/GPa) = 0.01866008
#
# Stress axis : x y z
#
# Youngs Moduli (GPa) = 51.15351 82.22119 112.65961
#
# Poissons Ratio (x) = 0.25361 0.61831
# Poissons Ratio (y) = 0.15778 0.26937
# Poissons Ratio (z) = 0.28074 0.19659
#
# Static dielectric constant tensor:
#      x y z
#    x 1.660670 0.000000 0.000000 
#    y 0.000000 1.792560 0.000000 
#    z 0.000000 0.000000 1.826100 
# 
# From -- ./inp_files/2091.got.cif
#   From: 2010.05.17/outbox.cif.g08.bks.cpg/sg32_2_cif.got.tgz:2091.got - 2010.06.03 17:12:27.
