data_PCOD9344058
_publ_section_title
;
Structure prediction by ZEFSAII (Michael W. Deem and Ramdas Pophale) SiO2 
 PCOD9344058
Probable space group: P B A 2
;
_chemical_formula_sum "Si O2"
_cell_formula_units_Z 16
_cell_length_a 21.870066
_cell_length_b 5.248217
_cell_length_c 5.069515
_cell_angle_alpha 90.000000
_cell_angle_beta 90.000000
_cell_angle_gamma 90.000000
_cell_volume 581.873113
_symmetry_space_group_name_H-M "P B A 2"
_symmetry_group_IT_number 32
_symmetry_cell_setting 'orthorhombic'
loop_
_space_group_symop_operation_xyz
x,y,z
-x,-y,z
1/2-x,1/2+y,z
1/2+x,1/2-y,z
loop_
_atom_site_type_symbol
_atom_site_label
_atom_site_fract_x
_atom_site_fract_y
_atom_site_fract_z
Si Si1 0.660479 0.646143 0.087720
Si Si2 0.564450 0.442834 0.489420
Si Si3 0.270541 0.709599 0.783907
Si Si4 0.436784 0.056665 0.837424
O O1 0.624479 0.511991 0.320796
O O2 0.667007 0.423783 0.863345
O O3 0.730649 0.734853 0.051265
O O4 0.621416 0.897306 0.020130
O O5 0.500000 0.500000 0.334645
O O6 0.558544 0.665331 0.706875
O O7 0.567083 0.160988 0.614103
O O8 0.268110 0.982307 0.644633
O O9 0.500000 0.000000 0.985509
#
# Coordination Sequence:
#
# PCOD9344058 Si02
#       4
#     4   4   4   4
#     4  10  22  42  66  82 132 166 196 268 326 354
#     4  10  24  40  60  94 124 160 216 260 314 395
#     4   8  20  36  60  90 116 158 220 246 296 404
#     4  10  24  40  60  94 124 160 216 260 314 395
#
# _framework density 27.497399999999999
#
# number of rings (size 3 to 8) (size 9 to 14) (size 15 to 20)
#    1.500    1.000    0.000    0.000    7.000    6.000 
#    0.000    7.500    0.000    0.000    0.000    0.000 
#    0.000    0.000    0.000    0.000    0.000    0.000 
#
# Total GULP energy -89144.216460 kJ/mol
# GULP energy per Si atom -5571.513529 kJ/mol
# Density = 2.743481 g / cm^3
# Si number density = 27.497400 Si / 1000 Ang^3
#
#
#
# Elastic Constant Matrix: (Units=GPa)
#
#
# Indices 1 2 3 4 5 6 
#
# 1 110.6894 8.2816 20.7537 0.0000 0.0000 0.0000
# 2 8.2816 222.7455 27.1567 0.0000 0.0000 0.0000
# 3 20.7537 27.1567 62.1831 0.0000 0.0000 0.0000
# 4 0.0000 0.0000 0.0000 36.6800 0.0000 0.0000
# 5 0.0000 0.0000 0.0000 0.0000 21.7545 0.0000
# 6 0.0000 0.0000 0.0000 0.0000 0.0000 127.0877
#
#
#
# Elastic Compliance Matrix: (Units=1/GPa)
#
#
# Indices 1 2 3 4 5 6 
#
# 1 0.009638 0.000036 -0.003232 0.000000 0.000000 0.000000
# 2 0.000036 0.004742 -0.002083 0.000000 0.000000 0.000000
# 3 -0.003232 -0.002083 0.018070 0.000000 0.000000 0.000000
# 4 0.000000 0.000000 0.000000 0.027263 0.000000 0.000000
# 5 0.000000 0.000000 0.000000 0.000000 0.045968 0.000000
# 6 0.000000 0.000000 0.000000 0.000000 0.000000 0.007869
#
#
# Mechanical properties :
#
#
# Convention : Reuss Voigt Hill
#
# Bulk Modulus (GPa) = 45.68097 56.44466 51.06281
# Shear Modulus (GPa) = 38.05056 59.73285 48.89171
#
# Velocity S-wave (km/s) = 3.72397 4.66586 4.22127
# Velocity P-wave (km/s) = 5.92785 7.04264 6.50916
#
# Compressibility (1/GPa) = 0.02189095
#
# Stress axis : x y z
#
# Youngs Moduli (GPa) = 103.75998 210.87973 55.34062
#
# Poissons Ratio (x) = -0.00754 0.17887
# Poissons Ratio (y) = -0.00371 0.11527
# Poissons Ratio (z) = 0.33537 0.43924
#
# Static dielectric constant tensor:
#      x y z
#    x 2.042250 0.000000 0.000000 
#    y 0.000000 2.235930 0.000000 
#    z 0.000000 0.000000 2.180320 
# 
# From -- ./inp_files/1626.got.cif
#   From: 2010.05.17/outbox.cif.g08.bks.cpg/sg32_1_cif.got.tgz:1626.got - 2010.06.03 17:12:27.
