data_PCOD9344334
_publ_section_title
;
Structure prediction by ZEFSAII (Michael W. Deem and Ramdas Pophale) SiO2 
 PCOD9344334
Probable space group: P B A 2
;
_chemical_formula_sum "Si O2"
_cell_formula_units_Z 32
_cell_length_a 9.000000
_cell_length_b 15.000000
_cell_length_c 12.000000
_cell_angle_alpha 90.000000
_cell_angle_beta 90.000000
_cell_angle_gamma 90.000000
_cell_volume 1620.000000
_symmetry_space_group_name_H-M "P B A 2"
_symmetry_group_IT_number 32
_symmetry_cell_setting 'orthorhombic'
loop_
_space_group_symop_operation_xyz
x,y,z
-x,-y,z
1/2-x,1/2+y,z
1/2+x,1/2-y,z
loop_
_atom_site_type_symbol
_atom_site_label
_atom_site_fract_x
_atom_site_fract_y
_atom_site_fract_z
Si Si1 0.311944 0.672155 0.909300
Si Si2 0.821104 0.514761 0.931521
Si Si3 0.956632 0.255007 0.759746
Si Si4 0.365506 0.931579 0.687758
Si Si5 0.125925 0.708574 0.236880
Si Si6 0.379536 0.703516 0.396078
Si Si7 0.849520 0.678328 0.091968
Si Si8 0.659445 0.665896 0.536896
O O1 0.269830 0.575100 0.954626
O O2 0.164429 0.709409 0.847723
O O3 0.442354 0.679956 0.818114
O O4 0.360777 0.738708 0.007059
O O5 0.786166 0.538879 0.802580
O O6 0.000000 0.500000 0.931924
O O7 0.796727 0.593860 0.019493
O O8 0.880133 0.219481 0.648970
O O9 0.058856 0.337715 0.721801
O O10 0.253431 0.917709 0.584769
O O11 0.500000 0.000000 0.662676
O O12 0.255317 0.659947 0.311640
O O13 0.222139 0.787688 0.178128
O O14 0.999929 0.745464 0.319888
O O15 0.014346 0.662456 0.146347
O O16 0.499252 0.651014 0.475040
O O17 0.276022 0.773008 0.465911
#
# Coordination Sequence:
#
# PCOD9344334 Si02
#       8
#     4   4   4   4   4   4   4   4
#     4  12  22  36  62  92 131 172 208 253 310 382
#     4  11  21  37  58  90 131 171 206 244 303 388
#     4  12  20  36  61  92 127 166 211 253 302 387
#     4  11  21  35  57  89 136 171 207 249 312 391
#     4   9  20  36  61  91 114 152 211 274 314 375
#     4   9  19  36  63  93 112 149 222 261 320 380
#     4  11  20  38  61  90 122 163 213 257 318 380
#     4  11  19  36  63  94 118 163 212 260 313 384
#
# _framework density 19.753086
#
# number of rings (size 3 to 8) (size 9 to 14) (size 15 to 20)
#    0.000    1.250    6.250    1.500    0.000    0.000 
#    0.000    5.625    0.000   11.250   13.000    0.000 
#    0.000    0.000    0.000    0.000    0.000    0.000 
#
# Total GULP energy -178448.121061 kJ/mol
# GULP energy per Si atom -5576.503783 kJ/mol
# Density = 1.970813 g / cm^3
# Si number density = 19.753086 Si / 1000 Ang^3
#
#
#
# Elastic Constant Matrix: (Units=GPa)
#
#
# Indices 1 2 3 4 5 6 
#
# 1 123.5714 23.9383 49.8493 0.0000 0.0000 0.0000
# 2 23.9383 75.8763 35.7351 0.0000 0.0000 0.0000
# 3 49.8493 35.7351 97.6912 0.0000 0.0000 0.0000
# 4 0.0000 0.0000 0.0000 15.2262 0.0000 0.0000
# 5 0.0000 0.0000 0.0000 0.0000 58.2565 0.0000
# 6 0.0000 0.0000 0.0000 0.0000 0.0000 17.6374
#
#
#
# Elastic Compliance Matrix: (Units=1/GPa)
#
#
# Indices 1 2 3 4 5 6 
#
# 1 0.010244 -0.000930 -0.004887 0.000000 0.000000 0.000000
# 2 -0.000930 0.016007 -0.005381 0.000000 0.000000 0.000000
# 3 -0.004887 -0.005381 0.014698 0.000000 0.000000 0.000000
# 4 0.000000 0.000000 0.000000 0.065676 0.000000 0.000000
# 5 0.000000 0.000000 0.000000 0.000000 0.017165 0.000000
# 6 0.000000 0.000000 0.000000 0.000000 0.000000 0.056698
#
#
# Mechanical properties :
#
#
# Convention : Reuss Voigt Hill
#
# Bulk Modulus (GPa) = 53.89813 57.35380 55.62596
# Shear Modulus (GPa) = 23.91555 30.73178 27.32367
#
# Velocity S-wave (km/s) = 3.48332 3.94864 3.72326
# Velocity P-wave (km/s) = 6.59721 7.06310 6.83413
#
# Compressibility (1/GPa) = 0.01855352
#
# Stress axis : x y z
#
# Youngs Moduli (GPa) = 97.61666 62.47299 68.03531
#
# Poissons Ratio (x) = 0.05812 0.33249
# Poissons Ratio (y) = 0.09081 0.36607
# Poissons Ratio (z) = 0.47705 0.33614
#
# Static dielectric constant tensor:
#      x y z
#    x 1.720350 0.000000 0.000000 
#    y 0.000000 1.707830 0.000000 
#    z 0.000000 0.000000 1.768660 
# 
# From -- ./inp_files/3776.got.cif
#   From: 2010.05.17/outbox.ucp.g08.bks.cvg/sg32_2_cif.got.tgz:3776.got - 2010.06.11 10:34:49.
