data_PCOD9344976
_publ_section_title
;
Structure prediction by ZEFSAII (Michael W. Deem and Ramdas Pophale) SiO2 
 PCOD9344976
Probable space group: P N A 21
;
_chemical_formula_sum "Si O2"
_cell_formula_units_Z 24
_cell_length_a 8.598811
_cell_length_b 19.121361
_cell_length_c 7.781625
_cell_angle_alpha 90.000000
_cell_angle_beta 90.000000
_cell_angle_gamma 90.000000
_cell_volume 1279.462325
_symmetry_space_group_name_H-M "P N A 21"
_symmetry_group_IT_number 33
_symmetry_cell_setting 'orthorhombic'
loop_
_space_group_symop_operation_xyz
x,y,z
-x,-y,1/2+z
1/2-x,1/2+y,1/2+z
1/2+x,1/2-y,z
loop_
_atom_site_type_symbol
_atom_site_label
_atom_site_fract_x
_atom_site_fract_y
_atom_site_fract_z
Si Si1 0.944421 0.564828 0.056050
Si Si2 0.567530 0.325658 0.282085
Si Si3 0.062608 0.670109 0.764790
Si Si4 0.393626 0.426339 0.051501
Si Si5 0.607626 0.552152 0.933442
Si Si6 0.057154 0.412521 0.941602
O O1 0.994981 0.590831 0.243982
O O2 0.757590 0.553804 0.053020
O O3 0.988955 0.619140 0.907417
O O4 0.019502 0.490493 0.009109
O O5 0.752280 0.328818 0.287958
O O6 0.506271 0.247263 0.289269
O O7 0.504977 0.362637 0.107438
O O8 0.489859 0.375552 0.427544
O O9 0.019762 0.640508 0.576387
O O10 0.333092 0.453955 0.237034
O O11 0.493530 0.488026 0.969517
O O12 0.243285 0.403031 0.948698
#
# Coordination Sequence:
#
# PCOD9344976 Si02
#       6
#     4   4   4   4   4   4
#     4  12  23  39  66  96 127 171 216 266 319 384
#     4  10  24  40  70  88 135 178 197 282 322 380
#     4  12  22  46  64  94 135 166 221 258 334 380
#     4  10  20  38  62  97 127 166 213 260 320 377
#     4  10  20  38  62  97 127 166 213 260 320 377
#     4  12  23  39  66  96 127 171 216 266 319 384
#
# _framework density 18.75788
#
# number of rings (size 3 to 8) (size 9 to 14) (size 15 to 20)
#    1.000    0.000    3.333    5.000    0.000    0.000 
#    0.000   10.000    0.000    0.000    0.000    0.000 
#    0.000    0.000    0.000    0.000    0.000    0.000 
#
# Total GULP energy -133921.793428 kJ/mol
# GULP energy per Si atom -5580.074726 kJ/mol
# Density = 1.871519 g / cm^3
# Si number density = 18.757880 Si / 1000 Ang^3
#
#
#
# Elastic Constant Matrix: (Units=GPa)
#
#
# Indices 1 2 3 4 5 6 
#
# 1 102.4071 19.7377 -9.2793 0.0000 0.0000 0.0000
# 2 19.7377 76.3250 -28.5952 0.0000 0.0000 0.0000
# 3 -9.2793 -28.5952 52.3292 0.0000 0.0000 0.0000
# 4 0.0000 0.0000 0.0000 27.2007 0.0000 0.0000
# 5 0.0000 0.0000 0.0000 0.0000 30.5541 0.0000
# 6 0.0000 0.0000 0.0000 0.0000 0.0000 36.8555
#
#
#
# Elastic Compliance Matrix: (Units=1/GPa)
#
#
# Indices 1 2 3 4 5 6 
#
# 1 0.010286 -0.002486 0.000466 0.000000 0.000000 0.000000
# 2 -0.002486 0.017075 0.008890 0.000000 0.000000 0.000000
# 3 0.000466 0.008890 0.024050 0.000000 0.000000 0.000000
# 4 0.000000 0.000000 0.000000 0.036764 0.000000 0.000000
# 5 0.000000 0.000000 0.000000 0.000000 0.032729 0.000000
# 6 0.000000 0.000000 0.000000 0.000000 0.000000 0.027133
#
#
# Mechanical properties :
#
#
# Convention : Reuss Voigt Hill
#
# Bulk Modulus (GPa) = 15.34862 21.64307 18.49584
# Shear Modulus (GPa) = 32.04835 35.53526 33.79181
#
# Velocity S-wave (km/s) = 4.13792 4.35721 4.24898
# Velocity P-wave (km/s) = 5.57046 6.07264 5.82696
#
# Compressibility (1/GPa) = 0.06515245
#
# Stress axis : x y z
#
# Youngs Moduli (GPa) = 97.21760 58.56421 41.57947
#
# Poissons Ratio (x) = 0.14556 -0.01937
# Poissons Ratio (y) = 0.24163 -0.36964
# Poissons Ratio (z) = -0.04528 -0.52064
#
# Static dielectric constant tensor:
#      x y z
#    x 1.649470 0.000000 0.000000 
#    y 0.000000 1.614970 0.000000 
#    z 0.000000 0.000000 1.676770 
# 
# From -- ./inp_files/3279.got.cif
#   From: 2010.05.17/outbox.cif.g08.bks.cpg/sg33_2_cif.got.tgz:3279.got - 2010.06.03 17:15:25.
