data_PCOD9344990
_publ_section_title
;
Structure prediction by ZEFSAII (Michael W. Deem and Ramdas Pophale) SiO2 
 PCOD9344990
Probable space group: P N A 21
;
_chemical_formula_sum "Si O2"
_cell_formula_units_Z 28
_cell_length_a 8.421091
_cell_length_b 17.019484
_cell_length_c 8.794671
_cell_angle_alpha 90.000000
_cell_angle_beta 90.000000
_cell_angle_gamma 90.000000
_cell_volume 1260.475321
_symmetry_space_group_name_H-M "P N A 21"
_symmetry_group_IT_number 33
_symmetry_cell_setting 'orthorhombic'
loop_
_space_group_symop_operation_xyz
x,y,z
-x,-y,1/2+z
1/2-x,1/2+y,1/2+z
1/2+x,1/2-y,z
loop_
_atom_site_type_symbol
_atom_site_label
_atom_site_fract_x
_atom_site_fract_y
_atom_site_fract_z
Si Si1 0.315690 0.175470 0.692000
Si Si2 0.548265 0.061697 0.844302
Si Si3 0.128173 0.175200 0.007015
Si Si4 0.224340 0.865058 0.881645
Si Si5 0.786095 0.488806 0.076827
Si Si6 0.451061 0.730349 0.999662
Si Si7 0.258290 0.334658 0.056598
O O1 0.425053 0.101158 0.726513
O O2 0.215903 0.188688 0.845399
O O3 0.434311 0.244713 0.639844
O O4 0.186848 0.172879 0.558103
O O5 0.663948 0.007257 0.748025
O O6 0.443266 0.021611 0.973462
O O7 0.648694 0.129874 0.925533
O O8 0.188655 0.091392 0.065806
O O9 0.190252 0.249357 0.102857
O O10 0.938759 0.173893 0.002213
O O11 0.253105 0.888421 0.707397
O O12 0.367213 0.809777 0.941353
O O13 0.066083 0.811895 0.881852
O O14 0.201420 0.936943 0.997231
#
# Coordination Sequence:
#
# PCOD9344990 Si02
#       7
#     4   4   4   4   4   4   4
#     4  10  20  38  65 100 126 176 225 282 331 403
#     4  11  24  45  70  98 137 184 225 283 345 416
#     4  11  25  42  71  99 141 179 236 283 349 412
#     4  11  24  43  68 102 138 180 231 285 346 407
#     4  11  25  46  67 104 141 180 227 290 355 401
#     4  10  21  39  69  99 134 177 235 279 335 415
#     4  12  25  45  70 100 137 184 235 278 341 424
#
# _framework density 22.213842
#
# number of rings (size 3 to 8) (size 9 to 14) (size 15 to 20)
#    0.000    1.143    1.429    5.143    4.000    2.286 
#    7.714    0.000    0.000    0.000    0.000    0.000 
#    0.000    0.000    0.000    0.000    0.000    0.000 
#
# Total GULP energy -156590.788503 kJ/mol
# GULP energy per Si atom -5592.528161 kJ/mol
# Density = 2.216328 g / cm^3
# Si number density = 22.213842 Si / 1000 Ang^3
#
#
#
# Elastic Constant Matrix: (Units=GPa)
#
#
# Indices 1 2 3 4 5 6 
#
# 1 107.5724 26.0649 19.6136 0.0000 0.0000 0.0000
# 2 26.0649 78.1929 17.6404 0.0000 0.0000 0.0000
# 3 19.6136 17.6404 30.8941 0.0000 0.0000 0.0000
# 4 0.0000 0.0000 0.0000 16.9610 0.0000 0.0000
# 5 0.0000 0.0000 0.0000 0.0000 27.8451 0.0000
# 6 0.0000 0.0000 0.0000 0.0000 0.0000 27.1707
#
#
#
# Elastic Compliance Matrix: (Units=1/GPa)
#
#
# Indices 1 2 3 4 5 6 
#
# 1 0.010884 -0.002375 -0.005554 0.000000 0.000000 0.000000
# 2 -0.002375 0.015198 -0.007170 0.000000 0.000000 0.000000
# 3 -0.005554 -0.007170 0.039989 0.000000 0.000000 0.000000
# 4 0.000000 0.000000 0.000000 0.058959 0.000000 0.000000
# 5 0.000000 0.000000 0.000000 0.000000 0.035913 0.000000
# 6 0.000000 0.000000 0.000000 0.000000 0.000000 0.036804
#
#
# Mechanical properties :
#
#
# Convention : Reuss Voigt Hill
#
# Bulk Modulus (GPa) = 27.87630 38.14414 33.01022
# Shear Modulus (GPa) = 20.84176 24.61806 22.72991
#
# Velocity S-wave (km/s) = 3.06638 3.33262 3.20227
# Velocity P-wave (km/s) = 5.01131 5.65837 5.34464
#
# Compressibility (1/GPa) = 0.03587276
#
# Stress axis : x y z
#
# Youngs Moduli (GPa) = 91.87634 65.79707 25.00712
#
# Poissons Ratio (x) = 0.15628 0.13888
# Poissons Ratio (y) = 0.21823 0.17931
# Poissons Ratio (z) = 0.51026 0.47178
#
# Static dielectric constant tensor:
#      x y z
#    x 1.786270 0.000000 0.000000 
#    y 0.000000 1.809370 0.000000 
#    z 0.000000 0.000000 1.844040 
# 
# From -- ./inp_files/3329.got.cif
#   From: 2010.05.17/outbox.cif.g08.bks.cpg/sg33_2_cif.got.tgz:3329.got - 2010.06.03 17:15:25.
