data_PCOD9344277
_publ_section_title
;
Structure prediction by ZEFSAII (Michael W. Deem and Ramdas Pophale) SiO2 
 PCOD9344277
Probable space group: P B A 2
;
_chemical_formula_sum "Si O2"
_cell_formula_units_Z 16
_cell_length_a 12.889100
_cell_length_b 9.547253
_cell_length_c 5.081567
_cell_angle_alpha 90.000000
_cell_angle_beta 90.000000
_cell_angle_gamma 90.000000
_cell_volume 625.314761
_symmetry_space_group_name_H-M "P B A 2"
_symmetry_group_IT_number 32
_symmetry_cell_setting 'orthorhombic'
loop_
_space_group_symop_operation_xyz
x,y,z
-x,-y,z
1/2-x,1/2+y,z
1/2+x,1/2-y,z
loop_
_atom_site_type_symbol
_atom_site_label
_atom_site_fract_x
_atom_site_fract_y
_atom_site_fract_z
Si Si1 0.827420 0.980607 0.755670
Si Si2 0.730689 0.145865 0.366363
Si Si3 0.354754 0.208561 0.993502
Si Si4 0.085684 0.297731 0.868298
O O1 0.801231 0.013045 0.450270
O O2 0.654485 0.156322 0.117749
O O3 0.916603 0.871067 0.826392
O O4 0.845223 0.134388 0.873434
O O5 0.271553 0.103205 0.870836
O O6 0.818691 0.262653 0.294545
O O7 0.649749 0.158984 0.608059
O O8 0.469043 0.156432 0.927183
#
# Coordination Sequence:
#
# PCOD9344277 Si02
#       4
#     4   4   4   4
#     4  11  24  51  72 112 154 203 253 334 386 478
#     4  11  25  49  73 112 155 195 257 334 384 468
#     4  11  27  50  78 112 160 201 266 327 402 483
#     4  11  27  48  79 113 146 215 261 317 408 479
#
# _framework density 25.587116000000002
#
# number of rings (size 3 to 8) (size 9 to 14) (size 15 to 20)
#    0.000    1.000    5.000    0.750   10.500    1.000 
#    4.500    0.000    0.000    0.000    0.000    0.000 
#    0.000    0.000    0.000    0.000    0.000    0.000 
#
# Total GULP energy -89301.621817 kJ/mol
# GULP energy per Si atom -5581.351364 kJ/mol
# Density = 2.552888 g / cm^3
# Si number density = 25.587116 Si / 1000 Ang^3
#
#
#
# Elastic Constant Matrix: (Units=GPa)
#
#
# Indices 1 2 3 4 5 6 
#
# 1 183.9430 1.9309 40.5290 0.0000 0.0000 0.0000
# 2 1.9309 126.8694 25.4724 0.0000 0.0000 0.0000
# 3 40.5290 25.4724 172.6470 0.0000 0.0000 0.0000
# 4 0.0000 0.0000 0.0000 55.1586 0.0000 0.0000
# 5 0.0000 0.0000 0.0000 0.0000 24.9366 0.0000
# 6 0.0000 0.0000 0.0000 0.0000 0.0000 35.4874
#
#
#
# Elastic Compliance Matrix: (Units=1/GPa)
#
#
# Indices 1 2 3 4 5 6 
#
# 1 0.005737 0.000189 -0.001375 0.000000 0.000000 0.000000
# 2 0.000189 0.008129 -0.001244 0.000000 0.000000 0.000000
# 3 -0.001375 -0.001244 0.006298 0.000000 0.000000 0.000000
# 4 0.000000 0.000000 0.000000 0.018130 0.000000 0.000000
# 5 0.000000 0.000000 0.000000 0.000000 0.040102 0.000000
# 6 0.000000 0.000000 0.000000 0.000000 0.000000 0.028179
#
#
# Mechanical properties :
#
#
# Convention : Reuss Voigt Hill
#
# Bulk Modulus (GPa) = 65.33647 68.81378 67.07512
# Shear Modulus (GPa) = 42.90518 50.81833 46.86175
#
# Velocity S-wave (km/s) = 4.09935 4.46139 4.28420
# Velocity P-wave (km/s) = 6.92796 7.31375 7.12347
#
# Compressibility (1/GPa) = 0.01530539
#
# Stress axis : x y z
#
# Youngs Moduli (GPa) = 174.29570 123.01719 158.77140
#
# Poissons Ratio (x) = -0.02321 0.21826
# Poissons Ratio (y) = -0.03289 0.19745
# Poissons Ratio (z) = 0.23960 0.15299
#
# Static dielectric constant tensor:
#      x y z
#    x 2.011210 0.000000 0.000000 
#    y 0.000000 2.132390 0.000000 
#    z 0.000000 0.000000 2.151680 
# 
# From -- ./inp_files/678.got.cif
#   From: 2010.05.17/outbox.cif.g08.bks.cpg/sg32_1_cif.got.tgz:678.got - 2010.06.03 17:12:27.
