data_PCOD9344325
_publ_section_title
;
Structure prediction by ZEFSAII (Michael W. Deem and Ramdas Pophale) SiO2 
 PCOD9344325
Probable space group: P B A 2
;
_chemical_formula_sum "Si O2"
_cell_formula_units_Z 14
_cell_length_a 12.778370
_cell_length_b 8.895057
_cell_length_c 5.017356
_cell_angle_alpha 90.000000
_cell_angle_beta 90.000000
_cell_angle_gamma 90.000000
_cell_volume 570.294406
_symmetry_space_group_name_H-M "P B A 2"
_symmetry_group_IT_number 32
_symmetry_cell_setting 'orthorhombic'
loop_
_space_group_symop_operation_xyz
x,y,z
-x,-y,z
1/2-x,1/2+y,z
1/2+x,1/2-y,z
loop_
_atom_site_type_symbol
_atom_site_label
_atom_site_fract_x
_atom_site_fract_y
_atom_site_fract_z
Si Si1 0.860105 0.425921 0.989160
Si Si2 0.968338 0.274226 0.490504
Si Si3 0.000000 0.000000 0.231149
Si Si4 0.637221 0.274724 0.878667
O O1 0.927452 0.356860 0.750384
O O2 0.919643 0.372510 0.254164
O O3 0.747046 0.355181 0.929704
O O4 0.853418 0.605103 0.984245
O O5 0.090058 0.244001 0.577746
O O6 0.929178 0.105500 0.420391
O O7 0.943167 0.879841 0.042606
#
# Coordination Sequence:
#
# PCOD9344325 Si02
#       4
#     4   4   2   4
#     4  12  31  51  85 124 168 229 288 345 446 508
#     4  12  29  52  83 123 169 221 280 360 418 515
#     4  12  28  52  82 124 162 226 272 366 412 514
#     4  12  30  55  87 124 175 225 289 363 424 526
#
# _framework density 24.548722000000001
#
# number of rings (size 3 to 8) (size 9 to 14) (size 15 to 20)
#    0.000    0.000    2.857    3.429   16.000    0.000 
#    0.000    0.000    0.000    0.000    0.000    0.000 
#    0.000    0.000    0.000    0.000    0.000    0.000 
#
# Total GULP energy -78285.730329 kJ/mol
# GULP energy per Si atom -5591.837881 kJ/mol
# Density = 2.449285 g / cm^3
# Si number density = 24.548722 Si / 1000 Ang^3
#
#
#
# Elastic Constant Matrix: (Units=GPa)
#
#
# Indices 1 2 3 4 5 6 
#
# 1 153.1433 78.9902 58.6910 0.0000 0.0000 0.0000
# 2 78.9902 271.8690 66.5809 0.0000 0.0000 0.0000
# 3 58.6910 66.5809 190.1466 0.0000 0.0000 0.0000
# 4 0.0000 0.0000 0.0000 32.6327 0.0000 0.0000
# 5 0.0000 0.0000 0.0000 0.0000 6.1314 0.0000
# 6 0.0000 0.0000 0.0000 0.0000 0.0000 48.3638
#
#
#
# Elastic Compliance Matrix: (Units=1/GPa)
#
#
# Indices 1 2 3 4 5 6 
#
# 1 0.008245 -0.001938 -0.001866 0.000000 0.000000 0.000000
# 2 -0.001938 0.004479 -0.000970 0.000000 0.000000 0.000000
# 3 -0.001866 -0.000970 0.006175 0.000000 0.000000 0.000000
# 4 0.000000 0.000000 0.000000 0.030644 0.000000 0.000000
# 5 0.000000 0.000000 0.000000 0.000000 0.163094 0.000000
# 6 0.000000 0.000000 0.000000 0.000000 0.000000 0.020677
#
#
# Mechanical properties :
#
#
# Convention : Reuss Voigt Hill
#
# Bulk Modulus (GPa) = 106.95857 113.74256 110.35057
# Shear Modulus (GPa) = 20.32693 44.81872 32.57283
#
# Velocity S-wave (km/s) = 2.88066 4.27746 3.64657
# Velocity P-wave (km/s) = 7.39789 8.41603 7.92333
#
# Compressibility (1/GPa) = 0.00934941
#
# Stress axis : x y z
#
# Youngs Moduli (GPa) = 121.28768 223.26311 161.94993
#
# Poissons Ratio (x) = 0.43279 0.30221
# Poissons Ratio (y) = 0.23512 0.15709
# Poissons Ratio (z) = 0.22633 0.21657
#
# Static dielectric constant tensor:
#      x y z
#    x 2.050180 0.000000 0.000000 
#    y 0.000000 1.959520 0.000000 
#    z 0.000000 0.000000 2.005660 
# 
# From -- ./inp_files/1091.got.cif
#   From: 2010.05.17/outbox.cif.g08.bks.cpg/sg32_1_cif.got.tgz:1091.got - 2010.06.03 17:12:27.
