data_PCOD9344835
_publ_section_title
;
Structure prediction by ZEFSAII (Michael W. Deem and Ramdas Pophale) SiO2 
 PCOD9344835
Probable space group: P N A 21
;
_chemical_formula_sum "Si O2"
_cell_formula_units_Z 24
_cell_length_a 10.052632
_cell_length_b 7.774337
_cell_length_c 14.142267
_cell_angle_alpha 90.000000
_cell_angle_beta 90.000000
_cell_angle_gamma 90.000000
_cell_volume 1105.254213
_symmetry_space_group_name_H-M "P N A 21"
_symmetry_group_IT_number 33
_symmetry_cell_setting 'orthorhombic'
loop_
_space_group_symop_operation_xyz
x,y,z
-x,-y,1/2+z
1/2-x,1/2+y,1/2+z
1/2+x,1/2-y,z
loop_
_atom_site_type_symbol
_atom_site_label
_atom_site_fract_x
_atom_site_fract_y
_atom_site_fract_z
Si Si1 0.326636 0.759027 0.125000
Si Si2 0.458309 0.730400 0.814885
Si Si3 0.582885 0.574956 0.197255
Si Si4 0.712443 0.655754 0.926882
Si Si5 0.808013 0.816096 0.535641
Si Si6 0.536644 0.870473 0.609652
O O1 0.436557 0.629476 0.163879
O O2 0.197862 0.780875 0.192862
O O3 0.411056 0.936007 0.116142
O O4 0.265352 0.744025 0.019997
O O5 0.425123 0.530613 0.793564
O O6 0.574467 0.733969 0.891667
O O7 0.325538 0.822416 0.848682
O O8 0.509573 0.810519 0.716576
O O9 0.637770 0.439096 0.120167
O O10 0.694746 0.452745 0.950612
O O11 0.659040 0.765357 0.563550
O O12 0.909903 0.659415 0.542299
#
# Coordination Sequence:
#
# PCOD9344835 Si02
#       6
#     4   4   4   4   4   4
#     4  10  20  38  58  83 114 155 197 237 293 366
#     4  11  20  37  59  85 114 150 194 249 300 346
#     4   9  20  35  57  85 113 150 197 238 291 362
#     4  10  20  35  58  85 115 150 195 248 300 345
#     4   9  19  37  57  84 112 153 195 230 287 362
#     4   9  19  36  59  82 112 150 194 236 289 359
#
# _framework density 21.714459999999999
#
# number of rings (size 3 to 8) (size 9 to 14) (size 15 to 20)
#    0.000    2.667    0.000    5.000    0.000    4.000 
#    0.000   10.000    0.000    2.000    0.000    0.000 
#    0.000    0.000    0.000    0.000    0.000    0.000 
#
# Total GULP energy -133874.205006 kJ/mol
# GULP energy per Si atom -5578.091875 kJ/mol
# Density = 2.166504 g / cm^3
# Si number density = 21.714460 Si / 1000 Ang^3
#
#
#
# Elastic Constant Matrix: (Units=GPa)
#
#
# Indices 1 2 3 4 5 6 
#
# 1 82.4281 11.4572 24.4955 0.0000 0.0000 0.0000
# 2 11.4572 24.8197 18.4145 0.0000 0.0000 0.0000
# 3 24.4955 18.4145 38.7918 0.0000 0.0000 0.0000
# 4 0.0000 0.0000 0.0000 211.2941 0.0000 0.0000
# 5 0.0000 0.0000 0.0000 0.0000 2.0768 0.0000
# 6 0.0000 0.0000 0.0000 0.0000 0.0000 -5.3039
#
#
#
# Elastic Compliance Matrix: (Units=1/GPa)
#
#
# Indices 1 2 3 4 5 6 
#
# 1 0.014935 0.000159 -0.009506 0.000000 0.000000 0.000000
# 2 0.000159 0.062198 -0.029626 0.000000 0.000000 0.000000
# 3 -0.009506 -0.029626 0.045845 0.000000 0.000000 0.000000
# 4 0.000000 0.000000 0.000000 0.004733 0.000000 0.000000
# 5 0.000000 0.000000 0.000000 0.000000 0.481521 0.000000
# 6 0.000000 0.000000 0.000000 0.000000 0.000000 -0.188542
#
#
# Mechanical properties :
#
#
# Convention : Reuss Voigt Hill
#
# Bulk Modulus (GPa) = 22.20683 28.30824 25.25754
# Shear Modulus (GPa) = 9.73435 47.72487 28.72961
#
# Velocity S-wave (km/s) = 2.11958 4.69320 3.64134
# Velocity P-wave (km/s) = 4.02978 6.51406 5.41628
#
# Compressibility (1/GPa) = 0.04503120
#
# Stress axis : x y z
#
# Youngs Moduli (GPa) = 66.95828 16.07779 21.81279
#
# Poissons Ratio (x) = -0.00255 0.20735
# Poissons Ratio (y) = -0.01063 0.64622
# Poissons Ratio (z) = 0.63651 0.47631
#
# Static dielectric constant tensor:
#      x y z
#    x 1.870540 0.000000 0.000000 
#    y 0.000000 1.617090 0.000000 
#    z 0.000000 0.000000 1.801610 
# 
# From -- ./inp_files/7558.got.cif
#   From: 2010.05.17/outbox.cif.g08.bks.cpg/sg33_4_cif.got.tgz:7558.got - 2010.06.03 17:15:25.
