data_PCOD9344360
_publ_section_title
;
Structure prediction by ZEFSAII (Michael W. Deem and Ramdas Pophale) SiO2 
 PCOD9344360
Probable space group: P N A 21
;
_chemical_formula_sum "Si O2"
_cell_formula_units_Z 28
_cell_length_a 5.617608
_cell_length_b 10.777635
_cell_length_c 16.814896
_cell_angle_alpha 90.000000
_cell_angle_beta 90.000000
_cell_angle_gamma 90.000000
_cell_volume 1018.049952
_symmetry_space_group_name_H-M "P N A 21"
_symmetry_group_IT_number 33
_symmetry_cell_setting 'orthorhombic'
loop_
_space_group_symop_operation_xyz
x,y,z
-x,-y,1/2+z
1/2-x,1/2+y,1/2+z
1/2+x,1/2-y,z
loop_
_atom_site_type_symbol
_atom_site_label
_atom_site_fract_x
_atom_site_fract_y
_atom_site_fract_z
Si Si1 0.749942 0.130755 0.158780
Si Si2 0.249942 0.517948 0.441470
Si Si3 0.749938 0.319927 0.370413
Si Si4 0.250062 0.203020 0.817083
Si Si5 0.249938 0.861593 0.479336
Si Si6 0.749921 0.240695 0.534838
Si Si7 0.250062 0.590473 0.714635
O O1 0.750005 0.184094 0.069789
O O2 0.749925 0.257780 0.209533
O O3 0.503777 0.056865 0.175617
O O4 0.996089 0.056856 0.175628
O O5 0.249961 0.558515 0.347247
O O6 0.496302 0.571960 0.473305
O O7 0.249935 0.380193 0.477888
O O8 0.003554 0.571947 0.473287
O O9 0.499933 0.250004 0.356066
O O10 0.749928 0.344153 0.464778
O O11 0.749952 0.434507 0.309203
O O12 0.500068 0.249992 0.779415
O O13 0.250077 0.272437 0.903169
O O14 0.499921 0.249997 0.578998
#
# Coordination Sequence:
#
# PCOD9344360 Si02
#       7
#     4   4   4   4   4   4   4
#     4  10  18  23  39  61  90 120 148 160 213 282
#     4  10  19  31  43  63  86 119 163 196 214 268
#     4  10  16  30  41  61  81 116 154 197 220 266
#     4   8  16  25  39  57  84 114 141 168 216 262
#     4  10  19  28  43  64  96 124 150 172 228 282
#     4  10  21  33  51  61  83 120 175 202 240 252
#     4  10  17  24  38  59  90 113 159 163 209 272
#
# _framework density 27.503561999999999
#
# number of rings (size 3 to 8) (size 9 to 14) (size 15 to 20)
#    0.000    2.286    2.857    1.714   12.000    0.000 
#    0.000    0.000    0.000    0.000    0.000    0.000 
#    0.000    0.000    0.000   23.143    5.143    0.000 
#
# Total GULP energy -156221.889991 kJ/mol
# GULP energy per Si atom -5579.353214 kJ/mol
# Density = 2.744096 g / cm^3
# Si number density = 27.503562 Si / 1000 Ang^3
#
#
#
# Elastic Constant Matrix: (Units=GPa)
#
#
# Indices 1 2 3 4 5 6 
#
# 1 354.3051 40.7656 22.6002 0.0000 0.0000 0.0000
# 2 40.7656 59.4341 -7.1552 0.0000 0.0000 0.0000
# 3 22.6002 -7.1552 65.3214 0.0000 0.0000 0.0000
# 4 0.0000 0.0000 0.0000 1.5162 0.0000 0.0000
# 5 0.0000 0.0000 0.0000 0.0000 7.9831 0.0000
# 6 0.0000 0.0000 0.0000 0.0000 0.0000 50.4184
#
#
#
# Elastic Compliance Matrix: (Units=1/GPa)
#
#
# Indices 1 2 3 4 5 6 
#
# 1 0.003179 -0.002343 -0.001356 0.000000 0.000000 0.000000
# 2 -0.002343 0.018778 0.002868 0.000000 0.000000 0.000000
# 3 -0.001356 0.002868 0.016092 0.000000 0.000000 0.000000
# 4 0.000000 0.000000 0.000000 0.659557 0.000000 0.000000
# 5 0.000000 0.000000 0.000000 0.000000 0.125265 0.000000
# 6 0.000000 0.000000 0.000000 0.000000 0.000000 0.019834
#
#
# Mechanical properties :
#
#
# Convention : Reuss Voigt Hill
#
# Bulk Modulus (GPa) = 27.48422 65.72020 46.60221
# Shear Modulus (GPa) = 5.83773 40.17353 23.00563
#
# Velocity S-wave (km/s) = 1.45847 3.82601 2.89530
# Velocity P-wave (km/s) = 3.58481 6.59279 5.30640
#
# Compressibility (1/GPa) = 0.03638451
#
# Stress axis : x y z
#
# Youngs Moduli (GPa) = 314.60531 53.25383 62.14133
#
# Poissons Ratio (x) = 0.12480 0.08429
# Poissons Ratio (y) = 0.73727 -0.17820
# Poissons Ratio (z) = 0.42674 -0.15272
#
# Static dielectric constant tensor:
#      x y z
#    x 2.177370 0.000000 0.000000 
#    y 0.000000 2.441640 0.000000 
#    z 0.000000 0.000000 2.115840 
# 
# From -- ./inp_files/8871.got.cif
#   From: 2010.05.17/outbox.cif.g08.bks.cpg/sg33_5_cif.got.tgz:8871.got - 2010.06.03 17:15:25.
