data_PCOD9344004
_publ_section_title
;
Structure prediction by ZEFSAII (Michael W. Deem and Ramdas Pophale) SiO2 
 PCOD9344004
Probable space group: P B A 2
;
_chemical_formula_sum "Si O2"
_cell_formula_units_Z 32
_cell_length_a 23.341016
_cell_length_b 8.223094
_cell_length_c 7.491907
_cell_angle_alpha 90.000000
_cell_angle_beta 90.000000
_cell_angle_gamma 90.000000
_cell_volume 1437.961932
_symmetry_space_group_name_H-M "P B A 2"
_symmetry_group_IT_number 32
_symmetry_cell_setting 'orthorhombic'
loop_
_space_group_symop_operation_xyz
x,y,z
-x,-y,z
1/2-x,1/2+y,z
1/2+x,1/2-y,z
loop_
_atom_site_type_symbol
_atom_site_label
_atom_site_fract_x
_atom_site_fract_y
_atom_site_fract_z
Si Si1 0.581486 0.819104 0.463980
Si Si2 0.081487 0.680896 0.052971
Si Si3 0.468485 0.664018 0.474744
Si Si4 0.141827 0.329840 0.051130
Si Si5 0.276634 0.952652 0.758475
Si Si6 0.468485 0.664018 0.042206
Si Si7 0.358173 0.829840 0.465820
Si Si8 0.338252 0.303640 0.758475
O O1 0.585315 0.764577 0.258475
O O2 0.515270 0.802188 0.518307
O O3 0.621017 0.708141 0.587527
O O4 0.605827 0.000964 0.472866
O O5 0.105827 0.499037 0.044084
O O6 0.015271 0.697812 0.998643
O O7 0.121017 0.791860 0.929424
O O8 0.500000 0.500000 0.533193
O O9 0.463265 0.660015 0.258475
O O10 0.404424 0.699995 0.537246
O O11 0.156591 0.297962 0.258475
O O12 0.095576 0.199996 0.979703
O O13 0.196752 0.360764 0.929963
O O14 0.303248 0.860764 0.586986
O O15 0.208491 0.943907 0.758475
O O16 0.301268 0.135140 0.758475
O O17 0.500000 0.500000 0.983757
#
# Coordination Sequence:
#
# PCOD9344004 Si02
#       8
#     4   4   4   4   4   4   4   4
#     4   9  18  34  54  74 100 134 166 199 245 299
#     4   9  18  34  54  74 100 134 166 199 245 299
#     4   9  17  30  51  80 107 129 160 203 249 296
#     4   9  18  34  54  74 100 134 166 199 245 299
#     4  10  22  37  52  73  99 130 172 212 245 290
#     4   9  17  30  51  80 107 129 160 203 249 296
#     4   9  18  34  54  74 100 134 166 199 245 299
#     4  10  22  37  52  73  99 130 172 212 245 290
#
# _framework density 22.253719
#
# number of rings (size 3 to 8) (size 9 to 14) (size 15 to 20)
#    0.000    2.750    0.000    0.750    0.000    7.000 
#    0.000    5.000    0.000    0.000    0.000    0.000 
#    0.000    0.000    0.000    0.000    0.000    0.000 
#
# Total GULP energy -178738.484435 kJ/mol
# GULP energy per Si atom -5585.577639 kJ/mol
# Density = 2.220307 g / cm^3
# Si number density = 22.253719 Si / 1000 Ang^3
#
#
#
# Elastic Constant Matrix: (Units=GPa)
#
#
# Indices 1 2 3 4 5 6 
#
# 1 64.8968 0.4296 18.1064 0.0000 0.0000 0.0000
# 2 0.4296 36.2743 6.1901 0.0000 0.0000 0.0000
# 3 18.1064 6.1901 76.7795 0.0000 0.0000 0.0000
# 4 0.0000 0.0000 0.0000 6.1920 0.0000 0.0000
# 5 0.0000 0.0000 0.0000 0.0000 22.7746 0.0000
# 6 0.0000 0.0000 0.0000 0.0000 0.0000 38.7851
#
#
#
# Elastic Compliance Matrix: (Units=1/GPa)
#
#
# Indices 1 2 3 4 5 6 
#
# 1 0.016502 0.000475 -0.003930 0.000000 0.000000 0.000000
# 2 0.000475 0.027966 -0.002367 0.000000 0.000000 0.000000
# 3 -0.003930 -0.002367 0.014142 0.000000 0.000000 0.000000
# 4 0.000000 0.000000 0.000000 0.161500 0.000000 0.000000
# 5 0.000000 0.000000 0.000000 0.000000 0.043909 0.000000
# 6 0.000000 0.000000 0.000000 0.000000 0.000000 0.025783
#
#
# Mechanical properties :
#
#
# Convention : Reuss Voigt Hill
#
# Bulk Modulus (GPa) = 21.29144 25.26699 23.27922
# Shear Modulus (GPa) = 15.76788 23.76530 19.76659
#
# Velocity S-wave (km/s) = 2.66475 3.27146 2.98356
# Velocity P-wave (km/s) = 4.36534 5.06445 4.72783
#
# Compressibility (1/GPa) = 0.04696724
#
# Stress axis : x y z
#
# Youngs Moduli (GPa) = 60.59724 35.75776 70.71192
#
# Poissons Ratio (x) = -0.01699 0.27789
# Poissons Ratio (y) = -0.02880 0.16736
# Poissons Ratio (z) = 0.23814 0.08463
#
# Static dielectric constant tensor:
#      x y z
#    x 1.764560 0.000000 0.000000 
#    y 0.000000 1.875060 0.000000 
#    z 0.000000 0.000000 1.812290 
# 
# From -- ./inp_files/3368.got.cif
#   From: 2010.05.17/outbox.cif.g08.bks.cpg/sg32_2_cif.got.tgz:3368.got - 2010.06.03 17:12:27.
