data_PCOD9344053
_publ_section_title
;
Structure prediction by ZEFSAII (Michael W. Deem and Ramdas Pophale) SiO2 
 PCOD9344053
Probable space group: P B A 2
;
_chemical_formula_sum "Si O2"
_cell_formula_units_Z 20
_cell_length_a 31.250371
_cell_length_b 5.201985
_cell_length_c 4.887317
_cell_angle_alpha 90.000000
_cell_angle_beta 90.000000
_cell_angle_gamma 90.000000
_cell_volume 794.501611
_symmetry_space_group_name_H-M "P B A 2"
_symmetry_group_IT_number 32
_symmetry_cell_setting 'orthorhombic'
loop_
_space_group_symop_operation_xyz
x,y,z
-x,-y,z
1/2-x,1/2+y,z
1/2+x,1/2-y,z
loop_
_atom_site_type_symbol
_atom_site_label
_atom_site_fract_x
_atom_site_fract_y
_atom_site_fract_z
Si Si1 0.407531 0.505087 0.191290
Si Si2 0.500000 0.500000 0.177153
Si Si3 0.406862 0.011288 0.803974
Si Si4 0.000000 0.500000 0.794891
Si Si5 0.277524 0.730883 0.045905
Si Si6 0.162558 0.214162 0.553420
O O1 0.454736 0.498078 0.328296
O O2 0.370976 0.519947 0.417451
O O3 0.405834 0.763584 0.007019
O O4 0.403103 0.263080 0.990080
O O5 0.499858 0.250212 0.986070
O O6 0.367152 0.963841 0.603488
O O7 0.453370 0.005197 0.655446
O O8 0.241709 0.513848 0.002728
O O9 0.298183 0.736270 0.345534
O O10 0.315712 0.657674 0.841501
#
# Coordination Sequence:
#
# PCOD9344053 Si02
#       6
#     4   2   4   2   4   4
#     4  10  22  41  70 107 148 195 243 296 354 435
#     4   8  16  36  62  98 146 192 236 286 346 408
#     4  10  22  41  70 107 148 195 243 296 354 435
#     4   8  16  36  62  98 146 192 236 286 346 408
#     4  12  30  52  78 106 144 184 240 314 386 448
#     4  12  26  50  80 108 146 190 248 300 374 444
#
# _framework density 25.173017000000002
#
# number of rings (size 3 to 8) (size 9 to 14) (size 15 to 20)
#    0.000    1.600    2.000    1.200    2.800    4.800 
#    0.000   12.000    0.000    0.000    0.000    0.000 
#    0.000    0.000    0.000    0.000    0.000    0.000 
#
# Total GULP energy -111996.270771 kJ/mol
# GULP energy per Si atom -5599.813539 kJ/mol
# Density = 2.511572 g / cm^3
# Si number density = 25.173017 Si / 1000 Ang^3
#
#
#
# Elastic Constant Matrix: (Units=GPa)
#
#
# Indices 1 2 3 4 5 6 
#
# 1 99.8418 2.7171 4.9149 0.0000 0.0000 0.0000
# 2 2.7171 184.6998 36.4845 0.0000 0.0000 0.0000
# 3 4.9149 36.4845 66.0686 0.0000 0.0000 0.0000
# 4 0.0000 0.0000 0.0000 50.5786 0.0000 0.0000
# 5 0.0000 0.0000 0.0000 0.0000 -301.9683 0.0000
# 6 0.0000 0.0000 0.0000 0.0000 0.0000 23.3240
#
#
#
# Elastic Compliance Matrix: (Units=1/GPa)
#
#
# Indices 1 2 3 4 5 6 
#
# 1 0.010053 0.000000 -0.000748 0.000000 0.000000 0.000000
# 2 0.000000 0.006077 -0.003356 0.000000 0.000000 0.000000
# 3 -0.000748 -0.003356 0.017045 0.000000 0.000000 0.000000
# 4 0.000000 0.000000 0.000000 0.019771 0.000000 0.000000
# 5 0.000000 0.000000 0.000000 0.000000 -0.003312 0.000000
# 6 0.000000 0.000000 0.000000 0.000000 0.000000 0.042874
#
#
# Mechanical properties :
#
#
# Convention : Reuss Voigt Hill
#
# Bulk Modulus (GPa) = 40.05327 48.76036 44.40682
# Shear Modulus (GPa) = 45.85550 -25.18024 10.33763
#
# Velocity S-wave (km/s) = 4.27267 -3.16616 2.02868
# Velocity P-wave (km/s) = 6.34718 2.45887 4.81314
#
# Compressibility (1/GPa) = 0.02496675
#
# Stress axis : x y z
#
# Youngs Moduli (GPa) = 99.47617 164.55229 58.66965
#
# Poissons Ratio (x) = 0.00003 0.04387
# Poissons Ratio (y) = 0.00002 0.19689
# Poissons Ratio (z) = 0.07438 0.55222
#
# Static dielectric constant tensor:
#      x y z
#    x 2.082990 0.000000 0.000000 
#    y 0.000000 1.959550 0.000000 
#    z 0.000000 0.000000 2.035840 
# 
# From -- ./inp_files/1713.got.cif
#   From: 2010.05.17/outbox.cif.g08.bks.cpg/sg32_1_cif.got.tgz:1713.got - 2010.06.03 17:12:27.
