data_PCOD9344262
_publ_section_title
;
Structure prediction by ZEFSAII (Michael W. Deem and Ramdas Pophale) SiO2 
 PCOD9344262
Probable space group: P B A 2
;
_chemical_formula_sum "Si O2"
_cell_formula_units_Z 20
_cell_length_a 9.339354
_cell_length_b 9.943148
_cell_length_c 9.685990
_cell_angle_alpha 90.000000
_cell_angle_beta 90.000000
_cell_angle_gamma 90.000000
_cell_volume 899.466012
_symmetry_space_group_name_H-M "P B A 2"
_symmetry_group_IT_number 32
_symmetry_cell_setting 'orthorhombic'
loop_
_space_group_symop_operation_xyz
x,y,z
-x,-y,z
1/2-x,1/2+y,z
1/2+x,1/2-y,z
loop_
_atom_site_type_symbol
_atom_site_label
_atom_site_fract_x
_atom_site_fract_y
_atom_site_fract_z
Si Si1 0.990385 0.660534 0.831820
Si Si2 0.446066 0.850856 0.517271
Si Si3 0.758402 0.226830 0.007360
Si Si4 0.116610 0.897772 0.461350
Si Si5 0.163141 0.023023 0.165793
O O1 0.010181 0.683004 0.669128
O O2 0.839718 0.723282 0.872904
O O3 0.000000 0.500000 0.848932
O O4 0.092204 0.729022 0.943647
O O5 0.271818 0.855548 0.523757
O O6 0.520993 0.734459 0.426387
O O7 0.500000 0.000000 0.478186
O O8 0.748587 0.081251 0.074757
O O9 0.712772 0.329871 0.126175
O O10 0.164439 0.978960 0.324326
O O11 0.000000 0.000000 0.533472
O O12 0.000000 0.000000 0.120252
#
# Coordination Sequence:
#
# PCOD9344262 Si02
#       5
#     4   4   4   4   4
#     4  11  24  43  68 103 135 179 230 282 347 407
#     4  11  25  46  72 101 141 188 237 289 349 417
#     4  12  23  44  68  99 140 177 226 287 341 415
#     4  11  26  47  69 107 140 185 235 290 353 419
#     4  11  26  42  69 104 138 181 232 280 352 414
#
# _framework density 22.235413999999999
#
# number of rings (size 3 to 8) (size 9 to 14) (size 15 to 20)
#    0.000    0.800    4.000    2.400    8.400    1.600 
#    3.600    0.000    0.000    0.000    0.000    0.000 
#    0.000    0.000    0.000    0.000    0.000    0.000 
#
# Total GULP energy -111593.415569 kJ/mol
# GULP energy per Si atom -5579.670778 kJ/mol
# Density = 2.218481 g / cm^3
# Si number density = 22.235414 Si / 1000 Ang^3
#
#
#
# Elastic Constant Matrix: (Units=GPa)
#
#
# Indices 1 2 3 4 5 6 
#
# 1 95.4148 18.7500 -3.3637 0.0000 0.0000 0.0000
# 2 18.7500 71.5585 -1.0502 0.0000 0.0000 0.0000
# 3 -3.3637 -1.0502 54.2888 0.0000 0.0000 0.0000
# 4 0.0000 0.0000 0.0000 22.7865 0.0000 0.0000
# 5 0.0000 0.0000 0.0000 0.0000 -10.9436 0.0000
# 6 0.0000 0.0000 0.0000 0.0000 0.0000 23.7320
#
#
#
# Elastic Compliance Matrix: (Units=1/GPa)
#
#
# Indices 1 2 3 4 5 6 
#
# 1 0.011071 -0.002892 0.000630 0.000000 0.000000 0.000000
# 2 -0.002892 0.014734 0.000106 0.000000 0.000000 0.000000
# 3 0.000630 0.000106 0.018461 0.000000 0.000000 0.000000
# 4 0.000000 0.000000 0.000000 0.043886 0.000000 0.000000
# 5 0.000000 0.000000 0.000000 0.000000 -0.091378 0.000000
# 6 0.000000 0.000000 0.000000 0.000000 0.000000 0.042137
#
#
# Mechanical properties :
#
#
# Convention : Reuss Voigt Hill
#
# Bulk Modulus (GPa) = 25.02851 27.77047 26.39949
# Shear Modulus (GPa) = 88.43244 20.91006 54.67125
#
# Velocity S-wave (km/s) = 6.31327 3.06991 4.96395
# Velocity P-wave (km/s) = 8.02644 5.00822 6.68976
#
# Compressibility (1/GPa) = 0.03995443
#
# Stress axis : x y z
#
# Youngs Moduli (GPa) = 90.32610 67.87109 54.16795
#
# Poissons Ratio (x) = 0.19626 -0.03413
# Poissons Ratio (y) = 0.26119 -0.00573
# Poissons Ratio (z) = -0.05691 -0.00718
#
# Static dielectric constant tensor:
#      x y z
#    x 1.875920 0.000000 0.000000 
#    y 0.000000 1.800970 0.000000 
#    z 0.000000 0.000000 1.793480 
# 
# From -- ./inp_files/3628.got.cif
#   From: 2010.05.17/outbox.cif.g08.bks.cpg/sg32_2_cif.got.tgz:3628.got - 2010.06.03 17:12:27.
