data_PCOD9344343
_publ_section_title
;
Structure prediction by ZEFSAII (Michael W. Deem and Ramdas Pophale) SiO2 
 PCOD9344343
Probable space group: P N A 21
;
_chemical_formula_sum "Si O2"
_cell_formula_units_Z 28
_cell_length_a 8.295472
_cell_length_b 18.398108
_cell_length_c 7.208832
_cell_angle_alpha 90.000000
_cell_angle_beta 90.000000
_cell_angle_gamma 90.000000
_cell_volume 1100.219075
_symmetry_space_group_name_H-M "P N A 21"
_symmetry_group_IT_number 33
_symmetry_cell_setting 'orthorhombic'
loop_
_space_group_symop_operation_xyz
x,y,z
-x,-y,1/2+z
1/2-x,1/2+y,1/2+z
1/2+x,1/2-y,z
loop_
_atom_site_type_symbol
_atom_site_label
_atom_site_fract_x
_atom_site_fract_y
_atom_site_fract_z
Si Si1 0.873310 0.644023 0.293760
Si Si2 0.305406 0.501856 0.821422
Si Si3 0.405237 0.629533 0.034252
Si Si4 0.364614 0.862144 0.840717
Si Si5 0.303762 0.214869 0.770222
Si Si6 0.413431 0.255361 0.351395
Si Si7 0.162560 0.981011 0.931127
O O1 0.803198 0.567714 0.361291
O O2 0.882247 0.640121 0.067099
O O3 0.756401 0.709932 0.353012
O O4 0.051514 0.668777 0.352694
O O5 0.277316 0.525211 0.607802
O O6 0.282391 0.568324 0.962656
O O7 0.501342 0.487888 0.837101
O O8 0.349050 0.663842 0.225542
O O9 0.429413 0.692779 0.882100
O O10 0.577616 0.590210 0.028064
O O11 0.524577 0.820867 0.770892
O O12 0.302986 0.944885 0.808443
O O13 0.220587 0.809085 0.772233
O O14 0.361023 0.238339 0.563238
#
# Coordination Sequence:
#
# PCOD9344343 Si02
#       7
#     4   4   4   4   4   4   4
#     4   9  17  26  47  74  98 126 168 224 248 287
#     4   9  18  30  48  73 107 133 169 203 267 299
#     4   9  16  25  47  72 101 130 164 211 257 292
#     4   8  13  21  39  66  91 114 155 204 242 278
#     4  10  15  26  49  75  97 121 178 219 244 290
#     4   9  12  21  39  68  93 112 161 213 245 267
#     4   8  17  29  45  70 101 132 169 198 253 311
#
# _framework density 25.449477000000002
#
# number of rings (size 3 to 8) (size 9 to 14) (size 15 to 20)
#    0.857    2.286    4.286    0.857    0.000    0.000 
#    0.000    0.000    9.429    0.000    7.429    0.000 
#    0.000    0.000    0.000    0.000    0.000    0.000 
#
# Total GULP energy -155890.448171 kJ/mol
# GULP energy per Si atom -5567.516006 kJ/mol
# Density = 2.539155 g / cm^3
# Si number density = 25.449477 Si / 1000 Ang^3
#
#
#
# Elastic Constant Matrix: (Units=GPa)
#
#
# Indices 1 2 3 4 5 6 
#
# 1 41.9981 3.3750 -6.3656 0.0000 0.0000 0.0000
# 2 3.3750 53.7011 7.4159 0.0000 0.0000 0.0000
# 3 -6.3656 7.4159 81.5715 0.0000 0.0000 0.0000
# 4 0.0000 0.0000 0.0000 3.3928 0.0000 0.0000
# 5 0.0000 0.0000 0.0000 0.0000 -0.9870 0.0000
# 6 0.0000 0.0000 0.0000 0.0000 0.0000 28.8520
#
#
#
# Elastic Compliance Matrix: (Units=1/GPa)
#
#
# Indices 1 2 3 4 5 6 
#
# 1 0.024268 -0.001809 0.002058 0.000000 0.000000 0.000000
# 2 -0.001809 0.018993 -0.001868 0.000000 0.000000 0.000000
# 3 0.002058 -0.001868 0.012590 0.000000 0.000000 0.000000
# 4 0.000000 0.000000 0.000000 0.294741 0.000000 0.000000
# 5 0.000000 0.000000 0.000000 0.000000 -1.013128 0.000000
# 6 0.000000 0.000000 0.000000 0.000000 0.000000 0.034660
#
#
# Mechanical properties :
#
#
# Convention : Reuss Voigt Hill
#
# Bulk Modulus (GPa) = 19.00682 20.68016 19.84349
# Shear Modulus (GPa) = -8.23586 17.77457 4.76936
#
# Velocity S-wave (km/s) = -1.80088 2.64564 1.37044
# Velocity P-wave (km/s) = 1.77776 4.18045 3.21221
#
# Compressibility (1/GPa) = 0.05261269
#
# Stress axis : x y z
#
# Youngs Moduli (GPa) = 41.20655 52.65025 79.43041
#
# Poissons Ratio (x) = 0.09527 -0.16349
# Poissons Ratio (y) = 0.07456 0.14837
# Poissons Ratio (z) = -0.08482 0.09835
#
# Static dielectric constant tensor:
#      x y z
#    x 2.090890 0.000000 0.000000 
#    y 0.000000 2.099070 0.000000 
#    z 0.000000 0.000000 2.094240 
# 
# From -- ./inp_files/6046.got.cif
#   From: 2010.05.17/outbox.cif.g08.bks.cpg/sg33_4_cif.got.tgz:6046.got - 2010.06.03 17:15:25.
