data_PCOD9344045
_publ_section_title
;
Structure prediction by ZEFSAII (Michael W. Deem and Ramdas Pophale) SiO2 
 PCOD9344045
Probable space group: P B A 2
;
_chemical_formula_sum "Si O2"
_cell_formula_units_Z 24
_cell_length_a 9.754218
_cell_length_b 10.531310
_cell_length_c 10.861914
_cell_angle_alpha 90.000000
_cell_angle_beta 90.000000
_cell_angle_gamma 90.000000
_cell_volume 1115.786787
_symmetry_space_group_name_H-M "P B A 2"
_symmetry_group_IT_number 32
_symmetry_cell_setting 'orthorhombic'
loop_
_space_group_symop_operation_xyz
x,y,z
-x,-y,z
1/2-x,1/2+y,z
1/2+x,1/2-y,z
loop_
_atom_site_type_symbol
_atom_site_label
_atom_site_fract_x
_atom_site_fract_y
_atom_site_fract_z
Si Si1 0.612628 0.326661 0.789250
Si Si2 0.725038 0.193818 0.114923
Si Si3 0.188652 0.899763 0.877997
Si Si4 0.056435 0.143427 0.502468
Si Si5 0.828981 0.294402 0.355016
Si Si6 0.433736 0.122566 0.117084
O O1 0.698477 0.201530 0.827996
O O2 0.463841 0.342372 0.855061
O O3 0.688917 0.461470 0.815209
O O4 0.582309 0.320941 0.643892
O O5 0.780443 0.188696 0.253894
O O6 0.564044 0.215255 0.119880
O O7 0.803787 0.314052 0.058028
O O8 0.777223 0.086311 0.023315
O O9 0.198467 0.157243 0.428663
O O10 0.944632 0.236470 0.441317
O O11 0.000000 0.000000 0.496707
O O12 0.888224 0.398543 0.258805
O O13 0.500000 0.000000 0.059133
#
# Coordination Sequence:
#
# PCOD9344045 Si02
#       6
#     4   4   4   4   4   4
#     4  11  26  47  69 105 135 196 237 291 348 421
#     4  10  22  43  65 100 134 174 226 290 356 413
#     4  11  24  47  72  99 143 179 244 290 350 426
#     4  12  24  44  69  95 141 180 237 288 345 429
#     4  10  23  41  67 102 135 177 225 294 359 412
#     4  10  22  41  60 101 132 170 226 270 363 421
#
# _framework density 21.509485999999999
#
# number of rings (size 3 to 8) (size 9 to 14) (size 15 to 20)
#    1.000    0.333    3.333    2.000    4.667    0.667 
#    3.000    0.000    0.000    0.000    0.000    0.000 
#    0.000    0.000    0.000    0.000    0.000    0.000 
#
# Total GULP energy -133792.002688 kJ/mol
# GULP energy per Si atom -5574.666779 kJ/mol
# Density = 2.146053 g / cm^3
# Si number density = 21.509486 Si / 1000 Ang^3
#
#
#
# Elastic Constant Matrix: (Units=GPa)
#
#
# Indices 1 2 3 4 5 6 
#
# 1 113.9575 16.3298 2.3590 0.0000 0.0000 0.0000
# 2 16.3298 47.0188 -18.1467 0.0000 0.0000 0.0000
# 3 2.3590 -18.1467 97.2410 0.0000 0.0000 0.0000
# 4 0.0000 0.0000 0.0000 14.9041 0.0000 0.0000
# 5 0.0000 0.0000 0.0000 0.0000 38.1306 0.0000
# 6 0.0000 0.0000 0.0000 0.0000 0.0000 43.4599
#
#
#
# Elastic Compliance Matrix: (Units=1/GPa)
#
#
# Indices 1 2 3 4 5 6 
#
# 1 0.009306 -0.003577 -0.000893 0.000000 0.000000 0.000000
# 2 -0.003577 0.024294 0.004620 0.000000 0.000000 0.000000
# 3 -0.000893 0.004620 0.011168 0.000000 0.000000 0.000000
# 4 0.000000 0.000000 0.000000 0.067096 0.000000 0.000000
# 5 0.000000 0.000000 0.000000 0.000000 0.026226 0.000000
# 6 0.000000 0.000000 0.000000 0.000000 0.000000 0.023010
#
#
# Mechanical properties :
#
#
# Convention : Reuss Voigt Hill
#
# Bulk Modulus (GPa) = 22.18877 28.81129 25.50003
# Shear Modulus (GPa) = 28.43806 36.47725 32.45765
#
# Velocity S-wave (km/s) = 3.64004 4.12256 3.88879
# Velocity P-wave (km/s) = 5.29195 6.00703 5.66079
#
# Compressibility (1/GPa) = 0.04506785
#
# Stress axis : x y z
#
# Youngs Moduli (GPa) = 107.45466 41.16317 89.54458
#
# Poissons Ratio (x) = 0.14723 0.07999
# Poissons Ratio (y) = 0.38435 -0.41373
# Poissons Ratio (z) = 0.09599 -0.19019
#
# Static dielectric constant tensor:
#      x y z
#    x 1.785170 0.000000 0.000000 
#    y 0.000000 1.876850 0.000000 
#    z 0.000000 0.000000 1.795200 
# 
# From -- ./inp_files/3660.got.cif
#   From: 2010.05.17/outbox.cif.g08.bks.cpg/sg32_2_cif.got.tgz:3660.got - 2010.06.03 17:12:27.
