data_PCOD9344118
_publ_section_title
;
Structure prediction by ZEFSAII (Michael W. Deem and Ramdas Pophale) SiO2 
 PCOD9344118
Probable space group: P B A 2
;
_chemical_formula_sum "Si O2"
_cell_formula_units_Z 18
_cell_length_a 7.727157
_cell_length_b 12.899175
_cell_length_c 7.060137
_cell_angle_alpha 90.000000
_cell_angle_beta 90.000000
_cell_angle_gamma 90.000000
_cell_volume 703.711745
_symmetry_space_group_name_H-M "P B A 2"
_symmetry_group_IT_number 32
_symmetry_cell_setting 'orthorhombic'
loop_
_space_group_symop_operation_xyz
x,y,z
-x,-y,z
1/2-x,1/2+y,z
1/2+x,1/2-y,z
loop_
_atom_site_type_symbol
_atom_site_label
_atom_site_fract_x
_atom_site_fract_y
_atom_site_fract_z
Si Si1 0.384830 0.671853 0.146470
Si Si2 0.457473 0.111015 0.687106
Si Si3 0.000000 0.000000 0.448301
Si Si4 0.953370 0.839877 0.717146
Si Si5 0.006224 0.386362 0.110947
O O1 0.429131 0.585969 0.301539
O O2 0.187888 0.652134 0.100521
O O3 0.394284 0.792293 0.206095
O O4 0.485149 0.660143 0.944703
O O5 0.247335 0.124084 0.690674
O O6 0.520555 0.225653 0.630923
O O7 0.500000 0.000000 0.594734
O O8 0.556118 0.102322 0.891361
O O9 0.923176 0.081176 0.603760
O O10 0.000000 0.500000 0.195990
#
# Coordination Sequence:
#
# PCOD9344118 Si02
#       5
#     4   4   2   4   4
#     4  10  23  43  68  96 132 173 220 273 329 389
#     4   9  20  41  70  98 129 173 221 271 329 389
#     4  12  26  40  64  98 130 174 222 266 326 394
#     4  10  23  43  68  96 132 173 220 273 329 389
#     4   9  20  41  70  98 129 173 221 271 329 389
#
# _framework density 25.578654
#
# number of rings (size 3 to 8) (size 9 to 14) (size 15 to 20)
#    0.000    2.222    0.000    0.667    6.222    1.778 
#    0.000    2.222    0.000    0.000    0.000    0.000 
#    0.000    0.000    0.000    0.000    0.000    0.000 
#
# Total GULP energy -100295.488789 kJ/mol
# GULP energy per Si atom -5571.971599 kJ/mol
# Density = 2.552044 g / cm^3
# Si number density = 25.578654 Si / 1000 Ang^3
#
#
#
# Elastic Constant Matrix: (Units=GPa)
#
#
# Indices 1 2 3 4 5 6 
#
# 1 54.7728 49.6823 13.3632 0.0000 0.0000 0.0000
# 2 49.6823 293.1322 51.9399 0.0000 0.0000 0.0000
# 3 13.3632 51.9399 138.3247 0.0000 0.0000 0.0000
# 4 0.0000 0.0000 0.0000 59.3003 0.0000 0.0000
# 5 0.0000 0.0000 0.0000 0.0000 -10.3291 0.0000
# 6 0.0000 0.0000 0.0000 0.0000 0.0000 37.2697
#
#
#
# Elastic Compliance Matrix: (Units=1/GPa)
#
#
# Indices 1 2 3 4 5 6 
#
# 1 0.021649 -0.003534 -0.000765 0.000000 0.000000 0.000000
# 2 -0.003534 0.004231 -0.001247 0.000000 0.000000 0.000000
# 3 -0.000765 -0.001247 0.007772 0.000000 0.000000 0.000000
# 4 0.000000 0.000000 0.000000 0.016863 0.000000 0.000000
# 5 0.000000 0.000000 0.000000 0.000000 -0.096814 0.000000
# 6 0.000000 0.000000 0.000000 0.000000 0.000000 0.026831
#
#
# Mechanical properties :
#
#
# Convention : Reuss Voigt Hill
#
# Bulk Modulus (GPa) = 44.32516 79.57781 61.95148
# Shear Modulus (GPa) = -5847.72639 41.99781 -2902.86429
#
# Velocity S-wave (km/s) = -47.86583 4.05644 -33.72449
# Velocity P-wave (km/s) = 55.11337 7.28822 38.62878
#
# Compressibility (1/GPa) = 0.02256055
#
# Stress axis : x y z
#
# Youngs Moduli (GPa) = 46.19125 236.32829 128.67287
#
# Poissons Ratio (x) = 0.83513 0.09838
# Poissons Ratio (y) = 0.16323 0.16052
# Poissons Ratio (z) = 0.03532 0.29481
#
# Static dielectric constant tensor:
#      x y z
#    x 2.006960 0.000000 0.000000 
#    y 0.000000 2.031830 0.000000 
#    z 0.000000 0.000000 2.127160 
# 
# From -- ./inp_files/2157.got.cif
#   From: 2010.05.17/outbox.cif.g08.bks.cpg/sg32_2_cif.got.tgz:2157.got - 2010.06.03 17:12:27.
