data_PCOD9344463
_publ_section_title
;
Structure prediction by ZEFSAII (Michael W. Deem and Ramdas Pophale) SiO2 
 PCOD9344463
Probable space group: P N A 21
;
_chemical_formula_sum "Si O2"
_cell_formula_units_Z 32
_cell_length_a 9.463804
_cell_length_b 10.727903
_cell_length_c 15.191656
_cell_angle_alpha 90.000000
_cell_angle_beta 90.000000
_cell_angle_gamma 90.000000
_cell_volume 1542.359785
_symmetry_space_group_name_H-M "P N A 21"
_symmetry_group_IT_number 33
_symmetry_cell_setting 'orthorhombic'
loop_
_space_group_symop_operation_xyz
x,y,z
-x,-y,1/2+z
1/2-x,1/2+y,1/2+z
1/2+x,1/2-y,z
loop_
_atom_site_type_symbol
_atom_site_label
_atom_site_fract_x
_atom_site_fract_y
_atom_site_fract_z
Si Si1 0.763692 0.706965 0.217100
Si Si2 0.007947 0.589629 0.548992
Si Si3 0.344752 0.458916 0.864880
Si Si4 0.332276 0.192875 0.427843
Si Si5 0.158925 0.074566 0.841301
Si Si6 0.109206 0.408329 0.387245
Si Si7 0.025762 0.662194 0.116316
Si Si8 0.246555 0.744977 0.494176
O O1 0.736310 0.585086 0.276278
O O2 0.842129 0.808305 0.276977
O O3 0.616684 0.766576 0.188282
O O4 0.861666 0.689826 0.132180
O O5 0.052113 0.505931 0.462448
O O6 0.139683 0.681383 0.562326
O O7 0.969420 0.487144 0.620824
O O8 0.871127 0.671575 0.531319
O O9 0.265841 0.571032 0.913985
O O10 0.506845 0.490289 0.842427
O O11 0.339223 0.335503 0.927050
O O12 0.229724 0.310444 0.417140
O O13 0.467686 0.168611 0.363516
O O14 0.408181 0.200814 0.522855
O O15 0.184439 0.134279 0.937326
O O16 0.297823 0.992434 0.821487
#
# Coordination Sequence:
#
# PCOD9344463 Si02
#       8
#     4   4   4   4   4   4   4   4
#     4  11  24  38  63  93 133 170 219 265 344 408
#     4  10  20  36  61  91 128 167 209 269 330 382
#     4  11  20  37  63  95 124 171 220 280 316 393
#     4  11  22  38  65  95 135 168 220 276 330 388
#     4  10  21  35  62  93 123 163 219 271 322 388
#     4  10  21  36  60  98 127 164 211 277 325 379
#     4  11  22  40  60  94 132 175 209 273 341 399
#     4  10  18  34  60  95 120 154 215 277 318 369
#
# _framework density 20.747427999999999
#
# number of rings (size 3 to 8) (size 9 to 14) (size 15 to 20)
#    0.000    1.500    5.000    2.250    1.750    0.000 
#    0.000    1.250    2.750    0.000    0.000    0.000 
#    0.000    0.000    0.000    0.000    0.000    0.000 
#
# Total GULP energy -178325.384590 kJ/mol
# GULP energy per Si atom -5572.668268 kJ/mol
# Density = 2.070021 g / cm^3
# Si number density = 20.747428 Si / 1000 Ang^3
#
#
#
# Elastic Constant Matrix: (Units=GPa)
#
#
# Indices 1 2 3 4 5 6 
#
# 1 90.7795 4.7662 -8.8291 0.0000 0.0000 0.0000
# 2 4.7662 49.3445 -3.7720 0.0000 0.0000 0.0000
# 3 -8.8291 -3.7720 16.4663 0.0000 0.0000 0.0000
# 4 0.0000 0.0000 0.0000 11.1113 0.0000 0.0000
# 5 0.0000 0.0000 0.0000 0.0000 22.5712 0.0000
# 6 0.0000 0.0000 0.0000 0.0000 0.0000 48.3450
#
#
#
# Elastic Compliance Matrix: (Units=1/GPa)
#
#
# Indices 1 2 3 4 5 6 
#
# 1 0.011643 -0.000659 0.006092 0.000000 0.000000 0.000000
# 2 -0.000659 0.020664 0.004380 0.000000 0.000000 0.000000
# 3 0.006092 0.004380 0.065000 0.000000 0.000000 0.000000
# 4 0.000000 0.000000 0.000000 0.089999 0.000000 0.000000
# 5 0.000000 0.000000 0.000000 0.000000 0.044304 0.000000
# 6 0.000000 0.000000 0.000000 0.000000 0.000000 0.020685
#
#
# Mechanical properties :
#
#
# Convention : Reuss Voigt Hill
#
# Bulk Modulus (GPa) = 8.55186 15.65783 12.10485
# Shear Modulus (GPa) = 18.40630 27.36717 22.88673
#
# Velocity S-wave (km/s) = 2.98176 3.63583 3.32492
# Velocity P-wave (km/s) = 3.99817 5.01886 4.53731
#
# Compressibility (1/GPa) = 0.11693356
#
# Stress axis : x y z
#
# Youngs Moduli (GPa) = 85.89013 48.39297 15.38460
#
# Poissons Ratio (x) = 0.03189 -0.09372
# Poissons Ratio (y) = 0.05659 -0.06739
# Poissons Ratio (z) = -0.52323 -0.21198
#
# Static dielectric constant tensor:
#      x y z
#    x 1.778150 0.000000 0.000000 
#    y 0.000000 1.770920 0.000000 
#    z 0.000000 0.000000 1.770040 
# 
# From -- ./inp_files/8546.got.cif
#   From: 2010.05.17/outbox.cif.g08.bks.cpg/sg33_5_cif.got.tgz:8546.got - 2010.06.03 17:15:25.
