data_PCOD9344754
_publ_section_title
;
Structure prediction by ZEFSAII (Michael W. Deem and Ramdas Pophale) SiO2 
 PCOD9344754
Probable space group: P N A 21
;
_chemical_formula_sum "Si O2"
_cell_formula_units_Z 32
_cell_length_a 11.063217
_cell_length_b 7.472937
_cell_length_c 17.374416
_cell_angle_alpha 90.000000
_cell_angle_beta 90.000000
_cell_angle_gamma 90.000000
_cell_volume 1436.425042
_symmetry_space_group_name_H-M "P N A 21"
_symmetry_group_IT_number 33
_symmetry_cell_setting 'orthorhombic'
loop_
_space_group_symop_operation_xyz
x,y,z
-x,-y,1/2+z
1/2-x,1/2+y,1/2+z
1/2+x,1/2-y,z
loop_
_atom_site_type_symbol
_atom_site_label
_atom_site_fract_x
_atom_site_fract_y
_atom_site_fract_z
Si Si1 0.133278 0.405822 0.199070
Si Si2 0.645883 0.768577 0.106505
Si Si3 0.700328 0.450212 0.828333
Si Si4 0.913577 0.579421 0.291860
Si Si5 0.157929 0.021072 0.237538
Si Si6 0.971658 0.951057 0.900107
Si Si7 0.426341 0.153819 0.931746
Si Si8 0.604512 0.180501 0.522417
O O1 0.237213 0.435324 0.262556
O O2 0.121595 0.195194 0.188760
O O3 0.765112 0.709122 0.060368
O O4 0.163651 0.522077 0.125100
O O5 0.515858 0.998380 0.235968
O O6 0.644815 0.654290 0.185371
O O7 0.513747 0.750564 0.068390
O O8 0.625402 0.288597 0.788259
O O9 0.614386 0.564670 0.884186
O O10 0.805457 0.361722 0.879910
O O11 0.794152 0.474520 0.268999
O O12 0.967051 0.571062 0.378161
O O13 0.080424 0.023829 0.314801
O O14 0.951910 0.137846 0.944810
O O15 0.906838 0.789005 0.942409
O O16 0.411859 0.029304 0.005139
#
# Coordination Sequence:
#
# PCOD9344754 Si02
#       8
#     4   4   4   4   4   4   4   4
#     4  11  25  40  71 101 137 193 239 295 370 442
#     4  12  28  49  66 102 154 198 239 311 373 446
#     4  10  19  40  69 101 141 172 233 305 362 411
#     4  10  20  41  68 105 144 171 238 313 358 420
#     4  12  25  43  74 105 140 186 250 306 364 436
#     4  11  24  41  73 104 136 184 243 302 361 431
#     4  10  22  41  66 100 138 186 231 295 363 433
#     4  12  29  45  71 100 152 196 245 293 379 449
#
# _framework density 22.277526999999999
#
# number of rings (size 3 to 8) (size 9 to 14) (size 15 to 20)
#    0.000    1.000    2.500    4.500    7.000    2.000 
#    0.000    0.000    0.000    0.000    0.000    0.000 
#    0.000    0.000    0.000    0.000    0.000    0.000 
#
# Total GULP energy -178898.511265 kJ/mol
# GULP energy per Si atom -5590.578477 kJ/mol
# Density = 2.222682 g / cm^3
# Si number density = 22.277527 Si / 1000 Ang^3
#
#
#
# Elastic Constant Matrix: (Units=GPa)
#
#
# Indices 1 2 3 4 5 6 
#
# 1 74.9443 22.2437 17.5438 0.0000 0.0000 0.0000
# 2 22.2437 92.7814 12.0828 0.0000 0.0000 0.0000
# 3 17.5438 12.0828 36.6485 0.0000 0.0000 0.0000
# 4 0.0000 0.0000 0.0000 32.3979 0.0000 0.0000
# 5 0.0000 0.0000 0.0000 0.0000 24.9064 0.0000
# 6 0.0000 0.0000 0.0000 0.0000 0.0000 0.1054
#
#
#
# Elastic Compliance Matrix: (Units=1/GPa)
#
#
# Indices 1 2 3 4 5 6 
#
# 1 0.015749 -0.002919 -0.006577 0.000000 0.000000 0.000000
# 2 -0.002919 0.011803 -0.002494 0.000000 0.000000 0.000000
# 3 -0.006577 -0.002494 0.031257 0.000000 0.000000 0.000000
# 4 0.000000 0.000000 0.000000 0.030866 0.000000 0.000000
# 5 0.000000 0.000000 0.000000 0.000000 0.040150 0.000000
# 6 0.000000 0.000000 0.000000 0.000000 0.000000 9.492061
#
#
# Mechanical properties :
#
#
# Convention : Reuss Voigt Hill
#
# Bulk Modulus (GPa) = 28.71172 34.23499 31.47335
# Shear Modulus (GPa) = 0.51773 21.64885 11.08329
#
# Velocity S-wave (km/s) = 0.48260 3.12072 2.23291
# Velocity P-wave (km/s) = 3.63686 5.32786 4.56140
#
# Compressibility (1/GPa) = 0.03482898
#
# Stress axis : x y z
#
# Youngs Moduli (GPa) = 63.49507 84.72659 31.99308
#
# Poissons Ratio (x) = 0.24734 0.21041
# Poissons Ratio (y) = 0.18536 0.07978
# Poissons Ratio (z) = 0.41759 0.21129
#
# Static dielectric constant tensor:
#      x y z
#    x 1.862290 0.000000 0.000000 
#    y 0.000000 1.826770 0.000000 
#    z 0.000000 0.000000 1.820840 
# 
# From -- ./inp_files/7970.got.cif
#   From: 2010.05.17/outbox.cif.g08.bks.cpg/sg33_4_cif.got.tgz:7970.got - 2010.06.03 17:15:25.
