data_PCOD9344111
_publ_section_title
;
Structure prediction by ZEFSAII (Michael W. Deem and Ramdas Pophale) SiO2 
 PCOD9344111
Probable space group: P B A 2
;
_chemical_formula_sum "Si O2"
_cell_formula_units_Z 32
_cell_length_a 13.717451
_cell_length_b 9.945226
_cell_length_c 9.917485
_cell_angle_alpha 90.000000
_cell_angle_beta 90.000000
_cell_angle_gamma 90.000000
_cell_volume 1352.974547
_symmetry_space_group_name_H-M "P B A 2"
_symmetry_group_IT_number 32
_symmetry_cell_setting 'orthorhombic'
loop_
_space_group_symop_operation_xyz
x,y,z
-x,-y,z
1/2-x,1/2+y,z
1/2+x,1/2-y,z
loop_
_atom_site_type_symbol
_atom_site_label
_atom_site_fract_x
_atom_site_fract_y
_atom_site_fract_z
Si Si1 0.869341 0.767708 0.097420
Si Si2 0.464891 0.355578 0.939243
Si Si3 0.113066 0.521572 0.166133
Si Si4 0.054909 0.865510 0.630199
Si Si5 0.906467 0.423777 0.650652
Si Si6 0.694889 0.828543 0.917619
Si Si7 0.756237 0.620167 0.518150
Si Si8 0.220892 0.117308 0.343372
O O1 0.838820 0.625904 0.160274
O O2 0.857198 0.861992 0.225792
O O3 0.803399 0.819724 0.973426
O O4 0.975325 0.755901 0.033751
O O5 0.500000 0.500000 0.985577
O O6 0.488870 0.345888 0.780381
O O7 0.352167 0.318481 0.943900
O O8 0.173734 0.614839 0.268483
O O9 0.000000 0.500000 0.201208
O O10 0.135445 0.575020 0.017169
O O11 0.054598 0.711407 0.574115
O O12 0.171933 0.887845 0.631508
O O13 0.000000 0.000000 0.575607
O O14 0.832048 0.375341 0.767750
O O15 0.849674 0.533466 0.562063
O O16 0.000000 0.500000 0.710569
O O17 0.780179 0.767660 0.459449
O O18 0.707455 0.529679 0.403292
#
# Coordination Sequence:
#
# PCOD9344111 Si02
#       8
#     4   4   4   4   4   4   4   4
#     4  11  24  43  73 100 145 186 233 309 363 450
#     4  10  23  42  65 104 141 180 242 292 377 431
#     4  11  22  44  71 102 142 186 241 309 365 444
#     4  10  25  46  69 106 147 192 238 307 367 443
#     4  11  26  44  74 109 141 192 249 299 373 443
#     4  10  24  40  68 107 136 183 232 294 377 433
#     4  12  25  51  70 103 150 196 250 299 358 452
#     4  11  26  47  73 103 141 195 253 290 375 433
#
# _framework density 23.651592000000001
#
# number of rings (size 3 to 8) (size 9 to 14) (size 15 to 20)
#    0.000    1.250    3.750    0.375   10.500    1.500 
#    2.250    0.000    0.000    0.000    0.000    0.000 
#    0.000    0.000    0.000    0.000    0.000    0.000 
#
# Total GULP energy -178454.436539 kJ/mol
# GULP energy per Si atom -5576.701142 kJ/mol
# Density = 2.359776 g / cm^3
# Si number density = 23.651592 Si / 1000 Ang^3
#
#
#
# Elastic Constant Matrix: (Units=GPa)
#
#
# Indices 1 2 3 4 5 6 
#
# 1 59.2831 -2.3382 15.0752 0.0000 0.0000 0.0000
# 2 -2.3382 80.9902 1.1932 0.0000 0.0000 0.0000
# 3 15.0752 1.1932 64.8876 0.0000 0.0000 0.0000
# 4 0.0000 0.0000 0.0000 42.2924 0.0000 0.0000
# 5 0.0000 0.0000 0.0000 0.0000 17.5164 0.0000
# 6 0.0000 0.0000 0.0000 0.0000 0.0000 33.7641
#
#
#
# Elastic Compliance Matrix: (Units=1/GPa)
#
#
# Indices 1 2 3 4 5 6 
#
# 1 0.017955 0.000580 -0.004182 0.000000 0.000000 0.000000
# 2 0.000580 0.012369 -0.000362 0.000000 0.000000 0.000000
# 3 -0.004182 -0.000362 0.016390 0.000000 0.000000 0.000000
# 4 0.000000 0.000000 0.000000 0.023645 0.000000 0.000000
# 5 0.000000 0.000000 0.000000 0.000000 0.057089 0.000000
# 6 0.000000 0.000000 0.000000 0.000000 0.000000 0.029617
#
#
# Mechanical properties :
#
#
# Convention : Reuss Voigt Hill
#
# Bulk Modulus (GPa) = 25.78327 25.89126 25.83727
# Shear Modulus (GPa) = 28.10226 31.46329 29.78277
#
# Velocity S-wave (km/s) = 3.45073 3.65126 3.55241
# Velocity P-wave (km/s) = 5.17704 5.36156 5.27010
#
# Compressibility (1/GPa) = 0.03878483
#
# Stress axis : x y z
#
# Youngs Moduli (GPa) = 55.69620 80.84565 61.01464
#
# Poissons Ratio (x) = -0.04689 0.25516
# Poissons Ratio (y) = -0.03230 0.02210
# Poissons Ratio (z) = 0.23292 0.02928
#
# Static dielectric constant tensor:
#      x y z
#    x 1.898460 0.000000 0.000000 
#    y 0.000000 1.995560 0.000000 
#    z 0.000000 0.000000 1.901670 
# 
# From -- ./inp_files/3961.got.cif
#   From: 2010.05.17/outbox.cif.g08.bks.cpg/sg32_2_cif.got.tgz:3961.got - 2010.06.03 17:12:27.
