data_PCOD9344311
_publ_section_title
;
Structure prediction by ZEFSAII (Michael W. Deem and Ramdas Pophale) SiO2 
 PCOD9344311
Probable space group: P B A 2
;
_chemical_formula_sum "Si O2"
_cell_formula_units_Z 12
_cell_length_a 9.962680
_cell_length_b 10.499563
_cell_length_c 4.924766
_cell_angle_alpha 90.000000
_cell_angle_beta 90.000000
_cell_angle_gamma 90.000000
_cell_volume 515.149170
_symmetry_space_group_name_H-M "P B A 2"
_symmetry_group_IT_number 32
_symmetry_cell_setting 'orthorhombic'
loop_
_space_group_symop_operation_xyz
x,y,z
-x,-y,z
1/2-x,1/2+y,z
1/2+x,1/2-y,z
loop_
_atom_site_type_symbol
_atom_site_label
_atom_site_fract_x
_atom_site_fract_y
_atom_site_fract_z
Si Si1 0.954755 0.289249 0.208020
Si Si2 0.360045 0.976400 0.944648
Si Si3 0.089989 0.881875 0.710402
O O1 0.923480 0.232263 0.498101
O O2 0.091880 0.369269 0.161035
O O3 0.842377 0.390862 0.104496
O O4 0.958657 0.172909 0.998103
O O5 0.239659 0.931261 0.763462
O O6 0.500000 0.000000 0.782286
O O7 0.000000 0.000000 0.620493
#
# Coordination Sequence:
#
# PCOD9344311 Si02
#       3
#     4   4   4
#     4   9  25  45  71 103 149 190 248 307 386 441
#     4   8  24  49  71 104 151 202 236 325 382 438
#     4  12  24  45  77 106 144 196 256 308 375 459
#
# _framework density 23.294222999999999
#
# number of rings (size 3 to 8) (size 9 to 14) (size 15 to 20)
#    2.000    0.000    0.000    1.000    4.667   10.667 
#    0.000    0.000    0.000    0.000    0.000    0.000 
#    0.000    0.000    0.000    0.000    0.000    0.000 
#
# Total GULP energy -67011.137140 kJ/mol
# GULP energy per Si atom -5584.261428 kJ/mol
# Density = 2.324120 g / cm^3
# Si number density = 23.294223 Si / 1000 Ang^3
#
#
#
# Elastic Constant Matrix: (Units=GPa)
#
#
# Indices 1 2 3 4 5 6 
#
# 1 123.1082 60.1672 46.8344 0.0000 0.0000 0.0000
# 2 60.1672 120.4270 26.1424 0.0000 0.0000 0.0000
# 3 46.8344 26.1424 89.7314 0.0000 0.0000 0.0000
# 4 0.0000 0.0000 0.0000 26.8437 0.0000 0.0000
# 5 0.0000 0.0000 0.0000 0.0000 3.6613 0.0000
# 6 0.0000 0.0000 0.0000 0.0000 0.0000 29.1026
#
#
#
# Elastic Compliance Matrix: (Units=1/GPa)
#
#
# Indices 1 2 3 4 5 6 
#
# 1 0.012582 -0.005189 -0.005055 0.000000 0.000000 0.000000
# 2 -0.005189 0.011004 -0.000498 0.000000 0.000000 0.000000
# 3 -0.005055 -0.000498 0.013928 0.000000 0.000000 0.000000
# 4 0.000000 0.000000 0.000000 0.037253 0.000000 0.000000
# 5 0.000000 0.000000 0.000000 0.000000 0.273129 0.000000
# 6 0.000000 0.000000 0.000000 0.000000 0.000000 0.034361
#
#
# Mechanical properties :
#
#
# Convention : Reuss Voigt Hill
#
# Bulk Modulus (GPa) = 62.38115 66.61717 64.49916
# Shear Modulus (GPa) = 12.22241 25.26302 18.74271
#
# Velocity S-wave (km/s) = 2.29311 3.29678 2.83964
# Velocity P-wave (km/s) = 5.81798 6.56901 6.20487
#
# Compressibility (1/GPa) = 0.01603048
#
# Stress axis : x y z
#
# Youngs Moduli (GPa) = 79.47781 90.87400 71.79776
#
# Poissons Ratio (x) = 0.47153 0.36297
# Poissons Ratio (y) = 0.41239 0.03574
# Poissons Ratio (z) = 0.40179 0.04523
#
# Static dielectric constant tensor:
#      x y z
#    x 1.916420 0.000000 0.000000 
#    y 0.000000 1.893730 0.000000 
#    z 0.000000 0.000000 1.854150 
# 
# From -- ./inp_files/279.got.cif
#   From: 2010.05.17/outbox.cif.g08.bks.cpg/sg32_1_cif.got.tgz:279.got - 2010.06.03 17:12:27.
