data_PCOD9344246
_publ_section_title
;
Structure prediction by ZEFSAII (Michael W. Deem and Ramdas Pophale) SiO2 
 PCOD9344246
Probable space group: P B A 2
;
_chemical_formula_sum "Si O2"
_cell_formula_units_Z 30
_cell_length_a 10.966283
_cell_length_b 14.537685
_cell_length_c 8.846905
_cell_angle_alpha 90.000000
_cell_angle_beta 90.000000
_cell_angle_gamma 90.000000
_cell_volume 1410.412237
_symmetry_space_group_name_H-M "P B A 2"
_symmetry_group_IT_number 32
_symmetry_cell_setting 'orthorhombic'
loop_
_space_group_symop_operation_xyz
x,y,z
-x,-y,z
1/2-x,1/2+y,z
1/2+x,1/2-y,z
loop_
_atom_site_type_symbol
_atom_site_label
_atom_site_fract_x
_atom_site_fract_y
_atom_site_fract_z
Si Si1 0.101238 0.578772 0.516050
Si Si2 0.097259 0.288514 0.569975
Si Si3 0.774573 0.109108 0.761273
Si Si4 0.658713 0.383822 0.390192
Si Si5 0.071843 0.097094 0.049531
Si Si6 0.948011 0.255639 0.874615
Si Si7 0.500000 0.500000 0.620904
Si Si8 0.185098 0.568894 0.860777
O O1 0.208876 0.569685 0.397833
O O2 0.167742 0.584565 0.680029
O O3 0.000000 0.500000 0.519276
O O4 0.022463 0.670407 0.491224
O O5 0.193209 0.367126 0.616464
O O6 0.163930 0.217807 0.460969
O O7 0.041500 0.254566 0.731817
O O8 0.821671 0.206302 0.823741
O O9 0.692414 0.042755 0.867014
O O10 0.897262 0.053359 0.716939
O O11 0.609525 0.391216 0.222646
O O12 0.569558 0.431735 0.509814
O O13 0.189322 0.096206 0.940290
O O14 0.000000 0.000000 0.034031
O O15 0.996033 0.186434 0.000562
O O16 0.917597 0.360575 0.921085
#
# Coordination Sequence:
#
# PCOD9344246 Si02
#       8
#     4   4   4   4   4   4   2   4
#     4  11  22  44  70  98 133 172 227 297 349 399
#     4  11  23  41  68 104 131 175 227 302 348 406
#     4  12  21  39  71 101 134 171 233 297 349 408
#     4  12  25  41  66  99 138 183 236 273 352 427
#     4  12  25  45  65  96 144 193 229 280 347 434
#     4  11  23  39  68  99 136 174 236 288 350 408
#     4  12  22  38  62  98 128 174 224 286 340 408
#     4  11  23  41  68 100 130 176 231 291 351 408
#
# _framework density 21.270377
#
# number of rings (size 3 to 8) (size 9 to 14) (size 15 to 20)
#    0.000    0.533    6.000    4.000    0.000    1.067 
#    0.000    0.667    0.000    0.000    0.000    0.000 
#    0.000    0.000    0.000    0.000    0.000    0.000 
#
# Total GULP energy -167447.314836 kJ/mol
# GULP energy per Si atom -5581.577161 kJ/mol
# Density = 2.122196 g / cm^3
# Si number density = 21.270377 Si / 1000 Ang^3
#
#
#
# Elastic Constant Matrix: (Units=GPa)
#
#
# Indices 1 2 3 4 5 6 
#
# 1 113.3444 52.4623 53.7328 0.0000 0.0000 0.0000
# 2 52.4623 96.3083 41.1463 0.0000 0.0000 0.0000
# 3 53.7328 41.1463 68.1058 0.0000 0.0000 0.0000
# 4 0.0000 0.0000 0.0000 8.2479 0.0000 0.0000
# 5 0.0000 0.0000 0.0000 0.0000 24.0956 0.0000
# 6 0.0000 0.0000 0.0000 0.0000 0.0000 44.3266
#
#
#
# Elastic Compliance Matrix: (Units=1/GPa)
#
#
# Indices 1 2 3 4 5 6 
#
# 1 0.015301 -0.004283 -0.009485 0.000000 0.000000 0.000000
# 2 -0.004283 0.015195 -0.005801 0.000000 0.000000 0.000000
# 3 -0.009485 -0.005801 0.025671 0.000000 0.000000 0.000000
# 4 0.000000 0.000000 0.000000 0.121243 0.000000 0.000000
# 5 0.000000 0.000000 0.000000 0.000000 0.041501 0.000000
# 6 0.000000 0.000000 0.000000 0.000000 0.000000 0.022560
#
#
# Mechanical properties :
#
#
# Convention : Reuss Voigt Hill
#
# Bulk Modulus (GPa) = 58.72039 63.60461 61.16250
# Shear Modulus (GPa) = 17.46515 24.02850 20.74682
#
# Velocity S-wave (km/s) = 2.86860 3.36470 3.12650
# Velocity P-wave (km/s) = 6.21598 6.71288 6.46920
#
# Compressibility (1/GPa) = 0.01702986
#
# Stress axis : x y z
#
# Youngs Moduli (GPa) = 65.35323 65.81225 38.95503
#
# Poissons Ratio (x) = 0.28188 0.36947
# Poissons Ratio (y) = 0.27991 0.22597
# Poissons Ratio (z) = 0.61985 0.38176
#
# Static dielectric constant tensor:
#      x y z
#    x 1.799430 0.000000 0.000000 
#    y 0.000000 1.881670 0.000000 
#    z 0.000000 0.000000 1.711820 
# 
# From -- ./inp_files/2852.got.cif
#   From: 2010.05.17/outbox.cif.g08.bks.cpg/sg32_2_cif.got.tgz:2852.got - 2010.06.03 17:12:27.
