data_PCOD9344336
_publ_section_title
;
Structure prediction by ZEFSAII (Michael W. Deem and Ramdas Pophale) SiO2 
 PCOD9344336
Probable space group: P N A 21
;
_chemical_formula_sum "Si O2"
_cell_formula_units_Z 28
_cell_length_a 5.159703
_cell_length_b 6.616072
_cell_length_c 35.849335
_cell_angle_alpha 90.000000
_cell_angle_beta 90.000000
_cell_angle_gamma 90.000000
_cell_volume 1223.787550
_symmetry_space_group_name_H-M "P N A 21"
_symmetry_group_IT_number 33
_symmetry_cell_setting 'orthorhombic'
loop_
_space_group_symop_operation_xyz
x,y,z
-x,-y,1/2+z
1/2-x,1/2+y,1/2+z
1/2+x,1/2-y,z
loop_
_atom_site_type_symbol
_atom_site_label
_atom_site_fract_x
_atom_site_fract_y
_atom_site_fract_z
Si Si1 0.810275 0.379047 0.400090
Si Si2 0.806753 0.112753 0.743967
Si Si3 0.380973 0.522719 0.135839
Si Si4 0.381417 0.986087 0.165596
Si Si5 0.813226 0.116592 0.825391
Si Si6 0.184988 0.110118 0.477961
Si Si7 0.806352 0.385102 0.555886
O O1 0.607705 0.191416 0.401186
O O2 0.747947 0.487923 0.361651
O O3 0.741151 0.496533 0.438495
O O4 0.593534 0.293450 0.742484
O O5 0.740849 0.995725 0.706375
O O6 0.774535 0.013688 0.784744
O O7 0.424808 0.752520 0.151466
O O8 0.669854 0.438531 0.136155
O O9 0.258532 0.513031 0.095019
O O10 0.172265 0.434720 0.164450
O O11 0.604862 0.299006 0.826503
O O12 0.397891 0.294007 0.478124
O O13 0.242630 0.001284 0.517182
O O14 0.598603 0.198533 0.555563
#
# Coordination Sequence:
#
# PCOD9344336 Si02
#       7
#     4   4   4   4   4   4   4
#     4  10  19  35  53  70  94 130 164 193 245 294
#     4  10  16  25  37  54  83 113 148 175 226 271
#     4  10  14  18  29  45  70 106 144 163 202 265
#     4  10  14  20  29  46  70 110 142 163 204 273
#     4  10  21  33  50  74  97 124 161 206 242 282
#     4   8  16  25  39  57  79 110 149 179 218 273
#     4  10  14  20  29  48  73 101 140 169 207 256
#
# _framework density 22.879788000000001
#
# number of rings (size 3 to 8) (size 9 to 14) (size 15 to 20)
#    0.000    2.286    5.714    0.857    0.000    0.000 
#    0.000    0.000    0.000    0.000    0.000    0.000 
#    0.000    0.000    0.000    7.714    1.714    0.000 
#
# Total GULP energy -155978.239284 kJ/mol
# GULP energy per Si atom -5570.651403 kJ/mol
# Density = 2.282771 g / cm^3
# Si number density = 22.879788 Si / 1000 Ang^3
#
#
#
# Elastic Constant Matrix: (Units=GPa)
#
#
# Indices 1 2 3 4 5 6 
#
# 1 109.0284 -11.3710 -12.6457 0.0000 0.0000 0.0000
# 2 -11.3710 28.6812 2.7225 0.0000 0.0000 0.0000
# 3 -12.6457 2.7225 190.6475 0.0000 0.0000 0.0000
# 4 0.0000 0.0000 0.0000 17.6784 0.0000 0.0000
# 5 0.0000 0.0000 0.0000 0.0000 37.5112 0.0000
# 6 0.0000 0.0000 0.0000 0.0000 0.0000 -17.9541
#
#
#
# Elastic Compliance Matrix: (Units=1/GPa)
#
#
# Indices 1 2 3 4 5 6 
#
# 1 0.009632 0.003763 0.000585 0.000000 0.000000 0.000000
# 2 0.003763 0.036384 -0.000270 0.000000 0.000000 0.000000
# 3 0.000585 -0.000270 0.005288 0.000000 0.000000 0.000000
# 4 0.000000 0.000000 0.000000 0.056566 0.000000 0.000000
# 5 0.000000 0.000000 0.000000 0.000000 0.026659 0.000000
# 6 0.000000 0.000000 0.000000 0.000000 0.000000 -0.055698
#
#
# Mechanical properties :
#
#
# Convention : Reuss Voigt Hill
#
# Bulk Modulus (GPa) = 16.81780 31.75209 24.28494
# Shear Modulus (GPa) = 55.25202 30.75719 43.00461
#
# Velocity S-wave (km/s) = 4.91948 3.67044 4.34013
# Velocity P-wave (km/s) = 6.29562 5.64542 5.97936
#
# Compressibility (1/GPa) = 0.05946081
#
# Stress axis : x y z
#
# Youngs Moduli (GPa) = 103.81762 27.48490 189.10910
#
# Poissons Ratio (x) = -0.10343 -0.11066
# Poissons Ratio (y) = -0.39069 0.05105
# Poissons Ratio (z) = -0.06075 0.00742
#
# Static dielectric constant tensor:
#      x y z
#    x 1.874940 0.000000 0.000000 
#    y 0.000000 2.097920 0.000000 
#    z 0.000000 0.000000 1.940950 
# 
# From -- ./inp_files/9355.got.cif
#   From: 2010.05.17/outbox.cif.g08.bks.cpg/sg33_5_cif.got.tgz:9355.got - 2010.06.03 17:15:25.
