data_PCOD9344223
_publ_section_title
;
Structure prediction by ZEFSAII (Michael W. Deem and Ramdas Pophale) SiO2 
 PCOD9344223
Probable space group: P B A 2
;
_chemical_formula_sum "Si O2"
_cell_formula_units_Z 24
_cell_length_a 9.556618
_cell_length_b 14.460534
_cell_length_c 7.443618
_cell_angle_alpha 90.000000
_cell_angle_beta 90.000000
_cell_angle_gamma 90.000000
_cell_volume 1028.661854
_symmetry_space_group_name_H-M "P B A 2"
_symmetry_group_IT_number 32
_symmetry_cell_setting 'orthorhombic'
loop_
_space_group_symop_operation_xyz
x,y,z
-x,-y,z
1/2-x,1/2+y,z
1/2+x,1/2-y,z
loop_
_atom_site_type_symbol
_atom_site_label
_atom_site_fract_x
_atom_site_fract_y
_atom_site_fract_z
Si Si1 0.973821 0.144726 0.281350
Si Si2 0.660710 0.996320 0.965337
Si Si3 0.733950 0.492600 0.357869
Si Si4 0.073642 0.899052 0.882435
Si Si5 0.170003 0.633295 0.674860
Si Si6 0.061586 0.240088 0.603094
O O1 0.013394 0.233563 0.395906
O O2 0.103611 0.075682 0.316649
O O3 0.837113 0.093556 0.362867
O O4 0.956839 0.154103 0.068864
O O5 0.713650 0.902719 0.870165
O O6 0.500000 0.000000 0.913860
O O7 0.761777 0.076753 0.890977
O O8 0.674032 0.991813 0.179123
O O9 0.804833 0.450186 0.533938
O O10 0.013846 0.843162 0.714870
O O11 0.000000 0.000000 0.891329
O O12 0.011758 0.668545 0.674086
O O13 0.275487 0.716571 0.622363
#
# Coordination Sequence:
#
# PCOD9344223 Si02
#       6
#     4   4   4   4   4   4
#     4   9  17  36  65  87 106 151 204 240 285 352
#     4  11  23  39  63  91 118 151 202 257 293 337
#     4   9  18  38  62  86 112 149 199 247 289 340
#     4  11  19  39  67  87 108 156 205 243 292 348
#     4  11  24  41  58  89 125 159 192 240 298 357
#     4  11  24  38  61  88 123 159 194 239 299 360
#
# _framework density 23.331282000000002
#
# number of rings (size 3 to 8) (size 9 to 14) (size 15 to 20)
#    0.000    1.667    5.000    1.000    4.667    2.000 
#    6.000    0.000    0.000    0.000    0.000    0.000 
#    0.000    0.000    0.000    0.000    0.000    0.000 
#
# Total GULP energy -134088.718295 kJ/mol
# GULP energy per Si atom -5587.029929 kJ/mol
# Density = 2.327818 g / cm^3
# Si number density = 23.331282 Si / 1000 Ang^3
#
#
#
# Elastic Constant Matrix: (Units=GPa)
#
#
# Indices 1 2 3 4 5 6 
#
# 1 94.1591 7.2429 14.0870 0.0000 0.0000 0.0000
# 2 7.2429 14.6349 16.2686 0.0000 0.0000 0.0000
# 3 14.0870 16.2686 73.0395 0.0000 0.0000 0.0000
# 4 0.0000 0.0000 0.0000 19.7158 0.0000 0.0000
# 5 0.0000 0.0000 0.0000 0.0000 24.2147 0.0000
# 6 0.0000 0.0000 0.0000 0.0000 0.0000 17.5991
#
#
#
# Elastic Compliance Matrix: (Units=1/GPa)
#
#
# Indices 1 2 3 4 5 6 
#
# 1 0.011122 -0.004146 -0.001222 0.000000 0.000000 0.000000
# 2 -0.004146 0.092362 -0.019773 0.000000 0.000000 0.000000
# 3 -0.001222 -0.019773 0.018331 0.000000 0.000000 0.000000
# 4 0.000000 0.000000 0.000000 0.050721 0.000000 0.000000
# 5 0.000000 0.000000 0.000000 0.000000 0.041297 0.000000
# 6 0.000000 0.000000 0.000000 0.000000 0.000000 0.056821
#
#
# Mechanical properties :
#
#
# Convention : Reuss Voigt Hill
#
# Bulk Modulus (GPa) = 13.97949 28.55895 21.26922
# Shear Modulus (GPa) = 14.50202 21.92158 18.21180
#
# Velocity S-wave (km/s) = 2.49584 3.06858 2.79691
# Velocity P-wave (km/s) = 3.78290 4.98218 4.42337
#
# Compressibility (1/GPa) = 0.07153336
#
# Stress axis : x y z
#
# Youngs Moduli (GPa) = 89.91164 10.82700 54.55265
#
# Poissons Ratio (x) = 0.04489 0.06664
# Poissons Ratio (y) = 0.37282 1.07865
# Poissons Ratio (z) = 0.10983 0.21408
#
# Static dielectric constant tensor:
#      x y z
#    x 1.912640 0.000000 0.000000 
#    y 0.000000 1.922660 0.000000 
#    z 0.000000 0.000000 1.862730 
# 
# From -- ./inp_files/2291.got.cif
#   From: 2010.05.17/outbox.cif.g08.bks.cpg/sg32_2_cif.got.tgz:2291.got - 2010.06.03 17:12:27.
