data_PCOD9344594
_publ_section_title
;
Structure prediction by ZEFSAII (Michael W. Deem and Ramdas Pophale) SiO2 
 PCOD9344594
Probable space group: P N A 21
;
_chemical_formula_sum "Si O2"
_cell_formula_units_Z 32
_cell_length_a 9.737484
_cell_length_b 13.644359
_cell_length_c 9.898287
_cell_angle_alpha 90.000000
_cell_angle_beta 90.000000
_cell_angle_gamma 90.000000
_cell_volume 1315.103510
_symmetry_space_group_name_H-M "P N A 21"
_symmetry_group_IT_number 33
_symmetry_cell_setting 'orthorhombic'
loop_
_space_group_symop_operation_xyz
x,y,z
-x,-y,1/2+z
1/2-x,1/2+y,1/2+z
1/2+x,1/2-y,z
loop_
_atom_site_type_symbol
_atom_site_label
_atom_site_fract_x
_atom_site_fract_y
_atom_site_fract_z
Si Si1 0.692976 0.640874 0.909750
Si Si2 0.581121 0.065962 0.618926
Si Si3 0.223331 0.853446 0.602045
Si Si4 0.805712 0.375908 0.044104
Si Si5 0.977441 0.900326 0.417437
Si Si6 0.008281 0.135150 0.630826
Si Si7 0.322757 0.183507 0.569501
Si Si8 0.948678 0.666647 0.389863
O O1 0.715415 0.613383 0.755912
O O2 0.553145 0.603410 0.984080
O O3 0.821231 0.607148 0.000589
O O4 0.686444 0.759665 0.926210
O O5 0.425194 0.092184 0.578204
O O6 0.615444 0.123144 0.755835
O O7 0.619619 0.953414 0.639593
O O8 0.197565 0.735194 0.596406
O O9 0.364250 0.865038 0.521659
O O10 0.108222 0.906969 0.513137
O O11 0.660579 0.419748 0.000618
O O12 0.897690 0.372542 0.908296
O O13 0.003899 0.933235 0.262821
O O14 0.951484 0.783219 0.391498
O O15 0.168641 0.161334 0.615337
O O16 0.906866 0.230431 0.650077
#
# Coordination Sequence:
#
# PCOD9344594 Si02
#       8
#     4   4   4   4   4   4   4   4
#     4  10  21  39  61  93 125 174 213 262 319 388
#     4  12  22  41  66  97 133 164 220 278 324 380
#     4  10  23  41  66  87 132 173 224 256 324 393
#     4  10  25  38  62 102 133 162 210 282 337 366
#     4  10  19  39  63  89 122 168 217 259 308 396
#     4  10  19  35  66  94 118 159 229 258 298 379
#     4  10  19  34  65  94 120 161 217 263 306 382
#     4  10  20  39  65  90 123 175 216 258 314 400
#
# _framework density 24.332684
#
# number of rings (size 3 to 8) (size 9 to 14) (size 15 to 20)
#    0.750    1.000    2.500    1.500    3.500    8.000 
#    0.000    3.750    0.000    3.000    0.000    0.000 
#    0.000    0.000    0.000    0.000    0.000    0.000 
#
# Total GULP energy -178732.240392 kJ/mol
# GULP energy per Si atom -5585.382512 kJ/mol
# Density = 2.427730 g / cm^3
# Si number density = 24.332684 Si / 1000 Ang^3
#
#
#
# Elastic Constant Matrix: (Units=GPa)
#
#
# Indices 1 2 3 4 5 6 
#
# 1 141.6479 -0.7048 26.7005 0.0000 0.0000 0.0000
# 2 -0.7048 54.2361 -12.8147 0.0000 0.0000 0.0000
# 3 26.7005 -12.8147 143.1786 0.0000 0.0000 0.0000
# 4 0.0000 0.0000 0.0000 10.4366 0.0000 0.0000
# 5 0.0000 0.0000 0.0000 0.0000 23.6781 0.0000
# 6 0.0000 0.0000 0.0000 0.0000 0.0000 31.2937
#
#
#
# Elastic Compliance Matrix: (Units=1/GPa)
#
#
# Indices 1 2 3 4 5 6 
#
# 1 0.007320 -0.000232 -0.001386 0.000000 0.000000 0.000000
# 2 -0.000232 0.018844 0.001730 0.000000 0.000000 0.000000
# 3 -0.001386 0.001730 0.007398 0.000000 0.000000 0.000000
# 4 0.000000 0.000000 0.000000 0.095816 0.000000 0.000000
# 5 0.000000 0.000000 0.000000 0.000000 0.042233 0.000000
# 6 0.000000 0.000000 0.000000 0.000000 0.000000 0.031955
#
#
# Mechanical properties :
#
#
# Convention : Reuss Voigt Hill
#
# Bulk Modulus (GPa) = 29.59946 40.60275 35.10111
# Shear Modulus (GPa) = 23.29875 34.80712 29.05294
#
# Velocity S-wave (km/s) = 3.09772 3.78626 3.45916
# Velocity P-wave (km/s) = 4.99854 5.98640 5.51464
#
# Compressibility (1/GPa) = 0.03378440
#
# Stress axis : x y z
#
# Youngs Moduli (GPa) = 136.61521 53.06839 135.18009
#
# Poissons Ratio (x) = 0.01233 0.18734
# Poissons Ratio (y) = 0.03174 -0.23384
# Poissons Ratio (z) = 0.18932 -0.09180
#
# Static dielectric constant tensor:
#      x y z
#    x 1.915830 0.000000 0.000000 
#    y 0.000000 2.076970 0.000000 
#    z 0.000000 0.000000 1.984320 
# 
# From -- ./inp_files/6519.got.cif
#   From: 2010.05.17/outbox.cif.g08.bks.cpg/sg33_4_cif.got.tgz:6519.got - 2010.06.03 17:15:25.
