data_PCOD9344067
_publ_section_title
;
Structure prediction by ZEFSAII (Michael W. Deem and Ramdas Pophale) SiO2 
 PCOD9344067
Probable space group: P B A 2
;
_chemical_formula_sum "Si O2"
_cell_formula_units_Z 26
_cell_length_a 17.490508
_cell_length_b 9.922585
_cell_length_c 7.012458
_cell_angle_alpha 90.000000
_cell_angle_beta 90.000000
_cell_angle_gamma 90.000000
_cell_volume 1217.019465
_symmetry_space_group_name_H-M "P B A 2"
_symmetry_group_IT_number 32
_symmetry_cell_setting 'orthorhombic'
loop_
_space_group_symop_operation_xyz
x,y,z
-x,-y,z
1/2-x,1/2+y,z
1/2+x,1/2-y,z
loop_
_atom_site_type_symbol
_atom_site_label
_atom_site_fract_x
_atom_site_fract_y
_atom_site_fract_z
Si Si1 0.410626 0.534788 0.025120
Si Si2 0.917522 0.492311 0.768592
Si Si3 0.883239 0.704627 0.276680
Si Si4 0.712850 0.846646 0.536189
Si Si5 0.782488 0.090262 0.282146
Si Si6 0.359816 0.719968 0.714411
Si Si7 0.500000 0.000000 0.123977
O O1 0.500000 0.500000 0.038813
O O2 0.398971 0.667709 0.149363
O O3 0.345650 0.438143 0.118997
O O4 0.392417 0.585899 0.811136
O O5 0.881311 0.752330 0.495220
O O6 0.857824 0.418930 0.635563
O O7 0.887643 0.642626 0.812929
O O8 0.000000 0.500000 0.669480
O O9 0.801602 0.640468 0.219115
O O10 0.950282 0.599561 0.245777
O O11 0.690373 0.715524 0.413817
O O12 0.768840 0.795942 0.703841
O O13 0.760175 0.956493 0.407819
O O14 0.558855 0.928482 0.973183
#
# Coordination Sequence:
#
# PCOD9344067 Si02
#       7
#     4   4   4   4   4   4   2
#     4  12  27  48  70 114 152 196 262 325 393 452
#     4  10  22  43  69 112 148 190 260 319 378 454
#     4  11  24  49  73 106 153 195 261 317 376 472
#     4  11  22  48  74 109 143 204 258 305 389 465
#     4  11  24  47  77 104 150 205 253 313 389 463
#     4  11  24  45  74  98 154 194 249 316 377 461
#     4  10  24  42  76 110 150 200 252 328 384 448
#
# _framework density 21.363667
#
# number of rings (size 3 to 8) (size 9 to 14) (size 15 to 20)
#    0.462    0.615    7.692    0.000    3.231    3.077 
#    5.538    0.000    0.000    0.000    0.000    0.000 
#    0.000    0.000    0.000    0.000    0.000    0.000 
#
# Total GULP energy -145038.769676 kJ/mol
# GULP energy per Si atom -5578.414218 kJ/mol
# Density = 2.131504 g / cm^3
# Si number density = 21.363667 Si / 1000 Ang^3
#
#
#
# Elastic Constant Matrix: (Units=GPa)
#
#
# Indices 1 2 3 4 5 6 
#
# 1 154.4287 69.5245 65.4406 0.0000 0.0000 0.0000
# 2 69.5245 103.5110 38.0441 0.0000 0.0000 0.0000
# 3 65.4406 38.0441 77.6803 0.0000 0.0000 0.0000
# 4 0.0000 0.0000 0.0000 39.8088 0.0000 0.0000
# 5 0.0000 0.0000 0.0000 0.0000 39.0993 0.0000
# 6 0.0000 0.0000 0.0000 0.0000 0.0000 23.8278
#
#
#
# Elastic Compliance Matrix: (Units=1/GPa)
#
#
# Indices 1 2 3 4 5 6 
#
# 1 0.012084 -0.005335 -0.007567 0.000000 0.000000 0.000000
# 2 -0.005335 0.014137 -0.002429 0.000000 0.000000 0.000000
# 3 -0.007567 -0.002429 0.020438 0.000000 0.000000 0.000000
# 4 0.000000 0.000000 0.000000 0.025120 0.000000 0.000000
# 5 0.000000 0.000000 0.000000 0.000000 0.025576 0.000000
# 6 0.000000 0.000000 0.000000 0.000000 0.000000 0.041968
#
#
# Mechanical properties :
#
#
# Convention : Reuss Voigt Hill
#
# Bulk Modulus (GPa) = 62.51551 75.73760 69.12656
# Shear Modulus (GPa) = 28.51973 31.38791 29.95382
#
# Velocity S-wave (km/s) = 3.65768 3.83720 3.74851
# Velocity P-wave (km/s) = 6.86762 7.42702 7.15279
#
# Compressibility (1/GPa) = 0.01599603
#
# Stress axis : x y z
#
# Youngs Moduli (GPa) = 82.75372 70.73608 48.92926
#
# Poissons Ratio (x) = 0.37739 0.37025
# Poissons Ratio (y) = 0.44151 0.11885
# Poissons Ratio (z) = 0.62620 0.17182
#
# Static dielectric constant tensor:
#      x y z
#    x 1.701890 0.000000 0.000000 
#    y 0.000000 1.799220 0.000000 
#    z 0.000000 0.000000 1.854900 
# 
# From -- ./inp_files/3196.got.cif
#   From: 2010.05.17/outbox.cif.g08.bks.cpg/sg32_2_cif.got.tgz:3196.got - 2010.06.03 17:12:27.
