data_PCOD9344349
_publ_section_title
;
Structure prediction by ZEFSAII (Michael W. Deem and Ramdas Pophale) SiO2 
 PCOD9344349
Probable space group: P N A 21
;
_chemical_formula_sum "Si O2"
_cell_formula_units_Z 32
_cell_length_a 5.531131
_cell_length_b 9.228848
_cell_length_c 29.566661
_cell_angle_alpha 90.000000
_cell_angle_beta 90.000000
_cell_angle_gamma 90.000000
_cell_volume 1509.258810
_symmetry_space_group_name_H-M "P N A 21"
_symmetry_group_IT_number 33
_symmetry_cell_setting 'orthorhombic'
loop_
_space_group_symop_operation_xyz
x,y,z
-x,-y,1/2+z
1/2-x,1/2+y,1/2+z
1/2+x,1/2-y,z
loop_
_atom_site_type_symbol
_atom_site_label
_atom_site_fract_x
_atom_site_fract_y
_atom_site_fract_z
Si Si1 0.686527 0.423216 0.426320
Si Si2 0.226907 0.910953 0.068621
Si Si3 0.726848 0.922046 0.032322
Si Si4 0.346761 0.022833 0.259410
Si Si5 0.614742 0.244154 0.829319
Si Si6 0.686979 0.094431 0.391761
Si Si7 0.345670 0.438074 0.290758
Si Si8 0.743153 0.661607 0.173963
O O1 0.745361 0.438114 0.478854
O O2 0.661997 0.251635 0.415008
O O3 0.421164 0.482524 0.413633
O O4 0.921002 0.474192 0.397876
O O5 0.470584 0.982361 0.049440
O O6 0.218005 0.749137 0.046246
O O7 0.248215 0.891312 0.122242
O O8 0.970602 0.980663 0.055611
O O9 0.378882 0.891992 0.295704
O O10 0.619124 0.084057 0.257573
O O11 0.267648 0.962320 0.211198
O O12 0.115480 0.111863 0.277807
O O13 0.364749 0.248525 0.855570
O O14 0.619431 0.388039 0.797942
O O15 0.759570 0.116280 0.339769
O O16 0.484537 0.740612 0.180567
#
# Coordination Sequence:
#
# PCOD9344349 Si02
#       8
#     4   4   4   4   4   4   4   4
#     4  10  19  30  45  61  78 108 130 186 207 252
#     4  10  16  24  36  56  74 103 128 173 185 229
#     4  10  16  28  38  55  81  99 133 164 214 224
#     4  10  19  28  40  54  78 111 140 179 197 228
#     4   8  14  25  36  51  68  98 131 162 200 220
#     4  10  18  29  43  60  76  97 139 176 214 246
#     4  10  18  29  40  56  75 101 137 185 204 237
#     4  12  18  27  38  57  80 107 146 179 197 216
#
# _framework density 21.202459000000001
#
# number of rings (size 3 to 8) (size 9 to 14) (size 15 to 20)
#    0.000    2.000    2.500    7.500    0.000    0.000 
#    0.000    0.000    0.000    0.000    0.000    0.000 
#    0.000    0.000    0.000    0.000    0.000    0.000 
#
# Total GULP energy -178453.626968 kJ/mol
# GULP energy per Si atom -5576.675843 kJ/mol
# Density = 2.115420 g / cm^3
# Si number density = 21.202459 Si / 1000 Ang^3
#
#
#
# Elastic Constant Matrix: (Units=GPa)
#
#
# Indices 1 2 3 4 5 6 
#
# 1 205.6730 3.0179 -1.1995 0.0000 0.0000 0.0000
# 2 3.0179 38.2602 -1.7126 0.0000 0.0000 0.0000
# 3 -1.1995 -1.7126 73.9245 0.0000 0.0000 0.0000
# 4 0.0000 0.0000 0.0000 210.3562 0.0000 0.0000
# 5 0.0000 0.0000 0.0000 0.0000 34.8349 0.0000
# 6 0.0000 0.0000 0.0000 0.0000 0.0000 -85.9475
#
#
#
# Elastic Compliance Matrix: (Units=1/GPa)
#
#
# Indices 1 2 3 4 5 6 
#
# 1 0.004868 -0.000381 0.000070 0.000000 0.000000 0.000000
# 2 -0.000381 0.026194 0.000601 0.000000 0.000000 0.000000
# 3 0.000070 0.000601 0.013542 0.000000 0.000000 0.000000
# 4 0.000000 0.000000 0.000000 0.004754 0.000000 0.000000
# 5 0.000000 0.000000 0.000000 0.000000 0.028707 0.000000
# 6 0.000000 0.000000 0.000000 0.000000 0.000000 -0.011635
#
#
# Mechanical properties :
#
#
# Convention : Reuss Voigt Hill
#
# Bulk Modulus (GPa) = 22.13165 35.34104 28.73635
# Shear Modulus (GPa) = 61.79601 53.03217 57.41409
#
# Velocity S-wave (km/s) = 5.40453 5.00665 5.20939
# Velocity P-wave (km/s) = 7.02895 7.08002 7.05453
#
# Compressibility (1/GPa) = 0.04518415
#
# Stress axis : x y z
#
# Youngs Moduli (GPa) = 205.41963 38.17701 73.84228
#
# Poissons Ratio (x) = 0.01454 -0.00518
# Poissons Ratio (y) = 0.07823 -0.04435
# Poissons Ratio (z) = -0.01441 -0.02293
#
# Static dielectric constant tensor:
#      x y z
#    x 1.919910 0.000000 0.000000 
#    y 0.000000 -1.701400 0.000000 
#    z 0.000000 0.000000 1.711470 
# 
# From -- ./inp_files/9333.got.cif
#   From: 2010.05.17/outbox.cif.g08.bks.cpg/sg33_5_cif.got.tgz:9333.got - 2010.06.03 17:15:25.
