data_PCOD9344480
_publ_section_title
;
Structure prediction by ZEFSAII (Michael W. Deem and Ramdas Pophale) SiO2 
 PCOD9344480
Probable space group: P N A 21
;
_chemical_formula_sum "Si O2"
_cell_formula_units_Z 32
_cell_length_a 8.610179
_cell_length_b 9.327305
_cell_length_c 18.045772
_cell_angle_alpha 90.000000
_cell_angle_beta 90.000000
_cell_angle_gamma 90.000000
_cell_volume 1449.251720
_symmetry_space_group_name_H-M "P N A 21"
_symmetry_group_IT_number 33
_symmetry_cell_setting 'orthorhombic'
loop_
_space_group_symop_operation_xyz
x,y,z
-x,-y,1/2+z
1/2-x,1/2+y,1/2+z
1/2+x,1/2-y,z
loop_
_atom_site_type_symbol
_atom_site_label
_atom_site_fract_x
_atom_site_fract_y
_atom_site_fract_z
Si Si1 0.818538 0.694613 0.117150
Si Si2 0.010740 0.260064 0.175068
Si Si3 0.299382 0.593135 0.996426
Si Si4 0.932873 0.891046 0.516986
Si Si5 0.222691 0.055104 0.209061
Si Si6 0.148116 0.545630 0.139183
Si Si7 0.149267 0.679544 0.422602
Si Si8 0.847430 0.562552 0.360813
O O1 0.709756 0.568063 0.146968
O O2 0.778943 0.840441 0.162409
O O3 0.990442 0.636181 0.129538
O O4 0.791044 0.749372 0.033163
O O5 0.838438 0.320997 0.179494
O O6 0.064451 0.135719 0.230691
O O7 0.111400 0.404851 0.184181
O O8 0.047112 0.180892 0.097460
O O9 0.474977 0.539371 0.006493
O O10 0.226422 0.553242 0.918161
O O11 0.201047 0.499265 0.056524
O O12 0.760462 0.895307 0.483215
O O13 0.033030 0.783219 0.466364
O O14 0.306709 0.985332 0.278698
O O15 0.258773 0.786295 0.375347
O O16 0.031219 0.580700 0.376186
#
# Coordination Sequence:
#
# PCOD9344480 Si02
#       8
#     4   4   4   4   4   4   4   4
#     4   9  22  38  60  95 126 164 214 288 336 374
#     4  11  22  39  64  94 128 171 222 268 331 403
#     4   9  20  38  61  95 129 164 219 282 331 384
#     4  10  18  35  67  97 120 161 228 276 321 377
#     4  11  25  42  63  93 138 180 218 272 337 413
#     4   9  19  38  59  93 127 160 216 278 330 386
#     4   9  19  36  67  96 126 176 217 274 319 398
#     4  10  21  42  61  95 140 178 224 264 335 413
#
# _framework density 22.080359000000001
#
# number of rings (size 3 to 8) (size 9 to 14) (size 15 to 20)
#    0.750    1.500    0.000    3.750    1.750    3.000 
#    2.250    3.750    0.000    0.000    0.000    0.000 
#    0.000    0.000    0.000    0.000    0.000    0.000 
#
# Total GULP energy -178386.847146 kJ/mol
# GULP energy per Si atom -5574.588973 kJ/mol
# Density = 2.203010 g / cm^3
# Si number density = 22.080359 Si / 1000 Ang^3
#
#
#
# Elastic Constant Matrix: (Units=GPa)
#
#
# Indices 1 2 3 4 5 6 
#
# 1 85.9978 39.5144 20.8585 0.0000 0.0000 0.0000
# 2 39.5144 94.0209 36.3612 0.0000 0.0000 0.0000
# 3 20.8585 36.3612 57.5383 0.0000 0.0000 0.0000
# 4 0.0000 0.0000 0.0000 23.5836 0.0000 0.0000
# 5 0.0000 0.0000 0.0000 0.0000 19.2732 0.0000
# 6 0.0000 0.0000 0.0000 0.0000 0.0000 37.9740
#
#
#
# Elastic Compliance Matrix: (Units=1/GPa)
#
#
# Indices 1 2 3 4 5 6 
#
# 1 0.014561 -0.005397 -0.001868 0.000000 0.000000 0.000000
# 2 -0.005397 0.016077 -0.008203 0.000000 0.000000 0.000000
# 3 -0.001868 -0.008203 0.023241 0.000000 0.000000 0.000000
# 4 0.000000 0.000000 0.000000 0.042402 0.000000 0.000000
# 5 0.000000 0.000000 0.000000 0.000000 0.051885 0.000000
# 6 0.000000 0.000000 0.000000 0.000000 0.000000 0.026334
#
#
# Mechanical properties :
#
#
# Convention : Reuss Voigt Hill
#
# Bulk Modulus (GPa) = 43.58764 47.89169 45.73967
# Shear Modulus (GPa) = 23.46491 25.55435 24.50963
#
# Velocity S-wave (km/s) = 3.26345 3.40565 3.33531
# Velocity P-wave (km/s) = 5.82953 6.09930 5.96594
#
# Compressibility (1/GPa) = 0.02294228
#
# Stress axis : x y z
#
# Youngs Moduli (GPa) = 68.67557 62.20184 43.02790
#
# Poissons Ratio (x) = 0.33572 0.08037
# Poissons Ratio (y) = 0.37067 0.35296
# Poissons Ratio (z) = 0.12827 0.51024
#
# Static dielectric constant tensor:
#      x y z
#    x 1.871560 0.000000 0.000000 
#    y 0.000000 1.839000 0.000000 
#    z 0.000000 0.000000 1.832890 
# 
# From -- ./inp_files/8978.got.cif
#   From: 2010.05.17/outbox.cif.g08.bks.cpg/sg33_5_cif.got.tgz:8978.got - 2010.06.03 17:15:25.
