data_PCOD9344436
_publ_section_title
;
Structure prediction by ZEFSAII (Michael W. Deem and Ramdas Pophale) SiO2 
 PCOD9344436
Probable space group: P N A 21
;
_chemical_formula_sum "Si O2"
_cell_formula_units_Z 32
_cell_length_a 14.891054
_cell_length_b 9.621060
_cell_length_c 7.761486
_cell_angle_alpha 90.000000
_cell_angle_beta 90.000000
_cell_angle_gamma 90.000000
_cell_volume 1111.970434
_symmetry_space_group_name_H-M "P N A 21"
_symmetry_group_IT_number 33
_symmetry_cell_setting 'orthorhombic'
loop_
_space_group_symop_operation_xyz
x,y,z
-x,-y,1/2+z
1/2-x,1/2+y,1/2+z
1/2+x,1/2-y,z
loop_
_atom_site_type_symbol
_atom_site_label
_atom_site_fract_x
_atom_site_fract_y
_atom_site_fract_z
Si Si1 0.324510 0.234742 0.384700
Si Si2 0.362215 0.542427 0.660723
Si Si3 0.025104 0.313150 0.539173
Si Si4 0.334937 0.864167 0.740735
Si Si5 0.893080 0.287317 0.035716
Si Si6 0.966087 0.994910 0.005377
Si Si7 0.759988 0.241824 0.731875
Si Si8 0.414521 0.869886 0.396940
O O1 0.424202 0.219226 0.470549
O O2 0.265306 0.370448 0.320474
O O3 0.346417 0.154308 0.206683
O O4 0.260901 0.188350 0.544062
O O5 0.334512 0.700166 0.686648
O O6 0.427807 0.526157 0.499997
O O7 0.294648 0.415604 0.687788
O O8 0.435681 0.518463 0.809390
O O9 0.089449 0.373931 0.389603
O O10 0.052395 0.155202 0.583776
O O11 0.040310 0.404480 0.709679
O O12 0.362562 0.939196 0.562545
O O13 0.908111 0.123053 0.074309
O O14 0.830812 0.305569 0.867882
O O15 0.994544 0.327527 0.994832
O O16 0.666962 0.223634 0.826602
#
# Coordination Sequence:
#
# PCOD9344436 Si02
#       8
#     4   4   4   4   4   4   4   4
#     4  12  21  36  56  84 114 152 186 227 279 343
#     4  10  20  34  52  84 114 146 178 234 280 349
#     4  11  21  34  57  86 115 149 182 229 285 342
#     4  11  23  35  56  85 118 145 190 229 281 335
#     4  11  21  34  57  86 115 149 182 229 285 342
#     4  10  18  32  54  84 116 138 172 224 302 347
#     4  11  23  35  56  85 118 145 190 229 281 335
#     4  12  21  36  56  84 114 152 186 227 279 343
#
# _framework density 28.777740999999999
#
# number of rings (size 3 to 8) (size 9 to 14) (size 15 to 20)
#    0.000    1.000    7.500    1.500    0.000    0.000 
#    0.000    0.000    0.000    1.500    0.000    0.000 
#    0.000    0.000    0.000    0.000    0.000    0.000 
#
# Total GULP energy -178653.292678 kJ/mol
# GULP energy per Si atom -5582.915396 kJ/mol
# Density = 2.871224 g / cm^3
# Si number density = 28.777741 Si / 1000 Ang^3
#
#
#
# Elastic Constant Matrix: (Units=GPa)
#
#
# Indices 1 2 3 4 5 6 
#
# 1 192.4790 9.5119 67.6618 0.0000 0.0000 0.0000
# 2 9.5119 94.8711 20.4170 0.0000 0.0000 0.0000
# 3 67.6618 20.4170 212.9947 0.0000 0.0000 0.0000
# 4 0.0000 0.0000 0.0000 -0.1656 0.0000 0.0000
# 5 0.0000 0.0000 0.0000 0.0000 74.4122 0.0000
# 6 0.0000 0.0000 0.0000 0.0000 0.0000 27.9331
#
#
#
# Elastic Compliance Matrix: (Units=1/GPa)
#
#
# Indices 1 2 3 4 5 6 
#
# 1 0.005852 -0.000191 -0.001841 0.000000 0.000000 0.000000
# 2 -0.000191 0.010769 -0.000972 0.000000 0.000000 0.000000
# 3 -0.001841 -0.000972 0.005373 0.000000 0.000000 0.000000
# 4 0.000000 0.000000 0.000000 -6.039402 0.000000 0.000000
# 5 0.000000 0.000000 0.000000 0.000000 0.013439 0.000000
# 6 0.000000 0.000000 0.000000 0.000000 0.000000 0.035800
#
#
# Mechanical properties :
#
#
# Convention : Reuss Voigt Hill
#
# Bulk Modulus (GPa) = 62.54873 77.28069 69.91471
# Shear Modulus (GPa) = -0.83937 47.28623 23.22343
#
# Velocity S-wave (km/s) = -0.54065 4.05798 2.84384
# Velocity P-wave (km/s) = 4.62521 6.99063 5.92712
#
# Compressibility (1/GPa) = 0.01598753
#
# Stress axis : x y z
#
# Youngs Moduli (GPa) = 170.88641 92.86047 186.12183
#
# Poissons Ratio (x) = 0.01770 0.34259
# Poissons Ratio (y) = 0.03257 0.18086
# Poissons Ratio (z) = 0.31455 0.09023
#
# Static dielectric constant tensor:
#      x y z
#    x 2.274070 0.000000 0.000000 
#    y 0.000000 2.374730 0.000000 
#    z 0.000000 0.000000 2.312800 
# 
# From -- ./inp_files/4508.got.cif
#   From: 2010.05.17/outbox.cif.g08.bks.cpg/sg33_3_cif.got.tgz:4508.got - 2010.06.03 17:15:25.
