data_PCOD9344401
_publ_section_title
;
Structure prediction by ZEFSAII (Michael W. Deem and Ramdas Pophale) SiO2 
 PCOD9344401
Probable space group: P N A 21
;
_chemical_formula_sum "Si O2"
_cell_formula_units_Z 28
_cell_length_a 11.031088
_cell_length_b 15.172982
_cell_length_c 8.299375
_cell_angle_alpha 90.000000
_cell_angle_beta 90.000000
_cell_angle_gamma 90.000000
_cell_volume 1389.103738
_symmetry_space_group_name_H-M "P N A 21"
_symmetry_group_IT_number 33
_symmetry_cell_setting 'orthorhombic'
loop_
_space_group_symop_operation_xyz
x,y,z
-x,-y,1/2+z
1/2-x,1/2+y,1/2+z
1/2+x,1/2-y,z
loop_
_atom_site_type_symbol
_atom_site_label
_atom_site_fract_x
_atom_site_fract_y
_atom_site_fract_z
Si Si1 0.757959 0.898998 0.423570
Si Si2 0.751209 0.481763 0.422889
Si Si3 0.448220 0.534932 0.166416
Si Si4 0.588785 0.682138 0.970789
Si Si5 0.396189 0.635624 0.720287
Si Si6 0.309242 0.925409 0.101923
Si Si7 0.583635 0.869956 0.128248
O O1 0.869172 0.939955 0.320683
O O2 0.826205 0.837666 0.556670
O O3 0.659821 0.863353 0.295418
O O4 0.691992 0.978442 0.518185
O O5 0.643990 0.508785 0.541011
O O6 0.708639 0.387503 0.347808
O O7 0.768351 0.553092 0.284638
O O8 0.864438 0.454964 0.532559
O O9 0.549764 0.462594 0.193467
O O10 0.504891 0.622006 0.088006
O O11 0.510422 0.683955 0.803910
O O12 0.718565 0.633164 0.991750
O O13 0.604758 0.779205 0.036043
O O14 0.439885 0.882901 0.127312
#
# Coordination Sequence:
#
# PCOD9344401 Si02
#       7
#     4   4   4   4   4   4   4
#     4  10  20  38  66  90 122 167 218 257 314 383
#     4   9  20  36  62  86 120 161 211 247 304 385
#     4  10  17  36  64  95 114 156 212 264 302 369
#     4  11  23  37  63  94 126 161 212 272 328 359
#     4  10  18  37  64  89 118 159 212 264 298 377
#     4  11  21  40  63  88 125 169 212 249 315 401
#     4  11  25  38  62  90 133 165 203 267 333 380
#
# _framework density 20.156882
#
# number of rings (size 3 to 8) (size 9 to 14) (size 15 to 20)
#    0.000    1.714    4.286    1.714    6.000    0.000 
#    0.000    2.857    9.429    0.000    0.000    0.000 
#    0.000    0.000    0.000    0.000    0.000    0.000 
#
# Total GULP energy -155916.869464 kJ/mol
# GULP energy per Si atom -5568.459624 kJ/mol
# Density = 2.011100 g / cm^3
# Si number density = 20.156882 Si / 1000 Ang^3
#
#
#
# Elastic Constant Matrix: (Units=GPa)
#
#
# Indices 1 2 3 4 5 6 
#
# 1 128.3374 23.9344 48.3301 0.0000 0.0000 0.0000
# 2 23.9344 49.9391 11.2239 0.0000 0.0000 0.0000
# 3 48.3301 11.2239 100.7453 0.0000 0.0000 0.0000
# 4 0.0000 0.0000 0.0000 14.8267 0.0000 0.0000
# 5 0.0000 0.0000 0.0000 0.0000 29.4436 0.0000
# 6 0.0000 0.0000 0.0000 0.0000 0.0000 11.5788
#
#
#
# Elastic Compliance Matrix: (Units=1/GPa)
#
#
# Indices 1 2 3 4 5 6 
#
# 1 0.010195 -0.003884 -0.004458 0.000000 0.000000 0.000000
# 2 -0.003884 0.022019 -0.000590 0.000000 0.000000 0.000000
# 3 -0.004458 -0.000590 0.012130 0.000000 0.000000 0.000000
# 4 0.000000 0.000000 0.000000 0.067446 0.000000 0.000000
# 5 0.000000 0.000000 0.000000 0.000000 0.033963 0.000000
# 6 0.000000 0.000000 0.000000 0.000000 0.000000 0.086365
#
#
# Mechanical properties :
#
#
# Convention : Reuss Voigt Hill
#
# Bulk Modulus (GPa) = 37.76442 49.55539 43.65991
# Shear Modulus (GPa) = 19.31925 24.20537 21.76231
#
# Velocity S-wave (km/s) = 3.09923 3.46909 3.28936
# Velocity P-wave (km/s) = 5.61987 6.37842 6.01112
#
# Compressibility (1/GPa) = 0.02647995
#
# Stress axis : x y z
#
# Youngs Moduli (GPa) = 98.08479 45.41619 82.43742
#
# Poissons Ratio (x) = 0.17641 0.36752
# Poissons Ratio (y) = 0.38099 0.04861
# Poissons Ratio (z) = 0.43728 0.02678
#
# Static dielectric constant tensor:
#      x y z
#    x 1.830400 0.000000 0.000000 
#    y 0.000000 1.671820 0.000000 
#    z 0.000000 0.000000 1.792440 
# 
# From -- ./inp_files/4031.got.cif
#   From: 2010.05.17/outbox.cif.g08.bks.cpg/sg33_3_cif.got.tgz:4031.got - 2010.06.03 17:15:25.
