data_PCOD9344475
_publ_section_title
;
Structure prediction by ZEFSAII (Michael W. Deem and Ramdas Pophale) SiO2 
 PCOD9344475
Probable space group: P N A 21
;
_chemical_formula_sum "Si O2"
_cell_formula_units_Z 32
_cell_length_a 5.468001
_cell_length_b 7.726077
_cell_length_c 27.216220
_cell_angle_alpha 90.000000
_cell_angle_beta 90.000000
_cell_angle_gamma 90.000000
_cell_volume 1149.781785
_symmetry_space_group_name_H-M "P N A 21"
_symmetry_group_IT_number 33
_symmetry_cell_setting 'orthorhombic'
loop_
_space_group_symop_operation_xyz
x,y,z
-x,-y,1/2+z
1/2-x,1/2+y,1/2+z
1/2+x,1/2-y,z
loop_
_atom_site_type_symbol
_atom_site_label
_atom_site_fract_x
_atom_site_fract_y
_atom_site_fract_z
Si Si1 0.672969 0.271780 0.274300
Si Si2 0.660913 0.642571 0.574225
Si Si3 0.179692 0.189086 0.601745
Si Si4 0.674639 0.153522 0.171192
Si Si5 0.163822 0.337715 0.501639
Si Si6 0.796404 0.152188 0.763825
Si Si7 0.787667 0.564939 0.378866
Si Si8 0.713162 0.450198 0.917620
O O1 0.422595 0.252074 0.301932
O O2 0.681504 0.133521 0.229307
O O3 0.677713 0.455082 0.246102
O O4 0.405970 0.744007 0.569416
O O5 0.651657 0.453363 0.552922
O O6 0.725099 0.527707 0.628449
O O7 0.421437 0.268064 0.629173
O O8 0.154413 0.352748 0.560506
O O9 0.395362 0.207218 0.160103
O O10 0.402117 0.232042 0.483850
O O11 0.209634 0.518578 0.473422
O O12 0.541786 0.244071 0.751015
O O13 0.777630 0.117030 0.822729
O O14 0.549031 0.474683 0.401075
O O15 0.815477 0.746693 0.407258
O O16 0.057963 0.486798 0.384428
#
# Coordination Sequence:
#
# PCOD9344475 Si02
#       8
#     4   4   4   4   4   4   4   4
#     4  10  21  38  59  86 125 163 198 248 298 363
#     4  10  19  35  65  92 116 162 205 240 292 362
#     4  10  21  38  62  86 130 154 195 251 309 353
#     4   8  16  32  57  82 113 155 197 237 279 345
#     4  10  21  37  58  77 118 155 186 236 308 346
#     4  12  21  38  62  88 122 159 201 258 304 353
#     4  10  19  35  59  78 110 142 202 237 289 345
#     4  10  18  35  58  79 104 154 188 239 285 355
#
# _framework density 27.831371000000001
#
# number of rings (size 3 to 8) (size 9 to 14) (size 15 to 20)
#    0.000    2.000    2.500    2.250    0.000    0.000 
#    0.000    3.750   66.000   40.500    0.000    0.000 
#    0.000    0.000    0.000    0.000    0.000    0.000 
#
# Total GULP energy -178240.880480 kJ/mol
# GULP energy per Si atom -5570.027515 kJ/mol
# Density = 2.776803 g / cm^3
# Si number density = 27.831371 Si / 1000 Ang^3
#
#
#
# Elastic Constant Matrix: (Units=GPa)
#
#
# Indices 1 2 3 4 5 6 
#
# 1 328.2961 78.1217 -2.3330 0.0000 0.0000 0.0000
# 2 78.1217 111.7741 6.4070 0.0000 0.0000 0.0000
# 3 -2.3330 6.4070 49.4549 0.0000 0.0000 0.0000
# 4 0.0000 0.0000 0.0000 36.8566 0.0000 0.0000
# 5 0.0000 0.0000 0.0000 0.0000 18.8902 0.0000
# 6 0.0000 0.0000 0.0000 0.0000 0.0000 52.2319
#
#
#
# Elastic Compliance Matrix: (Units=1/GPa)
#
#
# Indices 1 2 3 4 5 6 
#
# 1 0.003666 -0.002592 0.000509 0.000000 0.000000 0.000000
# 2 -0.002592 0.010846 -0.001527 0.000000 0.000000 0.000000
# 3 0.000509 -0.001527 0.020442 0.000000 0.000000 0.000000
# 4 0.000000 0.000000 0.000000 0.027132 0.000000 0.000000
# 5 0.000000 0.000000 0.000000 0.000000 0.052938 0.000000
# 6 0.000000 0.000000 0.000000 0.000000 0.000000 0.019145
#
#
# Mechanical properties :
#
#
# Convention : Reuss Voigt Hill
#
# Bulk Modulus (GPa) = 36.05731 72.65741 54.35736
# Shear Modulus (GPa) = 33.19293 48.75103 40.97198
#
# Velocity S-wave (km/s) = 3.45722 4.18982 3.84102
# Velocity P-wave (km/s) = 5.37775 7.04053 6.26456
#
# Compressibility (1/GPa) = 0.02773363
#
# Stress axis : x y z
#
# Youngs Moduli (GPa) = 272.74981 92.20374 48.91819
#
# Poissons Ratio (x) = 0.23896 -0.02489
# Poissons Ratio (y) = 0.70688 0.07471
# Poissons Ratio (z) = -0.13875 0.14083
#
# Static dielectric constant tensor:
#      x y z
#    x 2.439920 0.000000 0.000000 
#    y 0.000000 2.216500 0.000000 
#    z 0.000000 0.000000 2.280710 
# 
# From -- ./inp_files/9359.got.cif
#   From: 2010.05.17/outbox.cif.g08.bks.cpg/sg33_5_cif.got.tgz:9359.got - 2010.06.03 17:15:25.
