data_PCOD9344794
_publ_section_title
;
Structure prediction by ZEFSAII (Michael W. Deem and Ramdas Pophale) SiO2 
 PCOD9344794
Probable space group: P N A 21
;
_chemical_formula_sum "Si O2"
_cell_formula_units_Z 32
_cell_length_a 18.791887
_cell_length_b 17.275923
_cell_length_c 6.059440
_cell_angle_alpha 90.000000
_cell_angle_beta 90.000000
_cell_angle_gamma 90.000000
_cell_volume 1967.180186
_symmetry_space_group_name_H-M "P N A 21"
_symmetry_group_IT_number 33
_symmetry_cell_setting 'orthorhombic'
loop_
_space_group_symop_operation_xyz
x,y,z
-x,-y,1/2+z
1/2-x,1/2+y,1/2+z
1/2+x,1/2-y,z
loop_
_atom_site_type_symbol
_atom_site_label
_atom_site_fract_x
_atom_site_fract_y
_atom_site_fract_z
Si Si1 0.700745 0.563417 0.348460
Si Si2 0.257742 0.813678 0.628004
Si Si3 0.700744 0.436583 0.021165
Si Si4 0.352139 0.300079 0.524400
Si Si5 0.242259 0.686323 0.241620
Si Si6 0.416616 0.500001 0.184812
Si Si7 0.000000 0.869270 0.934811
Si Si8 0.852139 0.800078 0.845225
O O1 0.755258 0.602308 0.518728
O O2 0.731973 0.500000 0.184811
O O3 0.673446 0.633310 0.194007
O O4 0.635233 0.525218 0.483818
O O5 0.250000 0.750001 0.434813
O O6 0.326233 0.783446 0.759697
O O7 0.190482 0.811485 0.794778
O O8 0.673447 0.366690 0.175621
O O9 0.755257 0.397691 0.850895
O O10 0.635232 0.474781 0.885809
O O11 0.326232 0.216555 0.609927
O O12 0.435167 0.315197 0.505760
O O13 0.309520 0.688518 0.074848
O O14 0.466008 0.428084 0.255084
O O15 0.466008 0.571916 0.114538
O O16 0.935167 0.815197 0.863860
#
# Coordination Sequence:
#
# PCOD9344794 Si02
#       8
#     4   4   4   4   4   4   4   4
#     4  11  18  33  49  72 103 146 179 224 263 323
#     4   9  19  35  50  66  98 148 183 219 262 317
#     4  11  18  33  49  72 103 146 179 224 263 323
#     4  10  20  33  49  71 103 150 176 220 266 327
#     4   9  19  35  50  66  98 148 183 219 262 317
#     4  12  22  32  46  82 114 146 176 210 264 334
#     4  12  20  32  48  74 114 146 174 218 274 332
#     4  10  20  33  49  71 103 150 176 220 266 327
#
# _framework density 16.266940000000002
#
# number of rings (size 3 to 8) (size 9 to 14) (size 15 to 20)
#    0.000    1.500    5.000    1.500    0.000    0.000 
#    0.000    0.000    0.000    0.000    0.000    0.000 
#    0.000    0.000  578.000    0.000    0.000    0.000 
#
# Total GULP energy -178295.922691 kJ/mol
# GULP energy per Si atom -5571.747584 kJ/mol
# Density = 1.622992 g / cm^3
# Si number density = 16.266940 Si / 1000 Ang^3
#
#
#
# Elastic Constant Matrix: (Units=GPa)
#
#
# Indices 1 2 3 4 5 6 
#
# 1 80.5330 66.2314 29.5223 0.0000 0.0000 0.0000
# 2 66.2314 81.9374 38.6887 0.0000 0.0000 0.0000
# 3 29.5223 38.6887 82.8089 0.0000 0.0000 0.0000
# 4 0.0000 0.0000 0.0000 48.6091 0.0000 0.0000
# 5 0.0000 0.0000 0.0000 0.0000 13.2218 0.0000
# 6 0.0000 0.0000 0.0000 0.0000 0.0000 32.0006
#
#
#
# Elastic Compliance Matrix: (Units=1/GPa)
#
#
# Indices 1 2 3 4 5 6 
#
# 1 0.037106 -0.030469 0.001006 0.000000 0.000000 0.000000
# 2 -0.030469 0.040678 -0.008142 0.000000 0.000000 0.000000
# 3 0.001006 -0.008142 0.015521 0.000000 0.000000 0.000000
# 4 0.000000 0.000000 0.000000 0.020572 0.000000 0.000000
# 5 0.000000 0.000000 0.000000 0.000000 0.075632 0.000000
# 6 0.000000 0.000000 0.000000 0.000000 0.000000 0.031249
#
#
# Mechanical properties :
#
#
# Convention : Reuss Voigt Hill
#
# Bulk Modulus (GPa) = 55.26176 57.12935 56.19555
# Shear Modulus (GPa) = 16.55625 26.15544 21.35584
#
# Velocity S-wave (km/s) = 3.19374 4.01420 3.62724
# Velocity P-wave (km/s) = 6.90257 7.52869 7.22242
#
# Compressibility (1/GPa) = 0.01809570
#
# Stress axis : x y z
#
# Youngs Moduli (GPa) = 26.94953 24.58360 64.42754
#
# Poissons Ratio (x) = 0.74904 -0.06484
# Poissons Ratio (y) = 0.82112 0.52458
# Poissons Ratio (z) = -0.02712 0.20017
#
# Static dielectric constant tensor:
#      x y z
#    x 1.525080 0.000000 0.000000 
#    y 0.000000 1.564210 0.000000 
#    z 0.000000 0.000000 1.623840 
# 
# From -- ./inp_files/1526.got.cif
#   From: 2010.05.17/outbox.cif.g08.bks.cpg/sg33_1_cif.got.tgz:1526.got - 2010.06.03 17:15:25.
