data_PCOD9344829
_publ_section_title
;
Structure prediction by ZEFSAII (Michael W. Deem and Ramdas Pophale) SiO2 
 PCOD9344829
Probable space group: P N A 21
;
_chemical_formula_sum "Si O2"
_cell_formula_units_Z 24
_cell_length_a 15.607251
_cell_length_b 15.256207
_cell_length_c 5.057694
_cell_angle_alpha 90.000000
_cell_angle_beta 90.000000
_cell_angle_gamma 90.000000
_cell_volume 1204.274631
_symmetry_space_group_name_H-M "P N A 21"
_symmetry_group_IT_number 33
_symmetry_cell_setting 'orthorhombic'
loop_
_space_group_symop_operation_xyz
x,y,z
-x,-y,1/2+z
1/2-x,1/2+y,1/2+z
1/2+x,1/2-y,z
loop_
_atom_site_type_symbol
_atom_site_label
_atom_site_fract_x
_atom_site_fract_y
_atom_site_fract_z
Si Si1 0.889214 0.993877 0.916570
Si Si2 0.952395 0.696842 0.329712
Si Si3 0.150163 0.367081 0.330878
Si Si4 0.006669 0.130643 0.134257
Si Si5 0.163011 0.909702 0.899219
Si Si6 0.047956 0.530086 0.276608
O O1 0.843999 0.049775 0.688253
O O2 0.913229 0.898122 0.813628
O O3 0.838468 0.010262 0.186188
O O4 0.979795 0.043863 0.969487
O O5 0.906219 0.683780 0.049119
O O6 0.976699 0.792263 0.431339
O O7 0.035623 0.632787 0.329145
O O8 0.885473 0.661344 0.547818
O O9 0.250655 0.355339 0.366394
O O10 0.129698 0.471867 0.352074
O O11 0.922382 0.144428 0.316443
O O12 0.024037 0.512679 0.971216
#
# Coordination Sequence:
#
# PCOD9344829 Si02
#       6
#     4   4   4   4   4   4
#     4  10  20  35  59  79 108 154 188 232 283 352
#     4  10  21  33  60  81 112 149 193 234 282 352
#     4  10  20  36  56  83 112 151 185 242 292 345
#     4  10  21  36  60  82 112 148 202 226 285 349
#     4  10  20  35  57  80 114 150 187 237 300 328
#     4   8  16  33  52  77 104 142 187 219 276 342
#
# _framework density 19.929009000000001
#
# number of rings (size 3 to 8) (size 9 to 14) (size 15 to 20)
#    1.000    1.333    1.667    1.000    2.333    0.000 
#    0.000    1.667    3.667    0.000    0.000    0.000 
#    0.000    0.000    0.000    0.000    0.000    0.000 
#
# Total GULP energy -133616.121979 kJ/mol
# GULP energy per Si atom -5567.338416 kJ/mol
# Density = 1.988365 g / cm^3
# Si number density = 19.929009 Si / 1000 Ang^3
#
#
#
# Elastic Constant Matrix: (Units=GPa)
#
#
# Indices 1 2 3 4 5 6 
#
# 1 41.1623 -8.8330 -11.3869 0.0000 0.0000 0.0000
# 2 -8.8330 50.8888 -17.4406 0.0000 0.0000 0.0000
# 3 -11.3869 -17.4406 61.6569 0.0000 0.0000 0.0000
# 4 0.0000 0.0000 0.0000 24.7653 0.0000 0.0000
# 5 0.0000 0.0000 0.0000 0.0000 18.9170 0.0000
# 6 0.0000 0.0000 0.0000 0.0000 0.0000 10.6391
#
#
#
# Elastic Compliance Matrix: (Units=1/GPa)
#
#
# Indices 1 2 3 4 5 6 
#
# 1 0.027857 0.007307 0.007212 0.000000 0.000000 0.000000
# 2 0.007307 0.023677 0.008047 0.000000 0.000000 0.000000
# 3 0.007212 0.008047 0.019827 0.000000 0.000000 0.000000
# 4 0.000000 0.000000 0.000000 0.040379 0.000000 0.000000
# 5 0.000000 0.000000 0.000000 0.000000 0.052863 0.000000
# 6 0.000000 0.000000 0.000000 0.000000 0.000000 0.093993
#
#
# Mechanical properties :
#
#
# Convention : Reuss Voigt Hill
#
# Bulk Modulus (GPa) = 8.58438 8.70967 8.64703
# Shear Modulus (GPa) = 19.81805 23.62218 21.72012
#
# Velocity S-wave (km/s) = 3.15688 3.44658 3.30491
# Velocity P-wave (km/s) = 4.19580 4.49648 4.34874
#
# Compressibility (1/GPa) = 0.11649059
#
# Stress axis : x y z
#
# Youngs Moduli (GPa) = 35.89768 42.23553 50.43688
#
# Poissons Ratio (x) = -0.30861 -0.36373
# Poissons Ratio (y) = -0.26230 -0.40585
# Poissons Ratio (z) = -0.25888 -0.33986
#
# Static dielectric constant tensor:
#      x y z
#    x 1.721420 0.000000 0.000000 
#    y 0.000000 1.747820 0.000000 
#    z 0.000000 0.000000 1.731780 
# 
# From -- ./inp_files/1370.got.cif
#   From: 2010.05.17/outbox.cif.g08.bks.cpg/sg33_1_cif.got.tgz:1370.got - 2010.06.03 17:15:25.
