data_PCOD9344536
_publ_section_title
;
Structure prediction by ZEFSAII (Michael W. Deem and Ramdas Pophale) SiO2 
 PCOD9344536
Probable space group: P N A 21
;
_chemical_formula_sum "Si O2"
_cell_formula_units_Z 32
_cell_length_a 6.944702
_cell_length_b 13.901687
_cell_length_c 17.088116
_cell_angle_alpha 90.000000
_cell_angle_beta 90.000000
_cell_angle_gamma 90.000000
_cell_volume 1649.739239
_symmetry_space_group_name_H-M "P N A 21"
_symmetry_group_IT_number 33
_symmetry_cell_setting 'orthorhombic'
loop_
_space_group_symop_operation_xyz
x,y,z
-x,-y,1/2+z
1/2-x,1/2+y,1/2+z
1/2+x,1/2-y,z
loop_
_atom_site_type_symbol
_atom_site_label
_atom_site_fract_x
_atom_site_fract_y
_atom_site_fract_z
Si Si1 0.151364 0.883822 0.836940
Si Si2 0.477916 0.323971 0.830236
Si Si3 0.728370 0.323394 0.279545
Si Si4 0.620227 0.231205 0.114252
Si Si5 0.427101 0.946799 0.707854
Si Si6 0.320967 0.053711 0.903556
Si Si7 0.367220 0.233327 0.995480
Si Si8 0.097439 0.383725 0.774613
O O1 0.212929 0.772889 0.826178
O O2 0.237748 0.937429 0.760693
O O3 0.922921 0.882377 0.830861
O O4 0.244219 0.945071 0.907216
O O5 0.658031 0.387739 0.855066
O O6 0.326069 0.382994 0.779343
O O7 0.536716 0.227367 0.784287
O O8 0.378410 0.289710 0.912036
O O9 0.630046 0.288733 0.197530
O O10 0.908326 0.387546 0.254866
O O11 0.610382 0.116983 0.132116
O O12 0.370926 0.253722 0.094300
O O13 0.619635 0.245829 0.014823
O O14 0.503474 0.055321 0.704591
O O15 0.512082 0.063555 0.851692
O O16 0.351705 0.118333 0.979581
#
# Coordination Sequence:
#
# PCOD9344536 Si02
#       8
#     4   4   4   4   4   4   4   4
#     4  10  19  31  49  73 102 131 170 202 254 305
#     4  11  18  33  49  73 106 136 162 211 256 296
#     4  11  18  33  49  73 106 135 161 208 254 299
#     4  11  18  30  49  70 104 133 160 197 253 305
#     4  10  20  32  48  73 104 135 166 205 250 307
#     4  10  20  32  48  73 104 133 165 209 249 307
#     4  11  18  30  49  70 104 132 160 198 257 302
#     4  10  19  31  49  73 102 133 170 202 255 305
#
# _framework density 19.397005
#
# number of rings (size 3 to 8) (size 9 to 14) (size 15 to 20)
#    0.000    1.500    7.500    2.250    0.000    0.000 
#    0.000    0.000    0.000    0.000    0.000    1.750 
#    0.000    0.000    0.000    0.000    0.000    0.000 
#
# Total GULP energy -178151.888714 kJ/mol
# GULP energy per Si atom -5567.246522 kJ/mol
# Density = 1.935286 g / cm^3
# Si number density = 19.397005 Si / 1000 Ang^3
#
#
#
# Elastic Constant Matrix: (Units=GPa)
#
#
# Indices 1 2 3 4 5 6 
#
# 1 92.4252 25.3391 10.7737 0.0000 0.0000 0.0000
# 2 25.3391 91.1886 25.0021 0.0000 0.0000 0.0000
# 3 10.7737 25.0021 45.2669 0.0000 0.0000 0.0000
# 4 0.0000 0.0000 0.0000 31.3681 0.0000 0.0000
# 5 0.0000 0.0000 0.0000 0.0000 31.9119 0.0000
# 6 0.0000 0.0000 0.0000 0.0000 0.0000 27.2664
#
#
#
# Elastic Compliance Matrix: (Units=1/GPa)
#
#
# Indices 1 2 3 4 5 6 
#
# 1 0.011764 -0.002948 -0.001172 0.000000 0.000000 0.000000
# 2 -0.002948 0.013662 -0.006844 0.000000 0.000000 0.000000
# 3 -0.001172 -0.006844 0.026150 0.000000 0.000000 0.000000
# 4 0.000000 0.000000 0.000000 0.031880 0.000000 0.000000
# 5 0.000000 0.000000 0.000000 0.000000 0.031336 0.000000
# 6 0.000000 0.000000 0.000000 0.000000 0.000000 0.036675
#
#
# Mechanical properties :
#
#
# Convention : Reuss Voigt Hill
#
# Bulk Modulus (GPa) = 33.72805 39.01228 36.37017
# Shear Modulus (GPa) = 27.28093 29.29366 28.28730
#
# Velocity S-wave (km/s) = 3.75434 3.89037 3.82296
# Velocity P-wave (km/s) = 6.01826 6.35107 6.18690
#
# Compressibility (1/GPa) = 0.02964891
#
# Stress axis : x y z
#
# Youngs Moduli (GPa) = 85.00290 73.19606 38.24043
#
# Poissons Ratio (x) = 0.21576 0.04481
# Poissons Ratio (y) = 0.25056 0.26173
# Poissons Ratio (z) = 0.09961 0.50097
#
# Static dielectric constant tensor:
#      x y z
#    x 1.918020 0.000000 0.000000 
#    y 0.000000 1.708360 0.000000 
#    z 0.000000 0.000000 1.644910 
# 
# From -- ./inp_files/8564.got.cif
#   From: 2010.05.17/outbox.cif.g08.bks.cpg/sg33_5_cif.got.tgz:8564.got - 2010.06.03 17:15:25.
