data_PCOD9344477
_publ_section_title
;
Structure prediction by ZEFSAII (Michael W. Deem and Ramdas Pophale) SiO2 
 PCOD9344477
Probable space group: P N A 21
;
_chemical_formula_sum "Si O2"
_cell_formula_units_Z 32
_cell_length_a 5.289038
_cell_length_b 6.928591
_cell_length_c 37.883464
_cell_angle_alpha 90.000000
_cell_angle_beta 90.000000
_cell_angle_gamma 90.000000
_cell_volume 1388.261552
_symmetry_space_group_name_H-M "P N A 21"
_symmetry_group_IT_number 33
_symmetry_cell_setting 'orthorhombic'
loop_
_space_group_symop_operation_xyz
x,y,z
-x,-y,1/2+z
1/2-x,1/2+y,1/2+z
1/2+x,1/2-y,z
loop_
_atom_site_type_symbol
_atom_site_label
_atom_site_fract_x
_atom_site_fract_y
_atom_site_fract_z
Si Si1 0.539187 0.119445 0.784400
Si Si2 0.041857 0.370426 0.136924
Si Si3 0.380460 0.017545 0.062166
Si Si4 0.618535 0.542624 0.534064
Si Si5 0.601574 0.041678 0.355831
Si Si6 0.449713 0.877153 0.205358
Si Si7 0.397841 0.521356 0.884250
Si Si8 0.474887 0.380066 0.462108
O O1 0.308122 0.272462 0.787461
O O2 0.526151 0.035439 0.744736
O O3 0.497290 0.969270 0.815959
O O4 0.830051 0.201850 0.135104
O O5 0.979523 0.492640 0.101911
O O6 0.992822 0.478738 0.173319
O O7 0.345040 0.242220 0.049560
O O8 0.605048 0.948916 0.036810
O O9 0.096824 0.943569 0.057897
O O10 0.517152 0.526253 0.494438
O O11 0.639458 0.256064 0.371239
O O12 0.877694 0.948423 0.359287
O O13 0.384732 0.944316 0.379650
O O14 0.673000 0.718415 0.202696
O O15 0.491445 0.519886 0.924210
O O16 0.202571 0.277070 0.463941
#
# Coordination Sequence:
#
# PCOD9344477 Si02
#       8
#     4   4   4   4   4   4   4   4
#     4  10  21  39  62  83 122 161 189 237 298 359
#     4  12  21  40  70  92 126 168 210 263 311 367
#     4  10  19  40  60  80 112 153 193 245 293 343
#     4  10  20  35  61  79 109 151 195 232 303 355
#     4  10  18  35  59  81 108 153 192 233 292 346
#     4  10  23  43  62  95 133 169 204 254 320 376
#     4  10  19  35  57  80 114 146 189 251 297 331
#     4  12  21  37  57  82 114 155 186 245 308 357
#
# _framework density 23.050408999999998
#
# number of rings (size 3 to 8) (size 9 to 14) (size 15 to 20)
#    0.000    1.500    5.000    2.250    0.000    0.000 
#    4.500    3.750   16.500    0.000    0.000    0.000 
#    0.000    0.000    0.000    0.000    0.000    0.000 
#
# Total GULP energy -178715.179044 kJ/mol
# GULP energy per Si atom -5584.849345 kJ/mol
# Density = 2.299795 g / cm^3
# Si number density = 23.050409 Si / 1000 Ang^3
#
#
#
# Elastic Constant Matrix: (Units=GPa)
#
#
# Indices 1 2 3 4 5 6 
#
# 1 135.9162 -22.4019 -19.7857 0.0000 0.0000 0.0000
# 2 -22.4019 41.3292 -3.6492 0.0000 0.0000 0.0000
# 3 -19.7857 -3.6492 143.5253 0.0000 0.0000 0.0000
# 4 0.0000 0.0000 0.0000 40.7735 0.0000 0.0000
# 5 0.0000 0.0000 0.0000 0.0000 39.9532 0.0000
# 6 0.0000 0.0000 0.0000 0.0000 0.0000 4.8572
#
#
#
# Elastic Compliance Matrix: (Units=1/GPa)
#
#
# Indices 1 2 3 4 5 6 
#
# 1 0.008301 0.004611 0.001262 0.000000 0.000000 0.000000
# 2 0.004611 0.026812 0.001317 0.000000 0.000000 0.000000
# 3 0.001262 0.001317 0.007175 0.000000 0.000000 0.000000
# 4 0.000000 0.000000 0.000000 0.024526 0.000000 0.000000
# 5 0.000000 0.000000 0.000000 0.000000 0.025029 0.000000
# 6 0.000000 0.000000 0.000000 0.000000 0.000000 0.205882
#
#
# Mechanical properties :
#
#
# Convention : Reuss Voigt Hill
#
# Bulk Modulus (GPa) = 17.64694 25.45524 21.55109
# Shear Modulus (GPa) = 16.54350 41.55727 29.05039
#
# Velocity S-wave (km/s) = 2.68192 4.25065 3.55392
# Velocity P-wave (km/s) = 4.15484 5.92941 5.11960
#
# Compressibility (1/GPa) = 0.05666705
#
# Stress axis : x y z
#
# Youngs Moduli (GPa) = 120.46601 37.29738 139.37625
#
# Poissons Ratio (x) = -0.17197 -0.17583
# Poissons Ratio (y) = -0.55545 -0.18361
# Poissons Ratio (z) = -0.15198 -0.04913
#
# Static dielectric constant tensor:
#      x y z
#    x 1.945000 0.000000 0.000000 
#    y 0.000000 1.563060 0.000000 
#    z 0.000000 0.000000 1.838550 
# 
# From -- ./inp_files/9372.got.cif
#   From: 2010.05.17/outbox.cif.g08.bks.cpg/sg33_5_cif.got.tgz:9372.got - 2010.06.03 17:15:25.
