data_PCOD9344705
_publ_section_title
;
Structure prediction by ZEFSAII (Michael W. Deem and Ramdas Pophale) SiO2 
 PCOD9344705
Probable space group: P N A 21
;
_chemical_formula_sum "Si O2"
_cell_formula_units_Z 28
_cell_length_a 25.867643
_cell_length_b 5.842091
_cell_length_c 6.382113
_cell_angle_alpha 90.000000
_cell_angle_beta 90.000000
_cell_angle_gamma 90.000000
_cell_volume 964.472092
_symmetry_space_group_name_H-M "P N A 21"
_symmetry_group_IT_number 33
_symmetry_cell_setting 'orthorhombic'
loop_
_space_group_symop_operation_xyz
x,y,z
-x,-y,1/2+z
1/2-x,1/2+y,1/2+z
1/2+x,1/2-y,z
loop_
_atom_site_type_symbol
_atom_site_label
_atom_site_fract_x
_atom_site_fract_y
_atom_site_fract_z
Si Si1 0.053285 0.711051 0.670380
Si Si2 0.373032 0.782520 0.849648
Si Si3 0.828401 0.182512 0.256027
Si Si4 0.192327 0.903586 0.268789
Si Si5 0.023744 0.201328 0.584960
Si Si6 0.083861 0.683969 0.173895
Si Si7 0.805663 0.666614 0.247289
O O1 0.110006 0.786393 0.748250
O O2 0.036017 0.739978 0.024481
O O3 0.036930 0.441787 0.706993
O O4 0.018941 0.946186 0.680580
O O5 0.319588 0.670950 0.773898
O O6 0.426578 0.672559 0.932710
O O7 0.394424 0.928864 0.657676
O O8 0.349422 0.872572 0.069345
O O9 0.807455 0.417420 0.357620
O O10 0.816138 0.923410 0.332051
O O11 0.808217 0.172577 0.013778
O O12 0.136525 0.826437 0.179404
O O13 0.246067 0.829086 0.175789
O O14 0.938417 0.312788 0.911629
#
# Coordination Sequence:
#
# PCOD9344705 Si02
#       7
#     4   4   4   4   4   4   4
#     4  10  19  38  57  85 119 148 201 244 286 362
#     4  10  20  42  57  91 117 157 204 244 292 371
#     4  10  19  38  57  86 119 147 199 242 288 363
#     4  10  21  36  63  85 119 159 198 241 309 351
#     4  11  20  34  66  85 115 159 196 246 295 351
#     4  10  21  36  62  85 119 160 200 241 307 355
#     4  11  20  34  66  85 116 158 194 248 297 351
#
# _framework density 29.031428999999999
#
# number of rings (size 3 to 8) (size 9 to 14) (size 15 to 20)
#    0.000    1.714    8.571    0.000    4.000    0.000 
#    0.000    0.000   15.714    0.000    0.000    0.000 
#    0.000    0.000    0.000    0.000    0.000    0.000 
#
# Total GULP energy -156096.182599 kJ/mol
# GULP energy per Si atom -5574.863664 kJ/mol
# Density = 2.896535 g / cm^3
# Si number density = 29.031429 Si / 1000 Ang^3
#
#
#
# Elastic Constant Matrix: (Units=GPa)
#
#
# Indices 1 2 3 4 5 6 
#
# 1 239.3607 74.3061 31.6438 0.0000 0.0000 0.0000
# 2 74.3061 213.2531 32.2427 0.0000 0.0000 0.0000
# 3 31.6438 32.2427 50.0119 0.0000 0.0000 0.0000
# 4 0.0000 0.0000 0.0000 42.3886 0.0000 0.0000
# 5 0.0000 0.0000 0.0000 0.0000 41.7794 0.0000
# 6 0.0000 0.0000 0.0000 0.0000 0.0000 61.0496
#
#
#
# Elastic Compliance Matrix: (Units=1/GPa)
#
#
# Indices 1 2 3 4 5 6 
#
# 1 0.004896 -0.001371 -0.002214 0.000000 0.000000 0.000000
# 2 -0.001371 0.005580 -0.002730 0.000000 0.000000 0.000000
# 3 -0.002214 -0.002730 0.023156 0.000000 0.000000 0.000000
# 4 0.000000 0.000000 0.000000 0.023591 0.000000 0.000000
# 5 0.000000 0.000000 0.000000 0.000000 0.023935 0.000000
# 6 0.000000 0.000000 0.000000 0.000000 0.000000 0.016380
#
#
# Mechanical properties :
#
#
# Convention : Reuss Voigt Hill
#
# Bulk Modulus (GPa) = 47.61411 86.55676 67.08544
# Shear Modulus (GPa) = 42.67353 53.33907 48.00630
#
# Velocity S-wave (km/s) = 3.83810 4.29101 4.07086
# Velocity P-wave (km/s) = 6.00648 7.37766 6.72710
#
# Compressibility (1/GPa) = 0.02100218
#
# Stress axis : x y z
#
# Youngs Moduli (GPa) = 204.24122 179.21831 43.18573
#
# Poissons Ratio (x) = 0.24576 0.09561
# Poissons Ratio (y) = 0.28008 0.11788
# Poissons Ratio (z) = 0.45216 0.48920
#
# Static dielectric constant tensor:
#      x y z
#    x 2.118180 0.000000 0.000000 
#    y 0.000000 2.473930 0.000000 
#    z 0.000000 0.000000 2.648190 
# 
# From -- ./inp_files/5166.got.cif
#   From: 2010.05.17/outbox.cif.g08.bks.cpg/sg33_3_cif.got.tgz:5166.got - 2010.06.03 17:15:25.
