data_PCOD9344850
_publ_section_title
;
Structure prediction by ZEFSAII (Michael W. Deem and Ramdas Pophale) SiO2 
 PCOD9344850
Probable space group: P N A 21
;
_chemical_formula_sum "Si O2"
_cell_formula_units_Z 32
_cell_length_a 13.006964
_cell_length_b 15.867606
_cell_length_c 8.326633
_cell_angle_alpha 90.000000
_cell_angle_beta 90.000000
_cell_angle_gamma 90.000000
_cell_volume 1718.528622
_symmetry_space_group_name_H-M "P N A 21"
_symmetry_group_IT_number 33
_symmetry_cell_setting 'orthorhombic'
loop_
_space_group_symop_operation_xyz
x,y,z
-x,-y,1/2+z
1/2-x,1/2+y,1/2+z
1/2+x,1/2-y,z
loop_
_atom_site_type_symbol
_atom_site_label
_atom_site_fract_x
_atom_site_fract_y
_atom_site_fract_z
Si Si1 0.319053 0.265592 0.300800
Si Si2 0.614399 0.486842 0.492805
Si Si3 0.286846 0.651205 0.561764
Si Si4 0.993035 0.884945 0.710988
Si Si5 0.419410 0.104116 0.466522
Si Si6 0.716964 0.934874 0.247743
Si Si7 0.837889 0.604402 0.945072
Si Si8 0.283618 0.985529 0.261928
O O1 0.275659 0.227916 0.135623
O O2 0.413012 0.327060 0.263587
O O3 0.359446 0.186297 0.402934
O O4 0.228015 0.316014 0.388197
O O5 0.556550 0.423671 0.372737
O O6 0.535999 0.540867 0.597501
O O7 0.693208 0.442901 0.615446
O O8 0.690367 0.540993 0.378049
O O9 0.406174 0.662286 0.606789
O O10 0.255669 0.630516 0.381099
O O11 0.255634 0.566897 0.661386
O O12 0.385411 0.090573 0.650768
O O13 0.539689 0.114821 0.434530
O O14 0.376182 0.022658 0.369394
O O15 0.697464 0.024511 0.335676
O O16 0.813693 0.582094 0.129987
#
# Coordination Sequence:
#
# PCOD9344850 Si02
#       8
#     4   4   4   4   4   4   4   4
#     4  11  23  39  57  89 124 162 195 251 308 367
#     4  10  20  35  61  92 113 151 204 255 295 360
#     4   9  20  39  58  82 122 155 190 251 310 350
#     4  11  21  37  63  86 120 158 201 243 311 363
#     4  10  21  38  60  88 123 160 199 248 317 357
#     4  10  20  40  62  91 117 155 210 257 293 371
#     4  11  20  38  64  86 118 163 206 248 299 368
#     4   8  19  36  59  86 117 150 201 251 291 360
#
# _framework density 18.62058
#
# number of rings (size 3 to 8) (size 9 to 14) (size 15 to 20)
#    0.000    2.000    1.250    3.000    3.500    0.000 
#    2.250    1.250    0.000    0.000    0.000    0.000 
#    0.000    0.000    0.000    0.000    0.000    0.000 
#
# Total GULP energy -178546.347850 kJ/mol
# GULP energy per Si atom -5579.573370 kJ/mol
# Density = 1.857820 g / cm^3
# Si number density = 18.620580 Si / 1000 Ang^3
#
#
#
# Elastic Constant Matrix: (Units=GPa)
#
#
# Indices 1 2 3 4 5 6 
#
# 1 117.7820 34.7316 54.5264 0.0000 0.0000 0.0000
# 2 34.7316 60.3742 43.4943 0.0000 0.0000 0.0000
# 3 54.5264 43.4943 128.5387 0.0000 0.0000 0.0000
# 4 0.0000 0.0000 0.0000 19.3686 0.0000 0.0000
# 5 0.0000 0.0000 0.0000 0.0000 36.1207 0.0000
# 6 0.0000 0.0000 0.0000 0.0000 0.0000 29.1634
#
#
#
# Elastic Compliance Matrix: (Units=1/GPa)
#
#
# Indices 1 2 3 4 5 6 
#
# 1 0.011255 -0.004014 -0.003416 0.000000 0.000000 0.000000
# 2 -0.004014 0.023334 -0.006193 0.000000 0.000000 0.000000
# 3 -0.003416 -0.006193 0.011325 0.000000 0.000000 0.000000
# 4 0.000000 0.000000 0.000000 0.051630 0.000000 0.000000
# 5 0.000000 0.000000 0.000000 0.000000 0.027685 0.000000
# 6 0.000000 0.000000 0.000000 0.000000 0.000000 0.034290
#
#
# Mechanical properties :
#
#
# Convention : Reuss Voigt Hill
#
# Bulk Modulus (GPa) = 53.56873 63.57774 58.57323
# Shear Modulus (GPa) = 25.90849 28.52672 27.21760
#
# Velocity S-wave (km/s) = 3.73418 3.91832 3.82736
# Velocity P-wave (km/s) = 6.88645 7.39520 7.14535
#
# Compressibility (1/GPa) = 0.01866761
#
# Stress axis : x y z
#
# Youngs Moduli (GPa) = 88.84592 42.85630 88.30357
#
# Poissons Ratio (x) = 0.17201 0.30169
# Poissons Ratio (y) = 0.35660 0.54686
# Poissons Ratio (z) = 0.30354 0.26541
#
# Static dielectric constant tensor:
#      x y z
#    x 1.661170 0.000000 0.000000 
#    y 0.000000 1.627150 0.000000 
#    z 0.000000 0.000000 1.641660 
# 
# From -- ./inp_files/3969.got.cif
#   From: 2010.05.17/outbox.cif.g08.bks.cpg/sg33_2_cif.got.tgz:3969.got - 2010.06.03 17:15:25.
