data_PCOD9344576
_publ_section_title
;
Structure prediction by ZEFSAII (Michael W. Deem and Ramdas Pophale) SiO2 
 PCOD9344576
Probable space group: P N A 21
;
_chemical_formula_sum "Si O2"
_cell_formula_units_Z 32
_cell_length_a 19.922051
_cell_length_b 12.764231
_cell_length_c 4.877274
_cell_angle_alpha 90.000000
_cell_angle_beta 90.000000
_cell_angle_gamma 90.000000
_cell_volume 1240.240352
_symmetry_space_group_name_H-M "P N A 21"
_symmetry_group_IT_number 33
_symmetry_cell_setting 'orthorhombic'
loop_
_space_group_symop_operation_xyz
x,y,z
-x,-y,1/2+z
1/2-x,1/2+y,1/2+z
1/2+x,1/2-y,z
loop_
_atom_site_type_symbol
_atom_site_label
_atom_site_fract_x
_atom_site_fract_y
_atom_site_fract_z
Si Si1 0.425387 0.294203 0.479030
Si Si2 0.720042 0.303206 0.640034
Si Si3 0.194894 0.743574 0.630855
Si Si4 0.770420 0.026339 0.197194
Si Si5 0.012935 0.236738 0.981664
Si Si6 0.816338 0.570263 0.213745
Si Si7 0.037643 0.460309 0.745785
Si Si8 0.545234 0.483337 0.855490
O O1 0.369569 0.226980 0.322212
O O2 0.445636 0.273763 0.791031
O O3 0.409521 0.419055 0.449997
O O4 0.491837 0.274816 0.296194
O O5 0.743079 0.285291 0.329063
O O6 0.689623 0.418780 0.665375
O O7 0.681630 0.197267 0.723078
O O8 0.785671 0.306056 0.841528
O O9 0.195368 0.868718 0.585775
O O10 0.742718 0.043754 0.501093
O O11 0.704848 0.021863 0.002630
O O12 0.039854 0.349018 0.899884
O O13 0.059644 0.138023 0.910607
O O14 0.887674 0.522369 0.133786
O O15 0.988016 0.463323 0.486312
O O16 0.521985 0.499423 0.544004
#
# Coordination Sequence:
#
# PCOD9344576 Si02
#       8
#     4   4   4   4   4   4   4   4
#     4  10  19  34  56  83 112 138 176 233 283 329
#     4  10  21  38  59  83 111 145 182 225 282 337
#     4  10  21  34  55  87 111 137 185 228 273 343
#     4  10  21  39  61  84 114 150 186 233 291 337
#     4  10  21  36  54  78 110 148 187 225 272 327
#     4  10  23  41  59  85 118 148 190 241 277 331
#     4  12  26  41  58  83 115 156 201 233 271 331
#     4   8  16  31  50  73 103 138 175 222 279 331
#
# _framework density 25.801452000000001
#
# number of rings (size 3 to 8) (size 9 to 14) (size 15 to 20)
#    0.000    2.000    0.000    3.000    0.000    7.000 
#    0.000    0.000    0.000   15.000    0.000    0.000 
#    0.000    0.000    0.000    0.000    0.000    0.000 
#
# Total GULP energy -178916.539852 kJ/mol
# GULP energy per Si atom -5591.141870 kJ/mol
# Density = 2.574273 g / cm^3
# Si number density = 25.801452 Si / 1000 Ang^3
#
#
#
# Elastic Constant Matrix: (Units=GPa)
#
#
# Indices 1 2 3 4 5 6 
#
# 1 30.7899 -10.6743 -7.1563 0.0000 0.0000 0.0000
# 2 -10.6743 152.1508 6.4930 0.0000 0.0000 0.0000
# 3 -7.1563 6.4930 118.7199 0.0000 0.0000 0.0000
# 4 0.0000 0.0000 0.0000 29.4575 0.0000 0.0000
# 5 0.0000 0.0000 0.0000 0.0000 17.1882 0.0000
# 6 0.0000 0.0000 0.0000 0.0000 0.0000 6.6013
#
#
#
# Elastic Compliance Matrix: (Units=1/GPa)
#
#
# Indices 1 2 3 4 5 6 
#
# 1 0.033713 0.002284 0.001907 0.000000 0.000000 0.000000
# 2 0.002284 0.006743 -0.000231 0.000000 0.000000 0.000000
# 3 0.001907 -0.000231 0.008551 0.000000 0.000000 0.000000
# 4 0.000000 0.000000 0.000000 0.033947 0.000000 0.000000
# 5 0.000000 0.000000 0.000000 0.000000 0.058179 0.000000
# 6 0.000000 0.000000 0.000000 0.000000 0.000000 0.151486
#
#
# Mechanical properties :
#
#
# Convention : Reuss Voigt Hill
#
# Bulk Modulus (GPa) = 17.56653 30.99839 24.28246
# Shear Modulus (GPa) = 16.46499 31.51594 23.99046
#
# Velocity S-wave (km/s) = 2.52889 3.49876 3.05259
# Velocity P-wave (km/s) = 3.91793 5.32560 4.67505
#
# Compressibility (1/GPa) = 0.05692644
#
# Stress axis : x y z
#
# Youngs Moduli (GPa) = 29.66198 148.31271 116.94816
#
# Poissons Ratio (x) = -0.33871 -0.22305
# Poissons Ratio (y) = -0.06774 0.02703
# Poissons Ratio (z) = -0.05657 0.03427
#
# Static dielectric constant tensor:
#      x y z
#    x 2.113220 0.000000 0.000000 
#    y 0.000000 2.071560 0.000000 
#    z 0.000000 0.000000 1.906000 
# 
# From -- ./inp_files/2083.got.cif
#   From: 2010.05.17/outbox.cif.g08.bks.cpg/sg33_2_cif.got.tgz:2083.got - 2010.06.03 17:15:25.
