data_PCOD9344701
_publ_section_title
;
Structure prediction by ZEFSAII (Michael W. Deem and Ramdas Pophale) SiO2 
 PCOD9344701
Probable space group: P N A 21
;
_chemical_formula_sum "Si O2"
_cell_formula_units_Z 16
_cell_length_a 5.342087
_cell_length_b 10.761834
_cell_length_c 9.111945
_cell_angle_alpha 90.000000
_cell_angle_beta 90.000000
_cell_angle_gamma 90.000000
_cell_volume 523.851673
_symmetry_space_group_name_H-M "P N A 21"
_symmetry_group_IT_number 33
_symmetry_cell_setting 'orthorhombic'
loop_
_space_group_symop_operation_xyz
x,y,z
-x,-y,1/2+z
1/2-x,1/2+y,1/2+z
1/2+x,1/2-y,z
loop_
_atom_site_type_symbol
_atom_site_label
_atom_site_fract_x
_atom_site_fract_y
_atom_site_fract_z
Si Si1 0.379209 0.539437 0.760410
Si Si2 0.102839 0.360739 0.118820
Si Si3 0.702006 0.721183 0.106556
Si Si4 0.231996 0.124199 0.909256
O O1 0.640953 0.597177 0.695787
O O2 0.304740 0.414860 0.671593
O O3 0.504706 0.472310 0.901227
O O4 0.128006 0.622331 0.738150
O O5 0.162718 0.236636 0.020294
O O6 0.977587 0.436111 0.981355
O O7 0.450344 0.747570 0.020996
O O8 0.711730 0.814292 0.250424
#
# Coordination Sequence:
#
# PCOD9344701 Si02
#       4
#     4   4   4   4
#     4  11  25  37  67 121 137 187 275 286 370 485
#     4  12  25  39  74 111 139 207 245 298 399 442
#     4  10  19  37  67  92 146 184 219 318 356 401
#     4  11  23  47  70 106 158 184 251 324 361 446
#
# _framework density 30.542995999999999
#
# number of rings (size 3 to 8) (size 9 to 14) (size 15 to 20)
#    0.000    1.000    5.000    4.500    0.000    2.000 
#    0.000    0.000    0.000    0.000  130.000    0.000 
#    0.000    0.000    0.000    0.000    0.000    0.000 
#
# Total GULP energy -89289.664066 kJ/mol
# GULP energy per Si atom -5580.604004 kJ/mol
# Density = 3.047348 g / cm^3
# Si number density = 30.542996 Si / 1000 Ang^3
#
#
#
# Elastic Constant Matrix: (Units=GPa)
#
#
# Indices 1 2 3 4 5 6 
#
# 1 321.7976 55.6291 50.5581 0.0000 0.0000 0.0000
# 2 55.6291 109.6960 50.0825 0.0000 0.0000 0.0000
# 3 50.5581 50.0825 108.6382 0.0000 0.0000 0.0000
# 4 0.0000 0.0000 0.0000 73.6757 0.0000 0.0000
# 5 0.0000 0.0000 0.0000 0.0000 52.9198 0.0000
# 6 0.0000 0.0000 0.0000 0.0000 0.0000 54.9715
#
#
#
# Elastic Compliance Matrix: (Units=1/GPa)
#
#
# Indices 1 2 3 4 5 6 
#
# 1 0.003494 -0.001304 -0.001025 0.000000 0.000000 0.000000
# 2 -0.001304 0.012033 -0.004940 0.000000 0.000000 0.000000
# 3 -0.001025 -0.004940 0.011959 0.000000 0.000000 0.000000
# 4 0.000000 0.000000 0.000000 0.013573 0.000000 0.000000
# 5 0.000000 0.000000 0.000000 0.000000 0.018897 0.000000
# 6 0.000000 0.000000 0.000000 0.000000 0.000000 0.018191
#
#
# Mechanical properties :
#
#
# Convention : Reuss Voigt Hill
#
# Bulk Modulus (GPa) = 77.23314 94.74123 85.98718
# Shear Modulus (GPa) = 51.54564 61.90421 56.72492
#
# Velocity S-wave (km/s) = 4.11255 4.50687 4.31422
# Velocity P-wave (km/s) = 6.92043 7.62685 7.28221
#
# Compressibility (1/GPa) = 0.01294781
#
# Stress axis : x y z
#
# Youngs Moduli (GPa) = 286.20651 83.10538 83.61645
#
# Poissons Ratio (x) = 0.10836 0.08570
# Poissons Ratio (y) = 0.37320 0.41310
# Poissons Ratio (z) = 0.29334 0.41057
#
# Static dielectric constant tensor:
#      x y z
#    x 2.750100 0.000000 0.000000 
#    y 0.000000 2.497580 0.000000 
#    z 0.000000 0.000000 2.498430 
# 
# From -- ./inp_files/5385.got.cif
#   From: 2010.05.17/outbox.cif.g08.bks.cpg/sg33_3_cif.got.tgz:5385.got - 2010.06.03 17:15:25.
