data_PCOD9344199
_publ_section_title
;
Structure prediction by ZEFSAII (Michael W. Deem and Ramdas Pophale) SiO2 
 PCOD9344199
Probable space group: P B A 2
;
_chemical_formula_sum "Si O2"
_cell_formula_units_Z 30
_cell_length_a 9.542380
_cell_length_b 25.253970
_cell_length_c 5.142717
_cell_angle_alpha 90.000000
_cell_angle_beta 90.000000
_cell_angle_gamma 90.000000
_cell_volume 1239.307259
_symmetry_space_group_name_H-M "P B A 2"
_symmetry_group_IT_number 32
_symmetry_cell_setting 'orthorhombic'
loop_
_space_group_symop_operation_xyz
x,y,z
-x,-y,z
1/2-x,1/2+y,z
1/2+x,1/2-y,z
loop_
_atom_site_type_symbol
_atom_site_label
_atom_site_fract_x
_atom_site_fract_y
_atom_site_fract_z
Si Si1 0.000000 0.500000 0.082561
Si Si2 0.375351 0.178898 0.596594
Si Si3 0.831623 0.676126 0.396252
Si Si4 0.209137 0.028890 0.250627
Si Si5 0.408314 0.338161 0.771117
Si Si6 0.328025 0.592977 0.729420
Si Si7 0.223246 0.422728 0.048609
Si Si8 0.193416 0.745668 0.087290
O O1 0.879811 0.472279 0.252434
O O2 0.906572 0.543472 0.932674
O O3 0.543719 0.180758 0.600837
O O4 0.316976 0.120356 0.643977
O O5 0.341023 0.204319 0.316181
O O6 0.303486 0.212229 0.824583
O O7 0.681413 0.684238 0.532848
O O8 0.834947 0.619237 0.257577
O O9 0.831626 0.722384 0.180604
O O10 0.146664 0.047129 0.520470
O O11 0.820757 0.032043 0.177051
O O12 0.171209 0.068521 0.016412
O O13 0.557461 0.361089 0.701479
O O14 0.314685 0.388248 0.857119
O O15 0.407714 0.294586 0.998613
#
# Coordination Sequence:
#
# PCOD9344199 Si02
#       8
#     2   4   4   4   4   4   4   4
#     4   8  20  44  74 108 144 190 246 312 356 434
#     4  12  28  45  82 102 151 190 259 301 369 451
#     4  11  26  47  76 111 143 200 253 301 385 443
#     4  10  25  46  73 107 144 194 242 303 371 434
#     4  11  27  47  72 106 154 192 243 310 379 443
#     4  12  28  47  72 111 149 192 246 307 372 446
#     4   9  23  44  74 104 148 192 244 308 367 451
#     4  11  27  48  71 111 143 197 241 316 370 443
#
# _framework density 24.207072
#
# number of rings (size 3 to 8) (size 9 to 14) (size 15 to 20)
#    0.800    0.533    1.333    1.600   14.933    1.067 
#    0.000    0.000    0.000    0.000    0.000    0.000 
#    0.000    0.000    0.000    0.000    0.000    0.000 
#
# Total GULP energy -167622.708406 kJ/mol
# GULP energy per Si atom -5587.423614 kJ/mol
# Density = 2.415198 g / cm^3
# Si number density = 24.207072 Si / 1000 Ang^3
#
#
#
# Elastic Constant Matrix: (Units=GPa)
#
#
# Indices 1 2 3 4 5 6 
#
# 1 76.3246 7.0412 23.4991 0.0000 0.0000 0.0000
# 2 7.0412 77.6482 12.1025 0.0000 0.0000 0.0000
# 3 23.4991 12.1025 92.3429 0.0000 0.0000 0.0000
# 4 0.0000 0.0000 0.0000 40.8465 0.0000 0.0000
# 5 0.0000 0.0000 0.0000 0.0000 14.4910 0.0000
# 6 0.0000 0.0000 0.0000 0.0000 0.0000 20.8843
#
#
#
# Elastic Compliance Matrix: (Units=1/GPa)
#
#
# Indices 1 2 3 4 5 6 
#
# 1 0.014258 -0.000743 -0.003531 0.000000 0.000000 0.000000
# 2 -0.000743 0.013186 -0.001539 0.000000 0.000000 0.000000
# 3 -0.003531 -0.001539 0.011929 0.000000 0.000000 0.000000
# 4 0.000000 0.000000 0.000000 0.024482 0.000000 0.000000
# 5 0.000000 0.000000 0.000000 0.000000 0.069008 0.000000
# 6 0.000000 0.000000 0.000000 0.000000 0.000000 0.047883
#
#
# Mechanical properties :
#
#
# Convention : Reuss Voigt Hill
#
# Bulk Modulus (GPa) = 36.03915 36.84458 36.44186
# Shear Modulus (GPa) = 24.79911 28.82258 26.81084
#
# Velocity S-wave (km/s) = 3.20419 3.45435 3.33162
# Velocity P-wave (km/s) = 5.34876 5.58244 5.46685
#
# Compressibility (1/GPa) = 0.02774760
#
# Stress axis : x y z
#
# Youngs Moduli (GPa) = 70.13839 75.83901 83.82614
#
# Poissons Ratio (x) = 0.05631 0.29598
# Poissons Ratio (y) = 0.05208 0.12902
# Poissons Ratio (z) = 0.24765 0.11673
#
# Static dielectric constant tensor:
#      x y z
#    x 1.996310 0.000000 0.000000 
#    y 0.000000 1.946600 0.000000 
#    z 0.000000 0.000000 1.930600 
# 
# From -- ./inp_files/611.got.cif
#   From: 2010.05.17/outbox.cif.g08.bks.cpg/sg32_1_cif.got.tgz:611.got - 2010.06.03 17:12:27.
