data_PCOD9344182
_publ_section_title
;
Structure prediction by ZEFSAII (Michael W. Deem and Ramdas Pophale) SiO2 
 PCOD9344182
Probable space group: P B A 2
;
_chemical_formula_sum "Si O2"
_cell_formula_units_Z 22
_cell_length_a 5.057697
_cell_length_b 17.253916
_cell_length_c 11.125053
_cell_angle_alpha 90.000000
_cell_angle_beta 90.000000
_cell_angle_gamma 90.000000
_cell_volume 970.828631
_symmetry_space_group_name_H-M "P B A 2"
_symmetry_group_IT_number 32
_symmetry_cell_setting 'orthorhombic'
loop_
_space_group_symop_operation_xyz
x,y,z
-x,-y,z
1/2-x,1/2+y,z
1/2+x,1/2-y,z
loop_
_atom_site_type_symbol
_atom_site_label
_atom_site_fract_x
_atom_site_fract_y
_atom_site_fract_z
Si Si1 0.500000 0.000000 0.785370
Si Si2 0.197322 0.199773 0.396310
Si Si3 0.612485 0.587320 0.932565
Si Si4 0.129467 0.800865 0.721739
Si Si5 0.635164 0.300462 0.110454
Si Si6 0.640200 0.427055 0.574623
O O1 0.597461 0.067298 0.877202
O O2 0.300135 0.040054 0.689674
O O3 0.912026 0.235048 0.425827
O O4 0.173675 0.187030 0.253384
O O5 0.275736 0.124801 0.473349
O O6 0.500000 0.500000 0.917948
O O7 0.543904 0.659054 0.846131
O O8 0.499325 0.622181 0.056122
O O9 0.422798 0.768983 0.707743
O O10 0.077838 0.870173 0.630172
O O11 0.927139 0.268700 0.076677
O O12 0.500000 0.500000 0.515367
#
# Coordination Sequence:
#
# PCOD9344182 Si02
#       6
#     2   4   4   4   4   4
#     4  12  24  44  64 106 156 190 234 296 362 442
#     4  10  24  47  73 101 135 181 241 298 354 423
#     4  12  25  42  67 100 144 186 232 298 356 431
#     4  12  24  40  63  95 132 180 232 276 346 414
#     4  10  24  47  73 101 135 181 241 298 354 423
#     4  12  25  42  67 100 144 186 232 298 356 431
#
# _framework density 22.661054
#
# number of rings (size 3 to 8) (size 9 to 14) (size 15 to 20)
#    0.000    0.727    3.636    3.273    5.091    0.727 
#    0.000    0.000    0.000    0.000    0.000    0.000 
#    0.000    0.000    0.000    0.000    0.000    0.000 
#
# Total GULP energy -122626.371280 kJ/mol
# GULP energy per Si atom -5573.925967 kJ/mol
# Density = 2.260948 g / cm^3
# Si number density = 22.661054 Si / 1000 Ang^3
#
#
#
# Elastic Constant Matrix: (Units=GPa)
#
#
# Indices 1 2 3 4 5 6 
#
# 1 64.0033 -0.6158 13.1598 0.0000 0.0000 0.0000
# 2 -0.6158 96.7475 36.6653 0.0000 0.0000 0.0000
# 3 13.1598 36.6653 76.6916 0.0000 0.0000 0.0000
# 4 0.0000 0.0000 0.0000 28.5090 0.0000 0.0000
# 5 0.0000 0.0000 0.0000 0.0000 14.8325 0.0000
# 6 0.0000 0.0000 0.0000 0.0000 0.0000 25.1333
#
#
#
# Elastic Compliance Matrix: (Units=1/GPa)
#
#
# Indices 1 2 3 4 5 6 
#
# 1 0.016355 0.001426 -0.003488 0.000000 0.000000 0.000000
# 2 0.001426 0.012748 -0.006339 0.000000 0.000000 0.000000
# 3 -0.003488 -0.006339 0.016668 0.000000 0.000000 0.000000
# 4 0.000000 0.000000 0.000000 0.035077 0.000000 0.000000
# 5 0.000000 0.000000 0.000000 0.000000 0.067419 0.000000
# 6 0.000000 0.000000 0.000000 0.000000 0.000000 0.039788
#
#
# Mechanical properties :
#
#
# Convention : Reuss Voigt Hill
#
# Bulk Modulus (GPa) = 34.52014 37.31787 35.91901
# Shear Modulus (GPa) = 23.30850 26.24385 24.77617
#
# Velocity S-wave (km/s) = 3.21061 3.40678 3.31015
# Velocity P-wave (km/s) = 5.38613 5.65495 5.52218
#
# Compressibility (1/GPa) = 0.02896859
#
# Stress axis : x y z
#
# Youngs Moduli (GPa) = 61.14285 78.44558 59.99346
#
# Poissons Ratio (x) = -0.11187 0.20927
# Poissons Ratio (y) = -0.08719 0.38031
# Poissons Ratio (z) = 0.21328 0.49728
#
# Static dielectric constant tensor:
#      x y z
#    x 1.970430 0.000000 0.000000 
#    y 0.000000 1.837950 0.000000 
#    z 0.000000 0.000000 1.893110 
# 
# From -- ./inp_files/3504.got.cif
#   From: 2010.05.17/outbox.cif.g08.bks.cpg/sg32_2_cif.got.tgz:3504.got - 2010.06.03 17:12:27.
