data_PCOD9344210
_publ_section_title
;
Structure prediction by ZEFSAII (Michael W. Deem and Ramdas Pophale) SiO2 
 PCOD9344210
Probable space group: P B A 2
;
_chemical_formula_sum "Si O2"
_cell_formula_units_Z 20
_cell_length_a 11.523856
_cell_length_b 11.736345
_cell_length_c 5.746108
_cell_angle_alpha 90.000000
_cell_angle_beta 90.000000
_cell_angle_gamma 90.000000
_cell_volume 777.149326
_symmetry_space_group_name_H-M "P B A 2"
_symmetry_group_IT_number 32
_symmetry_cell_setting 'orthorhombic'
loop_
_space_group_symop_operation_xyz
x,y,z
-x,-y,z
1/2-x,1/2+y,z
1/2+x,1/2-y,z
loop_
_atom_site_type_symbol
_atom_site_label
_atom_site_fract_x
_atom_site_fract_y
_atom_site_fract_z
Si Si1 0.000000 0.000000 0.505210
Si Si2 0.500000 0.000000 0.851455
Si Si3 0.146731 0.642133 0.531401
Si Si4 0.934394 0.695198 0.211173
Si Si5 0.224013 0.967200 0.224893
Si Si6 0.655808 0.374679 0.854871
O O1 0.102865 0.949222 0.351032
O O2 0.940054 0.905900 0.666027
O O3 0.399808 0.034770 0.677597
O O4 0.518820 0.106646 0.017772
O O5 0.217889 0.582628 0.325495
O O6 0.240149 0.691986 0.718150
O O7 0.032274 0.697700 0.413248
O O8 0.811166 0.636339 0.274147
O O9 0.903626 0.807613 0.066757
O O10 0.198767 0.004034 0.960603
#
# Coordination Sequence:
#
# PCOD9344210 Si02
#       6
#     2   2   4   4   4   4
#     4  10  26  50  70 102 164 206 248 318 406 460
#     4  12  20  46  74 110 144 190 252 316 378 442
#     4  11  22  46  76 110 148 198 257 320 385 452
#     4  12  24  46  80 110 149 202 264 324 378 476
#     4  11  22  50  71 107 153 199 257 320 378 475
#     4  11  26  49  72 116 155 204 259 320 400 464
#
# _framework density 25.73508
#
# number of rings (size 3 to 8) (size 9 to 14) (size 15 to 20)
#    0.000    0.800    6.000    0.600    0.000    3.200 
#   21.600    0.000    0.000    0.000    0.000    0.000 
#    0.000    0.000    0.000    0.000    0.000    0.000 
#
# Total GULP energy -111852.262895 kJ/mol
# GULP energy per Si atom -5592.613145 kJ/mol
# Density = 2.567651 g / cm^3
# Si number density = 25.735080 Si / 1000 Ang^3
#
#
#
# Elastic Constant Matrix: (Units=GPa)
#
#
# Indices 1 2 3 4 5 6 
#
# 1 218.8446 47.2766 103.0320 0.0000 0.0000 0.0000
# 2 47.2766 78.0098 34.1550 0.0000 0.0000 0.0000
# 3 103.0320 34.1550 126.0939 0.0000 0.0000 0.0000
# 4 0.0000 0.0000 0.0000 31.0321 0.0000 0.0000
# 5 0.0000 0.0000 0.0000 0.0000 38.5500 0.0000
# 6 0.0000 0.0000 0.0000 0.0000 0.0000 23.9298
#
#
#
# Elastic Compliance Matrix: (Units=1/GPa)
#
#
# Indices 1 2 3 4 5 6 
#
# 1 0.007740 -0.002180 -0.005734 0.000000 0.000000 0.000000
# 2 -0.002180 0.015158 -0.002324 0.000000 0.000000 0.000000
# 3 -0.005734 -0.002324 0.013245 0.000000 0.000000 0.000000
# 4 0.000000 0.000000 0.000000 0.032225 0.000000 0.000000
# 5 0.000000 0.000000 0.000000 0.000000 0.025940 0.000000
# 6 0.000000 0.000000 0.000000 0.000000 0.000000 0.041789
#
#
# Mechanical properties :
#
#
# Convention : Reuss Voigt Hill
#
# Bulk Modulus (GPa) = 63.83083 87.98615 75.90849
# Shear Modulus (GPa) = 30.90319 34.60137 32.75228
#
# Velocity S-wave (km/s) = 3.46904 3.67075 3.57132
# Velocity P-wave (km/s) = 6.39551 7.22698 6.82392
#
# Compressibility (1/GPa) = 0.01566641
#
# Stress axis : x y z
#
# Youngs Moduli (GPa) = 129.20079 65.97238 75.49874
#
# Poissons Ratio (x) = 0.14384 0.43289
# Poissons Ratio (y) = 0.28169 0.17548
# Poissons Ratio (z) = 0.74080 0.15334
#
# Static dielectric constant tensor:
#      x y z
#    x 2.063930 0.000000 0.000000 
#    y 0.000000 2.024080 0.000000 
#    z 0.000000 0.000000 2.011950 
# 
# From -- ./inp_files/772.got.cif
#   From: 2010.05.17/outbox.cif.g08.bks.cpg/sg32_1_cif.got.tgz:772.got - 2010.06.03 17:12:27.
