data_PCOD9344939
_publ_section_title
;
Structure prediction by ZEFSAII (Michael W. Deem and Ramdas Pophale) SiO2 
 PCOD9344939
Probable space group: P N A 21
;
_chemical_formula_sum "Si O2"
_cell_formula_units_Z 32
_cell_length_a 9.681559
_cell_length_b 12.694932
_cell_length_c 13.388491
_cell_angle_alpha 90.000000
_cell_angle_beta 90.000000
_cell_angle_gamma 90.000000
_cell_volume 1645.535691
_symmetry_space_group_name_H-M "P N A 21"
_symmetry_group_IT_number 33
_symmetry_cell_setting 'orthorhombic'
loop_
_space_group_symop_operation_xyz
x,y,z
-x,-y,1/2+z
1/2-x,1/2+y,1/2+z
1/2+x,1/2-y,z
loop_
_atom_site_type_symbol
_atom_site_label
_atom_site_fract_x
_atom_site_fract_y
_atom_site_fract_z
Si Si1 0.410951 0.652142 0.482540
Si Si2 0.156729 0.968603 0.374333
Si Si3 0.152905 0.839785 0.864418
Si Si4 0.150791 0.173151 0.465074
Si Si5 0.485004 0.564364 0.694135
Si Si6 0.690241 0.941460 0.357625
Si Si7 0.919513 0.664393 0.349165
Si Si8 0.872351 0.839893 0.188897
O O1 0.513726 0.581410 0.413462
O O2 0.435393 0.620471 0.595127
O O3 0.256530 0.628747 0.445528
O O4 0.442113 0.770550 0.450813
O O5 0.265489 0.879637 0.349633
O O6 0.203111 0.052411 0.457093
O O7 0.129967 0.039472 0.277066
O O8 0.253983 0.744994 0.894233
O O9 0.011125 0.829337 0.930078
O O10 0.095870 0.861901 0.752148
O O11 0.245910 0.944493 0.879265
O O12 0.162917 0.206130 0.580605
O O13 0.537256 0.445484 0.670452
O O14 0.527510 0.930412 0.348558
O O15 0.750033 0.888355 0.256522
O O16 0.937236 0.748235 0.258682
#
# Coordination Sequence:
#
# PCOD9344939 Si02
#       8
#     4   4   4   4   4   4   4   4
#     4  11  19  41  68  87 124 169 213 256 323 384
#     4  11  22  43  61  93 125 166 209 266 317 388
#     4  10  23  42  62  87 129 165 212 261 323 389
#     4  11  23  41  66  91 125 171 208 264 325 383
#     4  10  20  42  66  87 123 174 209 257 321 389
#     4  10  21  41  61  95 127 162 208 274 310 381
#     4  11  24  37  65  99 129 159 217 275 316 379
#     4  10  20  37  67  93 120 162 214 253 323 373
#
# _framework density 19.446555
#
# number of rings (size 3 to 8) (size 9 to 14) (size 15 to 20)
#    0.000    1.500    6.250    1.500    3.500    1.000 
#    9.000    1.250    0.000    0.000    0.000    0.000 
#    0.000    0.000    0.000    0.000    0.000    0.000 
#
# Total GULP energy -178262.683091 kJ/mol
# GULP energy per Si atom -5570.708847 kJ/mol
# Density = 1.940229 g / cm^3
# Si number density = 19.446555 Si / 1000 Ang^3
#
#
#
# Elastic Constant Matrix: (Units=GPa)
#
#
# Indices 1 2 3 4 5 6 
#
# 1 52.1043 28.8140 27.5552 0.0000 0.0000 0.0000
# 2 28.8140 73.4452 24.8086 0.0000 0.0000 0.0000
# 3 27.5552 24.8086 112.1200 0.0000 0.0000 0.0000
# 4 0.0000 0.0000 0.0000 16.5680 0.0000 0.0000
# 5 0.0000 0.0000 0.0000 0.0000 4.7900 0.0000
# 6 0.0000 0.0000 0.0000 0.0000 0.0000 26.4195
#
#
#
# Elastic Compliance Matrix: (Units=1/GPa)
#
#
# Indices 1 2 3 4 5 6 
#
# 1 0.026498 -0.008858 -0.004552 0.000000 0.000000 0.000000
# 2 -0.008858 0.017677 -0.001734 0.000000 0.000000 0.000000
# 3 -0.004552 -0.001734 0.010422 0.000000 0.000000 0.000000
# 4 0.000000 0.000000 0.000000 0.060357 0.000000 0.000000
# 5 0.000000 0.000000 0.000000 0.000000 0.208769 0.000000
# 6 0.000000 0.000000 0.000000 0.000000 0.000000 0.037851
#
#
# Mechanical properties :
#
#
# Convention : Reuss Voigt Hill
#
# Bulk Modulus (GPa) = 41.14029 44.44723 42.79376
# Shear Modulus (GPa) = 12.50108 19.98828 16.24468
#
# Velocity S-wave (km/s) = 2.53819 3.20950 2.89338
# Velocity P-wave (km/s) = 5.45814 6.05312 5.76331
#
# Compressibility (1/GPa) = 0.02430707
#
# Stress axis : x y z
#
# Youngs Moduli (GPa) = 37.73821 56.57191 95.95490
#
# Poissons Ratio (x) = 0.50112 0.43682
# Poissons Ratio (y) = 0.33429 0.16641
# Poissons Ratio (z) = 0.17180 0.09811
#
# Static dielectric constant tensor:
#      x y z
#    x 1.686820 0.000000 0.000000 
#    y 0.000000 1.704060 0.000000 
#    z 0.000000 0.000000 1.705880 
# 
# From -- ./inp_files/7686.got.cif
#   From: 2010.05.17/outbox.cif.g08.bks.cpg/sg33_4_cif.got.tgz:7686.got - 2010.06.03 17:15:25.
