data_PCOD9344018
_publ_section_title
;
Structure prediction by ZEFSAII (Michael W. Deem and Ramdas Pophale) SiO2 
 PCOD9344018
Probable space group: P B A 2
;
_chemical_formula_sum "Si O2"
_cell_formula_units_Z 32
_cell_length_a 31.698870
_cell_length_b 9.361014
_cell_length_c 5.415913
_cell_angle_alpha 90.000000
_cell_angle_beta 90.000000
_cell_angle_gamma 90.000000
_cell_volume 1607.083177
_symmetry_space_group_name_H-M "P B A 2"
_symmetry_group_IT_number 32
_symmetry_cell_setting 'orthorhombic'
loop_
_space_group_symop_operation_xyz
x,y,z
-x,-y,z
1/2-x,1/2+y,z
1/2+x,1/2-y,z
loop_
_atom_site_type_symbol
_atom_site_label
_atom_site_fract_x
_atom_site_fract_y
_atom_site_fract_z
Si Si1 0.063604 0.649929 0.158750
Si Si2 0.503399 0.336635 0.385323
Si Si3 0.161452 0.147590 0.056826
Si Si4 0.213079 0.122264 0.556224
Si Si5 0.987532 0.639266 0.768094
Si Si6 0.352149 0.309338 0.046857
Si Si7 0.579578 0.161619 0.130164
Si Si8 0.800627 0.214976 0.551135
O O1 0.102609 0.734515 0.045396
O O2 0.080043 0.495913 0.250648
O O3 0.040951 0.755856 0.348169
O O4 0.024102 0.627614 0.972926
O O5 0.500000 0.500000 0.319003
O O6 0.510872 0.299856 0.669508
O O7 0.543258 0.258669 0.256654
O O8 0.191059 0.163004 0.297249
O O9 0.122694 0.254806 0.099877
O O10 0.145404 0.982592 0.049628
O O11 0.186453 0.170727 0.798818
O O12 0.259671 0.186318 0.559311
O O13 0.213922 0.950360 0.560040
O O14 0.000000 0.500000 0.601768
O O15 0.940042 0.627254 0.862347
O O16 0.327312 0.266636 0.298418
O O17 0.327842 0.263817 0.798878
#
# Coordination Sequence:
#
# PCOD9344018 Si02
#       8
#     4   4   4   4   4   4   4   4
#     4  10  22  39  58  85 118 156 203 252 299 356
#     4  11  22  36  59  85 117 159 199 246 303 360
#     4  10  22  39  60  90 123 157 200 250 302 361
#     4  10  22  40  62  88 121 156 198 249 303 364
#     4   9  20  38  57  81 117 155 199 250 297 350
#     4  10  22  39  60  90 123 157 200 250 302 361
#     4  10  22  39  58  85 118 156 203 252 299 356
#     4  10  22  40  62  88 121 156 198 249 303 364
#
# _framework density 19.911850000000001
#
# number of rings (size 3 to 8) (size 9 to 14) (size 15 to 20)
#    0.000    2.000    0.000    3.375    3.500    5.000 
#    0.000    0.000    0.000    0.000    0.000    0.000 
#    0.000    0.000    0.000    0.000    0.000    0.000 
#
# Total GULP energy -178284.557495 kJ/mol
# GULP energy per Si atom -5571.392422 kJ/mol
# Density = 1.986653 g / cm^3
# Si number density = 19.911850 Si / 1000 Ang^3
#
#
#
# Elastic Constant Matrix: (Units=GPa)
#
#
# Indices 1 2 3 4 5 6 
#
# 1 94.1931 23.1053 26.3246 0.0000 0.0000 0.0000
# 2 23.1053 59.4848 14.0732 0.0000 0.0000 0.0000
# 3 26.3246 14.0732 85.5061 0.0000 0.0000 0.0000
# 4 0.0000 0.0000 0.0000 15.0482 0.0000 0.0000
# 5 0.0000 0.0000 0.0000 0.0000 11.2948 0.0000
# 6 0.0000 0.0000 0.0000 0.0000 0.0000 41.4254
#
#
#
# Elastic Compliance Matrix: (Units=1/GPa)
#
#
# Indices 1 2 3 4 5 6 
#
# 1 0.012512 -0.004109 -0.003176 0.000000 0.000000 0.000000
# 2 -0.004109 0.018841 -0.001836 0.000000 0.000000 0.000000
# 3 -0.003176 -0.001836 0.012975 0.000000 0.000000 0.000000
# 4 0.000000 0.000000 0.000000 0.066453 0.000000 0.000000
# 5 0.000000 0.000000 0.000000 0.000000 0.088536 0.000000
# 6 0.000000 0.000000 0.000000 0.000000 0.000000 0.024140
#
#
# Mechanical properties :
#
#
# Convention : Reuss Voigt Hill
#
# Bulk Modulus (GPa) = 38.33301 40.68780 39.51041
# Shear Modulus (GPa) = 19.96851 25.26573 22.61712
#
# Velocity S-wave (km/s) = 3.17021 3.56600 3.37391
# Velocity P-wave (km/s) = 5.71782 6.11829 5.92144
#
# Compressibility (1/GPa) = 0.02608717
#
# Stress axis : x y z
#
# Youngs Moduli (GPa) = 79.92416 53.07489 77.07134
#
# Poissons Ratio (x) = 0.21806 0.24476
# Poissons Ratio (y) = 0.32837 0.14151
# Poissons Ratio (z) = 0.25382 0.09745
#
# Static dielectric constant tensor:
#      x y z
#    x 1.648920 0.000000 0.000000 
#    y 0.000000 1.816480 0.000000 
#    z 0.000000 0.000000 1.863130 
# 
# From -- ./inp_files/628.got.cif
#   From: 2010.05.17/outbox.cif.g08.bks.cpg/sg32_1_cif.got.tgz:628.got - 2010.06.03 17:12:27.
