data_PCOD9344115
_publ_section_title
;
Structure prediction by ZEFSAII (Michael W. Deem and Ramdas Pophale) SiO2 
 PCOD9344115
Probable space group: P B A 2
;
_chemical_formula_sum "Si O2"
_cell_formula_units_Z 24
_cell_length_a 16.555395
_cell_length_b 7.167586
_cell_length_c 8.659414
_cell_angle_alpha 90.000000
_cell_angle_beta 90.000000
_cell_angle_gamma 90.000000
_cell_volume 1027.545267
_symmetry_space_group_name_H-M "P B A 2"
_symmetry_group_IT_number 32
_symmetry_cell_setting 'orthorhombic'
loop_
_space_group_symop_operation_xyz
x,y,z
-x,-y,z
1/2-x,1/2+y,z
1/2+x,1/2-y,z
loop_
_atom_site_type_symbol
_atom_site_label
_atom_site_fract_x
_atom_site_fract_y
_atom_site_fract_z
Si Si1 0.701138 0.638956 0.221710
Si Si2 0.361378 0.995439 0.724718
Si Si3 0.798862 0.138955 0.870669
Si Si4 0.439253 0.653759 0.224555
Si Si5 0.638623 0.004561 0.367660
Si Si6 0.439253 0.653759 0.867823
O O1 0.645426 0.456663 0.223565
O O2 0.774977 0.605763 0.337084
O O3 0.647311 0.816552 0.268349
O O4 0.731849 0.664028 0.046189
O O5 0.274977 0.894237 0.755295
O O6 0.371759 0.040835 0.546189
O O7 0.427600 0.847037 0.780653
O O8 0.352689 0.183449 0.824030
O O9 0.854573 0.956663 0.868813
O O10 0.500000 0.500000 0.292516
O O11 0.427600 0.847037 0.311725
O O12 0.463215 0.689900 0.046189
O O13 0.500000 0.500000 0.799862
#
# Coordination Sequence:
#
# PCOD9344115 Si02
#       6
#     4   4   4   4   4   4
#     4  11  22  39  65  91 122 164 211 257 305 372
#     4  12  24  38  62  94 128 162 205 260 314 370
#     4  11  22  39  65  91 122 164 211 257 305 372
#     4  10  23  43  66  92 124 165 213 261 309 368
#     4  12  24  38  62  94 128 162 205 260 314 370
#     4  10  23  43  66  92 124 165 213 261 309 368
#
# _framework density 23.356635000000001
#
# number of rings (size 3 to 8) (size 9 to 14) (size 15 to 20)
#    0.000    1.000    3.333    4.000    0.000    3.333 
#    0.000    6.667    0.000    0.000    0.000    0.000 
#    0.000    0.000    0.000    0.000    0.000    0.000 
#
# Total GULP energy -134372.513223 kJ/mol
# GULP energy per Si atom -5598.854718 kJ/mol
# Density = 2.330347 g / cm^3
# Si number density = 23.356635 Si / 1000 Ang^3
#
#
#
# Elastic Constant Matrix: (Units=GPa)
#
#
# Indices 1 2 3 4 5 6 
#
# 1 37.1511 1.4835 -9.7864 0.0000 0.0000 0.0000
# 2 1.4835 118.3338 14.3631 0.0000 0.0000 0.0000
# 3 -9.7864 14.3631 68.5552 0.0000 0.0000 0.0000
# 4 0.0000 0.0000 0.0000 21.8943 0.0000 0.0000
# 5 0.0000 0.0000 0.0000 0.0000 14.4486 0.0000
# 6 0.0000 0.0000 0.0000 0.0000 0.0000 39.5322
#
#
#
# Elastic Compliance Matrix: (Units=1/GPa)
#
#
# Indices 1 2 3 4 5 6 
#
# 1 0.028054 -0.000860 0.004185 0.000000 0.000000 0.000000
# 2 -0.000860 0.008698 -0.001945 0.000000 0.000000 0.000000
# 3 0.004185 -0.001945 0.015592 0.000000 0.000000 0.000000
# 4 0.000000 0.000000 0.000000 0.045674 0.000000 0.000000
# 5 0.000000 0.000000 0.000000 0.000000 0.069211 0.000000
# 6 0.000000 0.000000 0.000000 0.000000 0.000000 0.025296
#
#
# Mechanical properties :
#
#
# Convention : Reuss Voigt Hill
#
# Bulk Modulus (GPa) = 18.14766 26.24005 22.19385
# Shear Modulus (GPa) = 24.02335 29.70702 26.86518
#
# Velocity S-wave (km/s) = 3.21057 3.57022 3.39516
# Velocity P-wave (km/s) = 4.64008 5.31547 4.98922
#
# Compressibility (1/GPa) = 0.05510352
#
# Stress axis : x y z
#
# Youngs Moduli (GPa) = 35.64577 114.97531 64.13683
#
# Poissons Ratio (x) = 0.09884 -0.26840
# Poissons Ratio (y) = 0.03064 0.12474
# Poissons Ratio (z) = -0.14917 0.22362
#
# Static dielectric constant tensor:
#      x y z
#    x 1.957870 0.000000 0.000000 
#    y 0.000000 1.871900 0.000000 
#    z 0.000000 0.000000 1.783130 
# 
# From -- ./inp_files/2995.got.cif
#   From: 2010.05.17/outbox.cif.g08.bks.cpg/sg32_2_cif.got.tgz:2995.got - 2010.06.03 17:12:27.
