data_PCOD9344114
_publ_section_title
;
Structure prediction by ZEFSAII (Michael W. Deem and Ramdas Pophale) SiO2 
 PCOD9344114
Probable space group: P B A 2
;
_chemical_formula_sum "Si O2"
_cell_formula_units_Z 32
_cell_length_a 18.085149
_cell_length_b 13.496377
_cell_length_c 5.149745
_cell_angle_alpha 90.000000
_cell_angle_beta 90.000000
_cell_angle_gamma 90.000000
_cell_volume 1256.970302
_symmetry_space_group_name_H-M "P B A 2"
_symmetry_group_IT_number 32
_symmetry_cell_setting 'orthorhombic'
loop_
_space_group_symop_operation_xyz
x,y,z
-x,-y,z
1/2-x,1/2+y,z
1/2+x,1/2-y,z
loop_
_atom_site_type_symbol
_atom_site_label
_atom_site_fract_x
_atom_site_fract_y
_atom_site_fract_z
Si Si1 0.175350 0.321730 0.212450
Si Si2 0.013833 0.385514 0.288492
Si Si3 0.731190 0.513879 0.010491
Si Si4 0.486135 0.237111 0.823006
Si Si5 0.852490 0.155899 0.633123
Si Si6 0.238004 0.672206 0.820053
Si Si7 0.882318 0.834130 0.622310
Si Si8 0.920605 0.001089 0.256820
O O1 0.234049 0.410830 0.223062
O O2 0.149334 0.259423 0.461307
O O3 0.096594 0.374850 0.165013
O O4 0.216798 0.245549 0.014747
O O5 0.996340 0.320928 0.548005
O O6 0.000000 0.500000 0.343076
O O7 0.967932 0.336915 0.054645
O O8 0.652244 0.471210 0.101696
O O9 0.706986 0.586281 0.775055
O O10 0.790045 0.424922 0.969107
O O11 0.422004 0.318359 0.816398
O O12 0.564848 0.293525 0.848299
O O13 0.812984 0.263959 0.629594
O O14 0.892683 0.102261 0.394096
O O15 0.303546 0.616279 0.669055
O O16 0.930194 0.913698 0.468341
O O17 0.000000 0.000000 0.119464
#
# Coordination Sequence:
#
# PCOD9344114 Si02
#       8
#     4   4   4   4   4   4   4   4
#     4  10  23  43  65  95 134 180 236 287 354 427
#     4  11  25  47  73 103 141 189 241 293 359 431
#     4  11  25  42  68  99 135 189 237 297 363 437
#     4  11  25  45  73 105 140 185 238 302 361 422
#     4  11  26  42  65 104 142 178 244 302 363 432
#     4  11  22  43  65  94 134 186 231 296 355 431
#     4  11  21  42  67  93 137 185 228 287 361 428
#     4  12  24  41  66 101 140 181 241 294 372 436
#
# _framework density 25.458041000000001
#
# number of rings (size 3 to 8) (size 9 to 14) (size 15 to 20)
#    0.000    1.000    5.000    1.125    3.500    1.500 
#    2.250    0.000    0.000    0.000    0.000    0.000 
#    0.000    0.000    0.000    0.000    0.000    0.000 
#
# Total GULP energy -178427.947901 kJ/mol
# GULP energy per Si atom -5575.873372 kJ/mol
# Density = 2.540010 g / cm^3
# Si number density = 25.458041 Si / 1000 Ang^3
#
#
#
# Elastic Constant Matrix: (Units=GPa)
#
#
# Indices 1 2 3 4 5 6 
#
# 1 90.8028 36.2122 9.5753 0.0000 0.0000 0.0000
# 2 36.2122 146.1735 29.2451 0.0000 0.0000 0.0000
# 3 9.5753 29.2451 72.9816 0.0000 0.0000 0.0000
# 4 0.0000 0.0000 0.0000 36.0989 0.0000 0.0000
# 5 0.0000 0.0000 0.0000 0.0000 16.7112 0.0000
# 6 0.0000 0.0000 0.0000 0.0000 0.0000 36.0180
#
#
#
# Elastic Compliance Matrix: (Units=1/GPa)
#
#
# Indices 1 2 3 4 5 6 
#
# 1 0.012232 -0.002945 -0.000425 0.000000 0.000000 0.000000
# 2 -0.002945 0.008147 -0.002878 0.000000 0.000000 0.000000
# 3 -0.000425 -0.002878 0.014911 0.000000 0.000000 0.000000
# 4 0.000000 0.000000 0.000000 0.027702 0.000000 0.000000
# 5 0.000000 0.000000 0.000000 0.000000 0.059840 0.000000
# 6 0.000000 0.000000 0.000000 0.000000 0.000000 0.027764
#
#
# Mechanical properties :
#
#
# Convention : Reuss Voigt Hill
#
# Bulk Modulus (GPa) = 43.87148 51.11367 47.49257
# Shear Modulus (GPa) = 29.29287 33.42730 31.36009
#
# Velocity S-wave (km/s) = 3.39578 3.62751 3.51356
# Velocity P-wave (km/s) = 5.71361 6.13729 5.92924
#
# Compressibility (1/GPa) = 0.02279385
#
# Stress axis : x y z
#
# Youngs Moduli (GPa) = 81.75091 122.74926 67.06409
#
# Poissons Ratio (x) = 0.36155 0.02848
# Poissons Ratio (y) = 0.24079 0.19302
# Poissons Ratio (z) = 0.03471 0.35328
#
# Static dielectric constant tensor:
#      x y z
#    x 2.050810 0.000000 0.000000 
#    y 0.000000 2.119480 0.000000 
#    z 0.000000 0.000000 2.166530 
# 
# From -- ./inp_files/1489.got.cif
#   From: 2010.05.17/outbox.cif.g08.bks.cpg/sg32_1_cif.got.tgz:1489.got - 2010.06.03 17:12:27.
