data_PCOD9344482
_publ_section_title
;
Structure prediction by ZEFSAII (Michael W. Deem and Ramdas Pophale) SiO2 
 PCOD9344482
Probable space group: P N A 21
;
_chemical_formula_sum "Si O2"
_cell_formula_units_Z 20
_cell_length_a 13.116799
_cell_length_b 11.882460
_cell_length_c 4.865507
_cell_angle_alpha 90.000000
_cell_angle_beta 90.000000
_cell_angle_gamma 90.000000
_cell_volume 758.337140
_symmetry_space_group_name_H-M "P N A 21"
_symmetry_group_IT_number 33
_symmetry_cell_setting 'orthorhombic'
loop_
_space_group_symop_operation_xyz
x,y,z
-x,-y,1/2+z
1/2-x,1/2+y,1/2+z
1/2+x,1/2-y,z
loop_
_atom_site_type_symbol
_atom_site_label
_atom_site_fract_x
_atom_site_fract_y
_atom_site_fract_z
Si Si1 0.066188 0.628179 0.157850
Si Si2 0.550752 0.192842 0.178982
Si Si3 0.544536 0.565732 0.829225
Si Si4 0.238779 0.057622 0.931270
Si Si5 0.237509 0.206892 0.462663
O O1 0.978321 0.660166 0.370794
O O2 0.149727 0.546900 0.295864
O O3 0.012998 0.606299 0.870025
O O4 0.147732 0.728572 0.076099
O O5 0.499126 0.315766 0.226819
O O6 0.663635 0.208555 0.303443
O O7 0.511957 0.475593 0.599986
O O8 0.664097 0.545768 0.886749
O O9 0.190339 0.158880 0.745329
O O10 0.247332 0.103736 0.240905
#
# Coordination Sequence:
#
# PCOD9344482 Si02
#       5
#     4   4   4   4   4
#     4  10  21  34  48  79 111 143 188 215 261 346
#     4  12  20  32  57  80 109 146 182 218 284 340
#     4  12  20  32  52  84 112 141 169 222 298 351
#     4  10  18  36  48  70 120 138 165 227 274 324
#     4  10  19  34  51  73 112 142 176 226 261 323
#
# _framework density 26.373493
#
# number of rings (size 3 to 8) (size 9 to 14) (size 15 to 20)
#    1.200    0.000    6.000    2.400    0.000    0.000 
#    0.000    0.000    0.000    0.000    0.000    5.600 
#    0.000    0.000    0.000    0.000    0.000    0.000 
#
# Total GULP energy -111585.892311 kJ/mol
# GULP energy per Si atom -5579.294616 kJ/mol
# Density = 2.631347 g / cm^3
# Si number density = 26.373493 Si / 1000 Ang^3
#
#
#
# Elastic Constant Matrix: (Units=GPa)
#
#
# Indices 1 2 3 4 5 6 
#
# 1 197.2135 -4.4166 -2.4367 0.0000 0.0000 0.0000
# 2 -4.4166 83.7103 -0.4148 0.0000 0.0000 0.0000
# 3 -2.4367 -0.4148 145.7333 0.0000 0.0000 0.0000
# 4 0.0000 0.0000 0.0000 -6.1987 0.0000 0.0000
# 5 0.0000 0.0000 0.0000 0.0000 349.5778 0.0000
# 6 0.0000 0.0000 0.0000 0.0000 0.0000 44.2884
#
#
#
# Elastic Compliance Matrix: (Units=1/GPa)
#
#
# Indices 1 2 3 4 5 6 
#
# 1 0.005078 0.000268 0.000086 0.000000 0.000000 0.000000
# 2 0.000268 0.011960 0.000039 0.000000 0.000000 0.000000
# 3 0.000086 0.000039 0.006863 0.000000 0.000000 0.000000
# 4 0.000000 0.000000 0.000000 -0.161325 0.000000 0.000000
# 5 0.000000 0.000000 0.000000 0.000000 0.002861 0.000000
# 6 0.000000 0.000000 0.000000 0.000000 0.000000 0.022579
#
#
# Mechanical properties :
#
#
# Convention : Reuss Voigt Hill
#
# Bulk Modulus (GPa) = 40.50803 45.79120 43.14961
# Shear Modulus (GPa) = -47.82880 106.46186 29.31653
#
# Velocity S-wave (km/s) = -4.26316 6.36040 3.33767
# Velocity P-wave (km/s) = 2.97322 8.44629 5.59016
#
# Compressibility (1/GPa) = 0.02468647
#
# Stress axis : x y z
#
# Youngs Moduli (GPa) = 196.93904 83.60986 145.70059
#
# Poissons Ratio (x) = -0.02243 -0.01248
# Poissons Ratio (y) = -0.05284 -0.00561
# Poissons Ratio (z) = -0.01687 -0.00322
#
# Static dielectric constant tensor:
#      x y z
#    x 1.777210 0.000000 0.000000 
#    y 0.000000 2.227830 0.000000 
#    z 0.000000 0.000000 1.940820 
# 
# From -- ./inp_files/815.got.cif
#   From: 2010.05.17/outbox.cif.g08.bks.cpg/sg33_1_cif.got.tgz:815.got - 2010.06.03 17:15:25.
