data_PCOD9344337
_publ_section_title
;
Structure prediction by ZEFSAII (Michael W. Deem and Ramdas Pophale) SiO2 
 PCOD9344337
Probable space group: P N A 21
;
_chemical_formula_sum "Si O2"
_cell_formula_units_Z 24
_cell_length_a 5.164860
_cell_length_b 6.686460
_cell_length_c 30.091155
_cell_angle_alpha 90.000000
_cell_angle_beta 90.000000
_cell_angle_gamma 90.000000
_cell_volume 1039.186898
_symmetry_space_group_name_H-M "P N A 21"
_symmetry_group_IT_number 33
_symmetry_cell_setting 'orthorhombic'
loop_
_space_group_symop_operation_xyz
x,y,z
-x,-y,1/2+z
1/2-x,1/2+y,1/2+z
1/2+x,1/2-y,z
loop_
_atom_site_type_symbol
_atom_site_label
_atom_site_fract_x
_atom_site_fract_y
_atom_site_fract_z
Si Si1 0.180761 0.874217 0.912880
Si Si2 0.310961 0.118851 0.825205
Si Si3 0.872738 0.982491 0.043552
Si Si4 0.627445 0.024731 0.508086
Si Si5 0.806111 0.887341 0.231449
Si Si6 0.811328 0.385048 0.638085
O O1 0.380771 0.687313 0.912685
O O2 0.250668 0.996309 0.869150
O O3 0.252739 0.978502 0.959277
O O4 0.604325 0.198259 0.825158
O O5 0.250464 0.007944 0.778442
O O6 0.660431 0.060148 0.008971
O O7 0.916960 0.751855 0.026726
O O8 0.162171 0.063419 0.041710
O O9 0.252934 0.506032 0.092334
O O10 0.594714 0.704574 0.231265
O O11 0.747962 0.994445 0.184707
O O12 0.601480 0.201959 0.637823
#
# Coordination Sequence:
#
# PCOD9344337 Si02
#       6
#     4   4   4   4   4   4
#     4  12  21  33  53  77 100 135 172 212 249 294
#     4  10  21  38  52  70 103 139 168 209 254 300
#     4  10  14  23  36  58  98 123 142 183 258 291
#     4  10  16  25  37  62  98 123 144 193 250 285
#     4   8  16  27  42  61  86 122 154 193 237 289
#     4  10  14  20  36  58  83 124 144 180 236 311
#
# _framework density 23.094978000000001
#
# number of rings (size 3 to 8) (size 9 to 14) (size 15 to 20)
#    0.000    2.000    6.667    1.000    0.000    0.000 
#    0.000    0.000    0.000    0.000    0.000    0.000 
#    0.000    8.000    0.000    0.000    0.000    0.000 
#
# Total GULP energy -133810.982537 kJ/mol
# GULP energy per Si atom -5575.457606 kJ/mol
# Density = 2.304241 g / cm^3
# Si number density = 23.094978 Si / 1000 Ang^3
#
#
#
# Elastic Constant Matrix: (Units=GPa)
#
#
# Indices 1 2 3 4 5 6 
#
# 1 124.0341 -12.6188 -11.6596 0.0000 0.0000 0.0000
# 2 -12.6188 31.4223 0.1071 0.0000 0.0000 0.0000
# 3 -11.6596 0.1071 177.3972 0.0000 0.0000 0.0000
# 4 0.0000 0.0000 0.0000 17.9563 0.0000 0.0000
# 5 0.0000 0.0000 0.0000 0.0000 36.8220 0.0000
# 6 0.0000 0.0000 0.0000 0.0000 0.0000 -18.7494
#
#
#
# Elastic Compliance Matrix: (Units=1/GPa)
#
#
# Indices 1 2 3 4 5 6 
#
# 1 0.008460 0.003395 0.000554 0.000000 0.000000 0.000000
# 2 0.003395 0.033187 0.000203 0.000000 0.000000 0.000000
# 3 0.000554 0.000203 0.005673 0.000000 0.000000 0.000000
# 4 0.000000 0.000000 0.000000 0.055691 0.000000 0.000000
# 5 0.000000 0.000000 0.000000 0.000000 0.027158 0.000000
# 6 0.000000 0.000000 0.000000 0.000000 0.000000 -0.053335
#
#
# Mechanical properties :
#
#
# Convention : Reuss Voigt Hill
#
# Bulk Modulus (GPa) = 17.97729 31.61232 24.79480
# Shear Modulus (GPa) = 57.42454 31.00744 44.21599
#
# Velocity S-wave (km/s) = 4.99184 3.66813 4.38028
# Velocity P-wave (km/s) = 6.40512 5.62654 6.02841
#
# Compressibility (1/GPa) = 0.05562575
#
# Stress axis : x y z
#
# Youngs Moduli (GPa) = 118.20582 30.13190 176.26248
#
# Poissons Ratio (x) = -0.10231 -0.09765
# Poissons Ratio (y) = -0.40136 -0.03580
# Poissons Ratio (z) = -0.06548 -0.00612
#
# Static dielectric constant tensor:
#      x y z
#    x 1.902270 0.000000 0.000000 
#    y 0.000000 2.096860 0.000000 
#    z 0.000000 0.000000 1.927950 
# 
# From -- ./inp_files/9309.got.cif
#   From: 2010.05.17/outbox.cif.g08.bks.cpg/sg33_5_cif.got.tgz:9309.got - 2010.06.03 17:15:25.
