data_PCOD9344275
_publ_section_title
;
Structure prediction by ZEFSAII (Michael W. Deem and Ramdas Pophale) SiO2 
 PCOD9344275
Probable space group: P B A 2
;
_chemical_formula_sum "Si O2"
_cell_formula_units_Z 20
_cell_length_a 8.832007
_cell_length_b 9.419918
_cell_length_c 9.798707
_cell_angle_alpha 90.000000
_cell_angle_beta 90.000000
_cell_angle_gamma 90.000000
_cell_volume 815.220887
_symmetry_space_group_name_H-M "P B A 2"
_symmetry_group_IT_number 32
_symmetry_cell_setting 'orthorhombic'
loop_
_space_group_symop_operation_xyz
x,y,z
-x,-y,z
1/2-x,1/2+y,z
1/2+x,1/2-y,z
loop_
_atom_site_type_symbol
_atom_site_label
_atom_site_fract_x
_atom_site_fract_y
_atom_site_fract_z
Si Si1 0.805810 0.299954 0.549490
Si Si2 0.181299 0.962022 0.729329
Si Si3 0.949483 0.838456 0.066676
Si Si4 0.628709 0.896856 0.973785
Si Si5 0.543234 0.331562 0.372200
O O1 0.755641 0.451040 0.604354
O O2 0.715295 0.293383 0.406674
O O3 0.968589 0.255774 0.495743
O O4 0.785961 0.197980 0.681181
O O5 0.284017 0.014763 0.856195
O O6 0.000000 0.000000 0.738655
O O7 0.994567 0.789006 0.218104
O O8 0.769073 0.839214 0.059731
O O9 0.000000 0.000000 0.052546
O O10 0.028331 0.744355 0.949878
O O11 0.500000 0.000000 0.035027
O O12 0.500000 0.500000 0.384288
#
# Coordination Sequence:
#
# PCOD9344275 Si02
#       5
#     4   4   4   4   4
#     4  12  23  48  73 108 149 197 243 310 388 450
#     4  12  29  48  74 110 157 198 256 319 379 464
#     4  11  26  50  78 108 152 200 258 318 378 459
#     4  12  29  49  75 114 146 205 254 319 389 452
#     4  11  24  48  73 109 152 190 248 315 378 454
#
# _framework density 24.533228000000001
#
# number of rings (size 3 to 8) (size 9 to 14) (size 15 to 20)
#    0.000    0.400    4.000    3.000   11.200    1.600 
#    3.600    0.000    0.000    0.000    0.000    0.000 
#    0.000    0.000    0.000    0.000    0.000    0.000 
#
# Total GULP energy -111569.848203 kJ/mol
# GULP energy per Si atom -5578.492410 kJ/mol
# Density = 2.447739 g / cm^3
# Si number density = 24.533228 Si / 1000 Ang^3
#
#
#
# Elastic Constant Matrix: (Units=GPa)
#
#
# Indices 1 2 3 4 5 6 
#
# 1 123.9561 30.6947 24.5652 0.0000 0.0000 0.0000
# 2 30.6947 58.8457 -0.7835 0.0000 0.0000 0.0000
# 3 24.5652 -0.7835 100.5919 0.0000 0.0000 0.0000
# 4 0.0000 0.0000 0.0000 -8.0407 0.0000 0.0000
# 5 0.0000 0.0000 0.0000 0.0000 70.1506 0.0000
# 6 0.0000 0.0000 0.0000 0.0000 0.0000 32.6475
#
#
#
# Elastic Compliance Matrix: (Units=1/GPa)
#
#
# Indices 1 2 3 4 5 6 
#
# 1 0.009829 -0.005159 -0.002440 0.000000 0.000000 0.000000
# 2 -0.005159 0.019703 0.001413 0.000000 0.000000 0.000000
# 3 -0.002440 0.001413 0.010548 0.000000 0.000000 0.000000
# 4 0.000000 0.000000 0.000000 -0.124368 0.000000 0.000000
# 5 0.000000 0.000000 0.000000 0.000000 0.014255 0.000000
# 6 0.000000 0.000000 0.000000 0.000000 0.000000 0.030630
#
#
# Mechanical properties :
#
#
# Convention : Reuss Voigt Hill
#
# Bulk Modulus (GPa) = 36.09093 43.59405 39.84249
# Shear Modulus (GPa) = -280.99081 34.21266 -123.38907
#
# Velocity S-wave (km/s) = -10.71370 3.73841 -7.09957
# Velocity P-wave (km/s) = 11.76017 6.03674 7.13650
#
# Compressibility (1/GPa) = 0.02770779
#
# Stress axis : x y z
#
# Youngs Moduli (GPa) = 101.74452 50.75241 94.80360
#
# Poissons Ratio (x) = 0.26184 0.23136
# Poissons Ratio (y) = 0.52492 -0.13399
# Poissons Ratio (z) = 0.24830 -0.07173
#
# Static dielectric constant tensor:
#      x y z
#    x 1.472700 0.000000 0.000000 
#    y 0.000000 1.989410 0.000000 
#    z 0.000000 0.000000 1.972050 
# 
# From -- ./inp_files/3635.got.cif
#   From: 2010.05.17/outbox.cif.g08.bks.cpg/sg32_2_cif.got.tgz:3635.got - 2010.06.03 17:12:27.
