data_PCOD9344395
_publ_section_title
;
Structure prediction by ZEFSAII (Michael W. Deem and Ramdas Pophale) SiO2 
 PCOD9344395
Probable space group: P N A 21
;
_chemical_formula_sum "Si O2"
_cell_formula_units_Z 32
_cell_length_a 9.194440
_cell_length_b 20.103347
_cell_length_c 8.819159
_cell_angle_alpha 90.000000
_cell_angle_beta 90.000000
_cell_angle_gamma 90.000000
_cell_volume 1630.124687
_symmetry_space_group_name_H-M "P N A 21"
_symmetry_group_IT_number 33
_symmetry_cell_setting 'orthorhombic'
loop_
_space_group_symop_operation_xyz
x,y,z
-x,-y,1/2+z
1/2-x,1/2+y,1/2+z
1/2+x,1/2-y,z
loop_
_atom_site_type_symbol
_atom_site_label
_atom_site_fract_x
_atom_site_fract_y
_atom_site_fract_z
Si Si1 0.535528 0.522897 0.747260
Si Si2 0.970214 0.131613 0.747561
Si Si3 0.780065 0.824102 0.046819
Si Si4 0.538182 0.127383 0.236863
Si Si5 0.045743 0.754776 0.889315
Si Si6 0.730329 0.588883 0.492295
Si Si7 0.200838 0.881253 0.942254
Si Si8 0.276128 0.048733 0.340241
O O1 0.524068 0.444383 0.754581
O O2 0.624835 0.549451 0.606316
O O3 0.617846 0.552338 0.893390
O O4 0.373675 0.551376 0.748569
O O5 0.853285 0.135649 0.609838
O O6 0.117462 0.170429 0.696701
O O7 0.871091 0.139309 0.896854
O O8 0.630314 0.782900 0.028378
O O9 0.746847 0.897672 0.977993
O O10 0.889666 0.783620 0.936489
O O11 0.470951 0.200117 0.259820
O O12 0.642618 0.120264 0.093300
O O13 0.633769 0.114449 0.390410
O O14 0.410116 0.074011 0.241577
O O15 0.137459 0.819527 0.844987
O O16 0.792939 0.527975 0.390771
#
# Coordination Sequence:
#
# PCOD9344395 Si02
#       8
#     4   4   4   4   4   4   4   4
#     4  10  17  33  56  82 108 147 192 233 289 347
#     4  10  18  33  57  82 115 144 189 238 292 349
#     4  10  18  33  57  85 104 149 195 248 277 339
#     4  10  22  35  58  84 114 152 193 242 292 346
#     4  10  18  33  58  82 109 143 209 237 276 345
#     4  10  21  35  55  86 120 148 184 248 302 339
#     4  10  19  34  58  83 107 153 195 239 287 351
#     4  10  19  34  57  84 115 146 195 237 287 358
#
# _framework density 19.630402
#
# number of rings (size 3 to 8) (size 9 to 14) (size 15 to 20)
#    0.000    2.000    5.000    0.750    0.000    2.000 
#    0.000    0.000   16.500    0.000    0.000    0.000 
#    0.000    0.000    0.000    0.000    0.000    0.000 
#
# Total GULP energy -178199.028135 kJ/mol
# GULP energy per Si atom -5568.719629 kJ/mol
# Density = 1.958572 g / cm^3
# Si number density = 19.630402 Si / 1000 Ang^3
#
#
#
# Elastic Constant Matrix: (Units=GPa)
#
#
# Indices 1 2 3 4 5 6 
#
# 1 56.6595 2.7316 1.0777 0.0000 0.0000 0.0000
# 2 2.7316 63.5678 -1.7710 0.0000 0.0000 0.0000
# 3 1.0777 -1.7710 38.1822 0.0000 0.0000 0.0000
# 4 0.0000 0.0000 0.0000 14.6825 0.0000 0.0000
# 5 0.0000 0.0000 0.0000 0.0000 37.0474 0.0000
# 6 0.0000 0.0000 0.0000 0.0000 0.0000 23.9697
#
#
#
# Elastic Compliance Matrix: (Units=1/GPa)
#
#
# Indices 1 2 3 4 5 6 
#
# 1 0.017697 -0.000775 -0.000535 0.000000 0.000000 0.000000
# 2 -0.000775 0.015786 0.000754 0.000000 0.000000 0.000000
# 3 -0.000535 0.000754 0.026240 0.000000 0.000000 0.000000
# 4 0.000000 0.000000 0.000000 0.068108 0.000000 0.000000
# 5 0.000000 0.000000 0.000000 0.000000 0.026992 0.000000
# 6 0.000000 0.000000 0.000000 0.000000 0.000000 0.041719
#
#
# Mechanical properties :
#
#
# Convention : Reuss Voigt Hill
#
# Bulk Modulus (GPa) = 17.06219 18.05403 17.55811
# Shear Modulus (GPa) = 23.02102 25.56466 24.29284
#
# Velocity S-wave (km/s) = 3.42822 3.61265 3.52164
# Velocity P-wave (km/s) = 4.93770 5.15932 5.04973
#
# Compressibility (1/GPa) = 0.05860913
#
# Stress axis : x y z
#
# Youngs Moduli (GPa) = 56.50722 63.34905 38.10934
#
# Poissons Ratio (x) = 0.04912 0.02041
# Poissons Ratio (y) = 0.04382 -0.02874
# Poissons Ratio (z) = 0.03026 -0.04777
#
# Static dielectric constant tensor:
#      x y z
#    x 1.714410 0.000000 0.000000 
#    y 0.000000 1.707430 0.000000 
#    z 0.000000 0.000000 1.749570 
# 
# From -- ./inp_files/3475.got.cif
#   From: 2010.05.17/outbox.cif.g08.bks.cpg/sg33_2_cif.got.tgz:3475.got - 2010.06.03 17:15:25.
