data_PCOD9344166
_publ_section_title
;
Structure prediction by ZEFSAII (Michael W. Deem and Ramdas Pophale) SiO2 
 PCOD9344166
Probable space group: P B A 2
;
_chemical_formula_sum "Si O2"
_cell_formula_units_Z 20
_cell_length_a 8.696539
_cell_length_b 9.113389
_cell_length_c 9.072236
_cell_angle_alpha 90.000000
_cell_angle_beta 90.000000
_cell_angle_gamma 90.000000
_cell_volume 719.019546
_symmetry_space_group_name_H-M "P B A 2"
_symmetry_group_IT_number 32
_symmetry_cell_setting 'orthorhombic'
loop_
_space_group_symop_operation_xyz
x,y,z
-x,-y,z
1/2-x,1/2+y,z
1/2+x,1/2-y,z
loop_
_atom_site_type_symbol
_atom_site_label
_atom_site_fract_x
_atom_site_fract_y
_atom_site_fract_z
Si Si1 0.698343 0.887336 0.701140
Si Si2 0.000000 0.500000 0.956275
Si Si3 0.646662 0.366415 0.281479
Si Si4 0.252358 0.874357 0.496146
Si Si5 0.587535 0.742245 0.075916
Si Si6 0.000000 0.000000 0.842658
O O1 0.666615 0.745657 0.601004
O O2 0.878486 0.909957 0.743306
O O3 0.617657 0.907501 0.858022
O O4 0.654421 0.034607 0.615740
O O5 0.948107 0.638250 0.050085
O O6 0.654046 0.221945 0.383156
O O7 0.678762 0.494267 0.400487
O O8 0.481947 0.355785 0.205609
O O9 0.777987 0.341673 0.153442
O O10 0.590976 0.619868 0.944323
#
# Coordination Sequence:
#
# PCOD9344166 Si02
#       6
#     4   2   4   4   4   2
#     4  11  24  43  68  99 134 182 227 280 341 404
#     4  12  24  42  68 100 138 178 228 284 340 406
#     4  11  24  43  68  99 134 182 227 280 341 404
#     4  10  24  44  68  94 136 182 230 276 338 414
#     4  12  24  42  68 100 138 178 228 284 340 406
#     4  12  24  42  68 100 138 178 228 284 340 406
#
# _framework density 27.815656000000001
#
# number of rings (size 3 to 8) (size 9 to 14) (size 15 to 20)
#    0.000    0.800    0.000    7.200    0.000    6.400 
#    0.000    0.000    0.000    0.000    0.000    0.000 
#    0.000    0.000    0.000    0.000    0.000    0.000 
#
# Total GULP energy -111671.132549 kJ/mol
# GULP energy per Si atom -5583.556627 kJ/mol
# Density = 2.775235 g / cm^3
# Si number density = 27.815656 Si / 1000 Ang^3
#
#
#
# Elastic Constant Matrix: (Units=GPa)
#
#
# Indices 1 2 3 4 5 6 
#
# 1 59.6418 -13.6976 2.6226 0.0000 0.0000 0.0000
# 2 -13.6976 173.7195 30.0504 0.0000 0.0000 0.0000
# 3 2.6226 30.0504 103.7709 0.0000 0.0000 0.0000
# 4 0.0000 0.0000 0.0000 31.3818 0.0000 0.0000
# 5 0.0000 0.0000 0.0000 0.0000 168.9260 0.0000
# 6 0.0000 0.0000 0.0000 0.0000 0.0000 22.4215
#
#
#
# Elastic Compliance Matrix: (Units=1/GPa)
#
#
# Indices 1 2 3 4 5 6 
#
# 1 0.017150 0.001503 -0.000869 0.000000 0.000000 0.000000
# 2 0.001503 0.006192 -0.001831 0.000000 0.000000 0.000000
# 3 -0.000869 -0.001831 0.010189 0.000000 0.000000 0.000000
# 4 0.000000 0.000000 0.000000 0.031866 0.000000 0.000000
# 5 0.000000 0.000000 0.000000 0.000000 0.005920 0.000000
# 6 0.000000 0.000000 0.000000 0.000000 0.000000 0.044600
#
#
# Mechanical properties :
#
#
# Convention : Reuss Voigt Hill
#
# Bulk Modulus (GPa) = 32.11672 41.67589 36.89631
# Shear Modulus (GPa) = 38.85348 65.75633 52.30490
#
# Velocity S-wave (km/s) = 3.74146 4.86738 4.34108
# Velocity P-wave (km/s) = 5.49873 6.82670 6.19838
#
# Compressibility (1/GPa) = 0.03113643
#
# Stress axis : x y z
#
# Youngs Moduli (GPa) = 58.30892 161.50916 98.14720
#
# Poissons Ratio (x) = -0.24267 0.08524
# Poissons Ratio (y) = -0.08761 0.17970
# Poissons Ratio (z) = 0.05064 0.29572
#
# Static dielectric constant tensor:
#      x y z
#    x 1.116310 0.000000 0.000000 
#    y 0.000000 2.245350 0.000000 
#    z 0.000000 0.000000 2.166420 
# 
# From -- ./inp_files/3655.got.cif
#   From: 2010.05.17/outbox.cif.g08.bks.cpg/sg32_2_cif.got.tgz:3655.got - 2010.06.03 17:12:27.
