data_PCOD9344844
_publ_section_title
;
Structure prediction by ZEFSAII (Michael W. Deem and Ramdas Pophale) SiO2 
 PCOD9344844
Probable space group: P N A 21
;
_chemical_formula_sum "Si O2"
_cell_formula_units_Z 28
_cell_length_a 17.715931
_cell_length_b 9.316471
_cell_length_c 9.298077
_cell_angle_alpha 90.000000
_cell_angle_beta 90.000000
_cell_angle_gamma 90.000000
_cell_volume 1534.647213
_symmetry_space_group_name_H-M "P N A 21"
_symmetry_group_IT_number 33
_symmetry_cell_setting 'orthorhombic'
loop_
_space_group_symop_operation_xyz
x,y,z
-x,-y,1/2+z
1/2-x,1/2+y,1/2+z
1/2+x,1/2-y,z
loop_
_atom_site_type_symbol
_atom_site_label
_atom_site_fract_x
_atom_site_fract_y
_atom_site_fract_z
Si Si1 0.884881 0.253812 0.685530
Si Si2 0.134045 0.828268 0.726461
Si Si3 0.635338 0.055697 0.341532
Si Si4 0.885638 0.012202 0.924336
Si Si5 0.499847 0.247339 0.423520
Si Si6 0.788078 0.827585 0.726848
Si Si7 0.788595 0.056820 0.498634
O O1 0.870262 0.403265 0.764678
O O2 0.903219 0.132988 0.804718
O O3 0.950358 0.268007 0.567074
O O4 0.813299 0.192759 0.595354
O O5 0.126600 0.909130 0.575641
O O6 0.056564 0.764289 0.788150
O O7 0.199876 0.708915 0.721058
O O8 0.165359 0.934155 0.850669
O O9 0.556645 0.115090 0.401385
O O10 0.666565 0.179133 0.234916
O O11 0.700395 0.053152 0.462584
O O12 0.813200 0.923451 0.863832
O O13 0.950904 0.892845 0.933644
O O14 0.810482 0.917948 0.588445
#
# Coordination Sequence:
#
# PCOD9344844 Si02
#       7
#     4   4   4   4   4   4   4
#     4  10  21  38  59  83 114 148 186 233 280 332
#     4  10  20  35  60  84 110 146 187 230 276 331
#     4  10  21  36  57  84 115 144 185 237 280 325
#     4  10  20  38  61  82 109 149 187 225 278 338
#     4  10  22  38  54  82 116 148 186 230 276 332
#     4   9  20  37  58  82 109 142 185 233 278 328
#     4   9  20  38  57  81 111 145 186 230 280 336
#
# _framework density 18.245235999999998
#
# number of rings (size 3 to 8) (size 9 to 14) (size 15 to 20)
#    0.000    2.286    0.000    1.714    0.000   12.571 
#    0.000    1.429    0.000    5.143    0.000    0.000 
#    0.000    0.000    0.000    0.000    0.000    0.000 
#
# Total GULP energy -156171.328394 kJ/mol
# GULP energy per Si atom -5577.547443 kJ/mol
# Density = 1.820371 g / cm^3
# Si number density = 18.245236 Si / 1000 Ang^3
#
#
#
# Elastic Constant Matrix: (Units=GPa)
#
#
# Indices 1 2 3 4 5 6 
#
# 1 100.6626 48.7646 42.9144 0.0000 0.0000 0.0000
# 2 48.7646 130.3238 57.2760 0.0000 0.0000 0.0000
# 3 42.9144 57.2760 111.4420 0.0000 0.0000 0.0000
# 4 0.0000 0.0000 0.0000 25.3654 0.0000 0.0000
# 5 0.0000 0.0000 0.0000 0.0000 11.0990 0.0000
# 6 0.0000 0.0000 0.0000 0.0000 0.0000 11.3258
#
#
#
# Elastic Compliance Matrix: (Units=1/GPa)
#
#
# Indices 1 2 3 4 5 6 
#
# 1 0.012976 -0.003435 -0.003231 0.000000 0.000000 0.000000
# 2 -0.003435 0.010822 -0.004239 0.000000 0.000000 0.000000
# 3 -0.003231 -0.004239 0.012396 0.000000 0.000000 0.000000
# 4 0.000000 0.000000 0.000000 0.039424 0.000000 0.000000
# 5 0.000000 0.000000 0.000000 0.000000 0.090098 0.000000
# 6 0.000000 0.000000 0.000000 0.000000 0.000000 0.088294
#
#
# Mechanical properties :
#
#
# Convention : Reuss Voigt Hill
#
# Bulk Modulus (GPa) = 69.52738 71.14873 70.33806
# Shear Modulus (GPa) = 17.81807 22.45629 20.13718
#
# Velocity S-wave (km/s) = 3.12843 3.51209 3.32579
# Velocity P-wave (km/s) = 7.15816 7.45163 7.30637
#
# Compressibility (1/GPa) = 0.01438282
#
# Stress axis : x y z
#
# Youngs Moduli (GPa) = 77.06616 92.40821 80.66996
#
# Poissons Ratio (x) = 0.31744 0.26066
# Poissons Ratio (y) = 0.26474 0.34195
# Poissons Ratio (z) = 0.24902 0.39171
#
# Static dielectric constant tensor:
#      x y z
#    x 1.639480 0.000000 0.000000 
#    y 0.000000 1.614350 0.000000 
#    z 0.000000 0.000000 1.620790 
# 
# From -- ./inp_files/4706.got.cif
#   From: 2010.05.17/outbox.cif.g08.bks.cpg/sg33_3_cif.got.tgz:4706.got - 2010.06.03 17:15:25.
