data_PCOD9344786
_publ_section_title
;
Structure prediction by ZEFSAII (Michael W. Deem and Ramdas Pophale) SiO2 
 PCOD9344786
Probable space group: P N A 21
;
_chemical_formula_sum "Si O2"
_cell_formula_units_Z 24
_cell_length_a 16.608877
_cell_length_b 5.348007
_cell_length_c 11.246213
_cell_angle_alpha 90.000000
_cell_angle_beta 90.000000
_cell_angle_gamma 90.000000
_cell_volume 998.938015
_symmetry_space_group_name_H-M "P N A 21"
_symmetry_group_IT_number 33
_symmetry_cell_setting 'orthorhombic'
loop_
_space_group_symop_operation_xyz
x,y,z
-x,-y,1/2+z
1/2-x,1/2+y,1/2+z
1/2+x,1/2-y,z
loop_
_atom_site_type_symbol
_atom_site_label
_atom_site_fract_x
_atom_site_fract_y
_atom_site_fract_z
Si Si1 0.060295 0.144296 0.541580
Si Si2 0.384106 0.139767 0.033817
Si Si3 0.009937 0.589423 0.777376
Si Si4 0.613779 0.836334 0.123319
Si Si5 0.805516 0.853859 0.538614
Si Si6 0.410590 0.597719 0.315893
O O1 0.097501 0.376917 0.473326
O O2 0.104427 0.117093 0.672944
O O3 0.967685 0.206714 0.569539
O O4 0.080975 0.888289 0.478198
O O5 0.437724 0.111785 0.153890
O O6 0.289811 0.167530 0.048949
O O7 0.052714 0.367470 0.848799
O O8 0.925005 0.476536 0.736569
O O9 0.027511 0.865203 0.826199
O O10 0.668884 0.587371 0.124561
O O11 0.657098 0.077050 0.063032
O O12 0.836747 0.937686 0.406641
#
# Coordination Sequence:
#
# PCOD9344786 Si02
#       6
#     4   4   4   4   4   4
#     4   9  18  38  54  65  99 153 175 182 253 354
#     4   9  18  31  54  75  98 132 176 212 253 310
#     4   9  18  38  54  66  99 155 177 182 252 354
#     4  10  20  32  54  78 105 137 177 216 260 314
#     4  12  20  30  54  89 105 118 177 250 260 264
#     4   9  18  31  54  75 100 135 176 210 252 312
#
# _framework density 24.025511999999999
#
# number of rings (size 3 to 8) (size 9 to 14) (size 15 to 20)
#    0.000    2.667    0.000    6.000    0.000    0.000 
#    0.000    0.000    0.000  100.000    0.000    0.000 
#    0.000    0.000    0.000    0.000    0.000    0.000 
#
# Total GULP energy -133707.665904 kJ/mol
# GULP energy per Si atom -5571.152746 kJ/mol
# Density = 2.397083 g / cm^3
# Si number density = 24.025512 Si / 1000 Ang^3
#
#
#
# Elastic Constant Matrix: (Units=GPa)
#
#
# Indices 1 2 3 4 5 6 
#
# 1 110.4913 65.1916 18.7500 0.0000 0.0000 0.0000
# 2 65.1916 249.7744 6.1937 0.0000 0.0000 0.0000
# 3 18.7500 6.1937 65.4671 0.0000 0.0000 0.0000
# 4 0.0000 0.0000 0.0000 34.1464 0.0000 0.0000
# 5 0.0000 0.0000 0.0000 0.0000 11.6762 0.0000
# 6 0.0000 0.0000 0.0000 0.0000 0.0000 32.7624
#
#
#
# Elastic Compliance Matrix: (Units=1/GPa)
#
#
# Indices 1 2 3 4 5 6 
#
# 1 0.011238 -0.002860 -0.002948 0.000000 0.000000 0.000000
# 2 -0.002860 0.004741 0.000371 0.000000 0.000000 0.000000
# 3 -0.002948 0.000371 0.016084 0.000000 0.000000 0.000000
# 4 0.000000 0.000000 0.000000 0.029286 0.000000 0.000000
# 5 0.000000 0.000000 0.000000 0.000000 0.085645 0.000000
# 6 0.000000 0.000000 0.000000 0.000000 0.000000 0.030523
#
#
# Mechanical properties :
#
#
# Convention : Reuss Voigt Hill
#
# Bulk Modulus (GPa) = 47.19621 67.33373 57.26497
# Shear Modulus (GPa) = 25.58144 38.09017 31.83580
#
# Velocity S-wave (km/s) = 3.26661 3.98603 3.64412
# Velocity P-wave (km/s) = 5.82361 7.01936 6.44926
#
# Compressibility (1/GPa) = 0.02118814
#
# Stress axis : x y z
#
# Youngs Moduli (GPa) = 88.98158 210.92969 62.17310
#
# Poissons Ratio (x) = 0.60328 0.18329
# Poissons Ratio (y) = 0.25450 -0.02304
# Poissons Ratio (z) = 0.26233 -0.07817
#
# Static dielectric constant tensor:
#      x y z
#    x 1.954360 0.000000 0.000000 
#    y 0.000000 2.029900 0.000000 
#    z 0.000000 0.000000 2.157180 
# 
# From -- ./inp_files/8048.got.cif
#   From: 2010.05.17/outbox.cif.g08.bks.cpg/sg33_5_cif.got.tgz:8048.got - 2010.06.03 17:15:25.
