data_PCOD9344572
_publ_section_title
;
Structure prediction by ZEFSAII (Michael W. Deem and Ramdas Pophale) SiO2 
 PCOD9344572
Probable space group: P N A 21
;
_chemical_formula_sum "Si O2"
_cell_formula_units_Z 28
_cell_length_a 14.503161
_cell_length_b 9.020574
_cell_length_c 9.892543
_cell_angle_alpha 90.000000
_cell_angle_beta 90.000000
_cell_angle_gamma 90.000000
_cell_volume 1294.210111
_symmetry_space_group_name_H-M "P N A 21"
_symmetry_group_IT_number 33
_symmetry_cell_setting 'orthorhombic'
loop_
_space_group_symop_operation_xyz
x,y,z
-x,-y,1/2+z
1/2-x,1/2+y,1/2+z
1/2+x,1/2-y,z
loop_
_atom_site_type_symbol
_atom_site_label
_atom_site_fract_x
_atom_site_fract_y
_atom_site_fract_z
Si Si1 0.358817 0.821330 0.795280
Si Si2 0.701579 0.083644 0.564110
Si Si3 0.153213 0.870847 0.695462
Si Si4 0.500910 0.206104 0.063897
Si Si5 0.708780 0.404543 0.478099
Si Si6 0.866964 0.609835 0.353423
Si Si7 0.369592 0.567885 0.448598
O O1 0.259120 0.832615 0.725512
O O2 0.437065 0.849128 0.688312
O O3 0.354808 0.930522 0.924057
O O4 0.358659 0.657399 0.861270
O O5 0.740639 0.251970 0.548759
O O6 0.638101 0.078064 0.694922
O O7 0.790553 0.980845 0.552880
O O8 0.115705 0.939151 0.837053
O O9 0.099266 0.736376 0.624531
O O10 0.155327 0.000610 0.586579
O O11 0.535770 0.111981 0.934044
O O12 0.540743 0.370483 0.024616
O O13 0.794095 0.497952 0.420930
O O14 0.834659 0.780882 0.375280
#
# Coordination Sequence:
#
# PCOD9344572 Si02
#       7
#     4   4   4   4   4   4   4
#     4   9  20  36  57  85 116 163 185 238 312 347
#     4   9  19  34  56  84 120 152 190 247 296 357
#     4  11  19  37  57  90 122 152 202 252 297 355
#     4  10  21  33  59  86 118 151 203 243 294 357
#     4  10  19  33  61  80 116 156 193 236 304 350
#     4  10  19  35  56  87 114 149 201 241 288 360
#     4   9  19  34  54  90 114 149 198 245 295 352
#
# _framework density 21.634819
#
# number of rings (size 3 to 8) (size 9 to 14) (size 15 to 20)
#    1.714    0.571    2.857    0.857    2.000    0.000 
#    0.000    0.000    3.143   12.000    0.000    0.000 
#    0.000    0.000    0.000    0.000    0.000    0.000 
#
# Total GULP energy -155892.522116 kJ/mol
# GULP energy per Si atom -5567.590076 kJ/mol
# Density = 2.158558 g / cm^3
# Si number density = 21.634819 Si / 1000 Ang^3
#
#
#
# Elastic Constant Matrix: (Units=GPa)
#
#
# Indices 1 2 3 4 5 6 
#
# 1 59.8969 10.6641 23.8517 0.0000 0.0000 0.0000
# 2 10.6641 56.1907 13.5247 0.0000 0.0000 0.0000
# 3 23.8517 13.5247 109.5254 0.0000 0.0000 0.0000
# 4 0.0000 0.0000 0.0000 25.6612 0.0000 0.0000
# 5 0.0000 0.0000 0.0000 0.0000 8.3679 0.0000
# 6 0.0000 0.0000 0.0000 0.0000 0.0000 24.4368
#
#
#
# Elastic Compliance Matrix: (Units=1/GPa)
#
#
# Indices 1 2 3 4 5 6 
#
# 1 0.018653 -0.002641 -0.003736 0.000000 0.000000 0.000000
# 2 -0.002641 0.018716 -0.001736 0.000000 0.000000 0.000000
# 3 -0.003736 -0.001736 0.010158 0.000000 0.000000 0.000000
# 4 0.000000 0.000000 0.000000 0.038969 0.000000 0.000000
# 5 0.000000 0.000000 0.000000 0.000000 0.119504 0.000000
# 6 0.000000 0.000000 0.000000 0.000000 0.000000 0.040922
#
#
# Mechanical properties :
#
#
# Convention : Reuss Voigt Hill
#
# Bulk Modulus (GPa) = 31.94753 35.74378 33.84566
# Shear Modulus (GPa) = 18.27608 23.53136 20.90372
#
# Velocity S-wave (km/s) = 2.90962 3.30155 3.11176
# Velocity P-wave (km/s) = 5.10750 5.57592 5.34685
#
# Compressibility (1/GPa) = 0.03130132
#
# Stress axis : x y z
#
# Youngs Moduli (GPa) = 53.60984 53.43146 98.44174
#
# Poissons Ratio (x) = 0.14110 0.36779
# Poissons Ratio (y) = 0.14158 0.17089
# Poissons Ratio (z) = 0.20029 0.09276
#
# Static dielectric constant tensor:
#      x y z
#    x 1.771070 0.000000 0.000000 
#    y 0.000000 1.845910 0.000000 
#    z 0.000000 0.000000 1.830950 
# 
# From -- ./inp_files/6863.got.cif
#   From: 2010.05.17/outbox.cif.g08.bks.cpg/sg33_4_cif.got.tgz:6863.got - 2010.06.03 17:15:25.
