data_PCOD9344991
_publ_section_title
;
Structure prediction by ZEFSAII (Michael W. Deem and Ramdas Pophale) SiO2 
 PCOD9344991
Probable space group: P N A 21
;
_chemical_formula_sum "Si O2"
_cell_formula_units_Z 20
_cell_length_a 13.353772
_cell_length_b 5.436179
_cell_length_c 10.925057
_cell_angle_alpha 90.000000
_cell_angle_beta 90.000000
_cell_angle_gamma 90.000000
_cell_volume 793.088070
_symmetry_space_group_name_H-M "P N A 21"
_symmetry_group_IT_number 33
_symmetry_cell_setting 'orthorhombic'
loop_
_space_group_symop_operation_xyz
x,y,z
-x,-y,1/2+z
1/2-x,1/2+y,1/2+z
1/2+x,1/2-y,z
loop_
_atom_site_type_symbol
_atom_site_label
_atom_site_fract_x
_atom_site_fract_y
_atom_site_fract_z
Si Si1 0.861797 0.989958 0.151690
Si Si2 0.253035 0.981848 0.947917
Si Si3 0.669648 0.522895 0.377504
Si Si4 0.862860 0.300126 0.633788
Si Si5 0.930244 0.489540 0.149668
O O1 0.904366 0.234251 0.213286
O O2 0.742206 0.948548 0.145684
O O3 0.907014 0.748491 0.212866
O O4 0.891857 0.005970 0.006011
O O5 0.286235 0.751318 0.862923
O O6 0.248751 0.259688 0.901306
O O7 0.158292 0.886018 0.022718
O O8 0.346986 0.000886 0.042303
O O9 0.621668 0.632740 0.254942
O O10 0.954744 0.482298 0.613381
#
# Coordination Sequence:
#
# PCOD9344991 Si02
#       5
#     4   4   4   4   4
#     4   9  21  38  53  86 122 137 189 250 269 333
#     4   9  21  38  52  85 122 137 188 250 270 332
#     4   9  19  36  57  81 114 150 185 236 284 332
#     4  10  20  38  65  80 113 164 190 226 303 350
#     4   9  19  36  55  78 111 150 184 232 286 327
#
# _framework density 25.217880000000001
#
# number of rings (size 3 to 8) (size 9 to 14) (size 15 to 20)
#    0.000    3.200    0.000    0.000    0.000   14.400 
#    0.000   28.000    0.000    0.000    0.000    0.000 
#    0.000    0.000    0.000    0.000    0.000    0.000 
#
# Total GULP energy -111439.376355 kJ/mol
# GULP energy per Si atom -5571.968818 kJ/mol
# Density = 2.516048 g / cm^3
# Si number density = 25.217880 Si / 1000 Ang^3
#
#
#
# Elastic Constant Matrix: (Units=GPa)
#
#
# Indices 1 2 3 4 5 6 
#
# 1 117.1865 10.7555 -22.4111 0.0000 0.0000 0.0000
# 2 10.7555 205.5321 -16.7984 0.0000 0.0000 0.0000
# 3 -22.4111 -16.7984 60.6025 0.0000 0.0000 0.0000
# 4 0.0000 0.0000 0.0000 -0.2298 0.0000 0.0000
# 5 0.0000 0.0000 0.0000 0.0000 -3.8940 0.0000
# 6 0.0000 0.0000 0.0000 0.0000 0.0000 15.6920
#
#
#
# Elastic Compliance Matrix: (Units=1/GPa)
#
#
# Indices 1 2 3 4 5 6 
#
# 1 0.009192 -0.000208 0.003341 0.000000 0.000000 0.000000
# 2 -0.000208 0.004983 0.001304 0.000000 0.000000 0.000000
# 3 0.003341 0.001304 0.018098 0.000000 0.000000 0.000000
# 4 0.000000 0.000000 0.000000 -4.352240 0.000000 0.000000
# 5 0.000000 0.000000 0.000000 0.000000 -0.256807 0.000000
# 6 0.000000 0.000000 0.000000 0.000000 0.000000 0.063727
#
#
# Mechanical properties :
#
#
# Convention : Reuss Voigt Hill
#
# Bulk Modulus (GPa) = 24.30232 36.26813 30.28523
# Shear Modulus (GPa) = -1.10909 29.76531 14.32811
#
# Velocity S-wave (km/s) = -0.66390 3.43931 2.38622
# Velocity P-wave (km/s) = 3.01167 5.49409 4.43030
#
# Compressibility (1/GPa) = 0.04114834
#
# Stress axis : x y z
#
# Youngs Moduli (GPa) = 108.79603 200.68620 55.25416
#
# Poissons Ratio (x) = 0.04172 -0.18463
# Poissons Ratio (y) = 0.02262 -0.07207
# Poissons Ratio (z) = -0.36353 -0.26176
#
# Static dielectric constant tensor:
#      x y z
#    x 1.971050 0.000000 0.000000 
#    y 0.000000 2.118990 0.000000 
#    z 0.000000 0.000000 2.109410 
# 
# From -- ./inp_files/6606.got.cif
#   From: 2010.05.17/outbox.cif.g08.bks.cpg/sg33_4_cif.got.tgz:6606.got - 2010.06.03 17:15:25.
