data_PCOD9344960
_publ_section_title
;
Structure prediction by ZEFSAII (Michael W. Deem and Ramdas Pophale) SiO2 
 PCOD9344960
Probable space group: P N A 21
;
_chemical_formula_sum "Si O2"
_cell_formula_units_Z 24
_cell_length_a 12.411929
_cell_length_b 7.259393
_cell_length_c 11.704993
_cell_angle_alpha 90.000000
_cell_angle_beta 90.000000
_cell_angle_gamma 90.000000
_cell_volume 1054.655809
_symmetry_space_group_name_H-M "P N A 21"
_symmetry_group_IT_number 33
_symmetry_cell_setting 'orthorhombic'
loop_
_space_group_symop_operation_xyz
x,y,z
-x,-y,1/2+z
1/2-x,1/2+y,1/2+z
1/2+x,1/2-y,z
loop_
_atom_site_type_symbol
_atom_site_label
_atom_site_fract_x
_atom_site_fract_y
_atom_site_fract_z
Si Si1 0.966819 0.830629 0.609110
Si Si2 0.727200 0.889510 0.567400
Si Si3 0.062487 0.558112 0.756204
Si Si4 0.569549 0.201028 0.465752
Si Si5 0.867200 0.105305 0.914450
Si Si6 0.506154 0.682107 0.208179
O O1 0.851202 0.919233 0.592044
O O2 0.970288 0.630676 0.666414
O O3 0.029140 0.833390 0.490431
O O4 0.026912 0.968050 0.699164
O O5 0.667829 0.868708 0.690314
O O6 0.723539 0.708800 0.486445
O O7 0.658220 0.048669 0.503337
O O8 0.016477 0.629146 0.874577
O O9 0.070078 0.337699 0.762112
O O10 0.630754 0.384366 0.420194
O O11 0.500806 0.259781 0.576423
O O12 0.888063 0.181069 0.787731
#
# Coordination Sequence:
#
# PCOD9344960 Si02
#       6
#     4   4   4   4   4   4
#     4  10  22  40  60  90 120 159 205 246 296 360
#     4  10  22  40  60  90 120 159 205 246 296 360
#     4  10  20  40  62  83 125 158 195 252 303 346
#     4  10  20  38  61  84 116 159 200 244 303 353
#     4  10  20  40  62  83 125 158 195 252 303 346
#     4  10  20  38  61  84 116 159 200 244 303 353
#
# _framework density 22.756239000000001
#
# number of rings (size 3 to 8) (size 9 to 14) (size 15 to 20)
#    0.000    2.000    3.333    0.000    0.000    1.333 
#   12.000    0.000    0.000    0.000    0.000    0.000 
#    0.000    0.000    0.000    0.000    0.000    0.000 
#
# Total GULP energy -133671.395903 kJ/mol
# GULP energy per Si atom -5569.641496 kJ/mol
# Density = 2.270444 g / cm^3
# Si number density = 22.756239 Si / 1000 Ang^3
#
#
#
# Elastic Constant Matrix: (Units=GPa)
#
#
# Indices 1 2 3 4 5 6 
#
# 1 49.8396 9.9328 16.6125 0.0000 0.0000 0.0000
# 2 9.9328 97.3972 9.0587 0.0000 0.0000 0.0000
# 3 16.6125 9.0587 65.5114 0.0000 0.0000 0.0000
# 4 0.0000 0.0000 0.0000 34.9177 0.0000 0.0000
# 5 0.0000 0.0000 0.0000 0.0000 13.4328 0.0000
# 6 0.0000 0.0000 0.0000 0.0000 0.0000 9.7909
#
#
#
# Elastic Compliance Matrix: (Units=1/GPa)
#
#
# Indices 1 2 3 4 5 6 
#
# 1 0.022212 -0.001764 -0.005389 0.000000 0.000000 0.000000
# 2 -0.001764 0.010541 -0.001010 0.000000 0.000000 0.000000
# 3 -0.005389 -0.001010 0.016771 0.000000 0.000000 0.000000
# 4 0.000000 0.000000 0.000000 0.028639 0.000000 0.000000
# 5 0.000000 0.000000 0.000000 0.000000 0.074445 0.000000
# 6 0.000000 0.000000 0.000000 0.000000 0.000000 0.102136
#
#
# Mechanical properties :
#
#
# Convention : Reuss Voigt Hill
#
# Bulk Modulus (GPa) = 30.12235 31.55068 30.83652
# Shear Modulus (GPa) = 17.72199 23.43788 20.57994
#
# Velocity S-wave (km/s) = 2.79368 3.21277 3.01053
# Velocity P-wave (km/s) = 4.86538 5.25902 5.06602
#
# Compressibility (1/GPa) = 0.03319794
#
# Stress axis : x y z
#
# Youngs Moduli (GPa) = 45.02050 94.86676 59.62784
#
# Poissons Ratio (x) = 0.16735 0.32132
# Poissons Ratio (y) = 0.07942 0.06024
# Poissons Ratio (z) = 0.24260 0.09584
#
# Static dielectric constant tensor:
#      x y z
#    x 1.837020 0.000000 0.000000 
#    y 0.000000 1.940570 0.000000 
#    z 0.000000 0.000000 1.875310 
# 
# From -- ./inp_files/6285.got.cif
#   From: 2010.05.17/outbox.cif.g08.bks.cpg/sg33_4_cif.got.tgz:6285.got - 2010.06.03 17:15:25.
