data_PCOD9344562
_publ_section_title
;
Structure prediction by ZEFSAII (Michael W. Deem and Ramdas Pophale) SiO2 
 PCOD9344562
Probable space group: P N A 21
;
_chemical_formula_sum "Si O2"
_cell_formula_units_Z 32
_cell_length_a 9.483833
_cell_length_b 10.216399
_cell_length_c 11.694766
_cell_angle_alpha 90.000000
_cell_angle_beta 90.000000
_cell_angle_gamma 90.000000
_cell_volume 1133.113152
_symmetry_space_group_name_H-M "P N A 21"
_symmetry_group_IT_number 33
_symmetry_cell_setting 'orthorhombic'
loop_
_space_group_symop_operation_xyz
x,y,z
-x,-y,1/2+z
1/2-x,1/2+y,1/2+z
1/2+x,1/2-y,z
loop_
_atom_site_type_symbol
_atom_site_label
_atom_site_fract_x
_atom_site_fract_y
_atom_site_fract_z
Si Si1 0.035823 0.279124 0.281120
Si Si2 0.131046 0.752401 0.136899
Si Si3 0.093630 0.189388 0.760096
Si Si4 0.822223 0.871458 0.586892
Si Si5 0.291960 0.013665 0.526684
Si Si6 0.789322 0.078854 0.291811
Si Si7 0.433484 0.996150 0.114690
Si Si8 0.397226 0.316796 0.956035
O O1 0.149980 0.193458 0.210170
O O2 0.916475 0.178258 0.317819
O O3 0.145859 0.369698 0.350327
O O4 0.954905 0.387248 0.204753
O O5 0.011778 0.861725 0.157056
O O6 0.263131 0.759098 0.221861
O O7 0.203530 0.671664 0.032569
O O8 0.008962 0.635884 0.158300
O O9 0.155021 0.062228 0.826811
O O10 0.980932 0.242011 0.850683
O O11 0.732035 0.005528 0.588951
O O12 0.715106 0.778616 0.515402
O O13 0.978577 0.861324 0.539695
O O14 0.454371 0.969239 0.514824
O O15 0.246958 0.956525 0.654794
O O16 0.193178 0.948462 0.434136
#
# Coordination Sequence:
#
# PCOD9344562 Si02
#       8
#     4   4   4   4   4   4   4   4
#     4  11  15  30  57  81 104 130 190 262 276 324
#     4   9  21  40  53  80 127 161 200 242 305 381
#     4  11  23  38  53  87 127 170 185 253 322 369
#     4  12  17  29  55  94 108 145 189 261 313 342
#     4   8  16  35  53  79 112 150 190 251 281 366
#     4  10  19  33  56  83 108 145 197 239 303 345
#     4   9  17  32  55  82 112 139 196 252 294 340
#     4  12  20  31  56  88 130 150 199 262 318 357
#
# _framework density 28.240783
#
# number of rings (size 3 to 8) (size 9 to 14) (size 15 to 20)
#    0.750    1.000    7.500    0.750    0.000    1.000 
#    0.000    0.000    0.000    3.000    0.000    0.000 
#    0.000    0.000    0.000    0.000    0.000    0.000 
#
# Total GULP energy -178302.582397 kJ/mol
# GULP energy per Si atom -5571.955700 kJ/mol
# Density = 2.817651 g / cm^3
# Si number density = 28.240783 Si / 1000 Ang^3
#
#
#
# Elastic Constant Matrix: (Units=GPa)
#
#
# Indices 1 2 3 4 5 6 
#
# 1 240.5044 17.8779 30.0100 0.0000 0.0000 0.0000
# 2 17.8779 -0.1595 40.3987 0.0000 0.0000 0.0000
# 3 30.0100 40.3987 39.7295 0.0000 0.0000 0.0000
# 4 0.0000 0.0000 0.0000 33.2812 0.0000 0.0000
# 5 0.0000 0.0000 0.0000 0.0000 31.7678 0.0000
# 6 0.0000 0.0000 0.0000 0.0000 0.0000 47.4860
#
#
#
# Elastic Compliance Matrix: (Units=1/GPa)
#
#
# Indices 1 2 3 4 5 6 
#
# 1 0.004510 -0.001382 -0.002001 0.000000 0.000000 0.000000
# 2 -0.001382 -0.023825 0.025271 0.000000 0.000000 0.000000
# 3 -0.002001 0.025271 0.000985 0.000000 0.000000 0.000000
# 4 0.000000 0.000000 0.000000 0.030047 0.000000 0.000000
# 5 0.000000 0.000000 0.000000 0.000000 0.031478 0.000000
# 6 0.000000 0.000000 0.000000 0.000000 0.000000 0.021059
#
#
# Mechanical properties :
#
#
# Convention : Reuss Voigt Hill
#
# Bulk Modulus (GPa) = 39.30077 50.73864 45.01971
# Shear Modulus (GPa) = 172.63999 35.29284 103.96642
#
# Velocity S-wave (km/s) = 7.82714 3.53896 6.07406
# Velocity P-wave (km/s) = 9.77917 5.89105 8.07269
#
# Compressibility (1/GPa) = 0.02544479
#
# Stress axis : x y z
#
# Youngs Moduli (GPa) = 221.70884 -41.97192 1014.71827
#
# Poissons Ratio (x) = -0.05801 2.03094
# Poissons Ratio (y) = 0.30645 -25.64281
# Poissons Ratio (z) = 0.44375 1.06067
#
# Static dielectric constant tensor:
#      x y z
#    x 2.231210 0.000000 0.000000 
#    y 0.000000 2.758420 0.000000 
#    z 0.000000 0.000000 2.656270 
# 
# From -- ./inp_files/8576.got.cif
#   From: 2010.05.17/outbox.cif.g08.bks.cpg/sg33_5_cif.got.tgz:8576.got - 2010.06.03 17:15:25.
