data_PCOD9344222
_publ_section_title
;
Structure prediction by ZEFSAII (Michael W. Deem and Ramdas Pophale) SiO2 
 PCOD9344222
Probable space group: P B A 2
;
_chemical_formula_sum "Si O2"
_cell_formula_units_Z 32
_cell_length_a 14.802321
_cell_length_b 8.386171
_cell_length_c 12.013547
_cell_angle_alpha 90.000000
_cell_angle_beta 90.000000
_cell_angle_gamma 90.000000
_cell_volume 1491.299195
_symmetry_space_group_name_H-M "P B A 2"
_symmetry_group_IT_number 32
_symmetry_cell_setting 'orthorhombic'
loop_
_space_group_symop_operation_xyz
x,y,z
-x,-y,z
1/2-x,1/2+y,z
1/2+x,1/2-y,z
loop_
_atom_site_type_symbol
_atom_site_label
_atom_site_fract_x
_atom_site_fract_y
_atom_site_fract_z
Si Si1 0.981110 0.688520 0.794920
Si Si2 0.933718 0.848553 0.562550
Si Si3 0.202435 0.902433 0.103223
Si Si4 0.302035 0.144636 0.264982
Si Si5 0.175411 0.739089 0.781139
Si Si6 0.658443 0.144089 0.405135
Si Si7 0.257126 0.997762 0.626210
Si Si8 0.175685 0.184000 0.954750
O O1 0.957592 0.738666 0.668505
O O2 0.903566 0.747537 0.878198
O O3 0.000000 0.500000 0.806635
O O4 0.075666 0.775858 0.820724
O O5 0.925514 0.749894 0.447692
O O6 0.834226 0.916316 0.588697
O O7 0.000000 0.000000 0.556180
O O8 0.152525 0.767493 0.177180
O O9 0.153930 0.015226 0.013067
O O10 0.286845 0.812916 0.043753
O O11 0.241327 0.028454 0.190335
O O12 0.232713 0.247320 0.341076
O O13 0.359816 0.019028 0.337203
O O14 0.228607 0.884692 0.727462
O O15 0.170286 0.617947 0.677268
O O16 0.236206 0.663281 0.876714
O O17 0.704278 0.089483 0.520093
#
# Coordination Sequence:
#
# PCOD9344222 Si02
#       8
#     4   4   4   4   4   4   4   4
#     4  12  25  39  59  94 139 182 222 271 329 408
#     4  12  24  39  57  96 144 181 222 275 334 412
#     4   9  20  37  63  94 122 160 223 284 330 396
#     4   9  19  36  65  98 116 160 229 273 337 400
#     4  12  23  37  62  91 134 176 217 262 327 400
#     4  11  19  37  65  95 127 169 224 275 330 411
#     4  12  21  38  61  94 131 174 218 265 321 407
#     4  11  21  40  62  93 130 173 223 274 333 402
#
# _framework density 21.457801
#
# number of rings (size 3 to 8) (size 9 to 14) (size 15 to 20)
#    0.000    1.000    5.000    3.000    0.000    0.000 
#    0.000    0.000    0.000    4.500   19.500    0.000 
#    0.000    0.000    0.000    0.000    0.500    0.000 
#
# Total GULP energy -178680.484672 kJ/mol
# GULP energy per Si atom -5583.765146 kJ/mol
# Density = 2.140896 g / cm^3
# Si number density = 21.457801 Si / 1000 Ang^3
#
#
#
# Elastic Constant Matrix: (Units=GPa)
#
#
# Indices 1 2 3 4 5 6 
#
# 1 71.7556 21.6588 33.7288 0.0000 0.0000 0.0000
# 2 21.6588 117.7809 41.7019 0.0000 0.0000 0.0000
# 3 33.7288 41.7019 78.7819 0.0000 0.0000 0.0000
# 4 0.0000 0.0000 0.0000 91.8725 0.0000 0.0000
# 5 0.0000 0.0000 0.0000 0.0000 3.4857 0.0000
# 6 0.0000 0.0000 0.0000 0.0000 0.0000 9.7669
#
#
#
# Elastic Compliance Matrix: (Units=1/GPa)
#
#
# Indices 1 2 3 4 5 6 
#
# 1 0.017494 -0.000695 -0.007121 0.000000 0.000000 0.000000
# 2 -0.000695 0.010476 -0.005248 0.000000 0.000000 0.000000
# 3 -0.007121 -0.005248 0.018520 0.000000 0.000000 0.000000
# 4 0.000000 0.000000 0.000000 0.010885 0.000000 0.000000
# 5 0.000000 0.000000 0.000000 0.000000 0.286889 0.000000
# 6 0.000000 0.000000 0.000000 0.000000 0.000000 0.102387
#
#
# Mechanical properties :
#
#
# Convention : Reuss Voigt Hill
#
# Bulk Modulus (GPa) = 49.11429 51.38857 50.25143
# Shear Modulus (GPa) = 10.42608 32.44026 21.43317
#
# Velocity S-wave (km/s) = 2.20668 3.89243 3.16389
# Velocity P-wave (km/s) = 5.42504 6.64846 6.06766
#
# Compressibility (1/GPa) = 0.02036067
#
# Stress axis : x y z
#
# Youngs Moduli (GPa) = 57.16404 95.45410 53.99604
#
# Poissons Ratio (x) = 0.06639 0.38452
# Poissons Ratio (y) = 0.03976 0.28335
# Poissons Ratio (z) = 0.40708 0.50091
#
# Static dielectric constant tensor:
#      x y z
#    x 1.785740 0.000000 0.000000 
#    y 0.000000 1.795000 0.000000 
#    z 0.000000 0.000000 1.810610 
# 
# From -- ./inp_files/3775.got.cif
#   From: 2010.05.17/outbox.cif.g08.bks.cpg/sg32_2_cif.got.tgz:3775.got - 2010.06.03 17:12:27.
