data_PCOD9344502
_publ_section_title
;
Structure prediction by ZEFSAII (Michael W. Deem and Ramdas Pophale) SiO2 
 PCOD9344502
Probable space group: P N A 21
;
_chemical_formula_sum "Si O2"
_cell_formula_units_Z 32
_cell_length_a 15.262852
_cell_length_b 5.676461
_cell_length_c 15.218201
_cell_angle_alpha 90.000000
_cell_angle_beta 90.000000
_cell_angle_gamma 90.000000
_cell_volume 1318.489475
_symmetry_space_group_name_H-M "P N A 21"
_symmetry_group_IT_number 33
_symmetry_cell_setting 'orthorhombic'
loop_
_space_group_symop_operation_xyz
x,y,z
-x,-y,1/2+z
1/2-x,1/2+y,1/2+z
1/2+x,1/2-y,z
loop_
_atom_site_type_symbol
_atom_site_label
_atom_site_fract_x
_atom_site_fract_y
_atom_site_fract_z
Si Si1 0.488689 0.764042 0.927670
Si Si2 0.680847 0.414958 0.725729
Si Si3 0.434660 0.743918 0.379107
Si Si4 0.696335 0.287019 0.043758
Si Si5 0.143085 0.408943 0.560921
Si Si6 0.463127 0.250698 0.174435
Si Si7 0.569248 0.652839 0.103507
Si Si8 0.867473 0.523452 0.712594
O O1 0.511940 0.505672 0.887403
O O2 0.508365 0.017055 0.882176
O O3 0.393154 0.782742 0.973371
O O4 0.554079 0.777120 0.011438
O O5 0.623410 0.259569 0.791600
O O6 0.680716 0.275508 0.632733
O O7 0.624755 0.657314 0.719957
O O8 0.777737 0.475054 0.763062
O O9 0.362965 0.745294 0.458137
O O10 0.796038 0.368762 0.033106
O O11 0.658717 0.516119 0.092205
O O12 0.673338 0.092290 0.116568
O O13 0.062837 0.531000 0.614261
O O14 0.492178 0.462892 0.111143
O O15 0.553490 0.206559 0.228770
O O16 0.579020 0.787547 0.194424
#
# Coordination Sequence:
#
# PCOD9344502 Si02
#       8
#     4   4   4   4   4   4   4   4
#     4  11  22  44  70  97 140 195 233 293 362 442
#     4  12  26  42  70 109 141 190 244 310 374 435
#     4  11  27  46  67 101 155 187 231 306 391 420
#     4  10  21  38  65  99 131 188 234 296 345 440
#     4  12  22  39  75 102 136 185 263 287 349 453
#     4  11  22  39  66 106 138 180 243 310 351 424
#     4  10  18  37  65  98 128 174 237 289 337 409
#     4  11  20  39  70  98 135 187 245 295 347 435
#
# _framework density 24.270198000000001
#
# number of rings (size 3 to 8) (size 9 to 14) (size 15 to 20)
#    0.000    1.000    6.250    1.500    1.750    0.000 
#    2.250    0.000    0.000    0.000    0.000    0.000 
#    0.000    0.000    0.000    0.000    0.000    0.000 
#
# Total GULP energy -178369.183616 kJ/mol
# GULP energy per Si atom -5574.036988 kJ/mol
# Density = 2.421496 g / cm^3
# Si number density = 24.270198 Si / 1000 Ang^3
#
#
#
# Elastic Constant Matrix: (Units=GPa)
#
#
# Indices 1 2 3 4 5 6 
#
# 1 102.7052 35.3340 13.9139 0.0000 0.0000 0.0000
# 2 35.3340 113.0460 35.9795 0.0000 0.0000 0.0000
# 3 13.9139 35.9795 58.2467 0.0000 0.0000 0.0000
# 4 0.0000 0.0000 0.0000 38.9435 0.0000 0.0000
# 5 0.0000 0.0000 0.0000 0.0000 24.1036 0.0000
# 6 0.0000 0.0000 0.0000 0.0000 0.0000 47.6221
#
#
#
# Elastic Compliance Matrix: (Units=1/GPa)
#
#
# Indices 1 2 3 4 5 6 
#
# 1 0.010928 -0.003217 -0.000623 0.000000 0.000000 0.000000
# 2 -0.003217 0.011958 -0.006618 0.000000 0.000000 0.000000
# 3 -0.000623 -0.006618 0.021405 0.000000 0.000000 0.000000
# 4 0.000000 0.000000 0.000000 0.025678 0.000000 0.000000
# 5 0.000000 0.000000 0.000000 0.000000 0.041488 0.000000
# 6 0.000000 0.000000 0.000000 0.000000 0.000000 0.020999
#
#
# Mechanical properties :
#
#
# Convention : Reuss Voigt Hill
#
# Bulk Modulus (GPa) = 42.78216 49.38364 46.08290
# Shear Modulus (GPa) = 31.02443 34.71856 32.87150
#
# Velocity S-wave (km/s) = 3.57920 3.78630 3.68421
# Velocity P-wave (km/s) = 5.89463 6.28541 6.09315
#
# Compressibility (1/GPa) = 0.02337423
#
# Stress axis : x y z
#
# Youngs Moduli (GPa) = 91.50900 83.62685 46.71781
#
# Poissons Ratio (x) = 0.26906 0.02911
# Poissons Ratio (y) = 0.29442 0.30917
# Poissons Ratio (z) = 0.05702 0.55344
#
# Static dielectric constant tensor:
#      x y z
#    x 2.003900 0.000000 0.000000 
#    y 0.000000 1.999240 0.000000 
#    z 0.000000 0.000000 1.983920 
# 
# From -- ./inp_files/8856.got.cif
#   From: 2010.05.17/outbox.cif.g08.bks.cpg/sg33_5_cif.got.tgz:8856.got - 2010.06.03 17:15:25.
