data_PCOD9344019
_publ_section_title
;
Structure prediction by ZEFSAII (Michael W. Deem and Ramdas Pophale) SiO2 
 PCOD9344019
Probable space group: P B A 2
;
_chemical_formula_sum "Si O2"
_cell_formula_units_Z 22
_cell_length_a 12.899660
_cell_length_b 12.432070
_cell_length_c 7.031169
_cell_angle_alpha 90.000000
_cell_angle_beta 90.000000
_cell_angle_gamma 90.000000
_cell_volume 1127.584889
_symmetry_space_group_name_H-M "P B A 2"
_symmetry_group_IT_number 32
_symmetry_cell_setting 'orthorhombic'
loop_
_space_group_symop_operation_xyz
x,y,z
-x,-y,z
1/2-x,1/2+y,z
1/2+x,1/2-y,z
loop_
_atom_site_type_symbol
_atom_site_label
_atom_site_fract_x
_atom_site_fract_y
_atom_site_fract_z
Si Si1 0.000000 0.500000 0.866271
Si Si2 0.784101 0.627214 0.362714
Si Si3 0.057632 0.801664 0.341332
Si Si4 0.367145 0.692692 0.083706
Si Si5 0.576914 0.217614 0.678861
Si Si6 0.843632 0.418530 0.182042
O O1 0.971313 0.604301 0.744524
O O2 0.906879 0.466380 0.006178
O O3 0.660188 0.626814 0.355270
O O4 0.829166 0.696857 0.186556
O O5 0.824032 0.688685 0.549028
O O6 0.832013 0.509346 0.342724
O O7 0.097743 0.686258 0.261296
O O8 0.970113 0.842497 0.196171
O O9 0.002693 0.780439 0.542733
O O10 0.271002 0.613736 0.113920
O O11 0.392703 0.716788 0.865909
#
# Coordination Sequence:
#
# PCOD9344019 Si02
#       6
#     2   4   4   4   4   4
#     4  12  20  36  68  90 118 158 208 260 312 364
#     4  10  22  39  60  88 122 163 207 253 314 374
#     4  10  22  40  62  85 125 166 200 257 317 368
#     4  10  22  39  61  88 122 162 205 252 315 371
#     4  11  21  37  62  95 117 156 214 257 307 372
#     4  11  21  40  63  87 125 162 207 256 311 377
#
# _framework density 19.510725999999998
#
# number of rings (size 3 to 8) (size 9 to 14) (size 15 to 20)
#    0.000    1.455    3.636    2.182    2.545    0.727 
#    3.273    0.000    0.000    0.000    0.000    0.000 
#    0.000    0.000    0.000    0.000    0.000    0.000 
#
# Total GULP energy -122944.165936 kJ/mol
# GULP energy per Si atom -5588.371179 kJ/mol
# Density = 1.946632 g / cm^3
# Si number density = 19.510726 Si / 1000 Ang^3
#
#
#
# Elastic Constant Matrix: (Units=GPa)
#
#
# Indices 1 2 3 4 5 6 
#
# 1 132.7357 0.7472 40.4418 0.0000 0.0000 0.0000
# 2 0.7472 17.0610 -1.4473 0.0000 0.0000 0.0000
# 3 40.4418 -1.4473 123.7691 0.0000 0.0000 0.0000
# 4 0.0000 0.0000 0.0000 15.0172 0.0000 0.0000
# 5 0.0000 0.0000 0.0000 0.0000 5.7088 0.0000
# 6 0.0000 0.0000 0.0000 0.0000 0.0000 26.9918
#
#
#
# Elastic Compliance Matrix: (Units=1/GPa)
#
#
# Indices 1 2 3 4 5 6 
#
# 1 0.008373 -0.000599 -0.002743 0.000000 0.000000 0.000000
# 2 -0.000599 0.058714 0.000882 0.000000 0.000000 0.000000
# 3 -0.002743 0.000882 0.008986 0.000000 0.000000 0.000000
# 4 0.000000 0.000000 0.000000 0.066590 0.000000 0.000000
# 5 0.000000 0.000000 0.000000 0.000000 0.175169 0.000000
# 6 0.000000 0.000000 0.000000 0.000000 0.000000 0.037048
#
#
# Mechanical properties :
#
#
# Convention : Reuss Voigt Hill
#
# Bulk Modulus (GPa) = 14.05408 39.22768 26.64088
# Shear Modulus (GPa) = 13.03717 25.13183 19.08450
#
# Velocity S-wave (km/s) = 2.58777 3.59291 3.13094
# Velocity P-wave (km/s) = 4.01841 6.11239 5.17247
#
# Compressibility (1/GPa) = 0.07115374
#
# Stress axis : x y z
#
# Youngs Moduli (GPa) = 119.43394 17.03160 111.28283
#
# Poissons Ratio (x) = 0.01021 0.30523
# Poissons Ratio (y) = 0.07158 -0.09820
# Poissons Ratio (z) = 0.32759 -0.01503
#
# Static dielectric constant tensor:
#      x y z
#    x 1.677340 0.000000 0.000000 
#    y 0.000000 1.675750 0.000000 
#    z 0.000000 0.000000 1.656220 
# 
# From -- ./inp_files/823.got.cif
#   From: 2010.05.17/outbox.cif.g08.bks.cpg/sg32_1_cif.got.tgz:823.got - 2010.06.03 17:12:27.
