data_PCOD9344857
_publ_section_title
;
Structure prediction by ZEFSAII (Michael W. Deem and Ramdas Pophale) SiO2 
 PCOD9344857
Probable space group: P N A 21
;
_chemical_formula_sum "Si O2"
_cell_formula_units_Z 32
_cell_length_a 10.823338
_cell_length_b 11.715722
_cell_length_c 12.625643
_cell_angle_alpha 90.000000
_cell_angle_beta 90.000000
_cell_angle_gamma 90.000000
_cell_volume 1600.972176
_symmetry_space_group_name_H-M "P N A 21"
_symmetry_group_IT_number 33
_symmetry_cell_setting 'orthorhombic'
loop_
_space_group_symop_operation_xyz
x,y,z
-x,-y,1/2+z
1/2-x,1/2+y,1/2+z
1/2+x,1/2-y,z
loop_
_atom_site_type_symbol
_atom_site_label
_atom_site_fract_x
_atom_site_fract_y
_atom_site_fract_z
Si Si1 0.861736 0.781500 0.781320
Si Si2 0.052335 0.202818 0.044759
Si Si3 0.059915 0.848908 0.962846
Si Si4 0.834645 0.516059 0.731528
Si Si5 0.754455 0.946249 0.439099
Si Si6 0.508880 0.968621 0.536873
Si Si7 0.873923 0.000922 0.062771
Si Si8 0.830531 0.381560 0.424063
O O1 0.905292 0.818927 0.665749
O O2 0.851893 0.644854 0.773863
O O3 0.730282 0.836922 0.815215
O O4 0.963521 0.814471 0.869795
O O5 0.163726 0.161053 0.971249
O O6 0.023374 0.334894 0.028991
O O7 0.935246 0.120209 0.029622
O O8 0.137547 0.735406 0.986284
O O9 0.151639 0.948314 0.925792
O O10 0.981214 0.905216 0.057896
O O11 0.821344 0.432832 0.830849
O O12 0.941609 0.491366 0.645178
O O13 0.704298 0.512767 0.669000
O O14 0.655695 0.977743 0.529733
O O15 0.450809 0.040775 0.439526
O O16 0.774578 0.957492 0.978050
#
# Coordination Sequence:
#
# PCOD9344857 Si02
#       8
#     4   4   4   4   4   4   4   4
#     4  10  20  35  67  93 118 150 216 264 301 357
#     4  10  23  38  61  91 123 167 201 260 314 372
#     4  10  20  37  62  97 122 157 200 262 313 364
#     4  10  20  40  63  92 118 165 205 264 300 366
#     4  11  22  39  62  88 126 161 204 259 315 364
#     4  10  24  37  62  90 126 158 211 256 311 370
#     4   9  21  38  60  89 127 157 204 254 315 366
#     4  10  20  36  63  92 120 157 205 261 305 367
#
# _framework density 19.987857000000002
#
# number of rings (size 3 to 8) (size 9 to 14) (size 15 to 20)
#    0.000    2.000    1.250    1.500    7.000    2.000 
#    0.000    2.500   11.000    0.000    0.000    0.000 
#    0.000    0.000    0.000    0.000    0.000    0.000 
#
# Total GULP energy -178479.838713 kJ/mol
# GULP energy per Si atom -5577.494960 kJ/mol
# Density = 1.994236 g / cm^3
# Si number density = 19.987857 Si / 1000 Ang^3
#
#
#
# Elastic Constant Matrix: (Units=GPa)
#
#
# Indices 1 2 3 4 5 6 
#
# 1 58.7874 4.7443 27.6454 0.0000 0.0000 0.0000
# 2 4.7443 64.9588 27.4578 0.0000 0.0000 0.0000
# 3 27.6454 27.4578 70.7765 0.0000 0.0000 0.0000
# 4 0.0000 0.0000 0.0000 25.6274 0.0000 0.0000
# 5 0.0000 0.0000 0.0000 0.0000 27.3398 0.0000
# 6 0.0000 0.0000 0.0000 0.0000 0.0000 57.2349
#
#
#
# Elastic Compliance Matrix: (Units=1/GPa)
#
#
# Indices 1 2 3 4 5 6 
#
# 1 0.021128 0.002327 -0.009155 0.000000 0.000000 0.000000
# 2 0.002327 0.018670 -0.008152 0.000000 0.000000 0.000000
# 3 -0.009155 -0.008152 0.020868 0.000000 0.000000 0.000000
# 4 0.000000 0.000000 0.000000 0.039021 0.000000 0.000000
# 5 0.000000 0.000000 0.000000 0.000000 0.036577 0.000000
# 6 0.000000 0.000000 0.000000 0.000000 0.000000 0.017472
#
#
# Mechanical properties :
#
#
# Convention : Reuss Voigt Hill
#
# Bulk Modulus (GPa) = 32.56805 34.91306 33.74056
# Shear Modulus (GPa) = 25.78233 31.01878 28.40056
#
# Velocity S-wave (km/s) = 3.59541 3.94367 3.77356
# Velocity P-wave (km/s) = 5.79356 6.18399 5.99195
#
# Compressibility (1/GPa) = 0.03070494
#
# Stress axis : x y z
#
# Youngs Moduli (GPa) = 47.33034 53.56119 47.92102
#
# Poissons Ratio (x) = -0.12463 0.43873
# Poissons Ratio (y) = -0.11013 0.39065
# Poissons Ratio (z) = 0.43333 0.43663
#
# Static dielectric constant tensor:
#      x y z
#    x 1.760900 0.000000 0.000000 
#    y 0.000000 1.686450 0.000000 
#    z 0.000000 0.000000 1.727340 
# 
# From -- ./inp_files/6480.got.cif
#   From: 2010.05.17/outbox.cif.g08.bks.cpg/sg33_4_cif.got.tgz:6480.got - 2010.06.03 17:15:25.
