data_PCOD9344043
_publ_section_title
;
Structure prediction by ZEFSAII (Michael W. Deem and Ramdas Pophale) SiO2 
 PCOD9344043
Probable space group: P B A 2
;
_chemical_formula_sum "Si O2"
_cell_formula_units_Z 20
_cell_length_a 7.705016
_cell_length_b 18.006291
_cell_length_c 5.704132
_cell_angle_alpha 90.000000
_cell_angle_beta 90.000000
_cell_angle_gamma 90.000000
_cell_volume 791.384202
_symmetry_space_group_name_H-M "P B A 2"
_symmetry_group_IT_number 32
_symmetry_cell_setting 'orthorhombic'
loop_
_space_group_symop_operation_xyz
x,y,z
-x,-y,z
1/2-x,1/2+y,z
1/2+x,1/2-y,z
loop_
_atom_site_type_symbol
_atom_site_label
_atom_site_fract_x
_atom_site_fract_y
_atom_site_fract_z
Si Si1 0.000000 0.500000 0.605340
Si Si2 0.464722 0.859682 0.914661
Si Si3 0.274218 0.709860 0.612646
Si Si4 0.740230 0.914398 0.263411
Si Si5 0.119624 0.845202 0.760325
Si Si6 0.000000 0.000000 0.910574
O O1 0.063989 0.435540 0.773631
O O2 0.841084 0.471152 0.449462
O O3 0.602645 0.820214 0.741347
O O4 0.267883 0.833060 0.958483
O O5 0.572251 0.878166 0.142723
O O6 0.323933 0.655724 0.398489
O O7 0.223613 0.795744 0.563844
O O8 0.433786 0.694132 0.788835
O O9 0.859839 0.958893 0.080358
O O10 0.071740 0.931909 0.754851
#
# Coordination Sequence:
#
# PCOD9344043 Si02
#       6
#     2   4   4   4   4   2
#     4  10  22  40  74 102 152 198 256 320 416 456
#     4  11  23  47  73 104 154 205 262 333 405 488
#     4  11  26  49  72 109 157 208 273 324 424 486
#     4  11  25  47  72 122 153 209 268 337 399 516
#     4  12  25  50  77 108 157 214 259 348 411 494
#     4  12  26  44  84 116 162 206 284 334 430 480
#
# _framework density 25.272176000000002
#
# number of rings (size 3 to 8) (size 9 to 14) (size 15 to 20)
#    0.000    0.800    4.000    3.000    5.600    0.000 
#    7.200    0.000    0.000    0.000    0.000    0.000 
#    0.000    0.000    0.000    0.000    0.000    0.000 
#
# Total GULP energy -111529.082278 kJ/mol
# GULP energy per Si atom -5576.454114 kJ/mol
# Density = 2.521466 g / cm^3
# Si number density = 25.272176 Si / 1000 Ang^3
#
#
#
# Elastic Constant Matrix: (Units=GPa)
#
#
# Indices 1 2 3 4 5 6 
#
# 1 155.9699 64.7824 3.2591 0.0000 0.0000 0.0000
# 2 64.7824 162.2838 34.0039 0.0000 0.0000 0.0000
# 3 3.2591 34.0039 49.9147 0.0000 0.0000 0.0000
# 4 0.0000 0.0000 0.0000 10.8261 0.0000 0.0000
# 5 0.0000 0.0000 0.0000 0.0000 77.2071 0.0000
# 6 0.0000 0.0000 0.0000 0.0000 0.0000 36.7470
#
#
#
# Elastic Compliance Matrix: (Units=1/GPa)
#
#
# Indices 1 2 3 4 5 6 
#
# 1 0.007836 -0.003524 0.001889 0.000000 0.000000 0.000000
# 2 -0.003524 0.008773 -0.005746 0.000000 0.000000 0.000000
# 3 0.001889 -0.005746 0.023825 0.000000 0.000000 0.000000
# 4 0.000000 0.000000 0.000000 0.092369 0.000000 0.000000
# 5 0.000000 0.000000 0.000000 0.000000 0.012952 0.000000
# 6 0.000000 0.000000 0.000000 0.000000 0.000000 0.027213
#
#
# Mechanical properties :
#
#
# Convention : Reuss Voigt Hill
#
# Bulk Modulus (GPa) = 38.95359 63.58436 51.26898
# Shear Modulus (GPa) = 25.47284 42.69759 34.08522
#
# Velocity S-wave (km/s) = 3.17825 4.11482 3.67648
# Velocity P-wave (km/s) = 5.37731 6.91304 6.19296
#
# Compressibility (1/GPa) = 0.02567157
#
# Stress axis : x y z
#
# Youngs Moduli (GPa) = 127.62280 113.98996 41.97198
#
# Poissons Ratio (x) = 0.40166 -0.07928
# Poissons Ratio (y) = 0.44970 0.24118
# Poissons Ratio (z) = -0.24106 0.65501
#
# Static dielectric constant tensor:
#      x y z
#    x -0.000520 0.000000 0.000000 
#    y 0.000000 1.977440 0.000000 
#    z 0.000000 0.000000 1.961520 
# 
# From -- ./inp_files/440.got.cif
#   From: 2010.05.17/outbox.cif.g08.bks.cpg/sg32_1_cif.got.tgz:440.got - 2010.06.03 17:12:27.
