data_PCOD9344439
_publ_section_title
;
Structure prediction by ZEFSAII (Michael W. Deem and Ramdas Pophale) SiO2 
 PCOD9344439
Probable space group: P N A 21
;
_chemical_formula_sum "Si O2"
_cell_formula_units_Z 32
_cell_length_a 8.994136
_cell_length_b 7.870891
_cell_length_c 18.621913
_cell_angle_alpha 90.000000
_cell_angle_beta 90.000000
_cell_angle_gamma 90.000000
_cell_volume 1318.279934
_symmetry_space_group_name_H-M "P N A 21"
_symmetry_group_IT_number 33
_symmetry_cell_setting 'orthorhombic'
loop_
_space_group_symop_operation_xyz
x,y,z
-x,-y,1/2+z
1/2-x,1/2+y,1/2+z
1/2+x,1/2-y,z
loop_
_atom_site_type_symbol
_atom_site_label
_atom_site_fract_x
_atom_site_fract_y
_atom_site_fract_z
Si Si1 0.258106 0.527570 0.154250
Si Si2 0.862913 0.169423 0.409728
Si Si3 0.985583 0.058036 0.561921
Si Si4 0.481528 0.066997 0.762726
Si Si5 0.990695 0.347158 0.071474
Si Si6 0.037435 0.493807 0.415455
Si Si7 0.494630 0.345888 0.257885
Si Si8 0.746601 0.028062 0.673750
O O1 0.361409 0.623745 0.096318
O O2 0.370264 0.414173 0.202803
O O3 0.156013 0.616748 0.213820
O O4 0.140954 0.420241 0.106759
O O5 0.690753 0.114804 0.410085
O O6 0.942045 0.101806 0.337411
O O7 0.894292 0.370920 0.409401
O O8 0.943754 0.108888 0.482081
O O9 0.997426 0.854411 0.565872
O O10 0.858137 0.112275 0.617125
O O11 0.466435 0.113863 0.845647
O O12 0.489298 0.858868 0.760172
O O13 0.628917 0.127170 0.722904
O O14 0.857331 0.412670 0.121794
O O15 0.966233 0.417522 0.991857
O O16 0.648554 0.423027 0.228775
#
# Coordination Sequence:
#
# PCOD9344439 Si02
#       8
#     4   4   4   4   4   4   4   4
#     4  10  19  32  57  92 111 148 193 252 293 330
#     4  11  25  40  58  86 123 159 194 239 294 356
#     4  11  21  37  62  88 119 151 194 243 294 346
#     4  10  18  32  56  84 117 146 194 246 291 333
#     4  11  21  37  62  88 119 151 194 243 294 346
#     4  11  25  40  58  86 123 159 194 239 294 356
#     4  10  18  32  56  84 117 146 194 246 291 333
#     4  10  19  34  59  90 117 144 195 252 293 330
#
# _framework density 24.274056999999999
#
# number of rings (size 3 to 8) (size 9 to 14) (size 15 to 20)
#    0.000    1.500    2.500    6.000    7.000    0.000 
#    0.000    0.000    0.000    9.000    0.000    0.000 
#    0.000    0.000    0.000    0.000    0.000    0.000 
#
# Total GULP energy -179204.452620 kJ/mol
# GULP energy per Si atom -5600.139144 kJ/mol
# Density = 2.421881 g / cm^3
# Si number density = 24.274057 Si / 1000 Ang^3
#
#
#
# Elastic Constant Matrix: (Units=GPa)
#
#
# Indices 1 2 3 4 5 6 
#
# 1 160.0406 32.3203 54.4972 0.0000 0.0000 0.0000
# 2 32.3203 46.6653 28.8102 0.0000 0.0000 0.0000
# 3 54.4972 28.8102 217.6138 0.0000 0.0000 0.0000
# 4 0.0000 0.0000 0.0000 28.9036 0.0000 0.0000
# 5 0.0000 0.0000 0.0000 0.0000 36.6516 0.0000
# 6 0.0000 0.0000 0.0000 0.0000 0.0000 32.3456
#
#
#
# Elastic Compliance Matrix: (Units=1/GPa)
#
#
# Indices 1 2 3 4 5 6 
#
# 1 0.007594 -0.004449 -0.001313 0.000000 0.000000 0.000000
# 2 -0.004449 0.025943 -0.002320 0.000000 0.000000 0.000000
# 3 -0.001313 -0.002320 0.005231 0.000000 0.000000 0.000000
# 4 0.000000 0.000000 0.000000 0.034598 0.000000 0.000000
# 5 0.000000 0.000000 0.000000 0.000000 0.027284 0.000000
# 6 0.000000 0.000000 0.000000 0.000000 0.000000 0.030916
#
#
# Mechanical properties :
#
#
# Convention : Reuss Voigt Hill
#
# Bulk Modulus (GPa) = 44.24024 72.84168 58.54096
# Shear Modulus (GPa) = 32.20292 40.15964 36.18128
#
# Velocity S-wave (km/s) = 3.64626 4.07188 3.86493
# Velocity P-wave (km/s) = 5.99932 7.22358 6.63972
#
# Compressibility (1/GPa) = 0.02260385
#
# Stress axis : x y z
#
# Youngs Moduli (GPa) = 131.68425 38.54563 191.15871
#
# Poissons Ratio (x) = 0.17149 0.25094
# Poissons Ratio (y) = 0.58588 0.44358
# Poissons Ratio (z) = 0.17287 0.08944
#
# Static dielectric constant tensor:
#      x y z
#    x 1.912490 0.000000 0.000000 
#    y 0.000000 1.990790 0.000000 
#    z 0.000000 0.000000 1.915490 
# 
# From -- ./inp_files/8549.got.cif
#   From: 2010.05.17/outbox.cif.g08.bks.cpg/sg33_5_cif.got.tgz:8549.got - 2010.06.03 17:15:25.
