data_PCOD9344832
_publ_section_title
;
Structure prediction by ZEFSAII (Michael W. Deem and Ramdas Pophale) SiO2 
 PCOD9344832
Probable space group: P N A 21
;
_chemical_formula_sum "Si O2"
_cell_formula_units_Z 28
_cell_length_a 7.883764
_cell_length_b 21.149761
_cell_length_c 9.028614
_cell_angle_alpha 90.000000
_cell_angle_beta 90.000000
_cell_angle_gamma 90.000000
_cell_volume 1505.428610
_symmetry_space_group_name_H-M "P N A 21"
_symmetry_group_IT_number 33
_symmetry_cell_setting 'orthorhombic'
loop_
_space_group_symop_operation_xyz
x,y,z
-x,-y,1/2+z
1/2-x,1/2+y,1/2+z
1/2+x,1/2-y,z
loop_
_atom_site_type_symbol
_atom_site_label
_atom_site_fract_x
_atom_site_fract_y
_atom_site_fract_z
Si Si1 0.697804 0.949914 0.855640
Si Si2 0.750741 0.833610 0.072777
Si Si3 0.926422 0.141415 0.747800
Si Si4 0.181232 0.934519 0.509369
Si Si5 0.820793 0.584403 0.831365
Si Si6 0.645516 0.198650 0.544392
Si Si7 0.139949 0.989948 0.079219
O O1 0.517076 0.925957 0.801512
O O2 0.802469 0.962094 0.706680
O O3 0.763022 0.896428 0.970627
O O4 0.680207 0.018647 0.935464
O O5 0.547851 0.820111 0.092686
O O6 0.832973 0.771373 0.997754
O O7 0.877329 0.840780 0.214689
O O8 0.786767 0.186857 0.671904
O O9 0.904281 0.074374 0.664705
O O10 0.865938 0.126775 0.913861
O O11 0.221329 0.920846 0.678906
O O12 0.019064 0.979839 0.499813
O O13 0.802925 0.651413 0.912919
O O14 0.767758 0.531389 0.951154
#
# Coordination Sequence:
#
# PCOD9344832 Si02
#       7
#     4   4   4   4   4   4   4
#     4  10  21  35  58  91 115 158 194 246 299 359
#     4  11  20  38  65  86 115 154 209 241 299 358
#     4  10  21  38  58  87 117 152 197 246 289 358
#     4  11  21  36  59  85 125 150 193 246 307 355
#     4  10  21  37  57  87 121 156 196 245 298 360
#     4  10  22  37  66  83 113 161 203 248 291 357
#     4  10  20  35  57  87 118 155 190 236 303 355
#
# _framework density 18.599354000000002
#
# number of rings (size 3 to 8) (size 9 to 14) (size 15 to 20)
#    0.000    1.714    2.857    2.571    2.000    1.143 
#    2.571    0.000    9.429    0.000    0.000    0.000 
#    0.000    0.000    0.000    0.000    0.000    0.000 
#
# Total GULP energy -155952.671838 kJ/mol
# GULP energy per Si atom -5569.738280 kJ/mol
# Density = 1.855702 g / cm^3
# Si number density = 18.599354 Si / 1000 Ang^3
#
#
#
# Elastic Constant Matrix: (Units=GPa)
#
#
# Indices 1 2 3 4 5 6 
#
# 1 71.4004 21.3700 25.4853 0.0000 0.0000 0.0000
# 2 21.3700 67.8127 20.2807 0.0000 0.0000 0.0000
# 3 25.4853 20.2807 79.2309 0.0000 0.0000 0.0000
# 4 0.0000 0.0000 0.0000 13.4179 0.0000 0.0000
# 5 0.0000 0.0000 0.0000 0.0000 16.0771 0.0000
# 6 0.0000 0.0000 0.0000 0.0000 0.0000 24.9264
#
#
#
# Elastic Compliance Matrix: (Units=1/GPa)
#
#
# Indices 1 2 3 4 5 6 
#
# 1 0.016755 -0.003972 -0.004373 0.000000 0.000000 0.000000
# 2 -0.003972 0.016911 -0.003051 0.000000 0.000000 0.000000
# 3 -0.004373 -0.003051 0.014809 0.000000 0.000000 0.000000
# 4 0.000000 0.000000 0.000000 0.074527 0.000000 0.000000
# 5 0.000000 0.000000 0.000000 0.000000 0.062200 0.000000
# 6 0.000000 0.000000 0.000000 0.000000 0.000000 0.040118
#
#
# Mechanical properties :
#
#
# Convention : Reuss Voigt Hill
#
# Bulk Modulus (GPa) = 38.93643 39.19067 39.06355
# Shear Modulus (GPa) = 19.48004 20.97150 20.22577
#
# Velocity S-wave (km/s) = 3.23979 3.36153 3.30122
# Velocity P-wave (km/s) = 5.91394 6.01525 5.96481
#
# Compressibility (1/GPa) = 0.02568289
#
# Stress axis : x y z
#
# Youngs Moduli (GPa) = 59.68294 59.13400 67.52755
#
# Poissons Ratio (x) = 0.23490 0.29527
# Poissons Ratio (y) = 0.23708 0.20602
# Poissons Ratio (z) = 0.26097 0.18041
#
# Static dielectric constant tensor:
#      x y z
#    x 1.662120 0.000000 0.000000 
#    y 0.000000 1.664550 0.000000 
#    z 0.000000 0.000000 1.644960 
# 
# From -- ./inp_files/3305.got.cif
#   From: 2010.05.17/outbox.cif.g08.bks.cpg/sg33_2_cif.got.tgz:3305.got - 2010.06.03 17:15:25.
