data_PCOD9344877
_publ_section_title
;
Structure prediction by ZEFSAII (Michael W. Deem and Ramdas Pophale) SiO2 
 PCOD9344877
Probable space group: P N A 21
;
_chemical_formula_sum "Si O2"
_cell_formula_units_Z 20
_cell_length_a 5.023183
_cell_length_b 11.773632
_cell_length_c 14.588264
_cell_angle_alpha 90.000000
_cell_angle_beta 90.000000
_cell_angle_gamma 90.000000
_cell_volume 862.766098
_symmetry_space_group_name_H-M "P N A 21"
_symmetry_group_IT_number 33
_symmetry_cell_setting 'orthorhombic'
loop_
_space_group_symop_operation_xyz
x,y,z
-x,-y,1/2+z
1/2-x,1/2+y,1/2+z
1/2+x,1/2-y,z
loop_
_atom_site_type_symbol
_atom_site_label
_atom_site_fract_x
_atom_site_fract_y
_atom_site_fract_z
Si Si1 0.801111 0.670929 0.584220
Si Si2 0.407605 0.671264 0.332644
Si Si3 0.801110 0.670929 0.081069
Si Si4 0.941339 0.488322 0.935813
Si Si5 0.941340 0.488323 0.729476
O O1 0.014049 0.772677 0.580162
O O2 0.867790 0.583029 0.502465
O O3 0.851632 0.600482 0.677078
O O4 0.698328 0.723496 0.332644
O O5 0.313082 0.592817 0.416466
O O6 0.313083 0.592816 0.248823
O O7 0.514047 0.727323 0.085127
O O8 0.851630 0.600482 0.988211
O O9 0.867790 0.583030 0.162825
O O10 0.049285 0.510737 0.832645
#
# Coordination Sequence:
#
# PCOD9344877 Si02
#       5
#     4   4   4   4   4
#     4  11  24  42  63  91 128 162 201 257 310 359
#     4  10  20  36  60  86 114 152 198 246 290 346
#     4  11  24  42  63  91 128 162 201 257 310 359
#     4   9  23  42  62  97 118 165 210 250 300 376
#     4   9  23  42  62  97 118 165 210 250 300 376
#
# _framework density 23.181256000000001
#
# number of rings (size 3 to 8) (size 9 to 14) (size 15 to 20)
#    1.200    0.800    0.000    2.400    0.000   11.200 
#    0.000    0.000    0.000    0.000    0.000    0.000 
#    0.000    0.000    0.000    0.000    0.000    0.000 
#
# Total GULP energy -111895.943219 kJ/mol
# GULP energy per Si atom -5594.797161 kJ/mol
# Density = 2.312849 g / cm^3
# Si number density = 23.181256 Si / 1000 Ang^3
#
#
#
# Elastic Constant Matrix: (Units=GPa)
#
#
# Indices 1 2 3 4 5 6 
#
# 1 55.7266 5.6676 9.9456 0.0000 0.0000 0.0000
# 2 5.6676 64.4890 42.9973 0.0000 0.0000 0.0000
# 3 9.9456 42.9973 162.8855 0.0000 0.0000 0.0000
# 4 0.0000 0.0000 0.0000 59.3524 0.0000 0.0000
# 5 0.0000 0.0000 0.0000 0.0000 16.9239 0.0000
# 6 0.0000 0.0000 0.0000 0.0000 0.0000 0.0731
#
#
#
# Elastic Compliance Matrix: (Units=1/GPa)
#
#
# Indices 1 2 3 4 5 6 
#
# 1 0.018200 -0.001042 -0.000836 0.000000 0.000000 0.000000
# 2 -0.001042 0.018878 -0.004920 0.000000 0.000000 0.000000
# 3 -0.000836 -0.004920 0.007489 0.000000 0.000000 0.000000
# 4 0.000000 0.000000 0.000000 0.016849 0.000000 0.000000
# 5 0.000000 0.000000 0.000000 0.000000 0.059088 0.000000
# 6 0.000000 0.000000 0.000000 0.000000 0.000000 13.673953
#
#
# Mechanical properties :
#
#
# Convention : Reuss Voigt Hill
#
# Bulk Modulus (GPa) = 32.28782 44.48024 38.38403
# Shear Modulus (GPa) = 0.36184 30.23594 15.29889
#
# Velocity S-wave (km/s) = 0.39551 3.61546 2.57177
# Velocity P-wave (km/s) = 3.76394 6.05462 5.04112
#
# Compressibility (1/GPa) = 0.03097143
#
# Stress axis : x y z
#
# Youngs Moduli (GPa) = 54.94518 52.97100 133.52889
#
# Poissons Ratio (x) = 0.05519 0.11166
# Poissons Ratio (y) = 0.05725 0.65693
# Poissons Ratio (z) = 0.04595 0.26060
#
# Static dielectric constant tensor:
#      x y z
#    x 1.855090 0.000000 0.000000 
#    y 0.000000 1.844290 0.000000 
#    z 0.000000 0.000000 1.937710 
# 
# From -- ./inp_files/7373.got.cif
#   From: 2010.05.17/outbox.cif.g08.bks.cpg/sg33_4_cif.got.tgz:7373.got - 2010.06.03 17:15:25.
