data_PCOD9344456
_publ_section_title
;
Structure prediction by ZEFSAII (Michael W. Deem and Ramdas Pophale) SiO2 
 PCOD9344456
Probable space group: P N A 21
;
_chemical_formula_sum "Si O2"
_cell_formula_units_Z 24
_cell_length_a 9.510667
_cell_length_b 13.585682
_cell_length_c 7.389951
_cell_angle_alpha 90.000000
_cell_angle_beta 90.000000
_cell_angle_gamma 90.000000
_cell_volume 954.847421
_symmetry_space_group_name_H-M "P N A 21"
_symmetry_group_IT_number 33
_symmetry_cell_setting 'orthorhombic'
loop_
_space_group_symop_operation_xyz
x,y,z
-x,-y,1/2+z
1/2-x,1/2+y,1/2+z
1/2+x,1/2-y,z
loop_
_atom_site_type_symbol
_atom_site_label
_atom_site_fract_x
_atom_site_fract_y
_atom_site_fract_z
Si Si1 0.882418 0.049208 0.406780
Si Si2 0.053616 0.765520 0.693495
Si Si3 0.298902 0.514297 0.933275
Si Si4 0.713985 0.160690 0.711486
Si Si5 0.787564 0.861694 0.558781
Si Si6 0.597468 0.835087 0.088372
O O1 0.892518 0.122936 0.237296
O O2 0.772704 0.102499 0.536766
O O3 0.040859 0.041201 0.489009
O O4 0.830638 0.936662 0.400866
O O5 0.143348 0.695798 0.565637
O O6 0.054631 0.714901 0.893555
O O7 0.904968 0.780684 0.599729
O O8 0.272368 0.401741 0.879287
O O9 0.287807 0.572206 0.741246
O O10 0.173343 0.561228 0.049074
O O11 0.546488 0.160512 0.699041
O O12 0.786285 0.265804 0.682456
#
# Coordination Sequence:
#
# PCOD9344456 Si02
#       6
#     4   4   4   4   4   4
#     4   9  17  33  53  77 113 151 189 238 288 344
#     4   9  16  30  52  76 105 143 189 233 280 342
#     4   9  19  35  55  83 115 152 200 240 285 352
#     4  10  19  34  59  87 115 154 198 240 297 355
#     4   9  17  30  52  78 105 145 189 231 287 340
#     4  10  18  34  57  83 115 153 193 242 291 347
#
# _framework density 25.134902
#
# number of rings (size 3 to 8) (size 9 to 14) (size 15 to 20)
#    0.000    2.667    0.000    5.000    0.000    0.000 
#    0.000   15.000    0.000    0.000    0.000    0.000 
#    0.000    0.000    0.000    0.000    0.000    0.000 
#
# Total GULP energy -134223.026009 kJ/mol
# GULP energy per Si atom -5592.626084 kJ/mol
# Density = 2.507769 g / cm^3
# Si number density = 25.134902 Si / 1000 Ang^3
#
#
#
# Elastic Constant Matrix: (Units=GPa)
#
#
# Indices 1 2 3 4 5 6 
#
# 1 120.5986 21.4318 23.8453 0.0000 0.0000 0.0000
# 2 21.4318 68.5708 3.8891 0.0000 0.0000 0.0000
# 3 23.8453 3.8891 75.7444 0.0000 0.0000 0.0000
# 4 0.0000 0.0000 0.0000 39.7688 0.0000 0.0000
# 5 0.0000 0.0000 0.0000 0.0000 16.9509 0.0000
# 6 0.0000 0.0000 0.0000 0.0000 0.0000 29.4762
#
#
#
# Elastic Compliance Matrix: (Units=1/GPa)
#
#
# Indices 1 2 3 4 5 6 
#
# 1 0.009335 -0.002759 -0.002797 0.000000 0.000000 0.000000
# 2 -0.002759 0.015442 0.000076 0.000000 0.000000 0.000000
# 3 -0.002797 0.000076 0.014079 0.000000 0.000000 0.000000
# 4 0.000000 0.000000 0.000000 0.025145 0.000000 0.000000
# 5 0.000000 0.000000 0.000000 0.000000 0.058994 0.000000
# 6 0.000000 0.000000 0.000000 0.000000 0.000000 0.033926
#
#
# Mechanical properties :
#
#
# Convention : Reuss Voigt Hill
#
# Bulk Modulus (GPa) = 35.84905 40.36068 38.10487
# Shear Modulus (GPa) = 28.21987 31.62237 29.92112
#
# Velocity S-wave (km/s) = 3.35436 3.55083 3.45399
# Velocity P-wave (km/s) = 5.41257 5.73617 5.57672
#
# Compressibility (1/GPa) = 0.02789474
#
# Stress axis : x y z
#
# Youngs Moduli (GPa) = 107.11943 64.76046 71.02774
#
# Poissons Ratio (x) = 0.17868 0.19868
# Poissons Ratio (y) = 0.29556 -0.00538
# Poissons Ratio (z) = 0.29964 -0.00491
#
# Static dielectric constant tensor:
#      x y z
#    x 1.939120 0.000000 0.000000 
#    y 0.000000 2.000010 0.000000 
#    z 0.000000 0.000000 2.102570 
# 
# From -- ./inp_files/3188.got.cif
#   From: 2010.05.17/outbox.cif.g08.bks.cpg/sg33_2_cif.got.tgz:3188.got - 2010.06.03 17:15:25.
