data_PCOD9344013
_publ_section_title
;
Structure prediction by ZEFSAII (Michael W. Deem and Ramdas Pophale) SiO2 
 PCOD9344013
Probable space group: P B A 2
;
_chemical_formula_sum "Si O2"
_cell_formula_units_Z 30
_cell_length_a 26.234803
_cell_length_b 5.129749
_cell_length_c 8.518889
_cell_angle_alpha 90.000000
_cell_angle_beta 90.000000
_cell_angle_gamma 90.000000
_cell_volume 1146.454656
_symmetry_space_group_name_H-M "P B A 2"
_symmetry_group_IT_number 32
_symmetry_cell_setting 'orthorhombic'
loop_
_space_group_symop_operation_xyz
x,y,z
-x,-y,z
1/2-x,1/2+y,z
1/2+x,1/2-y,z
loop_
_atom_site_type_symbol
_atom_site_label
_atom_site_fract_x
_atom_site_fract_y
_atom_site_fract_z
Si Si1 0.719952 0.290978 0.619420
Si Si2 0.390988 0.851598 0.553125
Si Si3 0.913635 0.343325 0.855941
Si Si4 0.783061 0.143920 0.247527
Si Si5 0.177581 0.032446 0.936137
Si Si6 0.500000 0.500000 0.874139
Si Si7 0.083928 0.258682 0.094637
Si Si8 0.398438 0.367536 0.374154
O O1 0.734207 0.591516 0.590232
O O2 0.706589 0.305100 0.805038
O O3 0.670198 0.172673 0.537628
O O4 0.402207 0.932903 0.730525
O O5 0.411730 0.072160 0.430462
O O6 0.406860 0.554980 0.523181
O O7 0.965650 0.215556 0.793658
O O8 0.921747 0.437500 0.039131
O O9 0.864506 0.156356 0.856392
O O10 0.753622 0.880212 0.288988
O O11 0.839552 0.159471 0.319570
O O12 0.790007 0.134159 0.058525
O O13 0.142728 0.217551 0.045205
O O14 0.457923 0.639774 0.979678
O O15 0.078068 0.069738 0.245219
#
# Coordination Sequence:
#
# PCOD9344013 Si02
#       8
#     4   4   4   4   4   2   4   4
#     4  12  24  39  65  99 140 190 246 301 347 409
#     4  12  26  46  68 103 147 194 235 291 363 440
#     4  11  23  45  78 103 144 188 242 297 374 443
#     4  11  24  39  64  97 139 184 245 300 347 403
#     4  10  22  38  66 103 139 182 241 302 362 416
#     4  10  24  44  80 112 136 168 252 298 366 436
#     4  10  23  44  77 102 137 187 236 302 363 445
#     4  11  27  44  71  98 147 193 236 289 369 431
#
# _framework density 26.167627
#
# number of rings (size 3 to 8) (size 9 to 14) (size 15 to 20)
#    0.000    1.067    1.333    4.400   11.200    3.200 
#    0.000    0.667    0.000    0.000    0.000    0.000 
#    0.000    0.000    0.000    0.000    0.000    0.000 
#
# Total GULP energy -167629.960258 kJ/mol
# GULP energy per Si atom -5587.665342 kJ/mol
# Density = 2.610807 g / cm^3
# Si number density = 26.167627 Si / 1000 Ang^3
#
#
#
# Elastic Constant Matrix: (Units=GPa)
#
#
# Indices 1 2 3 4 5 6 
#
# 1 48.0163 28.9681 12.9235 0.0000 0.0000 0.0000
# 2 28.9681 147.9757 25.6320 0.0000 0.0000 0.0000
# 3 12.9235 25.6320 93.2172 0.0000 0.0000 0.0000
# 4 0.0000 0.0000 0.0000 47.8081 0.0000 0.0000
# 5 0.0000 0.0000 0.0000 0.0000 14.8326 0.0000
# 6 0.0000 0.0000 0.0000 0.0000 0.0000 35.7775
#
#
#
# Elastic Compliance Matrix: (Units=1/GPa)
#
#
# Indices 1 2 3 4 5 6 
#
# 1 0.024015 -0.004331 -0.002139 0.000000 0.000000 0.000000
# 2 -0.004331 0.007877 -0.001565 0.000000 0.000000 0.000000
# 3 -0.002139 -0.001565 0.011455 0.000000 0.000000 0.000000
# 4 0.000000 0.000000 0.000000 0.020917 0.000000 0.000000
# 5 0.000000 0.000000 0.000000 0.000000 0.067419 0.000000
# 6 0.000000 0.000000 0.000000 0.000000 0.000000 0.027951
#
#
# Mechanical properties :
#
#
# Convention : Reuss Voigt Hill
#
# Bulk Modulus (GPa) = 36.66163 47.13961 41.90062
# Shear Modulus (GPa) = 27.05715 34.46267 30.75991
#
# Velocity S-wave (km/s) = 3.21907 3.63298 3.43227
# Velocity P-wave (km/s) = 5.27799 5.97090 5.63511
#
# Compressibility (1/GPa) = 0.02727647
#
# Stress axis : x y z
#
# Youngs Moduli (GPa) = 41.64146 126.95463 87.30133
#
# Poissons Ratio (x) = 0.54980 0.18670
# Poissons Ratio (y) = 0.18034 0.13667
# Poissons Ratio (z) = 0.08905 0.19875
#
# Static dielectric constant tensor:
#      x y z
#    x 1.997250 0.000000 0.000000 
#    y 0.000000 2.165380 0.000000 
#    z 0.000000 0.000000 2.191390 
# 
# From -- ./inp_files/3419.got.cif
#   From: 2010.05.17/outbox.cif.g08.bks.cpg/sg32_2_cif.got.tgz:3419.got - 2010.06.03 17:12:27.
