data_PCOD9344738
_publ_section_title
;
Structure prediction by ZEFSAII (Michael W. Deem and Ramdas Pophale) SiO2 
 PCOD9344738
Probable space group: P N A 21
;
_chemical_formula_sum "Si O2"
_cell_formula_units_Z 28
_cell_length_a 13.897903
_cell_length_b 11.013964
_cell_length_c 9.025219
_cell_angle_alpha 90.000000
_cell_angle_beta 90.000000
_cell_angle_gamma 90.000000
_cell_volume 1381.499327
_symmetry_space_group_name_H-M "P N A 21"
_symmetry_group_IT_number 33
_symmetry_cell_setting 'orthorhombic'
loop_
_space_group_symop_operation_xyz
x,y,z
-x,-y,1/2+z
1/2-x,1/2+y,1/2+z
1/2+x,1/2-y,z
loop_
_atom_site_type_symbol
_atom_site_label
_atom_site_fract_x
_atom_site_fract_y
_atom_site_fract_z
Si Si1 0.852501 0.816535 0.617730
Si Si2 0.578550 0.947167 0.452946
Si Si3 0.798455 0.219844 0.883134
Si Si4 0.989654 0.649234 0.749077
Si Si5 0.449561 0.451750 0.047126
Si Si6 0.256076 0.435914 0.604620
Si Si7 0.421578 0.384180 0.370148
O O1 0.788078 0.752720 0.493796
O O2 0.887479 0.719546 0.738371
O O3 0.952367 0.871449 0.554080
O O4 0.793780 0.934696 0.670624
O O5 0.639301 0.843132 0.369163
O O6 0.518582 0.883831 0.582374
O O7 0.516414 0.028126 0.343586
O O8 0.653168 0.036128 0.535784
O O9 0.761208 0.165543 0.729854
O O10 0.868164 0.120200 0.958790
O O11 0.063811 0.746508 0.816574
O O12 0.418901 0.463359 0.218911
O O13 0.485452 0.572143 0.964303
O O14 0.329753 0.402957 0.472802
#
# Coordination Sequence:
#
# PCOD9344738 Si02
#       7
#     4   4   4   4   4   4   4
#     4   9  21  41  63  91 129 165 215 266 318 388
#     4  11  26  42  64  96 135 175 218 264 330 395
#     4  11  21  41  67  90 134 171 210 274 324 383
#     4  11  24  44  64  93 133 177 210 271 330 390
#     4  10  19  39  68  90 122 171 216 266 326 377
#     4  10  24  41  65 102 126 168 229 264 322 398
#     4  10  21  42  65  94 127 167 218 275 320 391
#
# _framework density 20.267834000000001
#
# number of rings (size 3 to 8) (size 9 to 14) (size 15 to 20)
#    0.000    1.714    2.857    2.571    6.000    0.000 
#    7.714    1.429    0.000    0.000    0.000    0.000 
#    0.000    0.000    0.000    0.000    0.000    0.000 
#
# Total GULP energy -156361.969225 kJ/mol
# GULP energy per Si atom -5584.356044 kJ/mol
# Density = 2.022170 g / cm^3
# Si number density = 20.267834 Si / 1000 Ang^3
#
#
#
# Elastic Constant Matrix: (Units=GPa)
#
#
# Indices 1 2 3 4 5 6 
#
# 1 12.8177 -7.2584 -21.1091 0.0000 0.0000 0.0000
# 2 -7.2584 75.3457 34.7145 0.0000 0.0000 0.0000
# 3 -21.1091 34.7145 46.5936 0.0000 0.0000 0.0000
# 4 0.0000 0.0000 0.0000 51.8872 0.0000 0.0000
# 5 0.0000 0.0000 0.0000 0.0000 20.9383 0.0000
# 6 0.0000 0.0000 0.0000 0.0000 0.0000 11.5141
#
#
#
# Elastic Compliance Matrix: (Units=1/GPa)
#
#
# Indices 1 2 3 4 5 6 
#
# 1 0.554071 -0.094830 0.321674 0.000000 0.000000 0.000000
# 2 -0.094830 0.036440 -0.070112 0.000000 0.000000 0.000000
# 3 0.321674 -0.070112 0.219433 0.000000 0.000000 0.000000
# 4 0.000000 0.000000 0.000000 0.019273 0.000000 0.000000
# 5 0.000000 0.000000 0.000000 0.000000 0.047759 0.000000
# 6 0.000000 0.000000 0.000000 0.000000 0.000000 0.086850
#
#
# Mechanical properties :
#
#
# Convention : Reuss Voigt Hill
#
# Bulk Modulus (GPa) = 0.89015 16.38342 8.63679
# Shear Modulus (GPa) = 4.87886 25.42861 15.15373
#
# Velocity S-wave (km/s) = 1.55320 3.54592 2.73733
# Velocity P-wave (km/s) = 1.91225 4.98655 3.77640
#
# Compressibility (1/GPa) = 1.12340699
#
# Stress axis : x y z
#
# Youngs Moduli (GPa) = 1.80482 27.44254 4.55721
#
# Poissons Ratio (x) = 2.60238 -1.46593
# Poissons Ratio (y) = 0.17115 0.31951
# Poissons Ratio (z) = -0.58056 1.92405
#
# Static dielectric constant tensor:
#      x y z
#    x 1.712470 0.000000 0.000000 
#    y 0.000000 1.753000 0.000000 
#    z 0.000000 0.000000 1.712500 
# 
# From -- ./inp_files/3827.got.cif
#   From: 2010.05.17/outbox.cif.g08.bks.cpg/sg33_2_cif.got.tgz:3827.got - 2010.06.03 17:15:25.
