data_PCOD9344664
_publ_section_title
;
Structure prediction by ZEFSAII (Michael W. Deem and Ramdas Pophale) SiO2 
 PCOD9344664
Probable space group: P N A 21
;
_chemical_formula_sum "Si O2"
_cell_formula_units_Z 32
_cell_length_a 10.627268
_cell_length_b 8.412732
_cell_length_c 13.553956
_cell_angle_alpha 90.000000
_cell_angle_beta 90.000000
_cell_angle_gamma 90.000000
_cell_volume 1211.782729
_symmetry_space_group_name_H-M "P N A 21"
_symmetry_group_IT_number 33
_symmetry_cell_setting 'orthorhombic'
loop_
_space_group_symop_operation_xyz
x,y,z
-x,-y,1/2+z
1/2-x,1/2+y,1/2+z
1/2+x,1/2-y,z
loop_
_atom_site_type_symbol
_atom_site_label
_atom_site_fract_x
_atom_site_fract_y
_atom_site_fract_z
Si Si1 0.082621 0.054341 0.442780
Si Si2 0.885694 0.078532 0.164308
Si Si3 0.809483 0.554572 0.323726
Si Si4 0.499880 0.991190 0.172104
Si Si5 0.668528 0.390326 0.927228
Si Si6 0.657149 0.299408 0.153285
Si Si7 0.850219 0.622169 0.988482
Si Si8 0.718077 0.773462 0.160616
O O1 0.106985 0.957358 0.545310
O O2 0.209479 0.051604 0.378898
O O3 0.962365 0.968633 0.397067
O O4 0.054694 0.240694 0.455399
O O5 0.797970 0.235510 0.186607
O O6 0.031003 0.110038 0.196573
O O7 0.814238 0.914346 0.195839
O O8 0.937766 0.488466 0.279395
O O9 0.824465 0.713359 0.387214
O O10 0.745214 0.617593 0.223446
O O11 0.415949 0.977658 0.074405
O O12 0.577287 0.827697 0.177020
O O13 0.597164 0.125504 0.145325
O O14 0.672023 0.376315 0.046042
O O15 0.785307 0.509439 0.908418
O O16 0.746541 0.727753 0.048136
#
# Coordination Sequence:
#
# PCOD9344664 Si02
#       8
#     4   4   4   4   4   4   4   4
#     4  10  21  39  60  93 129 161 215 274 331 392
#     4   9  18  35  61  89 121 162 208 270 309 394
#     4  11  22  40  62  91 134 168 214 271 342 394
#     4  10  21  38  64  90 125 176 213 271 330 400
#     4  11  22  38  67  97 125 171 223 279 330 397
#     4  10  19  36  62  94 122 162 224 260 325 383
#     4  10  21  39  66  91 122 166 225 265 326 395
#     4   9  20  39  60  87 124 166 212 264 333 393
#
# _framework density 26.407373
#
# number of rings (size 3 to 8) (size 9 to 14) (size 15 to 20)
#    0.000    2.000    1.250    2.250    1.750    1.000 
#    2.250    1.250    0.000    0.000    0.000    0.000 
#    0.000    0.000    0.000    0.000    0.000    0.000 
#
# Total GULP energy -178798.177577 kJ/mol
# GULP energy per Si atom -5587.443049 kJ/mol
# Density = 2.634727 g / cm^3
# Si number density = 26.407373 Si / 1000 Ang^3
#
#
#
# Elastic Constant Matrix: (Units=GPa)
#
#
# Indices 1 2 3 4 5 6 
#
# 1 115.5187 20.3901 19.6121 0.0000 0.0000 0.0000
# 2 20.3901 59.6743 5.9375 0.0000 0.0000 0.0000
# 3 19.6121 5.9375 53.3652 0.0000 0.0000 0.0000
# 4 0.0000 0.0000 0.0000 44.9405 0.0000 0.0000
# 5 0.0000 0.0000 0.0000 0.0000 18.8936 0.0000
# 6 0.0000 0.0000 0.0000 0.0000 0.0000 49.6306
#
#
#
# Elastic Compliance Matrix: (Units=1/GPa)
#
#
# Indices 1 2 3 4 5 6 
#
# 1 0.009738 -0.003004 -0.003244 0.000000 0.000000 0.000000
# 2 -0.003004 0.017872 -0.000884 0.000000 0.000000 0.000000
# 3 -0.003244 -0.000884 0.020030 0.000000 0.000000 0.000000
# 4 0.000000 0.000000 0.000000 0.022252 0.000000 0.000000
# 5 0.000000 0.000000 0.000000 0.000000 0.052928 0.000000
# 6 0.000000 0.000000 0.000000 0.000000 0.000000 0.020149
#
#
# Mechanical properties :
#
#
# Convention : Reuss Voigt Hill
#
# Bulk Modulus (GPa) = 29.96426 35.60416 32.78421
# Shear Modulus (GPa) = 29.69849 34.86751 32.28300
#
# Velocity S-wave (km/s) = 3.35719 3.63763 3.50022
# Velocity P-wave (km/s) = 5.13801 5.58167 5.36443
#
# Compressibility (1/GPa) = 0.03337309
#
# Stress axis : x y z
#
# Youngs Moduli (GPa) = 102.69323 55.95273 49.92629
#
# Poissons Ratio (x) = 0.16811 0.16198
# Poissons Ratio (y) = 0.30854 0.04415
# Poissons Ratio (z) = 0.33318 0.04948
#
# Static dielectric constant tensor:
#      x y z
#    x 2.111300 0.000000 0.000000 
#    y 0.000000 2.093340 0.000000 
#    z 0.000000 0.000000 2.085260 
# 
# From -- ./inp_files/7944.got.cif
#   From: 2010.05.17/outbox.cif.g08.bks.cpg/sg33_4_cif.got.tgz:7944.got - 2010.06.03 17:15:25.
