data_PCOD9344648
_publ_section_title
;
Structure prediction by ZEFSAII (Michael W. Deem and Ramdas Pophale) SiO2 
 PCOD9344648
Probable space group: P N A 21
;
_chemical_formula_sum "Si O2"
_cell_formula_units_Z 32
_cell_length_a 8.698301
_cell_length_b 10.733994
_cell_length_c 17.168312
_cell_angle_alpha 90.000000
_cell_angle_beta 90.000000
_cell_angle_gamma 90.000000
_cell_volume 1602.962555
_symmetry_space_group_name_H-M "P N A 21"
_symmetry_group_IT_number 33
_symmetry_cell_setting 'orthorhombic'
loop_
_space_group_symop_operation_xyz
x,y,z
-x,-y,1/2+z
1/2-x,1/2+y,1/2+z
1/2+x,1/2-y,z
loop_
_atom_site_type_symbol
_atom_site_label
_atom_site_fract_x
_atom_site_fract_y
_atom_site_fract_z
Si Si1 0.434074 0.846312 0.785830
Si Si2 0.059762 0.571383 0.989607
Si Si3 0.009957 0.820202 0.545862
Si Si4 0.329471 0.907839 0.614147
Si Si5 0.624624 0.748654 0.375878
Si Si6 0.279527 0.530203 0.469941
Si Si7 0.630199 0.073933 0.839633
Si Si8 0.626095 0.686454 0.882653
O O1 0.359283 0.883035 0.704638
O O2 0.522200 0.718683 0.807550
O O3 0.296104 0.839091 0.848437
O O4 0.566607 0.950663 0.798909
O O5 0.131576 0.540683 0.073818
O O6 0.876166 0.545030 0.991548
O O7 0.124943 0.465404 0.930806
O O8 0.104552 0.699782 0.944941
O O9 0.156133 0.869942 0.592197
O O10 0.058593 0.806104 0.455993
O O11 0.951073 0.687475 0.575039
O O12 0.860391 0.908168 0.544227
O O13 0.732999 0.860713 0.409046
O O14 0.495417 0.818941 0.327628
O O15 0.708883 0.640955 0.328048
O O16 0.402867 0.438414 0.430448
#
# Coordination Sequence:
#
# PCOD9344648 Si02
#       8
#     4   4   4   4   4   4   4   4
#     4  11  25  39  59  87 132 164 201 254 321 378
#     4  10  20  38  59  85 124 158 207 255 299 363
#     4  12  20  33  64  95 115 154 204 264 307 360
#     4  12  22  38  60  91 127 164 200 260 324 363
#     4  11  16  33  61  88 113 144 203 268 297 337
#     4  11  20  35  61  92 116 151 211 257 296 364
#     4  10  19  36  58  87 113 153 201 258 297 361
#     4  11  22  40  60  89 122 168 201 258 303 374
#
# _framework density 19.963035999999999
#
# number of rings (size 3 to 8) (size 9 to 14) (size 15 to 20)
#    0.000    1.000   10.000    0.750    1.750    0.000 
#    0.000    0.000    5.500    0.000    0.000    0.000 
#    0.000    0.000    0.000    0.000    0.000    0.000 
#
# Total GULP energy -178206.005341 kJ/mol
# GULP energy per Si atom -5568.937667 kJ/mol
# Density = 1.991760 g / cm^3
# Si number density = 19.963036 Si / 1000 Ang^3
#
#
#
# Elastic Constant Matrix: (Units=GPa)
#
#
# Indices 1 2 3 4 5 6 
#
# 1 32.2381 14.8194 12.9693 0.0000 0.0000 0.0000
# 2 14.8194 70.9914 21.9265 0.0000 0.0000 0.0000
# 3 12.9693 21.9265 52.3483 0.0000 0.0000 0.0000
# 4 0.0000 0.0000 0.0000 14.2139 0.0000 0.0000
# 5 0.0000 0.0000 0.0000 0.0000 18.4116 0.0000
# 6 0.0000 0.0000 0.0000 0.0000 0.0000 31.2363
#
#
#
# Elastic Compliance Matrix: (Units=1/GPa)
#
#
# Indices 1 2 3 4 5 6 
#
# 1 0.036233 -0.005503 -0.006672 0.000000 0.000000 0.000000
# 2 -0.005503 0.017015 -0.005764 0.000000 0.000000 0.000000
# 3 -0.006672 -0.005764 0.023170 0.000000 0.000000 0.000000
# 4 0.000000 0.000000 0.000000 0.070354 0.000000 0.000000
# 5 0.000000 0.000000 0.000000 0.000000 0.054314 0.000000
# 6 0.000000 0.000000 0.000000 0.000000 0.000000 0.032014
#
#
# Mechanical properties :
#
#
# Convention : Reuss Voigt Hill
#
# Bulk Modulus (GPa) = 24.66621 28.33426 26.50024
# Shear Modulus (GPa) = 17.69977 19.82985 18.76481
#
# Velocity S-wave (km/s) = 2.98086 3.15513 3.06923
# Velocity P-wave (km/s) = 4.92241 5.24379 5.08564
#
# Compressibility (1/GPa) = 0.04054129
#
# Stress axis : x y z
#
# Youngs Moduli (GPa) = 27.59925 58.77135 43.15949
#
# Poissons Ratio (x) = 0.32342 0.28795
# Poissons Ratio (y) = 0.15188 0.24875
# Poissons Ratio (z) = 0.18414 0.33873
#
# Static dielectric constant tensor:
#      x y z
#    x 1.793880 0.000000 0.000000 
#    y 0.000000 1.741420 0.000000 
#    z 0.000000 0.000000 1.727110 
# 
# From -- ./inp_files/8544.got.cif
#   From: 2010.05.17/outbox.cif.g08.bks.cpg/sg33_5_cif.got.tgz:8544.got - 2010.06.03 17:15:25.
