data_PCOD9344031
_publ_section_title
;
Structure prediction by ZEFSAII (Michael W. Deem and Ramdas Pophale) SiO2 
 PCOD9344031
Probable space group: P B A 2
;
_chemical_formula_sum "Si O2"
_cell_formula_units_Z 28
_cell_length_a 7.512823
_cell_length_b 25.493794
_cell_length_c 5.988572
_cell_angle_alpha 90.000000
_cell_angle_beta 90.000000
_cell_angle_gamma 90.000000
_cell_volume 1146.993363
_symmetry_space_group_name_H-M "P B A 2"
_symmetry_group_IT_number 32
_symmetry_cell_setting 'orthorhombic'
loop_
_space_group_symop_operation_xyz
x,y,z
-x,-y,z
1/2-x,1/2+y,z
1/2+x,1/2-y,z
loop_
_atom_site_type_symbol
_atom_site_label
_atom_site_fract_x
_atom_site_fract_y
_atom_site_fract_z
Si Si1 0.000000 0.500000 0.996270
Si Si2 0.531068 0.101181 0.305400
Si Si3 0.244977 0.548344 0.635068
Si Si4 0.896897 0.847542 0.622925
Si Si5 0.579856 0.614329 0.224322
Si Si6 0.685986 0.699967 0.878065
Si Si7 0.500000 0.500000 0.294500
Si Si8 0.584718 0.811050 0.949388
O O1 0.162725 0.516754 0.837850
O O2 0.040012 0.449314 0.143623
O O3 0.411013 0.082193 0.512705
O O4 0.735547 0.114037 0.366627
O O5 0.448609 0.148204 0.152696
O O6 0.395234 0.590920 0.698021
O O7 0.330707 0.510098 0.453822
O O8 0.919994 0.858082 0.359078
O O9 0.053459 0.806163 0.672019
O O10 0.728639 0.827092 0.762672
O O11 0.527941 0.554723 0.172227
O O12 0.627503 0.649421 0.016842
O O13 0.646461 0.752691 0.016604
O O14 0.893091 0.695105 0.832738
#
# Coordination Sequence:
#
# PCOD9344031 Si02
#       8
#     2   4   4   4   4   4   2   4
#     4  12  22  42  72 104 138 200 228 310 360 440
#     4  11  25  44  71 103 147 190 245 297 372 439
#     4  11  25  42  69 103 145 187 243 291 363 439
#     4  11  25  45  70 103 139 187 238 296 358 430
#     4  10  25  44  68 106 141 186 238 300 359 435
#     4  11  25  47  70 104 142 181 249 299 361 435
#     4  10  22  40  64 100 142 184 234 294 350 442
#     4  11  24  48  71 101 145 190 237 307 363 432
#
# _framework density 24.411648
#
# number of rings (size 3 to 8) (size 9 to 14) (size 15 to 20)
#    0.000    1.143    2.857    2.143    6.000    5.714 
#    7.714    1.429    0.000    0.000    0.000    0.000 
#    0.000    0.000    0.000    0.000    0.000    0.000 
#
# Total GULP energy -156488.258308 kJ/mol
# GULP energy per Si atom -5588.866368 kJ/mol
# Density = 2.435609 g / cm^3
# Si number density = 24.411648 Si / 1000 Ang^3
#
#
#
# Elastic Constant Matrix: (Units=GPa)
#
#
# Indices 1 2 3 4 5 6 
#
# 1 95.9488 10.9556 30.5776 0.0000 0.0000 0.0000
# 2 10.9556 122.2685 28.6402 0.0000 0.0000 0.0000
# 3 30.5776 28.6402 28.0653 0.0000 0.0000 0.0000
# 4 0.0000 0.0000 0.0000 17.4511 0.0000 0.0000
# 5 0.0000 0.0000 0.0000 0.0000 32.7318 0.0000
# 6 0.0000 0.0000 0.0000 0.0000 0.0000 40.3265
#
#
#
# Elastic Compliance Matrix: (Units=1/GPa)
#
#
# Indices 1 2 3 4 5 6 
#
# 1 0.017174 0.003738 -0.022526 0.000000 0.000000 0.000000
# 2 0.003738 0.011561 -0.015870 0.000000 0.000000 0.000000
# 3 -0.022526 -0.015870 0.076369 0.000000 0.000000 0.000000
# 4 0.000000 0.000000 0.000000 0.057303 0.000000 0.000000
# 5 0.000000 0.000000 0.000000 0.000000 0.030551 0.000000
# 6 0.000000 0.000000 0.000000 0.000000 0.000000 0.024798
#
#
# Mechanical properties :
#
#
# Convention : Reuss Voigt Hill
#
# Bulk Modulus (GPa) = 27.94283 42.95883 35.45083
# Shear Modulus (GPa) = 16.72233 29.84249 23.28241
#
# Velocity S-wave (km/s) = 2.62012 3.50018 3.09162
# Velocity P-wave (km/s) = 4.54144 5.82845 5.22473
#
# Compressibility (1/GPa) = 0.03578735
#
# Stress axis : x y z
#
# Youngs Moduli (GPa) = 58.22729 86.49562 13.09440
#
# Poissons Ratio (x) = -0.32328 0.29496
# Poissons Ratio (y) = -0.21763 0.20781
# Poissons Ratio (z) = 1.31160 1.37271
#
# Static dielectric constant tensor:
#      x y z
#    x 2.080410 0.000000 0.000000 
#    y 0.000000 1.938010 0.000000 
#    z 0.000000 0.000000 1.984840 
# 
# From -- ./inp_files/581.got.cif
#   From: 2010.05.17/outbox.cif.g08.bks.cpg/sg32_1_cif.got.tgz:581.got - 2010.06.03 17:12:27.
