data_PCOD9344498
_publ_section_title
;
Structure prediction by ZEFSAII (Michael W. Deem and Ramdas Pophale) SiO2 
 PCOD9344498
Probable space group: P N A 21
;
_chemical_formula_sum "Si O2"
_cell_formula_units_Z 32
_cell_length_a 14.342975
_cell_length_b 19.295166
_cell_length_c 5.272286
_cell_angle_alpha 90.000000
_cell_angle_beta 90.000000
_cell_angle_gamma 90.000000
_cell_volume 1459.105591
_symmetry_space_group_name_H-M "P N A 21"
_symmetry_group_IT_number 33
_symmetry_cell_setting 'orthorhombic'
loop_
_space_group_symop_operation_xyz
x,y,z
-x,-y,1/2+z
1/2-x,1/2+y,1/2+z
1/2+x,1/2-y,z
loop_
_atom_site_type_symbol
_atom_site_label
_atom_site_fract_x
_atom_site_fract_y
_atom_site_fract_z
Si Si1 0.967467 0.460184 0.363370
Si Si2 0.914507 0.079359 0.291395
Si Si3 0.979562 0.305444 0.479519
Si Si4 0.692243 0.828955 0.302863
Si Si5 0.366525 0.288079 0.079941
Si Si6 0.100979 0.059210 0.027969
Si Si7 0.232885 0.592430 0.818285
Si Si8 0.530734 0.328305 0.692869
O O1 0.004346 0.379925 0.362536
O O2 0.854683 0.454863 0.392235
O O3 0.007714 0.500881 0.604341
O O4 0.842867 0.137643 0.197461
O O5 0.978894 0.120451 0.495942
O O6 0.991192 0.053555 0.088453
O O7 0.867626 0.010684 0.393632
O O8 0.917609 0.326890 0.724524
O O9 0.908846 0.263631 0.292160
O O10 0.052906 0.245066 0.555476
O O11 0.709872 0.752775 0.417955
O O12 0.707478 0.880281 0.536615
O O13 0.737553 0.850228 0.037950
O O14 0.452166 0.307299 0.896680
O O15 0.163910 0.064092 0.277128
O O16 0.105034 0.128250 0.855326
#
# Coordination Sequence:
#
# PCOD9344498 Si02
#       8
#     4   4   4   4   4   4   4   4
#     4  11  22  38  64  98 126 168 224 273 337 399
#     4  10  20  36  59  98 125 179 216 269 331 401
#     4   9  18  35  64  94 121 154 217 268 331 397
#     4  10  18  37  59  93 120 160 218 270 321 389
#     4   9  17  34  63  89 119 161 216 270 317 401
#     4  11  22  37  61  95 139 172 228 275 326 405
#     4  11  24  37  64  96 130 174 221 280 332 389
#     4   9  19  34  60  91 124 168 220 259 327 389
#
# _framework density 21.931244
#
# number of rings (size 3 to 8) (size 9 to 14) (size 15 to 20)
#    0.000    2.000    3.750    1.500    3.500    0.000 
#    0.000    0.000    0.000    9.000    0.000    0.000 
#    0.000    0.000    0.000    0.000    0.000    0.000 
#
# Total GULP energy -178311.788364 kJ/mol
# GULP energy per Si atom -5572.243386 kJ/mol
# Density = 2.188133 g / cm^3
# Si number density = 21.931244 Si / 1000 Ang^3
#
#
#
# Elastic Constant Matrix: (Units=GPa)
#
#
# Indices 1 2 3 4 5 6 
#
# 1 39.3951 19.0958 7.4441 0.0000 0.0000 0.0000
# 2 19.0958 149.3828 38.2564 0.0000 0.0000 0.0000
# 3 7.4441 38.2564 92.2969 0.0000 0.0000 0.0000
# 4 0.0000 0.0000 0.0000 39.3367 0.0000 0.0000
# 5 0.0000 0.0000 0.0000 0.0000 32.5948 0.0000
# 6 0.0000 0.0000 0.0000 0.0000 0.0000 12.0619
#
#
#
# Elastic Compliance Matrix: (Units=1/GPa)
#
#
# Indices 1 2 3 4 5 6 
#
# 1 0.027119 -0.003252 -0.000839 0.000000 0.000000 0.000000
# 2 -0.003252 0.007879 -0.003004 0.000000 0.000000 0.000000
# 3 -0.000839 -0.003004 0.012147 0.000000 0.000000 0.000000
# 4 0.000000 0.000000 0.000000 0.025422 0.000000 0.000000
# 5 0.000000 0.000000 0.000000 0.000000 0.030680 0.000000
# 6 0.000000 0.000000 0.000000 0.000000 0.000000 0.082905
#
#
# Mechanical properties :
#
#
# Convention : Reuss Voigt Hill
#
# Bulk Modulus (GPa) = 30.34375 45.62971 37.98673
# Shear Modulus (GPa) = 23.66011 31.21725 27.43868
#
# Velocity S-wave (km/s) = 3.28812 3.77691 3.54096
# Velocity P-wave (km/s) = 5.31804 6.31435 5.83749
#
# Compressibility (1/GPa) = 0.03295572
#
# Stress axis : x y z
#
# Youngs Moduli (GPa) = 36.87498 126.91846 82.32311
#
# Poissons Ratio (x) = 0.41269 0.06910
# Poissons Ratio (y) = 0.11990 0.24726
# Poissons Ratio (z) = 0.03095 0.38121
#
# Static dielectric constant tensor:
#      x y z
#    x 1.836860 0.000000 0.000000 
#    y 0.000000 1.881190 0.000000 
#    z 0.000000 0.000000 1.881180 
# 
# From -- ./inp_files/1519.got.cif
#   From: 2010.05.17/outbox.cif.g08.bks.cpg/sg33_1_cif.got.tgz:1519.got - 2010.06.03 17:15:25.
