data_PCOD9344180
_publ_section_title
;
Structure prediction by ZEFSAII (Michael W. Deem and Ramdas Pophale) SiO2 
 PCOD9344180
Probable space group: P B A 2
;
_chemical_formula_sum "Si O2"
_cell_formula_units_Z 26
_cell_length_a 8.359430
_cell_length_b 16.346369
_cell_length_c 8.297336
_cell_angle_alpha 90.000000
_cell_angle_beta 90.000000
_cell_angle_gamma 90.000000
_cell_volume 1133.800492
_symmetry_space_group_name_H-M "P B A 2"
_symmetry_group_IT_number 32
_symmetry_cell_setting 'orthorhombic'
loop_
_space_group_symop_operation_xyz
x,y,z
-x,-y,z
1/2-x,1/2+y,z
1/2+x,1/2-y,z
loop_
_atom_site_type_symbol
_atom_site_label
_atom_site_fract_x
_atom_site_fract_y
_atom_site_fract_z
Si Si1 0.029806 0.137417 0.271640
Si Si2 0.799087 0.871612 0.668444
Si Si3 0.500000 0.500000 0.476378
Si Si4 0.779759 0.719810 0.327681
Si Si5 0.393062 0.877539 0.016447
Si Si6 0.248835 0.553740 0.016620
Si Si7 0.058958 0.302585 0.660866
O O1 0.180690 0.184235 0.348793
O O2 0.110890 0.091604 0.124337
O O3 0.905822 0.211132 0.284760
O O4 0.927093 0.068835 0.362537
O O5 0.867597 0.946887 0.564649
O O6 0.923846 0.795807 0.677839
O O7 0.622472 0.833819 0.637688
O O8 0.786657 0.914911 0.840156
O O9 0.851025 0.684169 0.160327
O O10 0.840437 0.679489 0.496308
O O11 0.573165 0.908519 0.050540
O O12 0.275847 0.956154 0.024575
O O13 0.384622 0.840289 0.833928
#
# Coordination Sequence:
#
# PCOD9344180 Si02
#       7
#     4   4   2   4   4   4   4
#     4  12  26  46  71 109 149 201 258 311 390 456
#     4  11  26  47  76 106 154 199 256 326 389 467
#     4  12  28  42  68 108 146 188 246 320 392 442
#     4  12  25  45  76 105 150 203 255 319 374 472
#     4  10  24  46  77 111 150 198 251 316 388 452
#     4  10  24  48  72 110 154 194 250 319 386 462
#     4  11  25  48  76 113 146 207 270 312 389 478
#
# _framework density 22.931725
#
# number of rings (size 3 to 8) (size 9 to 14) (size 15 to 20)
#    0.000    0.923    1.538    3.692    4.308    5.538 
#    0.000    0.000    0.000    0.000    0.000    0.000 
#    0.000    0.000    0.000    0.000    0.000    0.000 
#
# Total GULP energy -144951.799514 kJ/mol
# GULP energy per Si atom -5575.069212 kJ/mol
# Density = 2.287953 g / cm^3
# Si number density = 22.931725 Si / 1000 Ang^3
#
#
#
# Elastic Constant Matrix: (Units=GPa)
#
#
# Indices 1 2 3 4 5 6 
#
# 1 105.6270 58.1058 72.2664 0.0000 0.0000 0.0000
# 2 58.1058 99.3871 39.8923 0.0000 0.0000 0.0000
# 3 72.2664 39.8923 135.6421 0.0000 0.0000 0.0000
# 4 0.0000 0.0000 0.0000 40.5990 0.0000 0.0000
# 5 0.0000 0.0000 0.0000 0.0000 38.2493 0.0000
# 6 0.0000 0.0000 0.0000 0.0000 0.0000 29.0469
#
#
#
# Elastic Compliance Matrix: (Units=1/GPa)
#
#
# Indices 1 2 3 4 5 6 
#
# 1 0.019368 -0.008143 -0.007924 0.000000 0.000000 0.000000
# 2 -0.008143 0.014832 -0.000024 0.000000 0.000000 0.000000
# 3 -0.007924 -0.000024 0.011601 0.000000 0.000000 0.000000
# 4 0.000000 0.000000 0.000000 0.024631 0.000000 0.000000
# 5 0.000000 0.000000 0.000000 0.000000 0.026144 0.000000
# 6 0.000000 0.000000 0.000000 0.000000 0.000000 0.034427
#
#
# Mechanical properties :
#
#
# Convention : Reuss Voigt Hill
#
# Bulk Modulus (GPa) = 73.42263 75.68726 74.55494
# Shear Modulus (GPa) = 29.81087 32.93848 31.37467
#
# Velocity S-wave (km/s) = 3.60944 3.79406 3.70290
# Velocity P-wave (km/s) = 7.03265 7.22982 7.13192
#
# Compressibility (1/GPa) = 0.01361978
#
# Stress axis : x y z
#
# Youngs Moduli (GPa) = 51.63177 67.42271 86.19950
#
# Poissons Ratio (x) = 0.54901 0.68304
# Poissons Ratio (y) = 0.42042 0.00205
# Poissons Ratio (z) = 0.40913 0.00160
#
# Static dielectric constant tensor:
#      x y z
#    x 1.982970 0.000000 0.000000 
#    y 0.000000 1.861010 0.000000 
#    z 0.000000 0.000000 1.967090 
# 
# From -- ./inp_files/2409.got.cif
#   From: 2010.05.17/outbox.cif.g08.bks.cpg/sg32_2_cif.got.tgz:2409.got - 2010.06.03 17:12:27.
