data_PCOD9344904
_publ_section_title
;
Structure prediction by ZEFSAII (Michael W. Deem and Ramdas Pophale) SiO2 
 PCOD9344904
Probable space group: P N A 21
;
_chemical_formula_sum "Si O2"
_cell_formula_units_Z 20
_cell_length_a 21.384019
_cell_length_b 5.157205
_cell_length_c 7.826271
_cell_angle_alpha 90.000000
_cell_angle_beta 90.000000
_cell_angle_gamma 90.000000
_cell_volume 863.095016
_symmetry_space_group_name_H-M "P N A 21"
_symmetry_group_IT_number 33
_symmetry_cell_setting 'orthorhombic'
loop_
_space_group_symop_operation_xyz
x,y,z
-x,-y,1/2+z
1/2-x,1/2+y,1/2+z
1/2+x,1/2-y,z
loop_
_atom_site_type_symbol
_atom_site_label
_atom_site_fract_x
_atom_site_fract_y
_atom_site_fract_z
Si Si1 0.996560 0.682870 0.815200
Si Si2 0.746618 0.193243 0.533994
Si Si3 0.546777 0.670619 0.145756
Si Si4 0.800632 0.171972 0.204536
Si Si5 0.624712 0.444492 0.422668
O O1 0.990636 0.396005 0.745015
O O2 0.989434 0.895671 0.665091
O O3 0.933802 0.751044 0.925377
O O4 0.050565 0.741979 0.950433
O O5 0.730084 0.921535 0.617271
O O6 0.688121 0.281232 0.413154
O O7 0.742929 0.418534 0.674164
O O8 0.804714 0.200859 0.406939
O O9 0.609398 0.619529 0.257198
O O10 0.862790 0.108433 0.094793
#
# Coordination Sequence:
#
# PCOD9344904 Si02
#       5
#     4   4   4   4   4
#     4  10  20  37  60  80 115 150 185 234 285 336
#     4  10  20  37  61  80 113 151 186 231 279 330
#     4  10  20  37  60  80 115 150 185 234 285 336
#     4  10  20  37  61  80 113 151 186 231 279 330
#     4   8  22  34  62  78 122 138 198 220 302 310
#
# _framework density 23.172419999999999
#
# number of rings (size 3 to 8) (size 9 to 14) (size 15 to 20)
#    2.400    0.000    0.000    3.600    0.000    0.000 
#    0.000    2.000    0.000    0.000    0.000    0.000 
#    0.000    0.000    0.000    0.000    0.000    0.000 
#
# Total GULP energy -111372.914291 kJ/mol
# GULP energy per Si atom -5568.645715 kJ/mol
# Density = 2.311968 g / cm^3
# Si number density = 23.172420 Si / 1000 Ang^3
#
#
#
# Elastic Constant Matrix: (Units=GPa)
#
#
# Indices 1 2 3 4 5 6 
#
# 1 62.2843 9.3966 9.1243 0.0000 0.0000 0.0000
# 2 9.3966 95.5598 -0.5810 0.0000 0.0000 0.0000
# 3 9.1243 -0.5810 48.3233 0.0000 0.0000 0.0000
# 4 0.0000 0.0000 0.0000 18.3883 0.0000 0.0000
# 5 0.0000 0.0000 0.0000 0.0000 35.7209 0.0000
# 6 0.0000 0.0000 0.0000 0.0000 0.0000 -13.0152
#
#
#
# Elastic Compliance Matrix: (Units=1/GPa)
#
#
# Indices 1 2 3 4 5 6 
#
# 1 0.016774 -0.001669 -0.003187 0.000000 0.000000 0.000000
# 2 -0.001669 0.010631 0.000443 0.000000 0.000000 0.000000
# 3 -0.003187 0.000443 0.021301 0.000000 0.000000 0.000000
# 4 0.000000 0.000000 0.000000 0.054382 0.000000 0.000000
# 5 0.000000 0.000000 0.000000 0.000000 0.027995 0.000000
# 6 0.000000 0.000000 0.000000 0.000000 0.000000 -0.076833
#
#
# Mechanical properties :
#
#
# Convention : Reuss Voigt Hill
#
# Bulk Modulus (GPa) = 25.07508 26.89413 25.98460
# Shear Modulus (GPa) = 65.47036 20.76729 43.11883
#
# Velocity S-wave (km/s) = 5.32118 2.99692 4.31836
# Velocity P-wave (km/s) = 6.97121 4.85867 6.00851
#
# Compressibility (1/GPa) = 0.03988024
#
# Stress axis : x y z
#
# Youngs Moduli (GPa) = 59.61571 94.06059 46.94596
#
# Poissons Ratio (x) = 0.15697 0.14963
# Poissons Ratio (y) = 0.09949 -0.02079
# Poissons Ratio (z) = 0.19001 -0.04166
#
# Static dielectric constant tensor:
#      x y z
#    x 1.969230 0.000000 0.000000 
#    y 0.000000 1.808160 0.000000 
#    z 0.000000 0.000000 1.919140 
# 
# From -- ./inp_files/2487.got.cif
#   From: 2010.05.17/outbox.cif.g08.bks.cpg/sg33_2_cif.got.tgz:2487.got - 2010.06.03 17:15:25.
