data_PCOD9344542
_publ_section_title
;
Structure prediction by ZEFSAII (Michael W. Deem and Ramdas Pophale) SiO2 
 PCOD9344542
Probable space group: P N A 21
;
_chemical_formula_sum "Si O2"
_cell_formula_units_Z 28
_cell_length_a 5.170242
_cell_length_b 6.921900
_cell_length_c 35.647564
_cell_angle_alpha 90.000000
_cell_angle_beta 90.000000
_cell_angle_gamma 90.000000
_cell_volume 1275.751388
_symmetry_space_group_name_H-M "P N A 21"
_symmetry_group_IT_number 33
_symmetry_cell_setting 'orthorhombic'
loop_
_space_group_symop_operation_xyz
x,y,z
-x,-y,1/2+z
1/2-x,1/2+y,1/2+z
1/2+x,1/2-y,z
loop_
_atom_site_type_symbol
_atom_site_label
_atom_site_fract_x
_atom_site_fract_y
_atom_site_fract_z
Si Si1 0.290225 0.382783 0.056120
Si Si2 0.805544 0.123885 0.896941
Si Si3 0.183107 0.623450 0.824159
Si Si4 0.715116 0.884458 0.741243
Si Si5 0.367692 0.032243 0.633760
Si Si6 0.813313 0.618571 0.475995
Si Si7 0.367413 0.462609 0.664974
O O1 0.573421 0.287392 0.057589
O O2 0.236014 0.516004 0.091819
O O3 0.243523 0.482212 0.015649
O O4 0.599021 0.300372 0.897104
O O5 0.744736 0.016630 0.936415
O O6 0.745684 0.006243 0.859725
O O7 0.390504 0.798470 0.825593
O O8 0.226555 0.528571 0.783196
O O9 0.443067 0.774263 0.738258
O O10 0.762075 0.029552 0.707028
O O11 0.413481 0.249072 0.648594
O O12 0.651424 0.943522 0.638276
O O13 0.150415 0.946795 0.661245
O O14 0.603342 0.795684 0.476039
#
# Coordination Sequence:
#
# PCOD9344542 Si02
#       7
#     4   4   4   4   4   4   4
#     4  10  19  32  53  81 104 141 185 220 261 316
#     4  10  19  35  58  88 113 149 189 225 275 334
#     4  10  21  38  58  82 119 148 180 235 283 330
#     4  10  21  37  57  78 103 141 183 222 267 325
#     4  10  21  35  52  73 107 140 171 225 273 309
#     4   8  16  30  51  77 110 137 176 225 260 310
#     4  10  21  37  51  73 104 142 170 224 273 318
#
# _framework density 21.947849999999999
#
# number of rings (size 3 to 8) (size 9 to 14) (size 15 to 20)
#    0.000    2.286    0.000    2.571    0.000    3.429 
#    5.143    0.000    6.286    0.000    0.000    0.000 
#    0.000    0.000    0.000    0.000    0.000    0.000 
#
# Total GULP energy -156166.201605 kJ/mol
# GULP energy per Si atom -5577.364343 kJ/mol
# Density = 2.189790 g / cm^3
# Si number density = 21.947850 Si / 1000 Ang^3
#
#
#
# Elastic Constant Matrix: (Units=GPa)
#
#
# Indices 1 2 3 4 5 6 
#
# 1 122.3217 -14.4602 -10.9240 0.0000 0.0000 0.0000
# 2 -14.4602 35.7202 21.9651 0.0000 0.0000 0.0000
# 3 -10.9240 21.9651 201.4090 0.0000 0.0000 0.0000
# 4 0.0000 0.0000 0.0000 33.4540 0.0000 0.0000
# 5 0.0000 0.0000 0.0000 0.0000 34.2220 0.0000
# 6 0.0000 0.0000 0.0000 0.0000 0.0000 13.9381
#
#
#
# Elastic Compliance Matrix: (Units=1/GPa)
#
#
# Indices 1 2 3 4 5 6 
#
# 1 0.008588 0.003419 0.000093 0.000000 0.000000 0.000000
# 2 0.003419 0.031369 -0.003236 0.000000 0.000000 0.000000
# 3 0.000093 -0.003236 0.005323 0.000000 0.000000 0.000000
# 4 0.000000 0.000000 0.000000 0.029892 0.000000 0.000000
# 5 0.000000 0.000000 0.000000 0.000000 0.029221 0.000000
# 6 0.000000 0.000000 0.000000 0.000000 0.000000 0.071746
#
#
# Mechanical properties :
#
#
# Convention : Reuss Voigt Hill
#
# Bulk Modulus (GPa) = 21.81832 39.17918 30.49875
# Shear Modulus (GPa) = 26.19683 40.51415 33.35549
#
# Velocity S-wave (km/s) = 3.45859 4.30109 3.90264
# Velocity P-wave (km/s) = 5.09035 6.52346 5.85095
#
# Compressibility (1/GPa) = 0.04583305
#
# Stress axis : x y z
#
# Youngs Moduli (GPa) = 116.44596 31.87842 187.86678
#
# Poissons Ratio (x) = -0.10900 -0.01745
# Poissons Ratio (y) = -0.39817 0.60786
# Poissons Ratio (z) = -0.01082 0.10314
#
# Static dielectric constant tensor:
#      x y z
#    x 1.860130 0.000000 0.000000 
#    y 0.000000 1.274760 0.000000 
#    z 0.000000 0.000000 1.859710 
# 
# From -- ./inp_files/9319.got.cif
#   From: 2010.05.17/outbox.cif.g08.bks.cpg/sg33_5_cif.got.tgz:9319.got - 2010.06.03 17:15:25.
