data_PCOD9344339
_publ_section_title
;
Structure prediction by ZEFSAII (Michael W. Deem and Ramdas Pophale) SiO2 
 PCOD9344339
Probable space group: P N A 21
;
_chemical_formula_sum "Si O2"
_cell_formula_units_Z 20
_cell_length_a 5.414538
_cell_length_b 15.033160
_cell_length_c 8.679404
_cell_angle_alpha 90.000000
_cell_angle_beta 90.000000
_cell_angle_gamma 90.000000
_cell_volume 706.482795
_symmetry_space_group_name_H-M "P N A 21"
_symmetry_group_IT_number 33
_symmetry_cell_setting 'orthorhombic'
loop_
_space_group_symop_operation_xyz
x,y,z
-x,-y,1/2+z
1/2-x,1/2+y,1/2+z
1/2+x,1/2-y,z
loop_
_atom_site_type_symbol
_atom_site_label
_atom_site_fract_x
_atom_site_fract_y
_atom_site_fract_z
Si Si1 0.863669 0.015319 0.983630
Si Si2 0.449437 0.350647 0.338494
Si Si3 0.134702 0.461712 0.537382
Si Si4 0.446201 0.699276 0.484582
Si Si5 0.586846 0.781989 0.122225
O O1 0.581716 0.032942 0.030009
O O2 0.841733 0.918675 0.901371
O O3 0.096665 0.992488 0.096900
O O4 0.969935 0.104949 0.911459
O O5 0.217923 0.417603 0.372940
O O6 0.510067 0.319939 0.169324
O O7 0.397326 0.267972 0.453961
O O8 0.018562 0.380599 0.630902
O O9 0.163549 0.728456 0.460565
O O10 0.359833 0.725655 0.188820
#
# Coordination Sequence:
#
# PCOD9344339 Si02
#       5
#     4   4   4   4   4
#     4  10  21  35  53  82 118 158 187 241 300 351
#     4   9  21  32  60  84 121 147 195 239 303 341
#     4   9  17  32  51  78 116 150 186 231 297 351
#     4  12  25  38  59  94 123 150 204 255 296 348
#     4  10  14  25  47  80 100 139 172 228 276 331
#
# _framework density 28.309252999999998
#
# number of rings (size 3 to 8) (size 9 to 14) (size 15 to 20)
#    1.200    0.800    2.000    3.600    2.800    0.000 
#    0.000    0.000    0.000    0.000   10.400    0.000 
#    0.000    0.000    0.000    0.000    0.000    0.000 
#
# Total GULP energy -111530.140888 kJ/mol
# GULP energy per Si atom -5576.507044 kJ/mol
# Density = 2.824482 g / cm^3
# Si number density = 28.309253 Si / 1000 Ang^3
#
#
#
# Elastic Constant Matrix: (Units=GPa)
#
#
# Indices 1 2 3 4 5 6 
#
# 1 247.0732 31.0162 -2.6789 0.0000 0.0000 0.0000
# 2 31.0162 136.9027 10.5447 0.0000 0.0000 0.0000
# 3 -2.6789 10.5447 36.2625 0.0000 0.0000 0.0000
# 4 0.0000 0.0000 0.0000 43.3246 0.0000 0.0000
# 5 0.0000 0.0000 0.0000 0.0000 16.2497 0.0000
# 6 0.0000 0.0000 0.0000 0.0000 0.0000 52.0081
#
#
#
# Elastic Compliance Matrix: (Units=1/GPa)
#
#
# Indices 1 2 3 4 5 6 
#
# 1 0.004178 -0.000993 0.000597 0.000000 0.000000 0.000000
# 2 -0.000993 0.007708 -0.002315 0.000000 0.000000 0.000000
# 3 0.000597 -0.002315 0.028294 0.000000 0.000000 0.000000
# 4 0.000000 0.000000 0.000000 0.023082 0.000000 0.000000
# 5 0.000000 0.000000 0.000000 0.000000 0.061540 0.000000
# 6 0.000000 0.000000 0.000000 0.000000 0.000000 0.019228
#
#
# Mechanical properties :
#
#
# Convention : Reuss Voigt Hill
#
# Bulk Modulus (GPa) = 28.76860 55.33359 42.05109
# Shear Modulus (GPa) = 31.04903 47.74024 39.39464
#
# Velocity S-wave (km/s) = 3.31536 4.11101 3.73444
# Velocity P-wave (km/s) = 4.98395 6.49018 5.78629
#
# Compressibility (1/GPa) = 0.03476012
#
# Stress axis : x y z
#
# Youngs Moduli (GPa) = 239.32180 129.74152 35.34331
#
# Poissons Ratio (x) = 0.12879 -0.02111
# Poissons Ratio (y) = 0.23757 0.08181
# Poissons Ratio (z) = -0.14296 0.30030
#
# Static dielectric constant tensor:
#      x y z
#    x 2.272370 0.000000 0.000000 
#    y 0.000000 2.186110 0.000000 
#    z 0.000000 0.000000 2.403890 
# 
# From -- ./inp_files/5410.got.cif
#   From: 2010.05.17/outbox.cif.g08.bks.cpg/sg33_3_cif.got.tgz:5410.got - 2010.06.03 17:15:25.
