data_PCOD9344030
_publ_section_title
;
Structure prediction by ZEFSAII (Michael W. Deem and Ramdas Pophale) SiO2 
 PCOD9344030
Probable space group: P B A 2
;
_chemical_formula_sum "Si O2"
_cell_formula_units_Z 30
_cell_length_a 8.274163
_cell_length_b 14.944517
_cell_length_c 11.979670
_cell_angle_alpha 90.000000
_cell_angle_beta 90.000000
_cell_angle_gamma 90.000000
_cell_volume 1481.326562
_symmetry_space_group_name_H-M "P B A 2"
_symmetry_group_IT_number 32
_symmetry_cell_setting 'orthorhombic'
loop_
_space_group_symop_operation_xyz
x,y,z
-x,-y,z
1/2-x,1/2+y,z
1/2+x,1/2-y,z
loop_
_atom_site_type_symbol
_atom_site_label
_atom_site_fract_x
_atom_site_fract_y
_atom_site_fract_z
Si Si1 0.500000 0.000000 0.192500
Si Si2 0.325706 0.044193 0.782689
Si Si3 0.658569 0.626042 0.811996
Si Si4 0.481893 0.710477 0.280227
Si Si5 0.173786 0.962186 0.582133
Si Si6 0.697185 0.121978 0.365481
Si Si7 0.677793 0.293972 0.891853
Si Si8 0.803849 0.336745 0.133019
O O1 0.617369 0.057366 0.273278
O O2 0.396402 0.069776 0.120654
O O3 0.305549 0.142306 0.828713
O O4 0.500000 0.000000 0.790084
O O5 0.204957 0.975105 0.846754
O O6 0.264865 0.037715 0.654933
O O7 0.644674 0.613834 0.677715
O O8 0.496127 0.664755 0.864253
O O9 0.798454 0.694165 0.847191
O O10 0.409019 0.786945 0.361537
O O11 0.621042 0.650746 0.332978
O O12 0.332914 0.656175 0.228619
O O13 0.568649 0.764874 0.180035
O O14 0.284498 0.926288 0.483535
O O15 0.000000 0.000000 0.544754
O O16 0.722195 0.301885 0.021126
#
# Coordination Sequence:
#
# PCOD9344030 Si02
#       8
#     2   4   4   4   4   4   4   4
#     4  10  24  42  60 102 124 156 234 262 318 406
#     4  10  22  42  60  92 130 159 215 263 301 394
#     4  10  23  40  59  97 124 165 223 259 307 403
#     4   9  21  44  59  95 123 159 222 266 307 403
#     4  10  22  43  61  91 132 166 211 265 320 384
#     4  10  22  41  68  87 129 170 206 272 330 376
#     4  12  21  41  65  87 131 174 201 270 326 373
#     4  10  22  40  63  90 126 162 211 264 323 380
#
# _framework density 20.252117999999999
#
# number of rings (size 3 to 8) (size 9 to 14) (size 15 to 20)
#    0.800    1.067    1.333    2.000    3.733    1.067 
#    9.600    0.000    0.000    0.000    0.000    0.000 
#    0.000    0.000    0.000    0.000    0.000    0.000 
#
# Total GULP energy -167377.163970 kJ/mol
# GULP energy per Si atom -5579.238799 kJ/mol
# Density = 2.020602 g / cm^3
# Si number density = 20.252118 Si / 1000 Ang^3
#
#
#
# Elastic Constant Matrix: (Units=GPa)
#
#
# Indices 1 2 3 4 5 6 
#
# 1 81.5176 -2.7581 -0.9374 0.0000 0.0000 0.0000
# 2 -2.7581 55.1610 3.8596 0.0000 0.0000 0.0000
# 3 -0.9374 3.8596 61.8946 0.0000 0.0000 0.0000
# 4 0.0000 0.0000 0.0000 57.8537 0.0000 0.0000
# 5 0.0000 0.0000 0.0000 0.0000 19.0937 0.0000
# 6 0.0000 0.0000 0.0000 0.0000 0.0000 29.0873
#
#
#
# Elastic Compliance Matrix: (Units=1/GPa)
#
#
# Indices 1 2 3 4 5 6 
#
# 1 0.012289 0.000604 0.000148 0.000000 0.000000 0.000000
# 2 0.000604 0.018238 -0.001128 0.000000 0.000000 0.000000
# 3 0.000148 -0.001128 0.016229 0.000000 0.000000 0.000000
# 4 0.000000 0.000000 0.000000 0.017285 0.000000 0.000000
# 5 0.000000 0.000000 0.000000 0.000000 0.052373 0.000000
# 6 0.000000 0.000000 0.000000 0.000000 0.000000 0.034379
#
#
# Mechanical properties :
#
#
# Convention : Reuss Voigt Hill
#
# Bulk Modulus (GPa) = 21.73664 22.10016 21.91840
# Shear Modulus (GPa) = 29.96158 34.43419 32.19789
#
# Velocity S-wave (km/s) = 3.85051 4.12791 3.99162
# Velocity P-wave (km/s) = 5.52493 5.80136 5.66483
#
# Compressibility (1/GPa) = 0.04600526
#
# Stress axis : x y z
#
# Youngs Moduli (GPa) = 81.37066 54.83087 61.61769
#
# Poissons Ratio (x) = -0.03312 -0.00915
# Poissons Ratio (y) = -0.04916 0.06951
# Poissons Ratio (z) = -0.01208 0.06186
#
# Static dielectric constant tensor:
#      x y z
#    x 1.758840 0.000000 0.000000 
#    y 0.000000 1.701650 0.000000 
#    z 0.000000 0.000000 1.712070 
# 
# From -- ./inp_files/3751.got.cif
#   From: 2010.05.17/outbox.cif.g08.bks.cpg/sg32_2_cif.got.tgz:3751.got - 2010.06.03 17:12:27.
