data_PCOD9344668
_publ_section_title
;
Structure prediction by ZEFSAII (Michael W. Deem and Ramdas Pophale) SiO2 
 PCOD9344668
Probable space group: P N A 21
;
_chemical_formula_sum "Si O2"
_cell_formula_units_Z 32
_cell_length_a 5.587192
_cell_length_b 17.541457
_cell_length_c 13.706929
_cell_angle_alpha 90.000000
_cell_angle_beta 90.000000
_cell_angle_gamma 90.000000
_cell_volume 1343.381682
_symmetry_space_group_name_H-M "P N A 21"
_symmetry_group_IT_number 33
_symmetry_cell_setting 'orthorhombic'
loop_
_space_group_symop_operation_xyz
x,y,z
-x,-y,1/2+z
1/2-x,1/2+y,1/2+z
1/2+x,1/2-y,z
loop_
_atom_site_type_symbol
_atom_site_label
_atom_site_fract_x
_atom_site_fract_y
_atom_site_fract_z
Si Si1 0.545968 0.557607 0.302590
Si Si2 0.244973 0.270890 0.350610
Si Si3 0.685218 0.785200 0.073509
Si Si4 0.579572 0.437289 0.588736
Si Si5 0.050943 0.274751 0.060306
Si Si6 0.609717 0.283802 0.840475
Si Si7 0.617455 0.058501 0.980320
Si Si8 0.238223 0.933621 0.912319
O O1 0.571460 0.554055 0.186999
O O2 0.363938 0.626894 0.321957
O O3 0.764337 0.576374 0.374909
O O4 0.434609 0.479185 0.340047
O O5 0.513142 0.270462 0.306826
O O6 0.296326 0.231895 0.457030
O O7 0.163223 0.358953 0.361051
O O8 0.431940 0.753376 0.109944
O O9 0.711990 0.874421 0.098086
O O10 0.686698 0.516230 0.548435
O O11 0.413846 0.404119 0.503732
O O12 0.307288 0.255839 0.107920
O O13 0.082714 0.230928 0.956344
O O14 0.034837 0.364262 0.032614
O O15 0.349011 0.257027 0.803486
O O16 0.420128 0.995135 0.956070
#
# Coordination Sequence:
#
# PCOD9344668 Si02
#       8
#     4   4   4   4   4   4   4   4
#     4  11  25  40  61  96 134 174 220 271 331 397
#     4  10  19  36  63  93 121 167 219 267 323 392
#     4  10  19  37  58  92 130 170 208 262 326 396
#     4  11  25  40  61  96 134 174 220 271 331 397
#     4  10  19  36  63  93 121 167 219 267 323 392
#     4  10  19  37  58  92 130 170 208 262 326 396
#     4  11  23  41  66  91 133 179 218 269 333 398
#     4  11  23  41  66  91 133 179 218 269 333 398
#
# _framework density 23.820481000000001
#
# number of rings (size 3 to 8) (size 9 to 14) (size 15 to 20)
#    0.000    1.500    5.000    3.000    3.500    2.000 
#    0.000    0.000    0.000    1.500    0.000    0.000 
#    0.000    0.000    0.000    0.000    0.000    0.000 
#
# Total GULP energy -178830.566277 kJ/mol
# GULP energy per Si atom -5588.455196 kJ/mol
# Density = 2.376626 g / cm^3
# Si number density = 23.820481 Si / 1000 Ang^3
#
#
#
# Elastic Constant Matrix: (Units=GPa)
#
#
# Indices 1 2 3 4 5 6 
#
# 1 149.5667 23.5166 14.7833 0.0000 0.0000 0.0000
# 2 23.5166 107.2483 6.0301 0.0000 0.0000 0.0000
# 3 14.7833 6.0301 59.6356 0.0000 0.0000 0.0000
# 4 0.0000 0.0000 0.0000 -2.8660 0.0000 0.0000
# 5 0.0000 0.0000 0.0000 0.0000 15.8760 0.0000
# 6 0.0000 0.0000 0.0000 0.0000 0.0000 46.2498
#
#
#
# Elastic Compliance Matrix: (Units=1/GPa)
#
#
# Indices 1 2 3 4 5 6 
#
# 1 0.007074 -0.001461 -0.001606 0.000000 0.000000 0.000000
# 2 -0.001461 0.009679 -0.000617 0.000000 0.000000 0.000000
# 3 -0.001606 -0.000617 0.017229 0.000000 0.000000 0.000000
# 4 0.000000 0.000000 0.000000 -0.348916 0.000000 0.000000
# 5 0.000000 0.000000 0.000000 0.000000 0.062988 0.000000
# 6 0.000000 0.000000 0.000000 0.000000 0.000000 0.021622
#
#
# Mechanical properties :
#
#
# Convention : Reuss Voigt Hill
#
# Bulk Modulus (GPa) = 37.57191 45.01227 41.29209
# Shear Modulus (GPa) = -23.35527 29.99333 3.31903
#
# Velocity S-wave (km/s) = -3.13464 3.55229 1.18168
# Velocity P-wave (km/s) = 1.64495 5.98017 4.38568
#
# Compressibility (1/GPa) = 0.02661563
#
# Stress axis : x y z
#
# Youngs Moduli (GPa) = 141.35435 103.31466 58.04176
#
# Poissons Ratio (x) = 0.15094 0.09321
# Poissons Ratio (y) = 0.20651 0.03579
# Poissons Ratio (z) = 0.22701 0.06370
#
# Static dielectric constant tensor:
#      x y z
#    x 1.989740 0.000000 0.000000 
#    y 0.000000 1.909040 0.000000 
#    z 0.000000 0.000000 1.927420 
# 
# From -- ./inp_files/7439.got.cif
#   From: 2010.05.17/outbox.cif.g08.bks.cpg/sg33_4_cif.got.tgz:7439.got - 2010.06.03 17:15:25.
