data_PCOD9344984
_publ_section_title
;
Structure prediction by ZEFSAII (Michael W. Deem and Ramdas Pophale) SiO2 
 PCOD9344984
Probable space group: P N A 21
;
_chemical_formula_sum "Si O2"
_cell_formula_units_Z 20
_cell_length_a 6.663882
_cell_length_b 14.999895
_cell_length_c 9.135093
_cell_angle_alpha 90.000000
_cell_angle_beta 90.000000
_cell_angle_gamma 90.000000
_cell_volume 913.121335
_symmetry_space_group_name_H-M "P N A 21"
_symmetry_group_IT_number 33
_symmetry_cell_setting 'orthorhombic'
loop_
_space_group_symop_operation_xyz
x,y,z
-x,-y,1/2+z
1/2-x,1/2+y,1/2+z
1/2+x,1/2-y,z
loop_
_atom_site_type_symbol
_atom_site_label
_atom_site_fract_x
_atom_site_fract_y
_atom_site_fract_z
Si Si1 0.063112 0.419553 0.552770
Si Si2 0.548392 0.549880 0.242389
Si Si3 0.687581 0.073075 0.223091
Si Si4 0.683129 0.145394 0.941479
Si Si5 0.319603 0.179935 0.765747
O O1 0.285714 0.436643 0.617336
O O2 0.081329 0.415847 0.378674
O O3 0.931719 0.498874 0.626019
O O4 0.959420 0.330417 0.621660
O O5 0.415078 0.461477 0.242957
O O6 0.672504 0.565117 0.391641
O O7 0.382976 0.627502 0.234744
O O8 0.689888 0.157267 0.114312
O O9 0.457249 0.129920 0.886453
O O10 0.761650 0.228346 0.844809
#
# Coordination Sequence:
#
# PCOD9344984 Si02
#       5
#     4   4   4   4   4
#     4  10  22  39  61  97 129 162 216 269 322 382
#     4  10  20  38  64  91 123 166 214 263 324 376
#     4  11  22  39  65  97 126 167 219 271 313 388
#     4  11  21  39  67  90 128 173 214 254 330 382
#     4  10  21  39  65  87 124 174 209 259 323 386
#
# _framework density 21.902894
#
# number of rings (size 3 to 8) (size 9 to 14) (size 15 to 20)
#    0.000    1.600    2.000    4.800    0.000    1.600 
#    0.000    4.000    0.000    0.000    0.000    0.000 
#    0.000    0.000    0.000    0.000    0.000    0.000 
#
# Total GULP energy -111561.904903 kJ/mol
# GULP energy per Si atom -5578.095245 kJ/mol
# Density = 2.185304 g / cm^3
# Si number density = 21.902894 Si / 1000 Ang^3
#
#
#
# Elastic Constant Matrix: (Units=GPa)
#
#
# Indices 1 2 3 4 5 6 
#
# 1 139.6472 17.3622 45.3359 0.0000 0.0000 0.0000
# 2 17.3622 45.0512 33.2872 0.0000 0.0000 0.0000
# 3 45.3359 33.2872 197.8549 0.0000 0.0000 0.0000
# 4 0.0000 0.0000 0.0000 22.0787 0.0000 0.0000
# 5 0.0000 0.0000 0.0000 0.0000 21.5489 0.0000
# 6 0.0000 0.0000 0.0000 0.0000 0.0000 28.7284
#
#
#
# Elastic Compliance Matrix: (Units=1/GPa)
#
#
# Indices 1 2 3 4 5 6 
#
# 1 0.007883 -0.001945 -0.001479 0.000000 0.000000 0.000000
# 2 -0.001945 0.025828 -0.003900 0.000000 0.000000 0.000000
# 3 -0.001479 -0.003900 0.006049 0.000000 0.000000 0.000000
# 4 0.000000 0.000000 0.000000 0.045292 0.000000 0.000000
# 5 0.000000 0.000000 0.000000 0.000000 0.046406 0.000000
# 6 0.000000 0.000000 0.000000 0.000000 0.000000 0.034809
#
#
# Mechanical properties :
#
#
# Convention : Reuss Voigt Hill
#
# Bulk Modulus (GPa) = 39.82089 63.83599 51.82844
# Shear Modulus (GPa) = 26.41510 33.57573 29.99542
#
# Velocity S-wave (km/s) = 3.47653 3.91952 3.70465
# Velocity P-wave (km/s) = 5.85962 7.04924 6.48178
#
# Compressibility (1/GPa) = 0.02511245
#
# Stress axis : x y z
#
# Youngs Moduli (GPa) = 126.85694 38.71780 165.31176
#
# Poissons Ratio (x) = 0.07531 0.24450
# Poissons Ratio (y) = 0.24676 0.64465
# Poissons Ratio (z) = 0.18762 0.15098
#
# Static dielectric constant tensor:
#      x y z
#    x 1.810580 0.000000 0.000000 
#    y 0.000000 1.948600 0.000000 
#    z 0.000000 0.000000 1.831660 
# 
# From -- ./inp_files/2637.got.cif
#   From: 2010.05.17/outbox.cif.g08.bks.cpg/sg33_2_cif.got.tgz:2637.got - 2010.06.03 17:15:25.
