data_PCOD9344551
_publ_section_title
;
Structure prediction by ZEFSAII (Michael W. Deem and Ramdas Pophale) SiO2 
 PCOD9344551
Probable space group: P N A 21
;
_chemical_formula_sum "Si O2"
_cell_formula_units_Z 28
_cell_length_a 5.390603
_cell_length_b 24.998445
_cell_length_c 8.680722
_cell_angle_alpha 90.000000
_cell_angle_beta 90.000000
_cell_angle_gamma 90.000000
_cell_volume 1169.785386
_symmetry_space_group_name_H-M "P N A 21"
_symmetry_group_IT_number 33
_symmetry_cell_setting 'orthorhombic'
loop_
_space_group_symop_operation_xyz
x,y,z
-x,-y,1/2+z
1/2-x,1/2+y,1/2+z
1/2+x,1/2-y,z
loop_
_atom_site_type_symbol
_atom_site_label
_atom_site_fract_x
_atom_site_fract_y
_atom_site_fract_z
Si Si1 0.842150 0.778319 0.001920
Si Si2 0.636518 0.786038 0.291398
Si Si3 0.505978 0.551184 0.439797
Si Si4 0.461891 0.882297 0.782231
Si Si5 0.993634 0.397431 0.927982
Si Si6 0.464056 0.565993 0.813047
Si Si7 0.373779 0.762531 0.674024
O O1 0.635970 0.729851 0.029081
O O2 0.702551 0.815490 0.124448
O O3 0.842673 0.778896 0.816619
O O4 0.386996 0.749991 0.297451
O O5 0.586010 0.836158 0.401838
O O6 0.729402 0.588140 0.373887
O O7 0.484760 0.558706 0.625998
O O8 0.568226 0.490906 0.393551
O O9 0.236546 0.566913 0.372537
O O10 0.483989 0.906586 0.610791
O O11 0.728814 0.896557 0.851240
O O12 0.398867 0.820713 0.746525
O O13 0.224257 0.907777 0.863592
O O14 0.616468 0.742904 0.586712
#
# Coordination Sequence:
#
# PCOD9344551 Si02
#       7
#     4   4   4   4   4   4   4
#     4   8  16  30  46  66 100 140 172 214 262 304
#     4  10  19  33  52  76 109 147 184 224 271 325
#     4  10  21  40  61  84 113 144 186 238 289 339
#     4  10  21  36  57  82 111 148 188 231 281 339
#     4  10  21  36  57  82 111 148 188 231 281 339
#     4  10  21  40  61  84 113 144 186 238 289 339
#     4  10  19  33  52  76 109 147 184 224 271 325
#
# _framework density 23.936015000000001
#
# number of rings (size 3 to 8) (size 9 to 14) (size 15 to 20)
#    0.000    2.286    0.000    2.571    0.000    1.143 
#    0.000   12.857    0.000    0.000    0.000    0.000 
#    0.000    0.000    0.000    0.000    0.000    0.000 
#
# Total GULP energy -155894.391080 kJ/mol
# GULP energy per Si atom -5567.656824 kJ/mol
# Density = 2.388154 g / cm^3
# Si number density = 23.936015 Si / 1000 Ang^3
#
#
#
# Elastic Constant Matrix: (Units=GPa)
#
#
# Indices 1 2 3 4 5 6 
#
# 1 232.5938 55.2547 35.9734 0.0000 0.0000 0.0000
# 2 55.2547 84.3161 -8.3113 0.0000 0.0000 0.0000
# 3 35.9734 -8.3113 42.7298 0.0000 0.0000 0.0000
# 4 0.0000 0.0000 0.0000 30.7917 0.0000 0.0000
# 5 0.0000 0.0000 0.0000 0.0000 19.4561 0.0000
# 6 0.0000 0.0000 0.0000 0.0000 0.0000 38.9316
#
#
#
# Elastic Compliance Matrix: (Units=1/GPa)
#
#
# Indices 1 2 3 4 5 6 
#
# 1 0.006433 -0.004842 -0.006358 0.000000 0.000000 0.000000
# 2 -0.004842 0.015737 0.007138 0.000000 0.000000 0.000000
# 3 -0.006358 0.007138 0.030144 0.000000 0.000000 0.000000
# 4 0.000000 0.000000 0.000000 0.032476 0.000000 0.000000
# 5 0.000000 0.000000 0.000000 0.000000 0.051398 0.000000
# 6 0.000000 0.000000 0.000000 0.000000 0.000000 0.025686
#
#
# Mechanical properties :
#
#
# Convention : Reuss Voigt Hill
#
# Bulk Modulus (GPa) = 22.63005 58.38592 40.50798
# Shear Modulus (GPa) = 27.06675 36.28406 31.67541
#
# Velocity S-wave (km/s) = 3.36638 3.89765 3.64172
# Velocity P-wave (km/s) = 4.95832 6.68588 5.88583
#
# Compressibility (1/GPa) = 0.04418903
#
# Stress axis : x y z
#
# Youngs Moduli (GPa) = 155.44835 63.54404 33.17443
#
# Poissons Ratio (x) = 0.30771 0.21091
# Poissons Ratio (y) = 0.75275 -0.23679
# Poissons Ratio (z) = 0.98830 -0.45356
#
# Static dielectric constant tensor:
#      x y z
#    x 1.988490 0.000000 0.000000 
#    y 0.000000 1.941170 0.000000 
#    z 0.000000 0.000000 2.146910 
# 
# From -- ./inp_files/5537.got.cif
#   From: 2010.05.17/outbox.cif.g08.bks.cpg/sg33_3_cif.got.tgz:5537.got - 2010.06.03 17:15:25.
