data_PCOD9344261
_publ_section_title
;
Structure prediction by ZEFSAII (Michael W. Deem and Ramdas Pophale) SiO2 
 PCOD9344261
Probable space group: P B A 2
;
_chemical_formula_sum "Si O2"
_cell_formula_units_Z 24
_cell_length_a 21.343313
_cell_length_b 9.271559
_cell_length_c 5.026296
_cell_angle_alpha 90.000000
_cell_angle_beta 90.000000
_cell_angle_gamma 90.000000
_cell_volume 994.632533
_symmetry_space_group_name_H-M "P B A 2"
_symmetry_group_IT_number 32
_symmetry_cell_setting 'orthorhombic'
loop_
_space_group_symop_operation_xyz
x,y,z
-x,-y,z
1/2-x,1/2+y,z
1/2+x,1/2-y,z
loop_
_atom_site_type_symbol
_atom_site_label
_atom_site_fract_x
_atom_site_fract_y
_atom_site_fract_z
Si Si1 0.318913 0.744011 0.265910
Si Si2 0.926578 0.345541 0.965694
Si Si3 0.432638 0.823957 0.972515
Si Si4 0.688651 0.669459 0.173909
Si Si5 0.142338 0.490306 0.573975
Si Si6 0.783441 0.988638 0.688654
O O1 0.327568 0.916869 0.316458
O O2 0.307094 0.652814 0.532840
O O3 0.384979 0.718714 0.121443
O O4 0.252381 0.740396 0.114758
O O5 0.933721 0.509011 0.082748
O O6 0.873285 0.260831 0.121252
O O7 0.900735 0.376536 0.665919
O O8 0.995426 0.277801 0.961883
O O9 0.400948 0.859814 0.688508
O O10 0.688200 0.536435 0.968931
O O11 0.696869 0.613359 0.474619
O O12 0.208379 0.516411 0.722224
#
# Coordination Sequence:
#
# PCOD9344261 Si02
#       6
#     4   4   4   4   4   4
#     4  11  24  40  70  97 142 179 238 284 356 425
#     4   9  21  42  67  98 138 169 240 288 354 411
#     4   9  20  43  66  97 130 180 223 296 349 404
#     4  11  25  42  66 103 135 180 226 291 344 412
#     4   9  21  39  63 101 124 178 218 295 340 399
#     4  11  26  40  68  99 139 181 228 281 350 419
#
# _framework density 24.129514
#
# number of rings (size 3 to 8) (size 9 to 14) (size 15 to 20)
#    1.000    1.000    1.667    0.000   14.000    0.000 
#    9.000    0.833    0.000    0.000    0.000    0.000 
#    0.000    0.000    0.000    0.000    0.000    0.000 
#
# Total GULP energy -133643.869049 kJ/mol
# GULP energy per Si atom -5568.494544 kJ/mol
# Density = 2.407459 g / cm^3
# Si number density = 24.129514 Si / 1000 Ang^3
#
#
#
# Elastic Constant Matrix: (Units=GPa)
#
#
# Indices 1 2 3 4 5 6 
#
# 1 237.7470 59.0786 39.9440 0.0000 0.0000 0.0000
# 2 59.0786 65.6815 18.3827 0.0000 0.0000 0.0000
# 3 39.9440 18.3827 58.6147 0.0000 0.0000 0.0000
# 4 0.0000 0.0000 0.0000 44.1844 0.0000 0.0000
# 5 0.0000 0.0000 0.0000 0.0000 28.3148 0.0000
# 6 0.0000 0.0000 0.0000 0.0000 0.0000 42.2283
#
#
#
# Elastic Compliance Matrix: (Units=1/GPa)
#
#
# Indices 1 2 3 4 5 6 
#
# 1 0.005735 -0.004456 -0.002511 0.000000 0.000000 0.000000
# 2 -0.004456 0.020152 -0.003283 0.000000 0.000000 0.000000
# 3 -0.002511 -0.003283 0.019801 0.000000 0.000000 0.000000
# 4 0.000000 0.000000 0.000000 0.022632 0.000000 0.000000
# 5 0.000000 0.000000 0.000000 0.000000 0.035317 0.000000
# 6 0.000000 0.000000 0.000000 0.000000 0.000000 0.023681
#
#
# Mechanical properties :
#
#
# Convention : Reuss Voigt Hill
#
# Bulk Modulus (GPa) = 39.70149 66.31711 53.00930
# Shear Modulus (GPa) = 32.00700 39.25471 35.63085
#
# Velocity S-wave (km/s) = 3.64602 4.03778 3.84689
# Velocity P-wave (km/s) = 5.84926 7.02009 6.46125
#
# Compressibility (1/GPa) = 0.02518797
#
# Stress axis : x y z
#
# Youngs Moduli (GPa) = 174.35883 49.62294 50.50139
#
# Poissons Ratio (x) = 0.22112 0.12681
# Poissons Ratio (y) = 0.77694 0.16582
# Poissons Ratio (z) = 0.43780 0.16293
#
# Static dielectric constant tensor:
#      x y z
#    x 1.917720 0.000000 0.000000 
#    y 0.000000 2.112450 0.000000 
#    z 0.000000 0.000000 2.107380 
# 
# From -- ./inp_files/1546.got.cif
#   From: 2010.05.17/outbox.cif.g08.bks.cpg/sg32_1_cif.got.tgz:1546.got - 2010.06.03 17:12:27.
