data_PCOD9344211
_publ_section_title
;
Structure prediction by ZEFSAII (Michael W. Deem and Ramdas Pophale) SiO2 
 PCOD9344211
Probable space group: P B A 2
;
_chemical_formula_sum "Si O2"
_cell_formula_units_Z 18
_cell_length_a 15.830610
_cell_length_b 9.731298
_cell_length_c 4.755269
_cell_angle_alpha 90.000000
_cell_angle_beta 90.000000
_cell_angle_gamma 90.000000
_cell_volume 732.560523
_symmetry_space_group_name_H-M "P B A 2"
_symmetry_group_IT_number 32
_symmetry_cell_setting 'orthorhombic'
loop_
_space_group_symop_operation_xyz
x,y,z
-x,-y,z
1/2-x,1/2+y,z
1/2+x,1/2-y,z
loop_
_atom_site_type_symbol
_atom_site_label
_atom_site_fract_x
_atom_site_fract_y
_atom_site_fract_z
Si Si1 0.426873 0.773670 0.626480
Si Si2 0.000000 0.000000 0.867276
Si Si3 0.163558 0.393065 0.162885
Si Si4 0.615176 0.852433 0.557747
Si Si5 0.346723 0.322600 0.073119
O O1 0.451967 0.619129 0.700432
O O2 0.357544 0.770078 0.381222
O O3 0.485860 0.156677 0.526052
O O4 0.397699 0.861004 0.899511
O O5 0.073118 0.919144 0.029459
O O6 0.147645 0.517720 0.381488
O O7 0.256441 0.391905 0.031218
O O8 0.639825 0.814193 0.877826
O O9 0.652407 0.722364 0.394553
#
# Coordination Sequence:
#
# PCOD9344211 Si02
#       5
#     4   2   4   4   4
#     4  11  25  46  76 110 146 204 247 316 387 460
#     4  10  26  50  78 104 158 198 252 302 394 466
#     4  12  26  47  78 110 152 197 258 319 379 454
#     4  11  25  48  73 110 151 194 258 311 381 458
#     4  11  26  48  75 112 149 204 252 317 380 460
#
# _framework density 24.571352000000001
#
# number of rings (size 3 to 8) (size 9 to 14) (size 15 to 20)
#    0.000    0.889    0.000    6.000    3.111   11.556 
#   12.000    0.000    0.000    0.000    0.000    0.000 
#    0.000    0.000    0.000    0.000    0.000    0.000 
#
# Total GULP energy -100651.677122 kJ/mol
# GULP energy per Si atom -5591.759840 kJ/mol
# Density = 2.451543 g / cm^3
# Si number density = 24.571352 Si / 1000 Ang^3
#
#
#
# Elastic Constant Matrix: (Units=GPa)
#
#
# Indices 1 2 3 4 5 6 
#
# 1 141.9497 24.7788 27.4528 0.0000 0.0000 0.0000
# 2 24.7788 79.7761 13.5536 0.0000 0.0000 0.0000
# 3 27.4528 13.5536 105.3189 0.0000 0.0000 0.0000
# 4 0.0000 0.0000 0.0000 27.4670 0.0000 0.0000
# 5 0.0000 0.0000 0.0000 0.0000 44.3965 0.0000
# 6 0.0000 0.0000 0.0000 0.0000 0.0000 25.9693
#
#
#
# Elastic Compliance Matrix: (Units=1/GPa)
#
#
# Indices 1 2 3 4 5 6 
#
# 1 0.007751 -0.002110 -0.001749 0.000000 0.000000 0.000000
# 2 -0.002110 0.013390 -0.001173 0.000000 0.000000 0.000000
# 3 -0.001749 -0.001173 0.010102 0.000000 0.000000 0.000000
# 4 0.000000 0.000000 0.000000 0.036407 0.000000 0.000000
# 5 0.000000 0.000000 0.000000 0.000000 0.022524 0.000000
# 6 0.000000 0.000000 0.000000 0.000000 0.000000 0.038507
#
#
# Mechanical properties :
#
#
# Convention : Reuss Voigt Hill
#
# Bulk Modulus (GPa) = 47.21825 50.95723 49.08774
# Shear Modulus (GPa) = 34.29214 36.98385 35.63800
#
# Velocity S-wave (km/s) = 3.73985 3.88385 3.81253
# Velocity P-wave (km/s) = 6.15687 6.39499 6.27706
#
# Compressibility (1/GPa) = 0.02117825
#
# Stress axis : x y z
#
# Youngs Moduli (GPa) = 129.00903 74.68315 98.99213
#
# Poissons Ratio (x) = 0.15762 0.17313
# Poissons Ratio (y) = 0.27227 0.11612
# Poissons Ratio (z) = 0.22563 0.08761
#
# Static dielectric constant tensor:
#      x y z
#    x 1.907450 0.000000 0.000000 
#    y 0.000000 2.019330 0.000000 
#    z 0.000000 0.000000 1.935810 
# 
# From -- ./inp_files/377.got.cif
#   From: 2010.05.17/outbox.cif.g08.bks.cpg/sg32_1_cif.got.tgz:377.got - 2010.06.03 17:12:27.
