data_PCOD9344093
_publ_section_title
;
Structure prediction by ZEFSAII (Michael W. Deem and Ramdas Pophale) SiO2 
 PCOD9344093
Probable space group: P B A 2
;
_chemical_formula_sum "Si O2"
_cell_formula_units_Z 22
_cell_length_a 10.339394
_cell_length_b 14.346283
_cell_length_c 6.052695
_cell_angle_alpha 90.000000
_cell_angle_beta 90.000000
_cell_angle_gamma 90.000000
_cell_volume 897.807582
_symmetry_space_group_name_H-M "P B A 2"
_symmetry_group_IT_number 32
_symmetry_cell_setting 'orthorhombic'
loop_
_space_group_symop_operation_xyz
x,y,z
-x,-y,z
1/2-x,1/2+y,z
1/2+x,1/2-y,z
loop_
_atom_site_type_symbol
_atom_site_label
_atom_site_fract_x
_atom_site_fract_y
_atom_site_fract_z
Si Si1 0.054841 0.654088 0.896440
Si Si2 0.000000 0.000000 0.716750
Si Si3 0.839963 0.717420 0.572985
Si Si4 0.131216 0.842573 0.936357
Si Si5 0.746665 0.919603 0.531585
Si Si6 0.847734 0.563223 0.203958
O O1 0.967613 0.712082 0.722188
O O2 0.106435 0.740911 0.043206
O O3 0.160538 0.597182 0.753785
O O4 0.957407 0.588363 0.026733
O O5 0.012115 0.905957 0.859745
O O6 0.867778 0.987391 0.580706
O O7 0.721886 0.685603 0.729303
O O8 0.806689 0.818785 0.479553
O O9 0.862300 0.641177 0.389512
O O10 0.213382 0.912579 0.085938
O O11 0.663333 0.965719 0.335052
#
# Coordination Sequence:
#
# PCOD9344093 Si02
#       6
#     4   2   4   4   4   4
#     4  10  24  48  74 108 154 198 245 319 390 445
#     4  12  22  46  78 104 148 196 248 314 380 448
#     4  10  22  48  72 103 147 196 246 313 380 449
#     4  10  23  45  72 106 146 191 245 308 380 447
#     4  11  25  47  78 110 153 199 251 319 382 457
#     4  11  25  47  75 111 145 194 260 304 374 465
#
# _framework density 24.504137
#
# number of rings (size 3 to 8) (size 9 to 14) (size 15 to 20)
#    0.000    1.455    3.636    0.000    0.000    7.273 
#    6.545    0.000    0.000    0.000    0.000    0.000 
#    0.000    0.000    0.000    0.000    0.000    0.000 
#
# Total GULP energy -123092.302138 kJ/mol
# GULP energy per Si atom -5595.104643 kJ/mol
# Density = 2.444836 g / cm^3
# Si number density = 24.504137 Si / 1000 Ang^3
#
#
#
# Elastic Constant Matrix: (Units=GPa)
#
#
# Indices 1 2 3 4 5 6 
#
# 1 103.9060 27.5132 17.8464 0.0000 0.0000 0.0000
# 2 27.5132 158.4756 33.1650 0.0000 0.0000 0.0000
# 3 17.8464 33.1650 41.0120 0.0000 0.0000 0.0000
# 4 0.0000 0.0000 0.0000 32.6582 0.0000 0.0000
# 5 0.0000 0.0000 0.0000 0.0000 40.0375 0.0000
# 6 0.0000 0.0000 0.0000 0.0000 0.0000 43.6794
#
#
#
# Elastic Compliance Matrix: (Units=1/GPa)
#
#
# Indices 1 2 3 4 5 6 
#
# 1 0.010544 -0.001048 -0.003741 0.000000 0.000000 0.000000
# 2 -0.001048 0.007700 -0.005771 0.000000 0.000000 0.000000
# 3 -0.003741 -0.005771 0.030677 0.000000 0.000000 0.000000
# 4 0.000000 0.000000 0.000000 0.030620 0.000000 0.000000
# 5 0.000000 0.000000 0.000000 0.000000 0.024977 0.000000
# 6 0.000000 0.000000 0.000000 0.000000 0.000000 0.022894
#
#
# Mechanical properties :
#
#
# Convention : Reuss Voigt Hill
#
# Bulk Modulus (GPa) = 35.96780 51.16032 43.56406
# Shear Modulus (GPa) = 31.68609 38.26629 34.97619
#
# Velocity S-wave (km/s) = 3.59986 3.95603 3.78214
# Velocity P-wave (km/s) = 5.65586 6.46455 6.07368
#
# Compressibility (1/GPa) = 0.02780264
#
# Stress axis : x y z
#
# Youngs Moduli (GPa) = 94.84041 129.87625 32.59724
#
# Poissons Ratio (x) = 0.13607 0.12195
# Poissons Ratio (y) = 0.09936 0.18810
# Poissons Ratio (z) = 0.35480 0.74946
#
# Static dielectric constant tensor:
#      x y z
#    x 2.058290 0.000000 0.000000 
#    y 0.000000 2.010490 0.000000 
#    z 0.000000 0.000000 2.010930 
# 
# From -- ./inp_files/849.got.cif
#   From: 2010.05.17/outbox.cif.g08.bks.cpg/sg32_1_cif.got.tgz:849.got - 2010.06.03 17:12:27.
