data_PCOD9344303
_publ_section_title
;
Structure prediction by ZEFSAII (Michael W. Deem and Ramdas Pophale) SiO2 
 PCOD9344303
Probable space group: P B A 2
;
_chemical_formula_sum "Si O2"
_cell_formula_units_Z 18
_cell_length_a 7.195559
_cell_length_b 15.259406
_cell_length_c 7.494554
_cell_angle_alpha 90.000000
_cell_angle_beta 90.000000
_cell_angle_gamma 90.000000
_cell_volume 822.901701
_symmetry_space_group_name_H-M "P B A 2"
_symmetry_group_IT_number 32
_symmetry_cell_setting 'orthorhombic'
loop_
_space_group_symop_operation_xyz
x,y,z
-x,-y,z
1/2-x,1/2+y,z
1/2+x,1/2-y,z
loop_
_atom_site_type_symbol
_atom_site_label
_atom_site_fract_x
_atom_site_fract_y
_atom_site_fract_z
Si Si1 0.500000 0.000000 0.389861
Si Si2 0.624304 0.911027 0.941072
Si Si3 0.336951 0.839634 0.158714
Si Si4 0.418566 0.641589 0.226838
Si Si5 0.153988 0.066075 0.605826
O O1 0.438040 0.913844 0.278746
O O2 0.674994 0.982790 0.513668
O O3 0.748097 0.886340 0.770749
O O4 0.500000 0.000000 0.920832
O O5 0.464820 0.840422 0.983039
O O6 0.772857 0.913001 0.105588
O O7 0.347673 0.741496 0.231166
O O8 0.122415 0.864340 0.141255
O O9 0.432774 0.613977 0.433839
O O10 0.000000 0.000000 0.679602
#
# Coordination Sequence:
#
# PCOD9344303 Si02
#       5
#     2   4   4   4   4
#     4  12  22  44  76 100 146 194 240 306 358 452
#     4  12  27  44  73 109 145 193 250 306 377 449
#     4  12  24  49  75 106 151 196 252 307 379 435
#     4  12  26  49  73 106 149 200 248 315 368 448
#     4  12  26  44  72 109 142 194 251 302 374 442
#
# _framework density 21.873816000000001
#
# number of rings (size 3 to 8) (size 9 to 14) (size 15 to 20)
#    0.000    0.000    8.889    0.000    3.111    0.000 
#    8.000    0.000    0.000    0.000    0.000    0.000 
#    0.000    0.000    0.000    0.000    0.000    0.000 
#
# Total GULP energy -100461.801058 kJ/mol
# GULP energy per Si atom -5581.211170 kJ/mol
# Density = 2.182403 g / cm^3
# Si number density = 21.873816 Si / 1000 Ang^3
#
#
#
# Elastic Constant Matrix: (Units=GPa)
#
#
# Indices 1 2 3 4 5 6 
#
# 1 176.7405 9.2998 27.1338 0.0000 0.0000 0.0000
# 2 9.2998 62.0294 4.4013 0.0000 0.0000 0.0000
# 3 27.1338 4.4013 94.5681 0.0000 0.0000 0.0000
# 4 0.0000 0.0000 0.0000 7.7759 0.0000 0.0000
# 5 0.0000 0.0000 0.0000 0.0000 18.8296 0.0000
# 6 0.0000 0.0000 0.0000 0.0000 0.0000 26.6875
#
#
#
# Elastic Compliance Matrix: (Units=1/GPa)
#
#
# Indices 1 2 3 4 5 6 
#
# 1 0.005956 -0.000774 -0.001673 0.000000 0.000000 0.000000
# 2 -0.000774 0.016275 -0.000535 0.000000 0.000000 0.000000
# 3 -0.001673 -0.000535 0.011079 0.000000 0.000000 0.000000
# 4 0.000000 0.000000 0.000000 0.128602 0.000000 0.000000
# 5 0.000000 0.000000 0.000000 0.000000 0.053108 0.000000
# 6 0.000000 0.000000 0.000000 0.000000 0.000000 0.037471
#
#
# Mechanical properties :
#
#
# Convention : Reuss Voigt Hill
#
# Bulk Modulus (GPa) = 36.56886 46.11198 41.34042
# Shear Modulus (GPa) = 18.68661 30.15879 24.42270
#
# Velocity S-wave (km/s) = 2.92600 3.71720 3.34507
# Velocity P-wave (km/s) = 5.30751 6.28888 5.81892
#
# Compressibility (1/GPa) = 0.02734567
#
# Stress axis : x y z
#
# Youngs Moduli (GPa) = 167.91037 61.44221 90.25871
#
# Poissons Ratio (x) = 0.04757 0.15098
# Poissons Ratio (y) = 0.13000 0.04832
# Poissons Ratio (z) = 0.28087 0.03289
#
# Static dielectric constant tensor:
#      x y z
#    x 1.799070 0.000000 0.000000 
#    y 0.000000 1.815130 0.000000 
#    z 0.000000 0.000000 1.901280 
# 
# From -- ./inp_files/2165.got.cif
#   From: 2010.05.17/outbox.cif.g08.bks.cpg/sg32_2_cif.got.tgz:2165.got - 2010.06.03 17:12:27.
