data_PCOD9344623
_publ_section_title
;
Structure prediction by ZEFSAII (Michael W. Deem and Ramdas Pophale) SiO2 
 PCOD9344623
Probable space group: P N A 21
;
_chemical_formula_sum "Si O2"
_cell_formula_units_Z 32
_cell_length_a 12.173923
_cell_length_b 14.974867
_cell_length_c 7.176324
_cell_angle_alpha 90.000000
_cell_angle_beta 90.000000
_cell_angle_gamma 90.000000
_cell_volume 1308.264517
_symmetry_space_group_name_H-M "P N A 21"
_symmetry_group_IT_number 33
_symmetry_cell_setting 'orthorhombic'
loop_
_space_group_symop_operation_xyz
x,y,z
-x,-y,1/2+z
1/2-x,1/2+y,1/2+z
1/2+x,1/2-y,z
loop_
_atom_site_type_symbol
_atom_site_label
_atom_site_fract_x
_atom_site_fract_y
_atom_site_fract_z
Si Si1 0.400157 0.404445 0.611500
Si Si2 0.249825 0.034824 0.659048
Si Si3 0.953368 0.074623 0.180597
Si Si4 0.357844 0.082292 0.300369
Si Si5 0.396736 0.689518 0.197113
Si Si6 0.403898 0.881011 0.791559
Si Si7 0.646490 0.310179 0.243085
Si Si8 0.148548 0.381384 0.707057
O O1 0.458458 0.494502 0.680358
O O2 0.409618 0.406306 0.388068
O O3 0.474427 0.328709 0.704374
O O4 0.275791 0.392076 0.660220
O O5 0.153989 0.967138 0.576863
O O6 0.335671 0.970541 0.757979
O O7 0.322026 0.092419 0.515206
O O8 0.176284 0.106647 0.770253
O O9 0.034849 0.157261 0.140503
O O10 0.470871 0.121256 0.222854
O O11 0.251810 0.127327 0.201806
O O12 0.378298 0.975206 0.299299
O O13 0.367323 0.783171 0.288398
O O14 0.375057 0.684178 0.969958
O O15 0.337409 0.795443 0.718311
O O16 0.416586 0.875706 0.013710
#
# Coordination Sequence:
#
# PCOD9344623 Si02
#       8
#     4   4   4   4   4   4   4   4
#     4  10  19  35  60  88 112 153 201 245 294 347
#     4  10  21  39  60  87 122 153 200 249 305 346
#     4  10  19  36  60  86 115 150 201 253 289 348
#     4  11  23  40  59  89 125 155 198 247 311 358
#     4   8  20  35  59  87 115 156 198 247 285 350
#     4  11  23  37  63  87 119 164 198 251 296 360
#     4   9  20  36  60  88 111 156 204 243 287 357
#     4  11  21  38  61  88 117 161 200 241 299 362
#
# _framework density 24.459885
#
# number of rings (size 3 to 8) (size 9 to 14) (size 15 to 20)
#    0.000    2.000    2.500    1.500    1.750    7.000 
#    0.000    3.750    2.750    0.000    0.000    0.000 
#    0.000    0.000    0.000    0.000    0.000    0.000 
#
# Total GULP energy -178497.481260 kJ/mol
# GULP energy per Si atom -5578.046289 kJ/mol
# Density = 2.440421 g / cm^3
# Si number density = 24.459885 Si / 1000 Ang^3
#
#
#
# Elastic Constant Matrix: (Units=GPa)
#
#
# Indices 1 2 3 4 5 6 
#
# 1 113.0308 19.6631 -3.0406 0.0000 0.0000 0.0000
# 2 19.6631 81.9239 -16.5279 0.0000 0.0000 0.0000
# 3 -3.0406 -16.5279 48.0605 0.0000 0.0000 0.0000
# 4 0.0000 0.0000 0.0000 25.3787 0.0000 0.0000
# 5 0.0000 0.0000 0.0000 0.0000 15.7892 0.0000
# 6 0.0000 0.0000 0.0000 0.0000 0.0000 27.0933
#
#
#
# Elastic Compliance Matrix: (Units=1/GPa)
#
#
# Indices 1 2 3 4 5 6 
#
# 1 0.009234 -0.002255 -0.000191 0.000000 0.000000 0.000000
# 2 -0.002255 0.013667 0.004557 0.000000 0.000000 0.000000
# 3 -0.000191 0.004557 0.022362 0.000000 0.000000 0.000000
# 4 0.000000 0.000000 0.000000 0.039403 0.000000 0.000000
# 5 0.000000 0.000000 0.000000 0.000000 0.063335 0.000000
# 6 0.000000 0.000000 0.000000 0.000000 0.000000 0.036909
#
#
# Mechanical properties :
#
#
# Convention : Reuss Voigt Hill
#
# Bulk Modulus (GPa) = 20.20766 27.02269 23.61517
# Shear Modulus (GPa) = 25.35705 29.84695 27.60200
#
# Velocity S-wave (km/s) = 3.22324 3.49698 3.36290
# Velocity P-wave (km/s) = 4.70445 5.23230 4.97538
#
# Compressibility (1/GPa) = 0.04948619
#
# Stress axis : x y z
#
# Youngs Moduli (GPa) = 108.29217 73.16823 44.71806
#
# Poissons Ratio (x) = 0.16499 0.00855
# Poissons Ratio (y) = 0.24419 -0.20380
# Poissons Ratio (z) = 0.02071 -0.33346
#
# Static dielectric constant tensor:
#      x y z
#    x 1.921800 0.000000 0.000000 
#    y 0.000000 1.971110 0.000000 
#    z 0.000000 0.000000 2.064360 
# 
# From -- ./inp_files/3916.got.cif
#   From: 2010.05.17/outbox.cif.g08.bks.cpg/sg33_2_cif.got.tgz:3916.got - 2010.06.03 17:15:25.
