data_PCOD9344070
_publ_section_title
;
Structure prediction by ZEFSAII (Michael W. Deem and Ramdas Pophale) SiO2 
 PCOD9344070
Probable space group: P B A 2
;
_chemical_formula_sum "Si O2"
_cell_formula_units_Z 28
_cell_length_a 17.597376
_cell_length_b 11.760895
_cell_length_c 5.422986
_cell_angle_alpha 90.000000
_cell_angle_beta 90.000000
_cell_angle_gamma 90.000000
_cell_volume 1122.346017
_symmetry_space_group_name_H-M "P B A 2"
_symmetry_group_IT_number 32
_symmetry_cell_setting 'orthorhombic'
loop_
_space_group_symop_operation_xyz
x,y,z
-x,-y,z
1/2-x,1/2+y,z
1/2+x,1/2-y,z
loop_
_atom_site_type_symbol
_atom_site_label
_atom_site_fract_x
_atom_site_fract_y
_atom_site_fract_z
Si Si1 0.273437 0.014582 0.501870
Si Si2 0.763146 0.700028 0.822481
Si Si3 0.000000 0.500000 0.211643
Si Si4 0.593376 0.700668 0.028267
Si Si5 0.878985 0.657253 0.201038
Si Si6 0.911015 0.320915 0.538975
Si Si7 0.372123 0.639103 0.499853
Si Si8 0.000000 0.000000 0.808374
O O1 0.328172 0.120270 0.563105
O O2 0.189695 0.046658 0.398510
O O3 0.264156 0.931329 0.734798
O O4 0.325185 0.935362 0.330005
O O5 0.679781 0.709585 0.933789
O O6 0.807710 0.778623 0.625522
O O7 0.820614 0.724857 0.039960
O O8 0.939928 0.576606 0.067660
O O9 0.960629 0.414215 0.400337
O O10 0.559635 0.783487 0.808537
O O11 0.549559 0.584639 0.975644
O O12 0.594716 0.727145 0.320169
O O13 0.916204 0.761708 0.349799
O O14 0.436772 0.571052 0.650842
#
# Coordination Sequence:
#
# PCOD9344070 Si02
#       8
#     4   4   2   4   4   4   4   2
#     4  10  22  43  72 105 140 195 254 309 377 451
#     4  11  24  43  74 106 146 193 257 306 385 459
#     4  10  24  46  70 108 148 196 246 326 382 436
#     4  12  27  48  74 112 153 204 249 317 386 465
#     4  10  24  43  70 106 142 199 250 323 372 470
#     4  11  26  47  75 109 150 198 256 312 380 463
#     4  11  23  46  69 107 146 194 252 315 382 466
#     4  12  28  48  74 110 162 204 254 326 400 458
#
# _framework density 24.947741000000001
#
# number of rings (size 3 to 8) (size 9 to 14) (size 15 to 20)
#    0.000    1.143    2.857    1.714    8.000    2.286 
#    2.571    0.000    0.000    0.000    0.000    0.000 
#    0.000    0.000    0.000    0.000    0.000    0.000 
#
# Total GULP energy -155959.332678 kJ/mol
# GULP energy per Si atom -5569.976167 kJ/mol
# Density = 2.489096 g / cm^3
# Si number density = 24.947741 Si / 1000 Ang^3
#
#
#
# Elastic Constant Matrix: (Units=GPa)
#
#
# Indices 1 2 3 4 5 6 
#
# 1 113.8956 50.9057 -7.1718 0.0000 0.0000 0.0000
# 2 50.9057 92.5799 7.3666 0.0000 0.0000 0.0000
# 3 -7.1718 7.3666 25.0218 0.0000 0.0000 0.0000
# 4 0.0000 0.0000 0.0000 23.9218 0.0000 0.0000
# 5 0.0000 0.0000 0.0000 0.0000 22.8622 0.0000
# 6 0.0000 0.0000 0.0000 0.0000 0.0000 41.7069
#
#
#
# Elastic Compliance Matrix: (Units=1/GPa)
#
#
# Indices 1 2 3 4 5 6 
#
# 1 0.012384 -0.007262 0.005687 0.000000 0.000000 0.000000
# 2 -0.007262 0.015319 -0.006591 0.000000 0.000000 0.000000
# 3 0.005687 -0.006591 0.043536 0.000000 0.000000 0.000000
# 4 0.000000 0.000000 0.000000 0.041803 0.000000 0.000000
# 5 0.000000 0.000000 0.000000 0.000000 0.043740 0.000000
# 6 0.000000 0.000000 0.000000 0.000000 0.000000 0.023977
#
#
# Mechanical properties :
#
#
# Convention : Reuss Voigt Hill
#
# Bulk Modulus (GPa) = 18.21269 37.07761 27.64515
# Shear Modulus (GPa) = 23.21344 29.72465 26.46905
#
# Velocity S-wave (km/s) = 3.05369 3.45552 3.26080
# Velocity P-wave (km/s) = 4.44405 5.55115 5.02816
#
# Compressibility (1/GPa) = 0.05490676
#
# Stress axis : x y z
#
# Youngs Moduli (GPa) = 80.75075 65.27864 22.96960
#
# Poissons Ratio (x) = 0.47404 -0.13064
# Poissons Ratio (y) = 0.58640 0.15140
# Poissons Ratio (z) = -0.45926 0.43028
#
# Static dielectric constant tensor:
#      x y z
#    x 1.991160 0.000000 0.000000 
#    y 0.000000 2.060020 0.000000 
#    z 0.000000 0.000000 2.134170 
# 
# From -- ./inp_files/1568.got.cif
#   From: 2010.05.17/outbox.cif.g08.bks.cpg/sg32_1_cif.got.tgz:1568.got - 2010.06.03 17:12:27.
