data_PCOD9344021
_publ_section_title
;
Structure prediction by ZEFSAII (Michael W. Deem and Ramdas Pophale) SiO2 
 PCOD9344021
Probable space group: P B A 2
;
_chemical_formula_sum "Si O2"
_cell_formula_units_Z 26
_cell_length_a 8.653300
_cell_length_b 18.360465
_cell_length_c 7.963517
_cell_angle_alpha 90.000000
_cell_angle_beta 90.000000
_cell_angle_gamma 90.000000
_cell_volume 1265.232526
_symmetry_space_group_name_H-M "P B A 2"
_symmetry_group_IT_number 32
_symmetry_cell_setting 'orthorhombic'
loop_
_space_group_symop_operation_xyz
x,y,z
-x,-y,z
1/2-x,1/2+y,z
1/2+x,1/2-y,z
loop_
_atom_site_type_symbol
_atom_site_label
_atom_site_fract_x
_atom_site_fract_y
_atom_site_fract_z
Si Si1 0.915534 0.614529 0.692370
Si Si2 0.840553 0.712529 0.016838
Si Si3 0.000000 0.000000 0.914920
Si Si4 0.156162 0.145970 0.390672
Si Si5 0.757040 0.462316 0.666994
Si Si6 0.992004 0.149057 0.048209
Si Si7 0.998706 0.288686 0.383604
O O1 0.878999 0.659064 0.861656
O O2 0.802543 0.546905 0.655223
O O3 0.918569 0.663106 0.525163
O O4 0.087148 0.580861 0.709987
O O5 0.889748 0.794164 0.957454
O O6 0.661239 0.699128 0.060588
O O7 0.928863 0.701487 0.196440
O O8 0.130139 0.041050 0.809736
O O9 0.924913 0.070019 0.000249
O O10 0.183139 0.076053 0.504998
O O11 0.094604 0.126868 0.208183
O O12 0.029015 0.205909 0.444206
O O13 0.320052 0.187905 0.381583
#
# Coordination Sequence:
#
# PCOD9344021 Si02
#       7
#     4   4   2   4   4   4   4
#     4  10  23  44  67  95 132 179 228 270 348 408
#     4  11  23  43  68  98 137 173 231 285 329 420
#     4  12  26  40  62 100 134 170 228 274 348 398
#     4  10  22  42  67  94 137 171 226 283 334 419
#     4  10  24  44  61  97 134 176 220 281 340 416
#     4  11  25  42  65 102 129 181 224 280 349 405
#     4  10  22  39  68 101 124 177 223 276 340 398
#
# _framework density 20.549582000000001
#
# number of rings (size 3 to 8) (size 9 to 14) (size 15 to 20)
#    0.000    1.538    1.538    3.692    6.462    5.538 
#    0.000    1.538    0.000    0.000    0.000    0.000 
#    0.000    0.000    0.000    0.000    0.000    0.000 
#
# Total GULP energy -144814.035689 kJ/mol
# GULP energy per Si atom -5569.770603 kJ/mol
# Density = 2.050281 g / cm^3
# Si number density = 20.549582 Si / 1000 Ang^3
#
#
#
# Elastic Constant Matrix: (Units=GPa)
#
#
# Indices 1 2 3 4 5 6 
#
# 1 49.3355 13.9545 16.6108 0.0000 0.0000 0.0000
# 2 13.9545 123.4250 58.3132 0.0000 0.0000 0.0000
# 3 16.6108 58.3132 87.5708 0.0000 0.0000 0.0000
# 4 0.0000 0.0000 0.0000 45.1029 0.0000 0.0000
# 5 0.0000 0.0000 0.0000 0.0000 11.5919 0.0000
# 6 0.0000 0.0000 0.0000 0.0000 0.0000 12.2787
#
#
#
# Elastic Compliance Matrix: (Units=1/GPa)
#
#
# Indices 1 2 3 4 5 6 
#
# 1 0.021699 -0.000742 -0.003622 0.000000 0.000000 0.000000
# 2 -0.000742 0.011846 -0.007748 0.000000 0.000000 0.000000
# 3 -0.003622 -0.007748 0.017266 0.000000 0.000000 0.000000
# 4 0.000000 0.000000 0.000000 0.022172 0.000000 0.000000
# 5 0.000000 0.000000 0.000000 0.000000 0.086267 0.000000
# 6 0.000000 0.000000 0.000000 0.000000 0.000000 0.081442
#
#
# Mechanical properties :
#
#
# Convention : Reuss Voigt Hill
#
# Bulk Modulus (GPa) = 37.61173 48.67647 43.14410
# Shear Modulus (GPa) = 18.26303 25.22488 21.74396
#
# Velocity S-wave (km/s) = 2.98439 3.50739 3.25641
# Velocity P-wave (km/s) = 5.49710 6.33570 5.93124
#
# Compressibility (1/GPa) = 0.02658745
#
# Stress axis : x y z
#
# Youngs Moduli (GPa) = 46.08577 84.41317 57.91892
#
# Poissons Ratio (x) = 0.06265 0.20976
# Poissons Ratio (y) = 0.03420 0.44874
# Poissons Ratio (z) = 0.16691 0.65401
#
# Static dielectric constant tensor:
#      x y z
#    x 1.732270 0.000000 0.000000 
#    y 0.000000 1.807710 0.000000 
#    z 0.000000 0.000000 1.803710 
# 
# From -- ./inp_files/2451.got.cif
#   From: 2010.05.17/outbox.cif.g08.bks.cpg/sg32_2_cif.got.tgz:2451.got - 2010.06.03 17:12:27.
