data_PCOD9344678
_publ_section_title
;
Structure prediction by ZEFSAII (Michael W. Deem and Ramdas Pophale) SiO2 
 PCOD9344678
Probable space group: P N A 21
;
_chemical_formula_sum "Si O2"
_cell_formula_units_Z 32
_cell_length_a 20.692777
_cell_length_b 6.820432
_cell_length_c 9.212643
_cell_angle_alpha 90.000000
_cell_angle_beta 90.000000
_cell_angle_gamma 90.000000
_cell_volume 1300.214195
_symmetry_space_group_name_H-M "P N A 21"
_symmetry_group_IT_number 33
_symmetry_cell_setting 'orthorhombic'
loop_
_space_group_symop_operation_xyz
x,y,z
-x,-y,1/2+z
1/2-x,1/2+y,1/2+z
1/2+x,1/2-y,z
loop_
_atom_site_type_symbol
_atom_site_label
_atom_site_fract_x
_atom_site_fract_y
_atom_site_fract_z
Si Si1 0.284898 0.795287 0.200510
Si Si2 0.871700 0.900761 0.794750
Si Si3 0.056439 0.909415 0.563026
Si Si4 0.580682 0.006909 0.651076
Si Si5 0.055383 0.035542 0.869652
Si Si6 0.670397 0.602225 0.019948
Si Si7 0.752581 0.444418 0.451505
Si Si8 0.479832 0.863634 0.853374
O O1 0.357249 0.869271 0.190491
O O2 0.260536 0.851418 0.363300
O O3 0.242434 0.929307 0.085527
O O4 0.271743 0.585895 0.119312
O O5 0.800810 0.836953 0.848734
O O6 0.921312 0.727838 0.757761
O O7 0.869301 0.061441 0.667769
O O8 0.900753 0.998718 0.938135
O O9 0.093171 0.725314 0.631795
O O10 0.043559 0.054008 0.697989
O O11 0.990109 0.849080 0.481544
O O12 0.523252 0.015231 0.767202
O O13 0.554646 0.063947 0.495076
O O14 0.027472 0.814706 0.896685
O O15 0.131220 0.031951 0.908135
O O16 0.680550 0.820517 0.956022
#
# Coordination Sequence:
#
# PCOD9344678 Si02
#       8
#     4   4   4   4   4   4   4   4
#     4   9  19  34  60  84 118 159 212 253 318 379
#     4  10  19  38  55  84 111 161 201 247 312 382
#     4  10  22  34  58  81 120 148 202 246 306 373
#     4  11  21  37  54  89 116 151 193 253 309 368
#     4  10  19  37  55  83 108 159 195 245 300 382
#     4   9  18  33  63  79 111 155 210 247 313 376
#     4   9  17  33  61  85 109 163 207 260 308 384
#     4  10  21  34  58  79 117 150 194 251 310 370
#
# _framework density 24.611329999999999
#
# number of rings (size 3 to 8) (size 9 to 14) (size 15 to 20)
#    0.750    1.500    1.250    3.750    0.000    3.000 
#    0.000    1.250    0.000    9.000    0.000    0.000 
#    0.000    0.000    0.000    0.000    0.000    0.000 
#
# Total GULP energy -178244.306963 kJ/mol
# GULP energy per Si atom -5570.134593 kJ/mol
# Density = 2.455531 g / cm^3
# Si number density = 24.611330 Si / 1000 Ang^3
#
#
#
# Elastic Constant Matrix: (Units=GPa)
#
#
# Indices 1 2 3 4 5 6 
#
# 1 63.8993 3.7448 10.8015 0.0000 0.0000 0.0000
# 2 3.7448 47.9607 27.7032 0.0000 0.0000 0.0000
# 3 10.8015 27.7032 144.2754 0.0000 0.0000 0.0000
# 4 0.0000 0.0000 0.0000 48.1888 0.0000 0.0000
# 5 0.0000 0.0000 0.0000 0.0000 25.1018 0.0000
# 6 0.0000 0.0000 0.0000 0.0000 0.0000 8.4895
#
#
#
# Elastic Compliance Matrix: (Units=1/GPa)
#
#
# Indices 1 2 3 4 5 6 
#
# 1 0.015867 -0.000622 -0.001069 0.000000 0.000000 0.000000
# 2 -0.000622 0.023476 -0.004461 0.000000 0.000000 0.000000
# 3 -0.001069 -0.004461 0.007868 0.000000 0.000000 0.000000
# 4 0.000000 0.000000 0.000000 0.020752 0.000000 0.000000
# 5 0.000000 0.000000 0.000000 0.000000 0.039838 0.000000
# 6 0.000000 0.000000 0.000000 0.000000 0.000000 0.117792
#
#
# Mechanical properties :
#
#
# Convention : Reuss Voigt Hill
#
# Bulk Modulus (GPa) = 28.64708 37.84825 33.24766
# Shear Modulus (GPa) = 20.03764 30.61509 25.32636
#
# Velocity S-wave (km/s) = 2.85645 3.53078 3.21137
# Velocity P-wave (km/s) = 4.74807 5.65983 5.22388
#
# Compressibility (1/GPa) = 0.03490757
#
# Stress axis : x y z
#
# Youngs Moduli (GPa) = 63.02516 42.59695 127.10024
#
# Poissons Ratio (x) = 0.02648 0.13581
# Poissons Ratio (y) = 0.03918 0.56702
# Poissons Ratio (z) = 0.06734 0.19003
#
# Static dielectric constant tensor:
#      x y z
#    x 2.014320 0.000000 0.000000 
#    y 0.000000 2.034610 0.000000 
#    z 0.000000 0.000000 1.948670 
# 
# From -- ./inp_files/5198.got.cif
#   From: 2010.05.17/outbox.cif.g08.bks.cpg/sg33_3_cif.got.tgz:5198.got - 2010.06.03 17:15:25.
