data_PCOD9344027
_publ_section_title
;
Structure prediction by ZEFSAII (Michael W. Deem and Ramdas Pophale) SiO2 
 PCOD9344027
Probable space group: P B A 2
;
_chemical_formula_sum "Si O2"
_cell_formula_units_Z 20
_cell_length_a 12.481076
_cell_length_b 15.312332
_cell_length_c 5.091926
_cell_angle_alpha 90.000000
_cell_angle_beta 90.000000
_cell_angle_gamma 90.000000
_cell_volume 973.140278
_symmetry_space_group_name_H-M "P B A 2"
_symmetry_group_IT_number 32
_symmetry_cell_setting 'orthorhombic'
loop_
_space_group_symop_operation_xyz
x,y,z
-x,-y,z
1/2-x,1/2+y,z
1/2+x,1/2-y,z
loop_
_atom_site_type_symbol
_atom_site_label
_atom_site_fract_x
_atom_site_fract_y
_atom_site_fract_z
Si Si1 0.686250 0.141010 0.093930
Si Si2 0.578444 0.577546 0.185515
Si Si3 0.389876 0.953426 0.607466
Si Si4 0.178587 0.052587 0.545534
Si Si5 0.124962 0.161169 0.050971
O O1 0.807686 0.103429 0.061429
O O2 0.647092 0.113160 0.381457
O O3 0.676912 0.243998 0.052908
O O4 0.609390 0.096038 0.882670
O O5 0.500000 0.500000 0.074980
O O6 0.611456 0.535369 0.468371
O O7 0.497671 0.658705 0.160427
O O8 0.500000 0.000000 0.542651
O O9 0.295984 0.024520 0.629069
O O10 0.184757 0.101260 0.265633
O O11 0.131235 0.116484 0.764961
#
# Coordination Sequence:
#
# PCOD9344027 Si02
#       5
#     4   4   4   4   4
#     4  11  24  40  61  96 124 157 210 261 310 370
#     4   9  21  39  64  88 124 165 206 250 306 377
#     4  11  23  41  62  85 123 166 203 245 304 376
#     4  10  22  40  62  90 119 164 211 245 303 384
#     4  11  23  40  63  93 124 156 202 267 313 349
#
# _framework density 20.552022000000001
#
# number of rings (size 3 to 8) (size 9 to 14) (size 15 to 20)
#    0.000    1.600    0.000    5.400    0.000   18.400 
#    0.000    0.000    0.000    0.000    0.000    0.000 
#    0.000    0.000    0.000    0.000    0.000    0.000 
#
# Total GULP energy -111514.905403 kJ/mol
# GULP energy per Si atom -5575.745270 kJ/mol
# Density = 2.050524 g / cm^3
# Si number density = 20.552022 Si / 1000 Ang^3
#
#
#
# Elastic Constant Matrix: (Units=GPa)
#
#
# Indices 1 2 3 4 5 6 
#
# 1 109.5519 47.3251 9.0822 0.0000 0.0000 0.0000
# 2 47.3251 86.3067 32.0868 0.0000 0.0000 0.0000
# 3 9.0822 32.0868 75.2420 0.0000 0.0000 0.0000
# 4 0.0000 0.0000 0.0000 23.8241 0.0000 0.0000
# 5 0.0000 0.0000 0.0000 0.0000 16.7968 0.0000
# 6 0.0000 0.0000 0.0000 0.0000 0.0000 30.0575
#
#
#
# Elastic Compliance Matrix: (Units=1/GPa)
#
#
# Indices 1 2 3 4 5 6 
#
# 1 0.012127 -0.007256 0.001630 0.000000 0.000000 0.000000
# 2 -0.007256 0.018111 -0.006848 0.000000 0.000000 0.000000
# 3 0.001630 -0.006848 0.016014 0.000000 0.000000 0.000000
# 4 0.000000 0.000000 0.000000 0.041974 0.000000 0.000000
# 5 0.000000 0.000000 0.000000 0.000000 0.059535 0.000000
# 6 0.000000 0.000000 0.000000 0.000000 0.000000 0.033270
#
#
# Mechanical properties :
#
#
# Convention : Reuss Voigt Hill
#
# Bulk Modulus (GPa) = 46.93523 49.78765 48.36144
# Shear Modulus (GPa) = 23.46538 26.30945 24.88742
#
# Velocity S-wave (km/s) = 3.38265 3.58178 3.48364
# Velocity P-wave (km/s) = 6.17603 6.43299 6.30582
#
# Compressibility (1/GPa) = 0.02130596
#
# Stress axis : x y z
#
# Youngs Moduli (GPa) = 82.45748 55.21468 62.44619
#
# Poissons Ratio (x) = 0.40064 -0.10182
# Poissons Ratio (y) = 0.59832 0.42761
# Poissons Ratio (z) = -0.13444 0.37809
#
# Static dielectric constant tensor:
#      x y z
#    x 1.753680 0.000000 0.000000 
#    y 0.000000 1.767740 0.000000 
#    z 0.000000 0.000000 1.744690 
# 
# From -- ./inp_files/798.got.cif
#   From: 2010.05.17/outbox.cif.g08.bks.cpg/sg32_1_cif.got.tgz:798.got - 2010.06.03 17:12:27.
