data_PCOD9344214
_publ_section_title
;
Structure prediction by ZEFSAII (Michael W. Deem and Ramdas Pophale) SiO2 
 PCOD9344214
Probable space group: P B A 2
;
_chemical_formula_sum "Si O2"
_cell_formula_units_Z 20
_cell_length_a 8.409670
_cell_length_b 10.655236
_cell_length_c 8.427248
_cell_angle_alpha 90.000000
_cell_angle_beta 90.000000
_cell_angle_gamma 90.000000
_cell_volume 755.140568
_symmetry_space_group_name_H-M "P B A 2"
_symmetry_group_IT_number 32
_symmetry_cell_setting 'orthorhombic'
loop_
_space_group_symop_operation_xyz
x,y,z
-x,-y,z
1/2-x,1/2+y,z
1/2+x,1/2-y,z
loop_
_atom_site_type_symbol
_atom_site_label
_atom_site_fract_x
_atom_site_fract_y
_atom_site_fract_z
Si Si1 0.526818 0.639461 0.035960
Si Si2 0.186317 0.011045 0.656421
Si Si3 0.614765 0.218812 0.759642
Si Si4 0.181541 0.292092 0.243859
Si Si5 0.091709 0.649424 0.452368
O O1 0.500000 0.500000 0.968510
O O2 0.698620 0.649357 0.117301
O O3 0.392680 0.664462 0.170072
O O4 0.492077 0.753890 0.914478
O O5 0.198311 0.146285 0.740847
O O6 0.301039 0.032533 0.505383
O O7 0.261459 0.896784 0.756464
O O8 0.000000 0.000000 0.614400
O O9 0.505955 0.194715 0.605587
O O10 0.286735 0.256287 0.395937
O O11 0.026039 0.363664 0.303818
#
# Coordination Sequence:
#
# PCOD9344214 Si02
#       5
#     4   4   4   4   4
#     4  11  28  51  81 114 165 223 277 354 433 518
#     4  12  28  47  84 123 167 214 289 356 424 495
#     4  12  28  51  82 123 162 224 291 355 418 502
#     4  10  26  52  78 119 167 213 283 346 443 510
#     4  11  24  51  82 122 164 219 286 354 427 511
#
# _framework density 26.485135
#
# number of rings (size 3 to 8) (size 9 to 14) (size 15 to 20)
#    0.000    0.800    2.000    2.400    8.400    4.000 
#    0.000    3.000    0.000    0.000    0.000    0.000 
#    0.000    0.000    0.000    0.000    0.000    0.000 
#
# Total GULP energy -112023.499880 kJ/mol
# GULP energy per Si atom -5601.174994 kJ/mol
# Density = 2.642485 g / cm^3
# Si number density = 26.485135 Si / 1000 Ang^3
#
#
#
# Elastic Constant Matrix: (Units=GPa)
#
#
# Indices 1 2 3 4 5 6 
#
# 1 206.3635 90.0073 80.3260 0.0000 0.0000 0.0000
# 2 90.0073 180.1992 41.7996 0.0000 0.0000 0.0000
# 3 80.3260 41.7996 109.8730 0.0000 0.0000 0.0000
# 4 0.0000 0.0000 0.0000 42.6885 0.0000 0.0000
# 5 0.0000 0.0000 0.0000 0.0000 59.8588 0.0000
# 6 0.0000 0.0000 0.0000 0.0000 0.0000 44.1177
#
#
#
# Elastic Compliance Matrix: (Units=1/GPa)
#
#
# Indices 1 2 3 4 5 6 
#
# 1 0.007928 -0.002869 -0.004705 0.000000 0.000000 0.000000
# 2 -0.002869 0.007125 -0.000613 0.000000 0.000000 0.000000
# 3 -0.004705 -0.000613 0.012774 0.000000 0.000000 0.000000
# 4 0.000000 0.000000 0.000000 0.023426 0.000000 0.000000
# 5 0.000000 0.000000 0.000000 0.000000 0.016706 0.000000
# 6 0.000000 0.000000 0.000000 0.000000 0.000000 0.022667
#
#
# Mechanical properties :
#
#
# Convention : Reuss Voigt Hill
#
# Bulk Modulus (GPa) = 87.30827 102.30015 94.80421
# Shear Modulus (GPa) = 45.11940 48.28653 46.70297
#
# Velocity S-wave (km/s) = 4.13192 4.27448 4.20380
# Velocity P-wave (km/s) = 7.46995 7.94172 7.70944
#
# Compressibility (1/GPa) = 0.01145367
#
# Stress axis : x y z
#
# Youngs Moduli (GPa) = 126.12813 140.35959 78.28174
#
# Poissons Ratio (x) = 0.40266 0.36831
# Poissons Ratio (y) = 0.36183 0.04800
# Poissons Ratio (z) = 0.59343 0.08606
#
# Static dielectric constant tensor:
#      x y z
#    x 2.126880 0.000000 0.000000 
#    y 0.000000 2.082590 0.000000 
#    z 0.000000 0.000000 2.160530 
# 
# From -- ./inp_files/2198.got.cif
#   From: 2010.05.17/outbox.cif.g08.bks.cpg/sg32_2_cif.got.tgz:2198.got - 2010.06.03 17:12:27.
