data_PCOD9344601
_publ_section_title
;
Structure prediction by ZEFSAII (Michael W. Deem and Ramdas Pophale) SiO2 
 PCOD9344601
Probable space group: P N A 21
;
_chemical_formula_sum "Si O2"
_cell_formula_units_Z 32
_cell_length_a 10.456926
_cell_length_b 17.189725
_cell_length_c 9.068163
_cell_angle_alpha 90.000000
_cell_angle_beta 90.000000
_cell_angle_gamma 90.000000
_cell_volume 1630.017554
_symmetry_space_group_name_H-M "P N A 21"
_symmetry_group_IT_number 33
_symmetry_cell_setting 'orthorhombic'
loop_
_space_group_symop_operation_xyz
x,y,z
-x,-y,1/2+z
1/2-x,1/2+y,1/2+z
1/2+x,1/2-y,z
loop_
_atom_site_type_symbol
_atom_site_label
_atom_site_fract_x
_atom_site_fract_y
_atom_site_fract_z
Si Si1 0.385423 0.922658 0.762550
Si Si2 0.003739 0.971485 0.577396
Si Si3 0.584732 0.403218 0.382926
Si Si4 0.570633 0.247470 0.234682
Si Si5 0.814954 0.278966 0.031964
Si Si6 0.668009 0.977138 0.775137
Si Si7 0.244202 0.388580 0.964150
Si Si8 0.740247 0.943578 0.442487
O O1 0.382307 0.832270 0.811777
O O2 0.523441 0.954838 0.804585
O O3 0.362506 0.907977 0.588131
O O4 0.291510 0.988945 0.825599
O O5 0.967677 0.954345 0.744937
O O6 0.890978 0.939944 0.472971
O O7 0.130054 0.925573 0.535623
O O8 0.030356 0.060284 0.532157
O O9 0.542937 0.315851 0.350093
O O10 0.736419 0.420083 0.365586
O O11 0.691136 0.281662 0.141315
O O12 0.445528 0.231329 0.129850
O O13 0.779853 0.200863 0.943647
O O14 0.815579 0.356121 0.931001
O O15 0.687377 0.969604 0.601592
O O16 0.703888 0.063795 0.822504
#
# Coordination Sequence:
#
# PCOD9344601 Si02
#       8
#     4   4   4   4   4   4   4   4
#     4  11  22  34  59  88 112 153 192 236 289 355
#     4  10  19  35  55  85 109 148 191 233 283 337
#     4  10  19  35  59  80 114 148 189 242 278 338
#     4  11  20  36  58  88 113 148 199 234 284 338
#     4  11  20  36  59  87 111 152 194 240 274 346
#     4  10  20  37  54  82 119 151 185 237 295 342
#     4  10  21  35  62  82 113 155 196 229 287 346
#     4  11  21  36  58  84 119 145 190 245 290 338
#
# _framework density 19.631691
#
# number of rings (size 3 to 8) (size 9 to 14) (size 15 to 20)
#    0.000    1.500    5.000    1.500    3.500    0.000 
#    0.000    0.000    8.250    3.000    0.000    0.000 
#    0.000    0.000    0.000    0.000    0.000    0.000 
#
# Total GULP energy -178318.999856 kJ/mol
# GULP energy per Si atom -5572.468745 kJ/mol
# Density = 1.958701 g / cm^3
# Si number density = 19.631691 Si / 1000 Ang^3
#
#
#
# Elastic Constant Matrix: (Units=GPa)
#
#
# Indices 1 2 3 4 5 6 
#
# 1 90.5868 11.0772 -0.0149 0.0000 0.0000 0.0000
# 2 11.0772 150.6984 22.7610 0.0000 0.0000 0.0000
# 3 -0.0149 22.7610 10.0483 0.0000 0.0000 0.0000
# 4 0.0000 0.0000 0.0000 34.5158 0.0000 0.0000
# 5 0.0000 0.0000 0.0000 0.0000 15.6052 0.0000
# 6 0.0000 0.0000 0.0000 0.0000 0.0000 14.8528
#
#
#
# Elastic Compliance Matrix: (Units=1/GPa)
#
#
# Indices 1 2 3 4 5 6 
#
# 1 0.011193 -0.001254 0.002858 0.000000 0.000000 0.000000
# 2 -0.001254 0.010227 -0.023168 0.000000 0.000000 0.000000
# 3 0.002858 -0.023168 0.152003 0.000000 0.000000 0.000000
# 4 0.000000 0.000000 0.000000 0.028972 0.000000 0.000000
# 5 0.000000 0.000000 0.000000 0.000000 0.064081 0.000000
# 6 0.000000 0.000000 0.000000 0.000000 0.000000 0.067327
#
#
# Mechanical properties :
#
#
# Convention : Reuss Voigt Hill
#
# Bulk Modulus (GPa) = 7.67494 35.44224 21.55859
# Shear Modulus (GPa) = 11.89446 27.49544 19.69495
#
# Velocity S-wave (km/s) = 2.46413 3.74647 3.17080
# Velocity P-wave (km/s) = 3.46611 6.06692 4.94072
#
# Compressibility (1/GPa) = 0.13029412
#
# Stress axis : x y z
#
# Youngs Moduli (GPa) = 89.34155 97.77834 6.57882
#
# Poissons Ratio (x) = 0.12266 -0.01880
# Poissons Ratio (y) = 0.11207 0.15242
# Poissons Ratio (z) = -0.25534 2.26534
#
# Static dielectric constant tensor:
#      x y z
#    x 1.746630 0.000000 0.000000 
#    y 0.000000 1.760190 0.000000 
#    z 0.000000 0.000000 1.676850 
# 
# From -- ./inp_files/4096.got.cif
#   From: 2010.05.17/outbox.cif.g08.bks.cpg/sg33_3_cif.got.tgz:4096.got - 2010.06.03 17:15:25.
