data_PCOD9344781
_publ_section_title
;
Structure prediction by ZEFSAII (Michael W. Deem and Ramdas Pophale) SiO2 
 PCOD9344781
Probable space group: P N A 21
;
_chemical_formula_sum "Si O2"
_cell_formula_units_Z 32
_cell_length_a 4.961368
_cell_length_b 15.772643
_cell_length_c 24.727492
_cell_angle_alpha 90.000000
_cell_angle_beta 90.000000
_cell_angle_gamma 90.000000
_cell_volume 1935.022346
_symmetry_space_group_name_H-M "P N A 21"
_symmetry_group_IT_number 33
_symmetry_cell_setting 'orthorhombic'
loop_
_space_group_symop_operation_xyz
x,y,z
-x,-y,1/2+z
1/2-x,1/2+y,1/2+z
1/2+x,1/2-y,z
loop_
_atom_site_type_symbol
_atom_site_label
_atom_site_fract_x
_atom_site_fract_y
_atom_site_fract_z
Si Si1 0.717705 0.306599 0.489330
Si Si2 0.526710 0.693834 0.668674
Si Si3 0.334598 0.574917 0.888595
Si Si4 0.334600 0.574917 0.575733
Si Si5 0.362815 0.023738 0.924895
Si Si6 0.526711 0.693834 0.795654
Si Si7 0.137184 0.523738 0.039432
Si Si8 0.217705 0.193401 0.974998
O O1 0.414647 0.273329 0.493701
O O2 0.750745 0.351055 0.430708
O O3 0.794268 0.377339 0.533603
O O4 0.827851 0.726538 0.657940
O O5 0.435357 0.618371 0.630276
O O6 0.500126 0.672891 0.732164
O O7 0.586271 0.526416 0.915710
O O8 0.435357 0.618371 0.834051
O O9 0.085511 0.510114 0.882878
O O10 0.586273 0.526416 0.548618
O O11 0.249256 0.648944 0.533620
O O12 0.085513 0.510114 0.581450
O O13 0.294267 0.122662 0.930725
O O14 0.500000 1.000000 0.982164
O O15 0.827852 0.726538 0.806388
O O16 0.414648 0.273329 0.970627
#
# Coordination Sequence:
#
# PCOD9344781 Si02
#       8
#     4   4   4   4   4   4   4   4
#     4  11  19  29  45  66  92 122 156 187 224 274
#     4  10  20  33  49  72  99 126 161 199 229 268
#     4  11  19  32  48  66  95 130 158 186 235 279
#     4  11  19  32  48  66  95 130 158 186 235 279
#     4  10  20  32  45  66  94 124 158 196 230 275
#     4  10  20  33  49  72  99 126 161 199 229 268
#     4  10  20  32  45  66  94 124 158 196 230 275
#     4  11  19  29  45  66  92 122 156 187 224 274
#
# _framework density 16.537275999999999
#
# number of rings (size 3 to 8) (size 9 to 14) (size 15 to 20)
#    0.000    1.500    0.000   10.500    0.000    0.000 
#    0.000    0.000    0.000    0.000    0.000    0.000 
#    0.000   20.000    0.000    0.000    0.000    0.000 
#
# Total GULP energy -178613.136117 kJ/mol
# GULP energy per Si atom -5581.660504 kJ/mol
# Density = 1.649964 g / cm^3
# Si number density = 16.537276 Si / 1000 Ang^3
#
#
#
# Elastic Constant Matrix: (Units=GPa)
#
#
# Indices 1 2 3 4 5 6 
#
# 1 66.5331 4.6872 -1.9348 0.0000 0.0000 0.0000
# 2 4.6872 56.8200 21.5295 0.0000 0.0000 0.0000
# 3 -1.9348 21.5295 33.1108 0.0000 0.0000 0.0000
# 4 0.0000 0.0000 0.0000 24.2396 0.0000 0.0000
# 5 0.0000 0.0000 0.0000 0.0000 15.9564 0.0000
# 6 0.0000 0.0000 0.0000 0.0000 0.0000 40.2820
#
#
#
# Elastic Compliance Matrix: (Units=1/GPa)
#
#
# Indices 1 2 3 4 5 6 
#
# 1 0.015245 -0.002117 0.002267 0.000000 0.000000 0.000000
# 2 -0.002117 0.023647 -0.015500 0.000000 0.000000 0.000000
# 3 0.002267 -0.015500 0.040412 0.000000 0.000000 0.000000
# 4 0.000000 0.000000 0.000000 0.041255 0.000000 0.000000
# 5 0.000000 0.000000 0.000000 0.000000 0.062671 0.000000
# 6 0.000000 0.000000 0.000000 0.000000 0.000000 0.024825
#
#
# Mechanical properties :
#
#
# Convention : Reuss Voigt Hill
#
# Bulk Modulus (GPa) = 20.57345 22.78086 21.67716
# Shear Modulus (GPa) = 19.61129 24.90774 22.25951
#
# Velocity S-wave (km/s) = 3.44740 3.88513 3.67280
# Velocity P-wave (km/s) = 5.32107 5.82504 5.57875
#
# Compressibility (1/GPa) = 0.04860633
#
# Stress axis : x y z
#
# Youngs Moduli (GPa) = 65.59457 42.28875 24.74490
#
# Poissons Ratio (x) = 0.08951 -0.05610
# Poissons Ratio (y) = 0.13884 0.38354
# Poissons Ratio (z) = -0.14871 0.65546
#
# Static dielectric constant tensor:
#      x y z
#    x 1.584880 0.000000 0.000000 
#    y 0.000000 1.570310 0.000000 
#    z 0.000000 0.000000 1.552060 
# 
# From -- ./inp_files/9214.got.cif
#   From: 2010.05.17/outbox.cif.g08.bks.cpg/sg33_5_cif.got.tgz:9214.got - 2010.06.03 17:15:25.
