data_PCOD9344066
_publ_section_title
;
Structure prediction by ZEFSAII (Michael W. Deem and Ramdas Pophale) SiO2 
 PCOD9344066
Probable space group: P B A 2
;
_chemical_formula_sum "Si O2"
_cell_formula_units_Z 26
_cell_length_a 12.137402
_cell_length_b 6.860238
_cell_length_c 12.663609
_cell_angle_alpha 90.000000
_cell_angle_beta 90.000000
_cell_angle_gamma 90.000000
_cell_volume 1054.441310
_symmetry_space_group_name_H-M "P B A 2"
_symmetry_group_IT_number 32
_symmetry_cell_setting 'orthorhombic'
loop_
_space_group_symop_operation_xyz
x,y,z
-x,-y,z
1/2-x,1/2+y,z
1/2+x,1/2-y,z
loop_
_atom_site_type_symbol
_atom_site_label
_atom_site_fract_x
_atom_site_fract_y
_atom_site_fract_z
Si Si1 0.500000 0.000000 0.460590
Si Si2 0.843316 0.787466 0.329644
Si Si3 0.276386 0.411773 0.700345
Si Si4 0.396994 0.866934 0.125533
Si Si5 0.282035 0.155517 0.539662
Si Si6 0.000000 0.000000 0.805766
Si Si7 0.610031 0.126976 0.892880
Si Si8 0.500000 0.500000 0.199506
O O1 0.563569 0.158927 0.389906
O O2 0.411959 0.108834 0.534176
O O3 0.815627 0.664252 0.223786
O O4 0.756070 0.835392 0.417697
O O5 0.899429 0.982280 0.282498
O O6 0.246101 0.162444 0.670015
O O7 0.267012 0.409848 0.563587
O O8 0.404981 0.404939 0.733060
O O9 0.199266 0.417106 0.804377
O O10 0.465450 0.668257 0.121202
O O11 0.500000 0.000000 0.156195
O O12 0.347815 0.912191 0.011961
O O13 0.933769 0.844484 0.874460
O O14 0.500000 0.000000 0.879284
#
# Coordination Sequence:
#
# PCOD9344066 Si02
#       8
#     2   4   4   4   4   2   4   2
#     4  12  26  44  70  98 150 186 244 304 364 442
#     4  10  22  43  68 104 139 188 236 293 365 438
#     4  12  27  46  69 105 139 194 252 297 381 432
#     4   9  19  42  73 106 145 188 236 300 370 432
#     4  12  27  43  67 103 141 191 240 302 368 439
#     4  12  27  47  76 100 152 193 249 308 374 442
#     4  11  25  47  76 109 147 192 251 311 364 451
#     4   8  19  37  74 104 148 179 247 284 360 442
#
# _framework density 24.657609999999998
#
# number of rings (size 3 to 8) (size 9 to 14) (size 15 to 20)
#    0.923    0.308    3.846    1.385    7.538    0.000 
#    0.000    3.077    0.000    0.000    0.000    0.000 
#    0.000    0.000    0.000    0.000    0.000    0.000 
#
# Total GULP energy -144848.092778 kJ/mol
# GULP energy per Si atom -5571.080491 kJ/mol
# Density = 2.460149 g / cm^3
# Si number density = 24.657610 Si / 1000 Ang^3
#
#
#
# Elastic Constant Matrix: (Units=GPa)
#
#
# Indices 1 2 3 4 5 6 
#
# 1 111.8125 27.5935 79.1332 0.0000 0.0000 0.0000
# 2 27.5935 82.2507 35.1959 0.0000 0.0000 0.0000
# 3 79.1332 35.1959 227.4101 0.0000 0.0000 0.0000
# 4 0.0000 0.0000 0.0000 25.6846 0.0000 0.0000
# 5 0.0000 0.0000 0.0000 0.0000 26.8431 0.0000
# 6 0.0000 0.0000 0.0000 0.0000 0.0000 40.1755
#
#
#
# Elastic Compliance Matrix: (Units=1/GPa)
#
#
# Indices 1 2 3 4 5 6 
#
# 1 0.012314 -0.002460 -0.003904 0.000000 0.000000 0.000000
# 2 -0.002460 0.013512 -0.001235 0.000000 0.000000 0.000000
# 3 -0.003904 -0.001235 0.005947 0.000000 0.000000 0.000000
# 4 0.000000 0.000000 0.000000 0.038934 0.000000 0.000000
# 5 0.000000 0.000000 0.000000 0.000000 0.037254 0.000000
# 6 0.000000 0.000000 0.000000 0.000000 0.000000 0.024891
#
#
# Mechanical properties :
#
#
# Convention : Reuss Voigt Hill
#
# Bulk Modulus (GPa) = 60.33721 78.36873 69.35297
# Shear Modulus (GPa) = 32.55750 37.17736 34.86743
#
# Velocity S-wave (km/s) = 3.63765 3.88718 3.76448
# Velocity P-wave (km/s) = 6.49357 7.21101 6.86167
#
# Compressibility (1/GPa) = 0.01657352
#
# Stress axis : x y z
#
# Youngs Moduli (GPa) = 81.20975 74.00908 168.15145
#
# Poissons Ratio (x) = 0.18209 0.65648
# Poissons Ratio (y) = 0.19981 0.20767
# Poissons Ratio (z) = 0.31705 0.09140
#
# Static dielectric constant tensor:
#      x y z
#    x 1.847350 0.000000 0.000000 
#    y 0.000000 2.385290 0.000000 
#    z 0.000000 0.000000 1.911070 
# 
# From -- ./inp_files/3859.got.cif
#   From: 2010.05.17/outbox.cif.g08.bks.cpg/sg32_2_cif.got.tgz:3859.got - 2010.06.03 17:12:27.
