data_PCOD9344885
_publ_section_title
;
Structure prediction by ZEFSAII (Michael W. Deem and Ramdas Pophale) SiO2 
 PCOD9344885
Probable space group: P N A 21
;
_chemical_formula_sum "Si O2"
_cell_formula_units_Z 24
_cell_length_a 8.984466
_cell_length_b 15.667245
_cell_length_c 8.265871
_cell_angle_alpha 90.000000
_cell_angle_beta 90.000000
_cell_angle_gamma 90.000000
_cell_volume 1163.519129
_symmetry_space_group_name_H-M "P N A 21"
_symmetry_group_IT_number 33
_symmetry_cell_setting 'orthorhombic'
loop_
_space_group_symop_operation_xyz
x,y,z
-x,-y,1/2+z
1/2-x,1/2+y,1/2+z
1/2+x,1/2-y,z
loop_
_atom_site_type_symbol
_atom_site_label
_atom_site_fract_x
_atom_site_fract_y
_atom_site_fract_z
Si Si1 0.287624 0.841839 0.188330
Si Si2 0.047641 0.754837 0.018141
Si Si3 0.028210 0.073041 0.348287
Si Si4 0.699522 0.474612 0.037469
Si Si5 0.160907 0.577386 0.997045
Si Si6 0.026347 0.573374 0.357217
O O1 0.390896 0.858786 0.344576
O O2 0.257100 0.936220 0.116629
O O3 0.132237 0.791971 0.178111
O O4 0.392203 0.786451 0.070450
O O5 0.030459 0.834064 0.898921
O O6 0.138478 0.675496 0.946715
O O7 0.094516 0.068337 0.169885
O O8 0.168730 0.053486 0.465917
O O9 0.899929 0.004473 0.385419
O O10 0.840732 0.418739 0.985269
O O11 0.105708 0.572449 0.182121
O O12 0.053912 0.515969 0.895533
#
# Coordination Sequence:
#
# PCOD9344885 Si02
#       6
#     4   4   4   4   4   4
#     4  10  20  36  63  91 119 163 218 255 311 383
#     4  10  20  36  62  91 122 168 217 257 320 383
#     4  11  22  39  63  94 126 167 217 265 314 386
#     4  11  22  39  64  96 124 165 220 258 319 376
#     4  11  20  37  63  90 124 169 219 262 316 383
#     4  11  20  37  63  92 123 164 217 263 308 385
#
# _framework density 20.627078000000001
#
# number of rings (size 3 to 8) (size 9 to 14) (size 15 to 20)
#    0.000    1.333    6.667    1.000    0.000    0.000 
#    0.000    0.000   14.667    0.000    0.000    0.000 
#    0.000    0.000    0.000    0.000    0.000    0.000 
#
# Total GULP energy -133824.328315 kJ/mol
# GULP energy per Si atom -5576.013680 kJ/mol
# Density = 2.058013 g / cm^3
# Si number density = 20.627078 Si / 1000 Ang^3
#
#
#
# Elastic Constant Matrix: (Units=GPa)
#
#
# Indices 1 2 3 4 5 6 
#
# 1 83.2613 24.4107 16.0094 0.0000 0.0000 0.0000
# 2 24.4107 68.3837 27.9626 0.0000 0.0000 0.0000
# 3 16.0094 27.9626 56.0507 0.0000 0.0000 0.0000
# 4 0.0000 0.0000 0.0000 18.4024 0.0000 0.0000
# 5 0.0000 0.0000 0.0000 0.0000 49.1200 0.0000
# 6 0.0000 0.0000 0.0000 0.0000 0.0000 -8.1211
#
#
#
# Elastic Compliance Matrix: (Units=1/GPa)
#
#
# Indices 1 2 3 4 5 6 
#
# 1 0.013562 -0.004092 -0.001832 0.000000 0.000000 0.000000
# 2 -0.004092 0.019606 -0.008612 0.000000 0.000000 0.000000
# 3 -0.001832 -0.008612 0.022661 0.000000 0.000000 0.000000
# 4 0.000000 0.000000 0.000000 0.054341 0.000000 0.000000
# 5 0.000000 0.000000 0.000000 0.000000 0.020358 0.000000
# 6 0.000000 0.000000 0.000000 0.000000 0.000000 -0.123137
#
#
# Mechanical properties :
#
#
# Convention : Reuss Voigt Hill
#
# Bulk Modulus (GPa) = 37.37496 38.27347 37.82421
# Shear Modulus (GPa) = 110.17377 21.16779 65.67078
#
# Velocity S-wave (km/s) = 7.31629 3.20693 5.64856
# Velocity P-wave (km/s) = 9.46201 5.68399 7.80504
#
# Compressibility (1/GPa) = 0.02675588
#
# Stress axis : x y z
#
# Youngs Moduli (GPa) = 73.73316 51.00562 44.12922
#
# Poissons Ratio (x) = 0.20872 0.08086
# Poissons Ratio (y) = 0.30172 0.38005
# Poissons Ratio (z) = 0.13510 0.43927
#
# Static dielectric constant tensor:
#      x y z
#    x 1.796740 0.000000 0.000000 
#    y 0.000000 1.720120 0.000000 
#    z 0.000000 0.000000 1.749690 
# 
# From -- ./inp_files/3157.got.cif
#   From: 2010.05.17/outbox.cif.g08.bks.cpg/sg33_2_cif.got.tgz:3157.got - 2010.06.03 17:15:25.
