data_PCOD9344396
_publ_section_title
;
Structure prediction by ZEFSAII (Michael W. Deem and Ramdas Pophale) SiO2 
 PCOD9344396
Probable space group: P N A 21
;
_chemical_formula_sum "Si O2"
_cell_formula_units_Z 32
_cell_length_a 8.869459
_cell_length_b 20.161320
_cell_length_c 9.328598
_cell_angle_alpha 90.000000
_cell_angle_beta 90.000000
_cell_angle_gamma 90.000000
_cell_volume 1668.139905
_symmetry_space_group_name_H-M "P N A 21"
_symmetry_group_IT_number 33
_symmetry_cell_setting 'orthorhombic'
loop_
_space_group_symop_operation_xyz
x,y,z
-x,-y,1/2+z
1/2-x,1/2+y,1/2+z
1/2+x,1/2-y,z
loop_
_atom_site_type_symbol
_atom_site_label
_atom_site_fract_x
_atom_site_fract_y
_atom_site_fract_z
Si Si1 0.404781 0.697409 0.415750
Si Si2 0.882889 0.152638 0.147521
Si Si3 0.311352 0.172158 0.450462
Si Si4 0.391806 0.425152 0.877290
Si Si5 0.123493 0.722491 0.253080
Si Si6 0.187676 0.865372 0.109630
Si Si7 0.637419 0.198893 0.364624
Si Si8 0.942276 0.921347 0.899013
O O1 0.490960 0.698813 0.568457
O O2 0.468121 0.626676 0.356694
O O3 0.228900 0.700970 0.385348
O O4 0.464321 0.759081 0.321396
O O5 0.743735 0.186707 0.227575
O O6 0.976243 0.108462 0.259388
O O7 0.821090 0.105599 0.020972
O O8 0.361176 0.174465 0.617336
O O9 0.458165 0.191501 0.357723
O O10 0.184686 0.228966 0.424325
O O11 0.228425 0.104894 0.408892
O O12 0.285868 0.415748 0.739626
O O13 0.444759 0.499566 0.897659
O O14 0.167103 0.793532 0.182339
O O15 0.308081 0.854430 0.984350
O O16 0.036707 0.890695 0.030687
#
# Coordination Sequence:
#
# PCOD9344396 Si02
#       8
#     4   4   4   4   4   4   4   4
#     4   9  20  33  56  83 116 143 188 240 301 335
#     4   9  21  36  55  86 116 155 185 239 303 336
#     4  11  21  33  60  83 111 155 191 240 300 350
#     4   9  19  37  58  84 117 157 197 235 283 349
#     4  10  17  34  54  85 110 139 194 242 290 341
#     4   9  18  34  60  82 110 151 193 247 284 338
#     4  10  20  37  55  83 116 144 197 244 298 360
#     4  11  20  36  60  86 118 156 199 235 281 365
#
# _framework density 19.183043000000001
#
# number of rings (size 3 to 8) (size 9 to 14) (size 15 to 20)
#    0.750    1.500    0.000    6.000    0.000    2.000 
#    0.000    1.250    0.000    6.000    0.000    0.000 
#    0.000    0.000    0.000    0.000    0.000    0.000 
#
# Total GULP energy -178135.507129 kJ/mol
# GULP energy per Si atom -5566.734598 kJ/mol
# Density = 1.913938 g / cm^3
# Si number density = 19.183043 Si / 1000 Ang^3
#
#
#
# Elastic Constant Matrix: (Units=GPa)
#
#
# Indices 1 2 3 4 5 6 
#
# 1 51.3824 12.7291 14.5341 0.0000 0.0000 0.0000
# 2 12.7291 49.7296 17.0225 0.0000 0.0000 0.0000
# 3 14.5341 17.0225 100.1378 0.0000 0.0000 0.0000
# 4 0.0000 0.0000 0.0000 9.0306 0.0000 0.0000
# 5 0.0000 0.0000 0.0000 0.0000 13.6170 0.0000
# 6 0.0000 0.0000 0.0000 0.0000 0.0000 17.7490
#
#
#
# Elastic Compliance Matrix: (Units=1/GPa)
#
#
# Indices 1 2 3 4 5 6 
#
# 1 0.021265 -0.004658 -0.002295 0.000000 0.000000 0.000000
# 2 -0.004658 0.022371 -0.003127 0.000000 0.000000 0.000000
# 3 -0.002295 -0.003127 0.010851 0.000000 0.000000 0.000000
# 4 0.000000 0.000000 0.000000 0.110734 0.000000 0.000000
# 5 0.000000 0.000000 0.000000 0.000000 0.073438 0.000000
# 6 0.000000 0.000000 0.000000 0.000000 0.000000 0.056341
#
#
# Mechanical properties :
#
#
# Convention : Reuss Voigt Hill
#
# Bulk Modulus (GPa) = 29.13024 32.20238 30.66631
# Shear Modulus (GPa) = 15.30919 18.54359 16.92639
#
# Velocity S-wave (km/s) = 2.82806 3.11250 2.97368
# Velocity P-wave (km/s) = 5.08746 5.45346 5.27364
#
# Compressibility (1/GPa) = 0.03432859
#
# Stress axis : x y z
#
# Youngs Moduli (GPa) = 47.02599 44.70018 92.15887
#
# Poissons Ratio (x) = 0.20820 0.21147
# Poissons Ratio (y) = 0.21903 0.28817
# Poissons Ratio (z) = 0.10791 0.13977
#
# Static dielectric constant tensor:
#      x y z
#    x 1.693960 0.000000 0.000000 
#    y 0.000000 1.651860 0.000000 
#    z 0.000000 0.000000 1.751520 
# 
# From -- ./inp_files/3457.got.cif
#   From: 2010.05.17/outbox.cif.g08.bks.cpg/sg33_2_cif.got.tgz:3457.got - 2010.06.03 17:15:25.
