data_PCOD9344616
_publ_section_title
;
Structure prediction by ZEFSAII (Michael W. Deem and Ramdas Pophale) SiO2 
 PCOD9344616
Probable space group: P N A 21
;
_chemical_formula_sum "Si O2"
_cell_formula_units_Z 32
_cell_length_a 21.915379
_cell_length_b 7.898524
_cell_length_c 7.983495
_cell_angle_alpha 90.000000
_cell_angle_beta 90.000000
_cell_angle_gamma 90.000000
_cell_volume 1381.936175
_symmetry_space_group_name_H-M "P N A 21"
_symmetry_group_IT_number 33
_symmetry_cell_setting 'orthorhombic'
loop_
_space_group_symop_operation_xyz
x,y,z
-x,-y,1/2+z
1/2-x,1/2+y,1/2+z
1/2+x,1/2-y,z
loop_
_atom_site_type_symbol
_atom_site_label
_atom_site_fract_x
_atom_site_fract_y
_atom_site_fract_z
Si Si1 0.322385 0.442899 0.657460
Si Si2 0.561795 0.207072 0.598480
Si Si3 0.180813 0.464235 0.648924
Si Si4 0.476658 0.466766 0.903395
Si Si5 0.624215 0.766544 0.858647
Si Si6 0.137680 0.797836 0.502021
Si Si7 0.507496 0.068847 0.277401
Si Si8 0.076763 0.167194 0.087118
O O1 0.251012 0.424775 0.625987
O O2 0.359998 0.314899 0.536115
O O3 0.331810 0.404331 0.854147
O O4 0.352235 0.625394 0.609513
O O5 0.632733 0.188017 0.640992
O O6 0.540728 0.388404 0.537866
O O7 0.550225 0.088150 0.436350
O O8 0.518221 0.112992 0.729451
O O9 0.164414 0.564924 0.821134
O O10 0.162938 0.607516 0.511436
O O11 0.546540 0.411413 0.921183
O O12 0.433207 0.312131 0.953836
O O13 0.453942 0.551598 0.733408
O O14 0.642809 0.649758 0.698052
O O15 0.553875 0.821312 0.823985
O O16 0.548930 0.149981 0.128685
#
# Coordination Sequence:
#
# PCOD9344616 Si02
#       8
#     4   4   4   4   4   4   4   4
#     4  11  21  38  64  90 113 168 209 237 309 377
#     4  10  21  36  61  87 121 158 193 256 310 361
#     4   9  22  43  56  88 129 152 204 258 290 368
#     4  10  19  35  59  87 113 153 201 245 309 361
#     4   9  20  42  60  84 126 155 198 262 301 363
#     4   9  21  42  62  84 121 163 196 258 307 353
#     4  10  20  39  55  89 126 152 201 262 317 357
#     4  10  20  33  59  85 115 151 200 250 295 368
#
# _framework density 23.155918
#
# number of rings (size 3 to 8) (size 9 to 14) (size 15 to 20)
#    0.750    1.500    1.250    1.500    0.000    7.000 
#    4.500    1.250    0.000    1.500    0.000    0.000 
#    0.000    0.000    0.000    0.000    0.000    0.000 
#
# Total GULP energy -178446.458917 kJ/mol
# GULP energy per Si atom -5576.451841 kJ/mol
# Density = 2.310321 g / cm^3
# Si number density = 23.155918 Si / 1000 Ang^3
#
#
#
# Elastic Constant Matrix: (Units=GPa)
#
#
# Indices 1 2 3 4 5 6 
#
# 1 114.7951 28.9185 4.7280 0.0000 0.0000 0.0000
# 2 28.9185 59.4584 11.5569 0.0000 0.0000 0.0000
# 3 4.7280 11.5569 81.5369 0.0000 0.0000 0.0000
# 4 0.0000 0.0000 0.0000 24.8421 0.0000 0.0000
# 5 0.0000 0.0000 0.0000 0.0000 22.7431 0.0000
# 6 0.0000 0.0000 0.0000 0.0000 0.0000 12.6133
#
#
#
# Elastic Compliance Matrix: (Units=1/GPa)
#
#
# Indices 1 2 3 4 5 6 
#
# 1 0.009929 -0.004851 0.000112 0.000000 0.000000 0.000000
# 2 -0.004851 0.019665 -0.002506 0.000000 0.000000 0.000000
# 3 0.000112 -0.002506 0.012613 0.000000 0.000000 0.000000
# 4 0.000000 0.000000 0.000000 0.040254 0.000000 0.000000
# 5 0.000000 0.000000 0.000000 0.000000 0.043969 0.000000
# 6 0.000000 0.000000 0.000000 0.000000 0.000000 0.079281
#
#
# Mechanical properties :
#
#
# Convention : Reuss Voigt Hill
#
# Bulk Modulus (GPa) = 36.07923 38.46634 37.27279
# Shear Modulus (GPa) = 21.79222 26.07884 23.93553
#
# Velocity S-wave (km/s) = 3.07108 3.35957 3.21856
# Velocity P-wave (km/s) = 5.30944 5.63000 5.47207
#
# Compressibility (1/GPa) = 0.02771678
#
# Stress axis : x y z
#
# Youngs Moduli (GPa) = 100.72012 50.85246 79.28271
#
# Poissons Ratio (x) = 0.24667 -0.00886
# Poissons Ratio (y) = 0.48855 0.19868
# Poissons Ratio (z) = -0.01126 0.12743
#
# Static dielectric constant tensor:
#      x y z
#    x 1.855240 0.000000 0.000000 
#    y 0.000000 1.919580 0.000000 
#    z 0.000000 0.000000 1.975990 
# 
# From -- ./inp_files/5195.got.cif
#   From: 2010.05.17/outbox.cif.g08.bks.cpg/sg33_3_cif.got.tgz:5195.got - 2010.06.03 17:15:25.
