data_PCOD9344332
_publ_section_title
;
Structure prediction by ZEFSAII (Michael W. Deem and Ramdas Pophale) SiO2 
 PCOD9344332
Probable space group: P B A 2
;
_chemical_formula_sum "Si O2"
_cell_formula_units_Z 32
_cell_length_a 15.000000
_cell_length_b 12.000000
_cell_length_c 9.000000
_cell_angle_alpha 90.000000
_cell_angle_beta 90.000000
_cell_angle_gamma 90.000000
_cell_volume 1620.000000
_symmetry_space_group_name_H-M "P B A 2"
_symmetry_group_IT_number 32
_symmetry_cell_setting 'orthorhombic'
loop_
_space_group_symop_operation_xyz
x,y,z
-x,-y,z
1/2-x,1/2+y,z
1/2+x,1/2-y,z
loop_
_atom_site_type_symbol
_atom_site_label
_atom_site_fract_x
_atom_site_fract_y
_atom_site_fract_z
Si Si1 0.765260 0.669023 0.745660
Si Si2 0.510182 0.129929 0.173451
Si Si3 0.046940 0.702275 0.498284
Si Si4 0.789184 0.696336 0.245552
Si Si5 0.666460 0.578899 0.459797
Si Si6 0.138137 0.176716 0.534209
Si Si7 0.398201 0.035583 0.768734
Si Si8 0.345325 0.219195 0.999176
O O1 0.718160 0.607280 0.609731
O O2 0.803338 0.786246 0.677919
O O3 0.844895 0.581396 0.773018
O O4 0.694572 0.691065 0.878739
O O5 0.476861 0.139620 0.345034
O O6 0.615480 0.162470 0.172859
O O7 0.444388 0.211340 0.076997
O O8 0.500000 0.000000 0.130263
O O9 0.101625 0.813459 0.451759
O O10 0.092823 0.616888 0.618551
O O11 0.954721 0.756840 0.557252
O O12 0.732568 0.592796 0.317136
O O13 0.814361 0.769864 0.389654
O O14 0.725776 0.764832 0.132859
O O15 0.628503 0.454337 0.491201
O O16 0.500000 0.000000 0.795800
O O17 0.352297 0.109603 0.896494
#
# Coordination Sequence:
#
# PCOD9344332 Si02
#       8
#     4   4   4   4   4   4   4   4
#     4  11  25  41  66 102 139 183 232 294 358 424
#     4  11  26  44  73 104 135 189 241 298 358 420
#     4  11  22  45  70 107 135 175 247 305 348 429
#     4  10  26  43  68 101 141 180 239 291 347 433
#     4  11  22  42  70  97 139 181 233 290 361 416
#     4  10  23  43  70 100 135 185 233 298 361 414
#     4  12  25  45  74 102 140 186 241 300 351 430
#     4  12  26  44  64 103 146 182 236 285 361 440
#
# _framework density 19.753086
#
# number of rings (size 3 to 8) (size 9 to 14) (size 15 to 20)
#    0.000    1.000    3.750    1.875   10.500    0.000 
#    0.000    0.000    0.000    1.500    0.000    0.000 
#    0.000    0.000    0.000    0.000    0.000    0.000 
#
# Total GULP energy -178326.758656 kJ/mol
# GULP energy per Si atom -5572.711208 kJ/mol
# Density = 1.970813 g / cm^3
# Si number density = 19.753086 Si / 1000 Ang^3
#
#
#
# Elastic Constant Matrix: (Units=GPa)
#
#
# Indices 1 2 3 4 5 6 
#
# 1 118.7413 36.4148 46.4144 0.0000 0.0000 0.0000
# 2 36.4148 118.2770 29.8177 0.0000 0.0000 0.0000
# 3 46.4144 29.8177 91.2326 0.0000 0.0000 0.0000
# 4 0.0000 0.0000 0.0000 25.6966 0.0000 0.0000
# 5 0.0000 0.0000 0.0000 0.0000 41.2078 0.0000
# 6 0.0000 0.0000 0.0000 0.0000 0.0000 39.4731
#
#
#
# Elastic Compliance Matrix: (Units=1/GPa)
#
#
# Indices 1 2 3 4 5 6 
#
# 1 0.010993 -0.002152 -0.004889 0.000000 0.000000 0.000000
# 2 -0.002152 0.009635 -0.002054 0.000000 0.000000 0.000000
# 3 -0.004889 -0.002054 0.014120 0.000000 0.000000 0.000000
# 4 0.000000 0.000000 0.000000 0.038916 0.000000 0.000000
# 5 0.000000 0.000000 0.000000 0.000000 0.024267 0.000000
# 6 0.000000 0.000000 0.000000 0.000000 0.000000 0.025334
#
#
# Mechanical properties :
#
#
# Convention : Reuss Voigt Hill
#
# Bulk Modulus (GPa) = 60.39792 61.50498 60.95145
# Shear Modulus (GPa) = 34.01960 35.64909 34.83435
#
# Velocity S-wave (km/s) = 4.15449 4.25283 4.20395
# Velocity P-wave (km/s) = 7.32502 7.43773 7.38159
#
# Compressibility (1/GPa) = 0.01655686
#
# Stress axis : x y z
#
# Youngs Moduli (GPa) = 90.96931 103.78697 70.82248
#
# Poissons Ratio (x) = 0.22333 0.34627
# Poissons Ratio (y) = 0.19575 0.14549
# Poissons Ratio (z) = 0.44477 0.21321
#
# Static dielectric constant tensor:
#      x y z
#    x 1.799610 0.000000 0.000000 
#    y 0.000000 1.775280 0.000000 
#    z 0.000000 0.000000 1.745880 
# 
# From -- ./inp_files/3081.got.cif
#   From: 2010.05.17/outbox.ucp.g08.bks.cvg/sg32_2_cif.got.tgz:3081.got - 2010.06.11 10:34:49.
