data_PCOD9344229
_publ_section_title
;
Structure prediction by ZEFSAII (Michael W. Deem and Ramdas Pophale) SiO2 
 PCOD9344229
Probable space group: P B A 2
;
_chemical_formula_sum "Si O2"
_cell_formula_units_Z 20
_cell_length_a 5.160571
_cell_length_b 18.712333
_cell_length_c 9.000960
_cell_angle_alpha 90.000000
_cell_angle_beta 90.000000
_cell_angle_gamma 90.000000
_cell_volume 869.189611
_symmetry_space_group_name_H-M "P B A 2"
_symmetry_group_IT_number 32
_symmetry_cell_setting 'orthorhombic'
loop_
_space_group_symop_operation_xyz
x,y,z
-x,-y,z
1/2-x,1/2+y,z
1/2+x,1/2-y,z
loop_
_atom_site_type_symbol
_atom_site_label
_atom_site_fract_x
_atom_site_fract_y
_atom_site_fract_z
Si Si1 0.864902 0.423906 0.062430
Si Si2 0.437297 0.583763 0.359000
Si Si3 0.628691 0.645397 0.936393
Si Si4 0.958758 0.800389 0.613604
Si Si5 0.184002 0.790363 0.232716
O O1 0.788850 0.406578 0.234956
O O2 0.000000 0.500000 0.064879
O O3 0.074124 0.379514 0.964066
O O4 0.583018 0.413794 0.987399
O O5 0.500000 0.500000 0.378601
O O6 0.413110 0.629482 0.509822
O O7 0.670447 0.627570 0.280919
O O8 0.526104 0.670852 0.778612
O O9 0.437018 0.752449 0.288680
O O10 0.623445 0.708746 0.057456
O O11 0.210053 0.749990 0.591581
#
# Coordination Sequence:
#
# PCOD9344229 Si02
#       5
#     4   4   4   4   4
#     4  11  23  43  70 104 143 184 237 302 365 430
#     4  11  26  45  70 104 146 190 239 296 362 434
#     4  11  23  42  71 103 135 184 242 302 361 431
#     4  12  27  49  71 104 147 193 241 300 366 442
#     4  11  21  39  66  97 127 171 227 288 349 413
#
# _framework density 23.00994
#
# number of rings (size 3 to 8) (size 9 to 14) (size 15 to 20)
#    0.000    0.800    0.000    9.000    0.000    6.400 
#    0.000    1.000    0.000    0.000    0.000    0.000 
#    0.000    0.000    0.000    0.000    0.000    0.000 
#
# Total GULP energy -111531.870059 kJ/mol
# GULP energy per Si atom -5576.593503 kJ/mol
# Density = 2.295757 g / cm^3
# Si number density = 23.009940 Si / 1000 Ang^3
#
#
#
# Elastic Constant Matrix: (Units=GPa)
#
#
# Indices 1 2 3 4 5 6 
#
# 1 161.7766 68.0314 24.8470 0.0000 0.0000 0.0000
# 2 68.0314 153.8359 51.1897 0.0000 0.0000 0.0000
# 3 24.8470 51.1897 152.3045 0.0000 0.0000 0.0000
# 4 0.0000 0.0000 0.0000 32.1033 0.0000 0.0000
# 5 0.0000 0.0000 0.0000 0.0000 17.4825 0.0000
# 6 0.0000 0.0000 0.0000 0.0000 0.0000 37.2440
#
#
#
# Elastic Compliance Matrix: (Units=1/GPa)
#
#
# Indices 1 2 3 4 5 6 
#
# 1 0.007596 -0.003318 -0.000124 0.000000 0.000000 0.000000
# 2 -0.003318 0.008768 -0.002406 0.000000 0.000000 0.000000
# 3 -0.000124 -0.002406 0.007395 0.000000 0.000000 0.000000
# 4 0.000000 0.000000 0.000000 0.031149 0.000000 0.000000
# 5 0.000000 0.000000 0.000000 0.000000 0.057200 0.000000
# 6 0.000000 0.000000 0.000000 0.000000 0.000000 0.026850
#
#
# Mechanical properties :
#
#
# Convention : Reuss Voigt Hill
#
# Bulk Modulus (GPa) = 82.89595 84.00591 83.45093
# Shear Modulus (GPa) = 32.32603 38.95588 35.64096
#
# Velocity S-wave (km/s) = 3.75223 4.11907 3.93992
# Velocity P-wave (km/s) = 7.40788 7.69481 7.55271
#
# Compressibility (1/GPa) = 0.01206332
#
# Stress axis : x y z
#
# Youngs Moduli (GPa) = 131.65469 114.04875 135.23377
#
# Poissons Ratio (x) = 0.37839 0.01678
# Poissons Ratio (y) = 0.43680 0.32534
# Poissons Ratio (z) = 0.01633 0.27437
#
# Static dielectric constant tensor:
#      x y z
#    x 1.908480 0.000000 0.000000 
#    y 0.000000 1.881490 0.000000 
#    z 0.000000 0.000000 1.976350 
# 
# From -- ./inp_files/1925.got.cif
#   From: 2010.05.17/outbox.cif.g08.bks.cpg/sg32_1_cif.got.tgz:1925.got - 2010.06.03 17:12:27.
