data_PCOD9344253
_publ_section_title
;
Structure prediction by ZEFSAII (Michael W. Deem and Ramdas Pophale) SiO2 
 PCOD9344253
Probable space group: P B A 2
;
_chemical_formula_sum "Si O2"
_cell_formula_units_Z 26
_cell_length_a 17.237373
_cell_length_b 10.684025
_cell_length_c 6.612356
_cell_angle_alpha 90.000000
_cell_angle_beta 90.000000
_cell_angle_gamma 90.000000
_cell_volume 1217.761396
_symmetry_space_group_name_H-M "P B A 2"
_symmetry_group_IT_number 32
_symmetry_cell_setting 'orthorhombic'
loop_
_space_group_symop_operation_xyz
x,y,z
-x,-y,z
1/2-x,1/2+y,z
1/2+x,1/2-y,z
loop_
_atom_site_type_symbol
_atom_site_label
_atom_site_fract_x
_atom_site_fract_y
_atom_site_fract_z
Si Si1 0.000000 0.000000 0.796810
Si Si2 0.215131 0.257228 0.836031
Si Si3 0.153462 0.693192 0.510835
Si Si4 0.384120 0.563737 0.112042
Si Si5 0.989133 0.806179 0.453980
Si Si6 0.730662 0.634412 0.221453
Si Si7 0.623823 0.091885 0.502818
O O1 0.030350 0.108777 0.648713
O O2 0.070945 0.976023 0.950535
O O3 0.283004 0.205170 0.689846
O O4 0.157180 0.336419 0.697613
O O5 0.167588 0.160530 0.979034
O O6 0.256808 0.352887 0.985649
O O7 0.199973 0.733933 0.309743
O O8 0.118793 0.555482 0.528039
O O9 0.080804 0.787615 0.489832
O O10 0.448911 0.628675 0.257876
O O11 0.328192 0.480252 0.251772
O O12 0.952645 0.668284 0.450901
O O13 0.811526 0.609941 0.330406
#
# Coordination Sequence:
#
# PCOD9344253 Si02
#       7
#     2   4   4   4   4   4   4
#     4  12  24  42  70 100 140 180 236 296 358 430
#     4  11  23  44  69 101 136 180 243 289 355 432
#     4  11  25  42  68 100 138 182 233 288 361 429
#     4  12  24  43  72 103 140 187 243 301 365 431
#     4  12  25  45  67 102 141 186 226 298 361 424
#     4  11  23  42  69 101 131 180 235 290 352 422
#     4  11  24  43  68  96 136 184 225 285 353 426
#
# _framework density 21.350653999999999
#
# number of rings (size 3 to 8) (size 9 to 14) (size 15 to 20)
#    0.000    0.615    3.077    5.538    2.154    2.462 
#    0.000    0.000    0.000    0.000    0.000    0.000 
#    0.000    0.000    0.000    0.000    0.000    0.000 
#
# Total GULP energy -145034.612276 kJ/mol
# GULP energy per Si atom -5578.254318 kJ/mol
# Density = 2.130206 g / cm^3
# Si number density = 21.350654 Si / 1000 Ang^3
#
#
#
# Elastic Constant Matrix: (Units=GPa)
#
#
# Indices 1 2 3 4 5 6 
#
# 1 93.1798 32.6603 44.6137 0.0000 0.0000 0.0000
# 2 32.6603 77.3085 18.6971 0.0000 0.0000 0.0000
# 3 44.6137 18.6971 83.3905 0.0000 0.0000 0.0000
# 4 0.0000 0.0000 0.0000 23.3775 0.0000 0.0000
# 5 0.0000 0.0000 0.0000 0.0000 156.4957 0.0000
# 6 0.0000 0.0000 0.0000 0.0000 0.0000 33.4690
#
#
#
# Elastic Compliance Matrix: (Units=1/GPa)
#
#
# Indices 1 2 3 4 5 6 
#
# 1 0.016054 -0.004975 -0.007473 0.000000 0.000000 0.000000
# 2 -0.004975 0.015218 -0.000751 0.000000 0.000000 0.000000
# 3 -0.007473 -0.000751 0.016158 0.000000 0.000000 0.000000
# 4 0.000000 0.000000 0.000000 0.042776 0.000000 0.000000
# 5 0.000000 0.000000 0.000000 0.000000 0.006390 0.000000
# 6 0.000000 0.000000 0.000000 0.000000 0.000000 0.029878
#
#
# Mechanical properties :
#
#
# Convention : Reuss Voigt Hill
#
# Bulk Modulus (GPa) = 47.54436 49.53565 48.54001
# Shear Modulus (GPa) = 31.27276 53.19562 42.23419
#
# Velocity S-wave (km/s) = 3.83132 4.99693 4.45243
# Velocity P-wave (km/s) = 6.47215 7.51956 7.01543
#
# Compressibility (1/GPa) = 0.02103299
#
# Stress axis : x y z
#
# Youngs Moduli (GPa) = 62.29050 65.70990 61.88773
#
# Poissons Ratio (x) = 0.32689 0.46251
# Poissons Ratio (y) = 0.30988 0.04646
# Poissons Ratio (z) = 0.46552 0.04932
#
# Static dielectric constant tensor:
#      x y z
#    x 0.723040 0.000000 0.000000 
#    y 0.000000 1.785300 0.000000 
#    z 0.000000 0.000000 1.747210 
# 
# From -- ./inp_files/915.got.cif
#   From: 2010.05.17/outbox.cif.g08.bks.cpg/sg32_1_cif.got.tgz:915.got - 2010.06.03 17:12:27.
