data_PCOD9344050
_publ_section_title
;
Structure prediction by ZEFSAII (Michael W. Deem and Ramdas Pophale) SiO2 
 PCOD9344050
Probable space group: P B A 2
;
_chemical_formula_sum "Si O2"
_cell_formula_units_Z 32
_cell_length_a 14.218357
_cell_length_b 12.528365
_cell_length_c 8.834405
_cell_angle_alpha 90.000000
_cell_angle_beta 90.000000
_cell_angle_gamma 90.000000
_cell_volume 1573.697000
_symmetry_space_group_name_H-M "P B A 2"
_symmetry_group_IT_number 32
_symmetry_cell_setting 'orthorhombic'
loop_
_space_group_symop_operation_xyz
x,y,z
-x,-y,z
1/2-x,1/2+y,z
1/2+x,1/2-y,z
loop_
_atom_site_type_symbol
_atom_site_label
_atom_site_fract_x
_atom_site_fract_y
_atom_site_fract_z
Si Si1 0.575820 0.625556 0.049190
Si Si2 0.216193 0.977678 0.439673
Si Si3 0.490514 0.622528 0.711824
Si Si4 0.130497 0.756890 0.494994
Si Si5 0.705032 0.828884 0.033555
Si Si6 0.400534 0.057036 0.284041
Si Si7 0.615057 0.399382 0.192307
Si Si8 0.227229 0.125692 0.700856
O O1 0.654384 0.715392 0.044027
O O2 0.615282 0.509873 0.095474
O O3 0.489118 0.645799 0.165998
O O4 0.531703 0.622323 0.881509
O O5 0.172402 0.862131 0.417461
O O6 0.317399 0.988400 0.361351
O O7 0.146939 0.064099 0.359114
O O8 0.227381 0.011307 0.614955
O O9 0.500000 0.500000 0.655120
O O10 0.549584 0.701003 0.606185
O O11 0.381860 0.654808 0.716949
O O12 0.096147 0.666799 0.379914
O O13 0.214046 0.703407 0.592140
O O14 0.637293 0.911761 0.119131
O O15 0.803283 0.826606 0.124479
O O16 0.725817 0.867322 0.864431
O O17 0.500000 0.000000 0.283763
#
# Coordination Sequence:
#
# PCOD9344050 Si02
#       8
#     4   4   4   4   4   4   4   4
#     4  11  21  39  69  98 129 177 231 282 342 403
#     4  10  23  43  66 100 132 175 223 287 344 404
#     4  12  21  39  67 101 134 176 234 290 335 409
#     4  11  24  43  69 101 136 181 227 284 352 412
#     4  11  22  43  64  94 134 177 220 278 348 401
#     4  10  25  48  66  98 142 180 230 283 344 417
#     4  10  22  41  66  94 129 169 227 290 327 405
#     4  11  23  39  66  97 137 173 225 283 345 408
#
# _framework density 20.334282999999999
#
# number of rings (size 3 to 8) (size 9 to 14) (size 15 to 20)
#    0.000    1.250    5.000    0.750    1.750    3.000 
#    9.000    3.750    0.000    0.000    0.000    0.000 
#    0.000    0.000    0.000    0.000    0.000    0.000 
#
# Total GULP energy -178960.238603 kJ/mol
# GULP energy per Si atom -5592.507456 kJ/mol
# Density = 2.028800 g / cm^3
# Si number density = 20.334283 Si / 1000 Ang^3
#
#
#
# Elastic Constant Matrix: (Units=GPa)
#
#
# Indices 1 2 3 4 5 6 
#
# 1 157.6796 73.0726 51.8159 0.0000 0.0000 0.0000
# 2 73.0726 81.2620 38.4164 0.0000 0.0000 0.0000
# 3 51.8159 38.4164 101.1281 0.0000 0.0000 0.0000
# 4 0.0000 0.0000 0.0000 22.0871 0.0000 0.0000
# 5 0.0000 0.0000 0.0000 0.0000 28.8070 0.0000
# 6 0.0000 0.0000 0.0000 0.0000 0.0000 42.6405
#
#
#
# Elastic Compliance Matrix: (Units=1/GPa)
#
#
# Indices 1 2 3 4 5 6 
#
# 1 0.011315 -0.009061 -0.002355 0.000000 0.000000 0.000000
# 2 -0.009061 0.022256 -0.003812 0.000000 0.000000 0.000000
# 3 -0.002355 -0.003812 0.012543 0.000000 0.000000 0.000000
# 4 0.000000 0.000000 0.000000 0.045275 0.000000 0.000000
# 5 0.000000 0.000000 0.000000 0.000000 0.034714 0.000000
# 6 0.000000 0.000000 0.000000 0.000000 0.000000 0.023452
#
#
# Mechanical properties :
#
#
# Convention : Reuss Voigt Hill
#
# Bulk Modulus (GPa) = 63.86732 74.07550 68.97141
# Shear Modulus (GPa) = 26.99315 30.49124 28.74219
#
# Velocity S-wave (km/s) = 3.64740 3.87654 3.76371
# Velocity P-wave (km/s) = 7.01533 7.51962 7.27185
#
# Compressibility (1/GPa) = 0.01565746
#
# Stress axis : x y z
#
# Youngs Moduli (GPa) = 88.37586 44.93153 79.72359
#
# Poissons Ratio (x) = 0.40714 0.18779
# Poissons Ratio (y) = 0.80081 0.30389
# Poissons Ratio (z) = 0.20817 0.17127
#
# Static dielectric constant tensor:
#      x y z
#    x 1.709820 0.000000 0.000000 
#    y 0.000000 1.707940 0.000000 
#    z 0.000000 0.000000 1.752540 
# 
# From -- ./inp_files/3082.got.cif
#   From: 2010.05.17/outbox.cif.g08.bks.cpg/sg32_2_cif.got.tgz:3082.got - 2010.06.03 17:12:27.
