data_PCOD9344160
_publ_section_title
;
Structure prediction by ZEFSAII (Michael W. Deem and Ramdas Pophale) SiO2 
 PCOD9344160
Probable space group: P B A 2
;
_chemical_formula_sum "Si O2"
_cell_formula_units_Z 20
_cell_length_a 11.637941
_cell_length_b 13.021685
_cell_length_c 6.435803
_cell_angle_alpha 90.000000
_cell_angle_beta 90.000000
_cell_angle_gamma 90.000000
_cell_volume 975.317638
_symmetry_space_group_name_H-M "P B A 2"
_symmetry_group_IT_number 32
_symmetry_cell_setting 'orthorhombic'
loop_
_space_group_symop_operation_xyz
x,y,z
-x,-y,z
1/2-x,1/2+y,z
1/2+x,1/2-y,z
loop_
_atom_site_type_symbol
_atom_site_label
_atom_site_fract_x
_atom_site_fract_y
_atom_site_fract_z
Si Si1 0.373069 0.240024 0.615400
Si Si2 0.005050 0.890395 0.916558
Si Si3 0.791390 0.113887 0.250054
Si Si4 0.886451 0.435115 0.290925
Si Si5 0.231517 0.198332 0.002584
O O1 0.463547 0.296048 0.766247
O O2 0.336217 0.324575 0.448154
O O3 0.408563 0.137801 0.490515
O O4 0.266208 0.213932 0.764458
O O5 0.102300 0.903159 0.093028
O O6 0.000000 0.000000 0.801326
O O7 0.883300 0.866448 0.018155
O O8 0.713372 0.193908 0.118943
O O9 0.717757 0.015960 0.317137
O O10 0.838751 0.359011 0.112441
O O11 0.000000 0.500000 0.239520
#
# Coordination Sequence:
#
# PCOD9344160 Si02
#       5
#     4   4   4   4   4
#     4  10  26  41  66 102 128 178 225 279 331 401
#     4  11  23  44  70  98 133 176 222 282 336 395
#     4  10  24  43  66  95 132 177 221 274 335 397
#     4  11  25  43  66  96 136 179 221 274 340 400
#     4  10  24  44  66  94 135 175 225 276 334 399
#
# _framework density 20.506139999999998
#
# number of rings (size 3 to 8) (size 9 to 14) (size 15 to 20)
#    0.000    1.600    2.000    0.000   14.000    3.200 
#    0.000    0.000    0.000    0.000    0.000    0.000 
#    0.000    0.000    0.000    0.000    0.000    0.000 
#
# Total GULP energy -111649.501361 kJ/mol
# GULP energy per Si atom -5582.475068 kJ/mol
# Density = 2.045947 g / cm^3
# Si number density = 20.506140 Si / 1000 Ang^3
#
#
#
# Elastic Constant Matrix: (Units=GPa)
#
#
# Indices 1 2 3 4 5 6 
#
# 1 90.0566 42.3181 32.1168 0.0000 0.0000 0.0000
# 2 42.3181 124.7987 44.0138 0.0000 0.0000 0.0000
# 3 32.1168 44.0138 83.5974 0.0000 0.0000 0.0000
# 4 0.0000 0.0000 0.0000 23.1111 0.0000 0.0000
# 5 0.0000 0.0000 0.0000 0.0000 2.8561 0.0000
# 6 0.0000 0.0000 0.0000 0.0000 0.0000 27.2101
#
#
#
# Elastic Compliance Matrix: (Units=1/GPa)
#
#
# Indices 1 2 3 4 5 6 
#
# 1 0.014012 -0.003503 -0.003539 0.000000 0.000000 0.000000
# 2 -0.003503 0.010716 -0.004296 0.000000 0.000000 0.000000
# 3 -0.003539 -0.004296 0.015583 0.000000 0.000000 0.000000
# 4 0.000000 0.000000 0.000000 0.043269 0.000000 0.000000
# 5 0.000000 0.000000 0.000000 0.000000 0.350128 0.000000
# 6 0.000000 0.000000 0.000000 0.000000 0.000000 0.036751
#
#
# Mechanical properties :
#
#
# Convention : Reuss Voigt Hill
#
# Bulk Modulus (GPa) = 56.70393 59.48336 58.09365
# Shear Modulus (GPa) = 10.01973 22.63573 16.32773
#
# Velocity S-wave (km/s) = 2.21287 3.32603 2.82483
# Velocity P-wave (km/s) = 5.85161 6.61971 6.24747
#
# Compressibility (1/GPa) = 0.01763546
#
# Stress axis : x y z
#
# Youngs Moduli (GPa) = 71.36514 93.31852 64.17060
#
# Poissons Ratio (x) = 0.32694 0.22709
# Poissons Ratio (y) = 0.25002 0.27568
# Poissons Ratio (z) = 0.25255 0.40089
#
# Static dielectric constant tensor:
#      x y z
#    x 1.721040 0.000000 0.000000 
#    y 0.000000 1.782110 0.000000 
#    z 0.000000 0.000000 1.715010 
# 
# From -- ./inp_files/755.got.cif
#   From: 2010.05.17/outbox.cif.g08.bks.cpg/sg32_1_cif.got.tgz:755.got - 2010.06.03 17:12:27.
