data_PCOD9344461
_publ_section_title
;
Structure prediction by ZEFSAII (Michael W. Deem and Ramdas Pophale) SiO2 
 PCOD9344461
Probable space group: P N A 21
;
_chemical_formula_sum "Si O2"
_cell_formula_units_Z 20
_cell_length_a 5.361574
_cell_length_b 16.760642
_cell_length_c 8.557603
_cell_angle_alpha 90.000000
_cell_angle_beta 90.000000
_cell_angle_gamma 90.000000
_cell_volume 769.015493
_symmetry_space_group_name_H-M "P N A 21"
_symmetry_group_IT_number 33
_symmetry_cell_setting 'orthorhombic'
loop_
_space_group_symop_operation_xyz
x,y,z
-x,-y,1/2+z
1/2-x,1/2+y,1/2+z
1/2+x,1/2-y,z
loop_
_atom_site_type_symbol
_atom_site_label
_atom_site_fract_x
_atom_site_fract_y
_atom_site_fract_z
Si Si1 0.534417 0.922993 0.100340
Si Si2 0.857507 0.796355 0.193611
Si Si3 0.638974 0.657931 0.896725
Si Si4 0.734646 0.447796 0.277315
Si Si5 0.346805 0.220761 0.113910
O O1 0.722666 0.882260 0.225797
O O2 0.326942 0.977949 0.179105
O O3 0.373319 0.857081 0.006250
O O4 0.670364 0.964249 0.954201
O O5 0.633477 0.735307 0.232042
O O6 0.911114 0.815478 0.007900
O O7 0.552343 0.577140 0.807163
O O8 0.678769 0.721163 0.763021
O O9 0.840387 0.369263 0.181783
O O10 0.590872 0.254834 0.028069
#
# Coordination Sequence:
#
# PCOD9344461 Si02
#       5
#     4   4   4   4   4
#     4  11  22  39  61  97 133 167 211 273 336 386
#     4  11  20  34  61  92 120 160 216 271 313 374
#     4  10  19  35  61  90 123 166 221 264 308 380
#     4  10  23  36  62  95 129 169 208 275 330 388
#     4  10  18  34  59  90 111 156 220 263 297 368
#
# _framework density 26.007280000000002
#
# number of rings (size 3 to 8) (size 9 to 14) (size 15 to 20)
#    0.000    1.600    4.000    3.600    0.000    3.200 
#    0.000    0.000    0.000    4.800    0.000    0.000 
#    0.000    0.000    0.000    0.000    0.000    0.000 
#
# Total GULP energy -111500.853337 kJ/mol
# GULP energy per Si atom -5575.042667 kJ/mol
# Density = 2.594809 g / cm^3
# Si number density = 26.007280 Si / 1000 Ang^3
#
#
#
# Elastic Constant Matrix: (Units=GPa)
#
#
# Indices 1 2 3 4 5 6 
#
# 1 137.7595 -11.7652 2.8674 0.0000 0.0000 0.0000
# 2 -11.7652 39.6120 -10.9571 0.0000 0.0000 0.0000
# 3 2.8674 -10.9571 44.8910 0.0000 0.0000 0.0000
# 4 0.0000 0.0000 0.0000 2.6283 0.0000 0.0000
# 5 0.0000 0.0000 0.0000 0.0000 40.4687 0.0000
# 6 0.0000 0.0000 0.0000 0.0000 0.0000 24.0315
#
#
#
# Elastic Compliance Matrix: (Units=1/GPa)
#
#
# Indices 1 2 3 4 5 6 
#
# 1 0.007448 0.002231 0.000069 0.000000 0.000000 0.000000
# 2 0.002231 0.027741 0.006629 0.000000 0.000000 0.000000
# 3 0.000069 0.006629 0.023890 0.000000 0.000000 0.000000
# 4 0.000000 0.000000 0.000000 0.380473 0.000000 0.000000
# 5 0.000000 0.000000 0.000000 0.000000 0.024710 0.000000
# 6 0.000000 0.000000 0.000000 0.000000 0.000000 0.041612
#
#
# Mechanical properties :
#
#
# Convention : Reuss Voigt Hill
#
# Bulk Modulus (GPa) = 12.99776 20.28365 16.64070
# Shear Modulus (GPa) = 9.73401 29.56685 19.65043
#
# Velocity S-wave (km/s) = 1.93673 3.37541 2.75175
# Velocity P-wave (km/s) = 3.16383 4.79659 4.06307
#
# Compressibility (1/GPa) = 0.07693631
#
# Stress axis : x y z
#
# Youngs Moduli (GPa) = 134.26150 36.04755 41.85903
#
# Poissons Ratio (x) = -0.08043 -0.00288
# Poissons Ratio (y) = -0.29957 -0.27747
# Poissons Ratio (z) = -0.00924 -0.23894
#
# Static dielectric constant tensor:
#      x y z
#    x 2.268680 0.000000 0.000000 
#    y 0.000000 2.126000 0.000000 
#    z 0.000000 0.000000 2.053700 
# 
# From -- ./inp_files/2631.got.cif
#   From: 2010.05.17/outbox.cif.g08.bks.cpg/sg33_2_cif.got.tgz:2631.got - 2010.06.03 17:15:25.
