data_PCOD9344552
_publ_section_title
;
Structure prediction by ZEFSAII (Michael W. Deem and Ramdas Pophale) SiO2 
 PCOD9344552
Probable space group: P N A 21
;
_chemical_formula_sum "Si O2"
_cell_formula_units_Z 32
_cell_length_a 8.195695
_cell_length_b 7.005024
_cell_length_c 18.790004
_cell_angle_alpha 90.000000
_cell_angle_beta 90.000000
_cell_angle_gamma 90.000000
_cell_volume 1078.753674
_symmetry_space_group_name_H-M "P N A 21"
_symmetry_group_IT_number 33
_symmetry_cell_setting 'orthorhombic'
loop_
_space_group_symop_operation_xyz
x,y,z
-x,-y,1/2+z
1/2-x,1/2+y,1/2+z
1/2+x,1/2-y,z
loop_
_atom_site_type_symbol
_atom_site_label
_atom_site_fract_x
_atom_site_fract_y
_atom_site_fract_z
Si Si1 0.271299 0.494556 0.316580
Si Si2 0.544013 0.040722 0.710989
Si Si3 0.601344 0.624069 0.052837
Si Si4 0.534317 0.499375 0.691562
Si Si5 0.734492 0.055220 0.839696
Si Si6 0.949980 0.588399 0.936903
Si Si7 0.918881 0.151118 0.968798
Si Si8 0.317203 0.972728 0.591130
O O1 0.428173 0.424788 0.270921
O O2 0.300131 0.715846 0.338148
O O3 0.205423 0.381639 0.385300
O O4 0.112304 0.506030 0.263451
O O5 0.551981 0.269566 0.701219
O O6 0.707542 0.992783 0.757359
O O7 0.489029 0.956173 0.634117
O O8 0.593323 0.502907 0.127278
O O9 0.579470 0.445693 0.000908
O O10 0.708529 0.798126 0.081302
O O11 0.487078 0.766590 0.000767
O O12 0.686638 0.588895 0.649511
O O13 0.598866 0.943419 0.883614
O O14 0.889836 0.059438 0.891204
O O15 0.930709 0.377221 0.969080
O O16 0.764245 0.098341 0.018319
#
# Coordination Sequence:
#
# PCOD9344552 Si02
#       8
#     4   4   4   4   4   4   4   4
#     4   8  15  28  50  76 102 141 183 221 270 328
#     4   8  14  26  52  76 102 142 178 220 274 324
#     4  10  19  33  52  79 108 141 181 227 277 333
#     4   8  15  28  50  76 102 141 183 221 270 328
#     4   9  16  31  50  76 108 138 178 226 271 323
#     4  10  19  33  52  79 108 141 181 227 277 333
#     4  10  20  34  52  78 110 142 182 224 278 332
#     4   9  16  31  50  76 108 138 178 226 271 323
#
# _framework density 29.663861000000001
#
# number of rings (size 3 to 8) (size 9 to 14) (size 15 to 20)
#    0.000    3.000    1.250    0.000    0.000    0.000 
#    9.000    0.000    0.000   24.000    0.000   50.750 
#    0.000    0.000    0.000    0.000    0.000    0.000 
#
# Total GULP energy -178227.749869 kJ/mol
# GULP energy per Si atom -5569.617183 kJ/mol
# Density = 2.959634 g / cm^3
# Si number density = 29.663861 Si / 1000 Ang^3
#
#
#
# Elastic Constant Matrix: (Units=GPa)
#
#
# Indices 1 2 3 4 5 6 
#
# 1 45.6206 33.7203 56.5660 0.0000 0.0000 0.0000
# 2 33.7203 129.2500 16.2421 0.0000 0.0000 0.0000
# 3 56.5660 16.2421 197.5220 0.0000 0.0000 0.0000
# 4 0.0000 0.0000 0.0000 24.8695 0.0000 0.0000
# 5 0.0000 0.0000 0.0000 0.0000 63.6044 0.0000
# 6 0.0000 0.0000 0.0000 0.0000 0.0000 59.1574
#
#
#
# Elastic Compliance Matrix: (Units=1/GPa)
#
#
# Indices 1 2 3 4 5 6 
#
# 1 0.043830 -0.009961 -0.011733 0.000000 0.000000 0.000000
# 2 -0.009961 0.010081 0.002024 0.000000 0.000000 0.000000
# 3 -0.011733 0.002024 0.008256 0.000000 0.000000 0.000000
# 4 0.000000 0.000000 0.000000 0.040210 0.000000 0.000000
# 5 0.000000 0.000000 0.000000 0.000000 0.015722 0.000000
# 6 0.000000 0.000000 0.000000 0.000000 0.000000 0.016904
#
#
# Mechanical properties :
#
#
# Convention : Reuss Voigt Hill
#
# Bulk Modulus (GPa) = 43.80610 65.04993 54.42802
# Shear Modulus (GPa) = 27.47957 47.25053 37.36505
#
# Velocity S-wave (km/s) = 3.04693 3.99540 3.55296
# Velocity P-wave (km/s) = 5.21324 6.57730 5.93460
#
# Compressibility (1/GPa) = 0.02282787
#
# Stress axis : x y z
#
# Youngs Moduli (GPa) = 22.81534 99.19364 121.11820
#
# Poissons Ratio (x) = 0.98802 1.42107
# Poissons Ratio (y) = 0.22725 -0.24508
# Poissons Ratio (z) = 0.26769 -0.20072
#
# Static dielectric constant tensor:
#      x y z
#    x 2.495420 0.000000 0.000000 
#    y 0.000000 2.294060 0.000000 
#    z 0.000000 0.000000 2.396270 
# 
# From -- ./inp_files/8713.got.cif
#   From: 2010.05.17/outbox.cif.g08.bks.cpg/sg33_5_cif.got.tgz:8713.got - 2010.06.03 17:15:25.
