data_PCOD9344957
_publ_section_title
;
Structure prediction by ZEFSAII (Michael W. Deem and Ramdas Pophale) SiO2 
 PCOD9344957
Probable space group: P N A 21
;
_chemical_formula_sum "Si O2"
_cell_formula_units_Z 32
_cell_length_a 19.747010
_cell_length_b 8.498290
_cell_length_c 9.105910
_cell_angle_alpha 90.000000
_cell_angle_beta 90.000000
_cell_angle_gamma 90.000000
_cell_volume 1528.115732
_symmetry_space_group_name_H-M "P N A 21"
_symmetry_group_IT_number 33
_symmetry_cell_setting 'orthorhombic'
loop_
_space_group_symop_operation_xyz
x,y,z
-x,-y,1/2+z
1/2-x,1/2+y,1/2+z
1/2+x,1/2-y,z
loop_
_atom_site_type_symbol
_atom_site_label
_atom_site_fract_x
_atom_site_fract_y
_atom_site_fract_z
Si Si1 0.154312 0.931360 0.551750
Si Si2 0.934258 0.318402 0.153271
Si Si3 0.693870 0.177804 0.062799
Si Si4 0.159688 0.654682 0.923369
Si Si5 0.612668 0.371822 0.842361
Si Si6 0.968067 0.152137 0.433130
Si Si7 0.425980 0.846137 0.101592
Si Si8 0.813869 0.757714 0.896299
O O1 0.093705 0.807362 0.538502
O O2 0.225357 0.841366 0.552989
O O3 0.143427 0.020339 0.709803
O O4 0.159824 0.065422 0.429327
O O5 0.868530 0.362582 0.256367
O O6 0.980872 0.230081 0.272060
O O7 0.960227 0.483300 0.093642
O O8 0.674228 0.205759 0.230845
O O9 0.666799 0.319346 0.962369
O O10 0.665185 0.011860 0.003333
O O11 0.101460 0.765895 0.989435
O O12 0.233368 0.734503 0.925715
O O13 0.551651 0.471989 0.911216
O O14 0.587726 0.212663 0.765236
O O15 0.027971 0.208216 0.534416
O O16 0.356207 0.848102 0.009898
#
# Coordination Sequence:
#
# PCOD9344957 Si02
#       8
#     4   4   4   4   4   4   4   4
#     4   9  20  37  58  85 120 157 197 247 301 364
#     4   9  18  40  61  83 118 165 199 251 306 362
#     4  11  19  36  60  89 121 156 201 248 306 369
#     4   9  19  40  58  84 120 164 194 252 303 366
#     4  10  20  38  61  81 119 161 191 251 310 365
#     4   9  21  39  57  83 116 158 202 246 298 366
#     4  11  22  38  64  91 116 162 208 250 310 373
#     4  10  21  36  59  94 122 151 208 251 306 367
#
# _framework density 20.940823000000002
#
# number of rings (size 3 to 8) (size 9 to 14) (size 15 to 20)
#    0.750    1.500    2.500    0.000    0.000    4.000 
#    0.000   10.000    0.000    0.000    0.000    0.000 
#    0.000    0.000    0.000    0.000    0.000    0.000 
#
# Total GULP energy -178448.182267 kJ/mol
# GULP energy per Si atom -5576.505696 kJ/mol
# Density = 2.089316 g / cm^3
# Si number density = 20.940823 Si / 1000 Ang^3
#
#
#
# Elastic Constant Matrix: (Units=GPa)
#
#
# Indices 1 2 3 4 5 6 
#
# 1 58.6239 3.9975 16.7941 0.0000 0.0000 0.0000
# 2 3.9975 58.0806 10.3087 0.0000 0.0000 0.0000
# 3 16.7941 10.3087 45.9386 0.0000 0.0000 0.0000
# 4 0.0000 0.0000 0.0000 24.8684 0.0000 0.0000
# 5 0.0000 0.0000 0.0000 0.0000 20.8025 0.0000
# 6 0.0000 0.0000 0.0000 0.0000 0.0000 24.0149
#
#
#
# Elastic Compliance Matrix: (Units=1/GPa)
#
#
# Indices 1 2 3 4 5 6 
#
# 1 0.019054 -0.000078 -0.006948 0.000000 0.000000 0.000000
# 2 -0.000078 0.017932 -0.003995 0.000000 0.000000 0.000000
# 3 -0.006948 -0.003995 0.025205 0.000000 0.000000 0.000000
# 4 0.000000 0.000000 0.000000 0.040212 0.000000 0.000000
# 5 0.000000 0.000000 0.000000 0.000000 0.048071 0.000000
# 6 0.000000 0.000000 0.000000 0.000000 0.000000 0.041641
#
#
# Mechanical properties :
#
#
# Convention : Reuss Voigt Hill
#
# Bulk Modulus (GPa) = 24.90837 24.98267 24.94552
# Shear Modulus (GPa) = 21.97420 22.70669 22.34044
#
# Velocity S-wave (km/s) = 3.24288 3.29648 3.26979
# Velocity P-wave (km/s) = 5.09334 5.14248 5.11797
#
# Compressibility (1/GPa) = 0.04014715
#
# Stress axis : x y z
#
# Youngs Moduli (GPa) = 52.48344 55.76634 39.67498
#
# Poissons Ratio (x) = 0.00436 0.27566
# Poissons Ratio (y) = 0.00410 0.15852
# Poissons Ratio (z) = 0.36466 0.22281
#
# Static dielectric constant tensor:
#      x y z
#    x 1.757210 0.000000 0.000000 
#    y 0.000000 1.792190 0.000000 
#    z 0.000000 0.000000 1.744720 
# 
# From -- ./inp_files/4990.got.cif
#   From: 2010.05.17/outbox.cif.g08.bks.cpg/sg33_3_cif.got.tgz:4990.got - 2010.06.03 17:15:25.
