data_PCOD9344834
_publ_section_title
;
Structure prediction by ZEFSAII (Michael W. Deem and Ramdas Pophale) SiO2 
 PCOD9344834
Probable space group: P N A 21
;
_chemical_formula_sum "Si O2"
_cell_formula_units_Z 32
_cell_length_a 12.947601
_cell_length_b 19.436962
_cell_length_c 6.352203
_cell_angle_alpha 90.000000
_cell_angle_beta 90.000000
_cell_angle_gamma 90.000000
_cell_volume 1598.608293
_symmetry_space_group_name_H-M "P N A 21"
_symmetry_group_IT_number 33
_symmetry_cell_setting 'orthorhombic'
loop_
_space_group_symop_operation_xyz
x,y,z
-x,-y,1/2+z
1/2-x,1/2+y,1/2+z
1/2+x,1/2-y,z
loop_
_atom_site_type_symbol
_atom_site_label
_atom_site_fract_x
_atom_site_fract_y
_atom_site_fract_z
Si Si1 0.494310 0.280281 0.771110
Si Si2 0.149041 0.990080 0.302847
Si Si3 0.038584 0.667734 0.947103
Si Si4 0.513560 0.597632 0.981071
Si Si5 0.152667 0.858229 0.593172
Si Si6 0.007348 0.432877 0.818959
Si Si7 0.883300 0.683300 0.576754
Si Si8 0.361610 0.059897 0.178272
O O1 0.437386 0.228594 0.609282
O O2 0.533510 0.343643 0.631003
O O3 0.413124 0.311531 0.934336
O O4 0.581217 0.239586 0.903691
O O5 0.169088 0.932868 0.483052
O O6 0.252766 0.024351 0.215804
O O7 0.088582 0.949759 0.120598
O O8 0.074660 0.049768 0.386386
O O9 0.125321 0.632041 0.801487
O O10 0.950395 0.693052 0.786929
O O11 0.996890 0.608482 0.102126
O O12 0.584234 0.630928 0.800190
O O13 0.263076 0.822703 0.626365
O O14 0.053633 0.507179 0.773931
O O15 0.079918 0.389308 0.975962
O O16 0.896657 0.433087 0.935642
#
# Coordination Sequence:
#
# PCOD9344834 Si02
#       8
#     4   4   4   4   4   4   4   4
#     4  10  24  44  66  93 132 177 220 285 326 398
#     4  11  24  41  66 101 131 180 220 281 345 395
#     4  10  22  40  61  95 137 169 217 280 329 403
#     4  11  24  44  68  94 137 166 231 281 332 404
#     4  11  23  42  70  97 131 182 227 274 336 409
#     4  10  20  35  57  95 132 166 213 276 320 402
#     4  10  22  41  67  93 129 176 228 263 339 402
#     4  11  21  35  63  96 135 172 214 270 343 393
#
# _framework density 20.017410999999999
#
# number of rings (size 3 to 8) (size 9 to 14) (size 15 to 20)
#    0.000    1.500    3.750    0.750    1.750    3.000 
#    0.000    8.750    0.000    0.000    0.000    0.000 
#    0.000    0.000    0.000    0.000    0.000    0.000 
#
# Total GULP energy -178723.415839 kJ/mol
# GULP energy per Si atom -5585.106745 kJ/mol
# Density = 1.997185 g / cm^3
# Si number density = 20.017411 Si / 1000 Ang^3
#
#
#
# Elastic Constant Matrix: (Units=GPa)
#
#
# Indices 1 2 3 4 5 6 
#
# 1 83.3865 45.4144 40.8892 0.0000 0.0000 0.0000
# 2 45.4144 109.6257 54.6037 0.0000 0.0000 0.0000
# 3 40.8892 54.6037 115.3680 0.0000 0.0000 0.0000
# 4 0.0000 0.0000 0.0000 35.5763 0.0000 0.0000
# 5 0.0000 0.0000 0.0000 0.0000 5.2019 0.0000
# 6 0.0000 0.0000 0.0000 0.0000 0.0000 16.5876
#
#
#
# Elastic Compliance Matrix: (Units=1/GPa)
#
#
# Indices 1 2 3 4 5 6 
#
# 1 0.016451 -0.005117 -0.003409 0.000000 0.000000 0.000000
# 2 -0.005117 0.013528 -0.004589 0.000000 0.000000 0.000000
# 3 -0.003409 -0.004589 0.012048 0.000000 0.000000 0.000000
# 4 0.000000 0.000000 0.000000 0.028109 0.000000 0.000000
# 5 0.000000 0.000000 0.000000 0.000000 0.192237 0.000000
# 6 0.000000 0.000000 0.000000 0.000000 0.000000 0.060286
#
#
# Mechanical properties :
#
#
# Convention : Reuss Voigt Hill
#
# Bulk Modulus (GPa) = 63.30397 65.57721 64.44059
# Shear Modulus (GPa) = 14.11822 22.63802 18.37812
#
# Velocity S-wave (km/s) = 2.65862 3.36656 3.03331
# Velocity P-wave (km/s) = 6.41229 6.92408 6.67309
#
# Compressibility (1/GPa) = 0.01579680
#
# Stress axis : x y z
#
# Youngs Moduli (GPa) = 60.78762 73.92322 83.00179
#
# Poissons Ratio (x) = 0.37828 0.28292
# Poissons Ratio (y) = 0.31106 0.38089
# Poissons Ratio (z) = 0.20720 0.33923
#
# Static dielectric constant tensor:
#      x y z
#    x 1.664660 0.000000 0.000000 
#    y 0.000000 1.723990 0.000000 
#    z 0.000000 0.000000 1.722550 
# 
# From -- ./inp_files/1080.got.cif
#   From: 2010.05.17/outbox.cif.g08.bks.cpg/sg33_1_cif.got.tgz:1080.got - 2010.06.03 17:15:25.
