data_PCOD9344389
_publ_section_title
;
Structure prediction by ZEFSAII (Michael W. Deem and Ramdas Pophale) SiO2 
 PCOD9344389
Probable space group: P N A 21
;
_chemical_formula_sum "Si O2"
_cell_formula_units_Z 32
_cell_length_a 8.931393
_cell_length_b 19.921366
_cell_length_c 7.007269
_cell_angle_alpha 90.000000
_cell_angle_beta 90.000000
_cell_angle_gamma 90.000000
_cell_volume 1246.772183
_symmetry_space_group_name_H-M "P N A 21"
_symmetry_group_IT_number 33
_symmetry_cell_setting 'orthorhombic'
loop_
_space_group_symop_operation_xyz
x,y,z
-x,-y,1/2+z
1/2-x,1/2+y,1/2+z
1/2+x,1/2-y,z
loop_
_atom_site_type_symbol
_atom_site_label
_atom_site_fract_x
_atom_site_fract_y
_atom_site_fract_z
Si Si1 0.546435 0.732801 0.664180
Si Si2 0.150394 0.483888 0.830891
Si Si3 0.203049 0.523896 0.393482
Si Si4 0.187187 0.109192 0.463773
Si Si5 0.905846 0.274961 0.599589
Si Si6 0.797431 0.657290 0.212807
Si Si7 0.642349 0.605174 0.859228
Si Si8 0.775338 0.839132 0.537684
O O1 0.528892 0.751373 0.891663
O O2 0.629593 0.661147 0.694573
O O3 0.628214 0.796213 0.575203
O O4 0.405187 0.715792 0.533375
O O5 0.198916 0.505685 0.618810
O O6 0.216853 0.540553 0.972014
O O7 0.206850 0.407214 0.850136
O O8 0.970121 0.482594 0.834861
O O9 0.313878 0.469675 0.300696
O O10 0.262212 0.600515 0.387977
O O11 0.272978 0.172412 0.554109
O O12 0.188163 0.126905 0.239397
O O13 0.008802 0.101737 0.490586
O O14 0.830277 0.214180 0.716863
O O15 0.039407 0.310842 0.707410
O O16 0.774611 0.629574 0.996942
#
# Coordination Sequence:
#
# PCOD9344389 Si02
#       8
#     4   4   4   4   4   4   4   4
#     4   9  16  30  53  80 108 147 193 236 283 341
#     4  10  21  38  57  83 118 156 194 239 293 352
#     4  10  21  38  57  83 119 155 194 241 291 350
#     4   9  17  32  56  82 109 146 197 247 288 340
#     4  10  17  31  56  83 112 151 198 242 289 348
#     4  10  19  32  53  83 115 148 193 246 289 341
#     4   9  17  32  55  82 109 145 198 249 286 339
#     4   9  18  31  51  80 112 144 187 240 283 333
#
# _framework density 25.66628
#
# number of rings (size 3 to 8) (size 9 to 14) (size 15 to 20)
#    0.000    2.500    0.000    5.250    0.000    2.000 
#    0.000   13.750    0.000    0.000    0.000    0.000 
#    0.000    0.000    0.000    0.000    0.000    0.000 
#
# Total GULP energy -178855.771131 kJ/mol
# GULP energy per Si atom -5589.242848 kJ/mol
# Density = 2.560786 g / cm^3
# Si number density = 25.666280 Si / 1000 Ang^3
#
#
#
# Elastic Constant Matrix: (Units=GPa)
#
#
# Indices 1 2 3 4 5 6 
#
# 1 86.8752 50.2912 -2.2705 0.0000 0.0000 0.0000
# 2 50.2912 141.1567 18.8538 0.0000 0.0000 0.0000
# 3 -2.2705 18.8538 31.9945 0.0000 0.0000 0.0000
# 4 0.0000 0.0000 0.0000 42.5035 0.0000 0.0000
# 5 0.0000 0.0000 0.0000 0.0000 20.5500 0.0000
# 6 0.0000 0.0000 0.0000 0.0000 0.0000 43.4188
#
#
#
# Elastic Compliance Matrix: (Units=1/GPa)
#
#
# Indices 1 2 3 4 5 6 
#
# 1 0.015102 -0.005996 0.004605 0.000000 0.000000 0.000000
# 2 -0.005996 0.010070 -0.006359 0.000000 0.000000 0.000000
# 3 0.004605 -0.006359 0.035330 0.000000 0.000000 0.000000
# 4 0.000000 0.000000 0.000000 0.023527 0.000000 0.000000
# 5 0.000000 0.000000 0.000000 0.000000 0.048662 0.000000
# 6 0.000000 0.000000 0.000000 0.000000 0.000000 0.023031
#
#
# Mechanical properties :
#
#
# Convention : Reuss Voigt Hill
#
# Bulk Modulus (GPa) = 22.22175 43.75282 32.98729
# Shear Modulus (GPa) = 26.84957 34.17127 30.51042
#
# Velocity S-wave (km/s) = 3.23786 3.65275 3.45154
# Velocity P-wave (km/s) = 4.75973 5.90542 5.36325
#
# Compressibility (1/GPa) = 0.04500096
#
# Stress axis : x y z
#
# Youngs Moduli (GPa) = 66.21696 99.30674 28.30483
#
# Poissons Ratio (x) = 0.59540 -0.13034
# Poissons Ratio (y) = 0.39701 0.18000
# Poissons Ratio (z) = -0.30491 0.63153
#
# Static dielectric constant tensor:
#      x y z
#    x 2.146200 0.000000 0.000000 
#    y 0.000000 2.099000 0.000000 
#    z 0.000000 0.000000 2.071450 
# 
# From -- ./inp_files/3445.got.cif
#   From: 2010.05.17/outbox.cif.g08.bks.cpg/sg33_2_cif.got.tgz:3445.got - 2010.06.03 17:15:25.
