data_PCOD9344974
_publ_section_title
;
Structure prediction by ZEFSAII (Michael W. Deem and Ramdas Pophale) SiO2 
 PCOD9344974
Probable space group: P N A 21
;
_chemical_formula_sum "Si O2"
_cell_formula_units_Z 28
_cell_length_a 8.670853
_cell_length_b 19.045322
_cell_length_c 7.661216
_cell_angle_alpha 90.000000
_cell_angle_beta 90.000000
_cell_angle_gamma 90.000000
_cell_volume 1265.166985
_symmetry_space_group_name_H-M "P N A 21"
_symmetry_group_IT_number 33
_symmetry_cell_setting 'orthorhombic'
loop_
_space_group_symop_operation_xyz
x,y,z
-x,-y,1/2+z
1/2-x,1/2+y,1/2+z
1/2+x,1/2-y,z
loop_
_atom_site_type_symbol
_atom_site_label
_atom_site_fract_x
_atom_site_fract_y
_atom_site_fract_z
Si Si1 0.362198 0.329454 0.549410
Si Si2 0.136921 0.661357 0.398655
Si Si3 0.606891 0.585443 0.730042
Si Si4 0.685367 0.035738 0.695080
Si Si5 0.616025 0.446839 0.946120
Si Si6 0.622925 0.252604 0.734319
Si Si7 0.925404 0.559927 0.580678
O O1 0.421568 0.349433 0.358240
O O2 0.265332 0.395353 0.619514
O O3 0.508132 0.313289 0.671038
O O4 0.239928 0.266927 0.577990
O O5 0.254551 0.598649 0.345609
O O6 0.262325 0.725053 0.393258
O O7 0.994522 0.689774 0.283009
O O8 0.043713 0.625344 0.557505
O O9 0.564009 0.512300 0.828570
O O10 0.524958 0.592266 0.542129
O O11 0.791385 0.579094 0.712920
O O12 0.794179 0.975814 0.616303
O O13 0.518729 0.010294 0.627116
O O14 0.660267 0.044578 0.899027
#
# Coordination Sequence:
#
# PCOD9344974 Si02
#       7
#     4   4   4   4   4   4   4
#     4  10  22  42  65  92 124 174 221 264 321 388
#     4  10  22  39  65  92 121 172 218 262 316 392
#     4  11  24  39  66  97 135 165 214 277 330 387
#     4  10  20  38  62  93 132 162 214 259 329 384
#     4  10  23  40  61 101 128 169 210 269 332 382
#     4  10  22  42  67  90 125 177 220 265 321 395
#     4  11  21  40  64  97 129 171 207 274 327 392
#
# _framework density 22.131464999999999
#
# number of rings (size 3 to 8) (size 9 to 14) (size 15 to 20)
#    0.000    1.714    1.429    3.429    6.000    0.000 
#    2.571    8.571    0.000    0.000    0.000    0.000 
#    0.000    0.000    0.000    0.000    0.000    0.000 
#
# Total GULP energy -155869.547718 kJ/mol
# GULP energy per Si atom -5566.769561 kJ/mol
# Density = 2.208109 g / cm^3
# Si number density = 22.131465 Si / 1000 Ang^3
#
#
#
# Elastic Constant Matrix: (Units=GPa)
#
#
# Indices 1 2 3 4 5 6 
#
# 1 130.3992 34.5329 27.9622 0.0000 0.0000 0.0000
# 2 34.5329 54.1922 16.0599 0.0000 0.0000 0.0000
# 3 27.9622 16.0599 58.8441 0.0000 0.0000 0.0000
# 4 0.0000 0.0000 0.0000 28.0015 0.0000 0.0000
# 5 0.0000 0.0000 0.0000 0.0000 37.9352 0.0000
# 6 0.0000 0.0000 0.0000 0.0000 0.0000 18.8351
#
#
#
# Elastic Compliance Matrix: (Units=1/GPa)
#
#
# Indices 1 2 3 4 5 6 
#
# 1 0.009748 -0.005265 -0.003195 0.000000 0.000000 0.000000
# 2 -0.005265 0.022920 -0.003754 0.000000 0.000000 0.000000
# 3 -0.003195 -0.003754 0.019537 0.000000 0.000000 0.000000
# 4 0.000000 0.000000 0.000000 0.035712 0.000000 0.000000
# 5 0.000000 0.000000 0.000000 0.000000 0.026361 0.000000
# 6 0.000000 0.000000 0.000000 0.000000 0.000000 0.053092
#
#
# Mechanical properties :
#
#
# Convention : Reuss Voigt Hill
#
# Bulk Modulus (GPa) = 36.00027 44.50506 40.25267
# Shear Modulus (GPa) = 24.86845 27.94637 26.40741
#
# Velocity S-wave (km/s) = 3.35575 3.55737 3.45803
# Velocity P-wave (km/s) = 5.59613 6.08492 5.84563
#
# Compressibility (1/GPa) = 0.02777757
#
# Stress axis : x y z
#
# Youngs Moduli (GPa) = 102.58255 43.62959 51.18518
#
# Poissons Ratio (x) = 0.22971 0.16355
# Poissons Ratio (y) = 0.54009 0.19213
# Poissons Ratio (z) = 0.32779 0.16377
#
# Static dielectric constant tensor:
#      x y z
#    x 1.853180 0.000000 0.000000 
#    y 0.000000 1.895690 0.000000 
#    z 0.000000 0.000000 1.808380 
# 
# From -- ./inp_files/3373.got.cif
#   From: 2010.05.17/outbox.cif.g08.bks.cpg/sg33_2_cif.got.tgz:3373.got - 2010.06.03 17:15:25.
