data_PCOD9344725
_publ_section_title
;
Structure prediction by ZEFSAII (Michael W. Deem and Ramdas Pophale) SiO2 
 PCOD9344725
Probable space group: P N A 21
;
_chemical_formula_sum "Si O2"
_cell_formula_units_Z 32
_cell_length_a 16.002420
_cell_length_b 10.970063
_cell_length_c 7.939228
_cell_angle_alpha 90.000000
_cell_angle_beta 90.000000
_cell_angle_gamma 90.000000
_cell_volume 1393.712068
_symmetry_space_group_name_H-M "P N A 21"
_symmetry_group_IT_number 33
_symmetry_cell_setting 'orthorhombic'
loop_
_space_group_symop_operation_xyz
x,y,z
-x,-y,1/2+z
1/2-x,1/2+y,1/2+z
1/2+x,1/2-y,z
loop_
_atom_site_type_symbol
_atom_site_label
_atom_site_fract_x
_atom_site_fract_y
_atom_site_fract_z
Si Si1 0.689711 0.767757 0.963760
Si Si2 0.060525 0.107401 0.714111
Si Si3 0.892559 0.243556 0.817983
Si Si4 0.419237 0.324304 0.156560
Si Si5 0.369913 0.978431 0.429358
Si Si6 0.130311 0.264834 0.402995
Si Si7 0.532558 0.000496 0.270649
Si Si8 0.893634 0.784331 0.546012
O O1 0.618798 0.724446 0.831047
O O2 0.775019 0.696170 0.935313
O O3 0.667071 0.750106 0.158308
O O4 0.697528 0.914501 0.933539
O O5 0.095761 0.188404 0.560345
O O6 0.968280 0.156526 0.756786
O O7 0.062111 0.966801 0.669788
O O8 0.110046 0.124272 0.890251
O O9 0.929490 0.378131 0.848801
O O10 0.858904 0.198494 0.997388
O O11 0.507649 0.267053 0.095649
O O12 0.433706 0.008406 0.581535
O O13 0.432267 0.991482 0.272123
O O14 0.351478 0.838658 0.472103
O O15 0.072263 0.380119 0.357301
O O16 0.139440 0.185546 0.230741
#
# Coordination Sequence:
#
# PCOD9344725 Si02
#       8
#     4   4   4   4   4   4   4   4
#     4  11  25  41  63  99 138 174 210 266 345 408
#     4  11  24  41  69  95 131 173 229 277 332 391
#     4  10  23  42  68  98 123 170 232 281 326 384
#     4  11  24  41  69  95 131 173 229 277 332 391
#     4  10  19  38  68  94 121 158 223 276 317 384
#     4  11  25  41  63  99 138 174 210 266 345 408
#     4  10  19  38  68  94 121 158 223 276 317 384
#     4  10  23  42  68  98 123 170 232 281 326 384
#
# _framework density 22.960266000000001
#
# number of rings (size 3 to 8) (size 9 to 14) (size 15 to 20)
#    0.000    1.500    2.500    3.750    7.000    4.000 
#    0.000    2.500    0.000    0.000    0.000    0.000 
#    0.000    0.000    0.000    0.000    0.000    0.000 
#
# Total GULP energy -178629.793300 kJ/mol
# GULP energy per Si atom -5582.181041 kJ/mol
# Density = 2.290801 g / cm^3
# Si number density = 22.960266 Si / 1000 Ang^3
#
#
#
# Elastic Constant Matrix: (Units=GPa)
#
#
# Indices 1 2 3 4 5 6 
#
# 1 38.5087 7.0376 7.3341 0.0000 0.0000 0.0000
# 2 7.0376 75.8744 37.7917 0.0000 0.0000 0.0000
# 3 7.3341 37.7917 115.0987 0.0000 0.0000 0.0000
# 4 0.0000 0.0000 0.0000 30.1237 0.0000 0.0000
# 5 0.0000 0.0000 0.0000 0.0000 15.5795 0.0000
# 6 0.0000 0.0000 0.0000 0.0000 0.0000 5.6254
#
#
#
# Elastic Compliance Matrix: (Units=1/GPa)
#
#
# Indices 1 2 3 4 5 6 
#
# 1 0.026523 -0.001935 -0.001055 0.000000 0.000000 0.000000
# 2 -0.001935 0.015898 -0.005097 0.000000 0.000000 0.000000
# 3 -0.001055 -0.005097 0.010429 0.000000 0.000000 0.000000
# 4 0.000000 0.000000 0.000000 0.033196 0.000000 0.000000
# 5 0.000000 0.000000 0.000000 0.000000 0.064187 0.000000
# 6 0.000000 0.000000 0.000000 0.000000 0.000000 0.177765
#
#
# Mechanical properties :
#
#
# Convention : Reuss Voigt Hill
#
# Bulk Modulus (GPa) = 27.26507 37.08984 32.17745
# Shear Modulus (GPa) = 14.02937 22.08696 18.05817
#
# Velocity S-wave (km/s) = 2.47458 3.10492 2.80750
# Velocity P-wave (km/s) = 4.47944 5.38916 4.95522
#
# Compressibility (1/GPa) = 0.03667697
#
# Stress axis : x y z
#
# Youngs Moduli (GPa) = 37.70372 62.90239 95.88803
#
# Poissons Ratio (x) = 0.12170 0.10114
# Poissons Ratio (y) = 0.07294 0.48870
# Poissons Ratio (z) = 0.03977 0.32059
#
# Static dielectric constant tensor:
#      x y z
#    x 1.935930 0.000000 0.000000 
#    y 0.000000 1.856360 0.000000 
#    z 0.000000 0.000000 1.951910 
# 
# From -- ./inp_files/4855.got.cif
#   From: 2010.05.17/outbox.cif.g08.bks.cpg/sg33_3_cif.got.tgz:4855.got - 2010.06.03 17:15:25.
