data_PCOD9344342
_publ_section_title
;
Structure prediction by ZEFSAII (Michael W. Deem and Ramdas Pophale) SiO2 
 PCOD9344342
Probable space group: P N A 21
;
_chemical_formula_sum "Si O2"
_cell_formula_units_Z 28
_cell_length_a 29.478380
_cell_length_b 6.863331
_cell_length_c 5.410422
_cell_angle_alpha 90.000000
_cell_angle_beta 90.000000
_cell_angle_gamma 90.000000
_cell_volume 1094.635926
_symmetry_space_group_name_H-M "P N A 21"
_symmetry_group_IT_number 33
_symmetry_cell_setting 'orthorhombic'
loop_
_space_group_symop_operation_xyz
x,y,z
-x,-y,1/2+z
1/2-x,1/2+y,1/2+z
1/2+x,1/2-y,z
loop_
_atom_site_type_symbol
_atom_site_label
_atom_site_fract_x
_atom_site_fract_y
_atom_site_fract_z
Si Si1 0.223806 0.301263 0.626050
Si Si2 0.097473 0.909796 0.654018
Si Si3 0.045547 0.300185 0.656933
Si Si4 0.931061 0.626243 0.654760
Si Si5 0.949954 0.091825 0.653333
Si Si6 0.672384 0.158587 0.117083
Si Si7 0.688110 0.554232 0.888808
O O1 0.197061 0.361974 0.379060
O O2 0.276165 0.336047 0.560351
O O3 0.215905 0.075955 0.692038
O O4 0.201995 0.399963 0.873584
O O5 0.079316 0.842924 0.389928
O O6 0.148451 0.851999 0.727963
O O7 0.089143 0.148922 0.651887
O O8 0.068927 0.844753 0.890040
O O9 0.049368 0.431895 0.416221
O O10 0.001551 0.162641 0.667326
O O11 0.047265 0.431343 0.898182
O O12 0.878076 0.578279 0.634550
O O13 0.944062 0.857914 0.657569
O O14 0.665592 0.391378 0.067002
#
# Coordination Sequence:
#
# PCOD9344342 Si02
#       7
#     4   4   4   4   4   4   4
#     4  10  22  32  54  68  98 124 181 221 262 310
#     4  10  17  26  42  57  92 124 165 187 241 302
#     4  10  16  23  38  62  89 125 162 185 227 298
#     4  10  15  26  39  58  87 124 158 190 231 297
#     4  10  16  24  37  62  89 125 162 185 227 297
#     4  10  20  34  49  70  95 131 174 211 262 308
#     4  10  22  35  51  73  96 137 178 219 266 314
#
# _framework density 25.579281999999999
#
# number of rings (size 3 to 8) (size 9 to 14) (size 15 to 20)
#    0.857    1.143    2.857    6.857    2.000    0.000 
#    0.000    0.000    0.000    0.000    0.000    0.000 
#    0.000    0.000    0.000   15.429   12.571    0.000 
#
# Total GULP energy -156441.524885 kJ/mol
# GULP energy per Si atom -5587.197317 kJ/mol
# Density = 2.552106 g / cm^3
# Si number density = 25.579282 Si / 1000 Ang^3
#
#
#
# Elastic Constant Matrix: (Units=GPa)
#
#
# Indices 1 2 3 4 5 6 
#
# 1 117.6013 12.5892 52.7084 0.0000 0.0000 0.0000
# 2 12.5892 72.4746 7.8044 0.0000 0.0000 0.0000
# 3 52.7084 7.8044 244.1734 0.0000 0.0000 0.0000
# 4 0.0000 0.0000 0.0000 -25.6447 0.0000 0.0000
# 5 0.0000 0.0000 0.0000 0.0000 47.5082 0.0000
# 6 0.0000 0.0000 0.0000 0.0000 0.0000 27.3386
#
#
#
# Elastic Compliance Matrix: (Units=1/GPa)
#
#
# Indices 1 2 3 4 5 6 
#
# 1 0.009562 -0.001444 -0.002018 0.000000 0.000000 0.000000
# 2 -0.001444 0.014064 -0.000138 0.000000 0.000000 0.000000
# 3 -0.002018 -0.000138 0.004535 0.000000 0.000000 0.000000
# 4 0.000000 0.000000 0.000000 -0.038994 0.000000 0.000000
# 5 0.000000 0.000000 0.000000 0.000000 0.021049 0.000000
# 6 0.000000 0.000000 0.000000 0.000000 0.000000 0.036578
#
#
# Mechanical properties :
#
#
# Convention : Reuss Voigt Hill
#
# Bulk Modulus (GPa) = 47.70498 64.49480 56.09989
# Shear Modulus (GPa) = 81.99298 33.91691 57.95494
#
# Velocity S-wave (km/s) = 5.66781 3.64531 4.76510
# Velocity P-wave (km/s) = 7.84362 6.55638 7.22871
#
# Compressibility (1/GPa) = 0.02096217
#
# Stress axis : x y z
#
# Youngs Moduli (GPa) = 104.57709 71.10577 220.48402
#
# Poissons Ratio (x) = 0.10266 0.44494
# Poissons Ratio (y) = 0.15098 0.03040
# Poissons Ratio (z) = 0.21104 0.00980
#
# Static dielectric constant tensor:
#      x y z
#    x 1.991920 0.000000 0.000000 
#    y 0.000000 2.079470 0.000000 
#    z 0.000000 0.000000 2.064750 
# 
# From -- ./inp_files/2276.got.cif
#   From: 2010.05.17/outbox.cif.g08.bks.cpg/sg33_2_cif.got.tgz:2276.got - 2010.06.03 17:15:25.
