data_PCOD9344716
_publ_section_title
;
Structure prediction by ZEFSAII (Michael W. Deem and Ramdas Pophale) SiO2 
 PCOD9344716
Probable space group: P N A 21
;
_chemical_formula_sum "Si O2"
_cell_formula_units_Z 28
_cell_length_a 8.103631
_cell_length_b 21.777368
_cell_length_c 7.782764
_cell_angle_alpha 90.000000
_cell_angle_beta 90.000000
_cell_angle_gamma 90.000000
_cell_volume 1373.469148
_symmetry_space_group_name_H-M "P N A 21"
_symmetry_group_IT_number 33
_symmetry_cell_setting 'orthorhombic'
loop_
_space_group_symop_operation_xyz
x,y,z
-x,-y,1/2+z
1/2-x,1/2+y,1/2+z
1/2+x,1/2-y,z
loop_
_atom_site_type_symbol
_atom_site_label
_atom_site_fract_x
_atom_site_fract_y
_atom_site_fract_z
Si Si1 0.948930 0.827732 0.837520
Si Si2 0.732536 0.629747 0.257455
Si Si3 0.361981 0.493227 0.655645
Si Si4 0.894319 0.880358 0.470457
Si Si5 0.815627 0.949006 0.014104
Si Si6 0.685923 0.745108 0.019732
Si Si7 0.597103 0.863330 0.218117
O O1 0.901330 0.840029 0.642702
O O2 0.916711 0.890779 0.938746
O O3 0.124912 0.797156 0.861694
O O4 0.842503 0.779272 0.943751
O O5 0.718546 0.572944 0.122250
O O6 0.577298 0.619757 0.385814
O O7 0.705027 0.695659 0.170584
O O8 0.923719 0.628174 0.315451
O O9 0.338849 0.551232 0.531211
O O10 0.560528 0.482154 0.646636
O O11 0.295076 0.510396 0.844554
O O12 0.756158 0.855513 0.340798
O O13 0.652824 0.921772 0.101980
O O14 0.584972 0.803225 0.097294
#
# Coordination Sequence:
#
# PCOD9344716 Si02
#       7
#     4   4   4   4   4   4   4
#     4  10  22  40  65  90 129 171 214 282 326 388
#     4  12  23  40  73  95 126 187 221 266 343 404
#     4  11  20  40  69  93 134 177 217 272 333 398
#     4  11  25  44  64 100 137 170 223 283 336 388
#     4  10  19  38  64  92 129 171 215 269 329 382
#     4  11  21  44  64  91 131 174 225 269 335 398
#     4  11  24  42  67  97 132 172 223 275 328 402
#
# _framework density 20.386336
#
# number of rings (size 3 to 8) (size 9 to 14) (size 15 to 20)
#    0.000    1.143    5.714    0.857    0.000    2.286 
#    2.571    0.000    0.000    0.000    0.000    0.000 
#    0.000    0.000    0.000    0.000    0.000    0.000 
#
# Total GULP energy -155925.727593 kJ/mol
# GULP energy per Si atom -5568.775985 kJ/mol
# Density = 2.033994 g / cm^3
# Si number density = 20.386336 Si / 1000 Ang^3
#
#
#
# Elastic Constant Matrix: (Units=GPa)
#
#
# Indices 1 2 3 4 5 6 
#
# 1 78.0919 2.7966 20.8594 0.0000 0.0000 0.0000
# 2 2.7966 70.6952 0.6788 0.0000 0.0000 0.0000
# 3 20.8594 0.6788 79.2605 0.0000 0.0000 0.0000
# 4 0.0000 0.0000 0.0000 31.4657 0.0000 0.0000
# 5 0.0000 0.0000 0.0000 0.0000 19.7447 0.0000
# 6 0.0000 0.0000 0.0000 0.0000 0.0000 17.0550
#
#
#
# Elastic Compliance Matrix: (Units=1/GPa)
#
#
# Indices 1 2 3 4 5 6 
#
# 1 0.013792 -0.000511 -0.003625 0.000000 0.000000 0.000000
# 2 -0.000511 0.014165 0.000013 0.000000 0.000000 0.000000
# 3 -0.003625 0.000013 0.013571 0.000000 0.000000 0.000000
# 4 0.000000 0.000000 0.000000 0.031781 0.000000 0.000000
# 5 0.000000 0.000000 0.000000 0.000000 0.050647 0.000000
# 6 0.000000 0.000000 0.000000 0.000000 0.000000 0.058634
#
#
# Mechanical properties :
#
#
# Convention : Reuss Voigt Hill
#
# Bulk Modulus (GPa) = 30.04629 30.74634 30.39632
# Shear Modulus (GPa) = 24.76115 27.23392 25.99753
#
# Velocity S-wave (km/s) = 3.48889 3.65895 3.57493
# Velocity P-wave (km/s) = 5.56778 5.74153 5.65532
#
# Compressibility (1/GPa) = 0.03328197
#
# Stress axis : x y z
#
# Youngs Moduli (GPa) = 72.50525 70.59496 73.68860
#
# Poissons Ratio (x) = 0.03606 0.26715
# Poissons Ratio (y) = 0.03703 -0.00097
# Poissons Ratio (z) = 0.26286 -0.00093
#
# Static dielectric constant tensor:
#      x y z
#    x 1.774170 0.000000 0.000000 
#    y 0.000000 1.750700 0.000000 
#    z 0.000000 0.000000 1.734920 
# 
# From -- ./inp_files/3417.got.cif
#   From: 2010.05.17/outbox.cif.g08.bks.cpg/sg33_2_cif.got.tgz:3417.got - 2010.06.03 17:15:25.
