data_PCOD9344162
_publ_section_title
;
Structure prediction by ZEFSAII (Michael W. Deem and Ramdas Pophale) SiO2 
 PCOD9344162
Probable space group: P B A 2
;
_chemical_formula_sum "Si O2"
_cell_formula_units_Z 20
_cell_length_a 11.444164
_cell_length_b 14.527024
_cell_length_c 4.663197
_cell_angle_alpha 90.000000
_cell_angle_beta 90.000000
_cell_angle_gamma 90.000000
_cell_volume 775.254846
_symmetry_space_group_name_H-M "P B A 2"
_symmetry_group_IT_number 32
_symmetry_cell_setting 'orthorhombic'
loop_
_space_group_symop_operation_xyz
x,y,z
-x,-y,z
1/2-x,1/2+y,z
1/2+x,1/2-y,z
loop_
_atom_site_type_symbol
_atom_site_label
_atom_site_fract_x
_atom_site_fract_y
_atom_site_fract_z
Si Si1 0.019824 0.825234 0.257730
Si Si2 0.154056 0.454586 0.632766
Si Si3 0.500000 0.000000 0.167527
Si Si4 0.828220 0.215581 0.733291
Si Si5 0.500000 0.500000 0.591952
Si Si6 0.193268 0.120252 0.606461
O O1 0.106395 0.760464 0.438165
O O2 0.947744 0.572078 0.405257
O O3 0.886554 0.825672 0.371032
O O4 0.064480 0.808812 0.940905
O O5 0.238140 0.368973 0.701575
O O6 0.218469 0.543127 0.492786
O O7 0.103285 0.494211 0.930416
O O8 0.943051 0.074286 0.379339
O O9 0.755191 0.305931 0.803840
O O10 0.402098 0.554434 0.763986
#
# Coordination Sequence:
#
# PCOD9344162 Si02
#       6
#     4   4   2   4   2   4
#     4  10  24  43  69 106 142 179 252 302 363 455
#     4  11  23  46  67  99 141 193 243 304 384 435
#     4  10  26  42  68  94 140 188 242 300 366 468
#     4  12  24  43  70 103 140 184 240 316 372 432
#     4   8  20  50  68 110 140 198 250 308 366 462
#     4  10  24  45  74 102 144 200 240 311 379 446
#
# _framework density 25.797969999999999
#
# number of rings (size 3 to 8) (size 9 to 14) (size 15 to 20)
#    1.200    0.400    2.000    1.200    0.000   12.000 
#    0.000    0.000    0.000    0.000    0.000    0.000 
#    0.000    0.000    0.000    0.000    0.000    0.000 
#
# Total GULP energy -111364.438876 kJ/mol
# GULP energy per Si atom -5568.221944 kJ/mol
# Density = 2.573925 g / cm^3
# Si number density = 25.797970 Si / 1000 Ang^3
#
#
#
# Elastic Constant Matrix: (Units=GPa)
#
#
# Indices 1 2 3 4 5 6 
#
# 1 81.9623 53.5180 27.1709 0.0000 0.0000 0.0000
# 2 53.5180 112.8517 1.6964 0.0000 0.0000 0.0000
# 3 27.1709 1.6964 108.1523 0.0000 0.0000 0.0000
# 4 0.0000 0.0000 0.0000 10.6467 0.0000 0.0000
# 5 0.0000 0.0000 0.0000 0.0000 44.2210 0.0000
# 6 0.0000 0.0000 0.0000 0.0000 0.0000 48.6915
#
#
#
# Elastic Compliance Matrix: (Units=1/GPa)
#
#
# Indices 1 2 3 4 5 6 
#
# 1 0.019939 -0.009383 -0.004862 0.000000 0.000000 0.000000
# 2 -0.009383 0.013278 0.002149 0.000000 0.000000 0.000000
# 3 -0.004862 0.002149 0.010434 0.000000 0.000000 0.000000
# 4 0.000000 0.000000 0.000000 0.093926 0.000000 0.000000
# 5 0.000000 0.000000 0.000000 0.000000 0.022614 0.000000
# 6 0.000000 0.000000 0.000000 0.000000 0.000000 0.020537
#
#
# Mechanical properties :
#
#
# Convention : Reuss Voigt Hill
#
# Bulk Modulus (GPa) = 51.38790 51.97078 51.67934
# Shear Modulus (GPa) = 23.65111 35.41725 29.53418
#
# Velocity S-wave (km/s) = 3.03113 3.70925 3.38720
# Velocity P-wave (km/s) = 5.67564 6.20755 5.94755
#
# Compressibility (1/GPa) = 0.01945983
#
# Stress axis : x y z
#
# Youngs Moduli (GPa) = 50.15291 75.30999 95.84046
#
# Poissons Ratio (x) = 0.70661 0.46598
# Poissons Ratio (y) = 0.47057 -0.20595
# Poissons Ratio (z) = 0.24385 -0.16183
#
# Static dielectric constant tensor:
#      x y z
#    x 2.159750 0.000000 0.000000 
#    y 0.000000 2.064710 0.000000 
#    z 0.000000 0.000000 1.989260 
# 
# From -- ./inp_files/1147.got.cif
#   From: 2010.05.17/outbox.cif.g08.bks.cpg/sg32_1_cif.got.tgz:1147.got - 2010.06.03 17:12:27.
