data_PCOD9344010
_publ_section_title
;
Structure prediction by ZEFSAII (Michael W. Deem and Ramdas Pophale) SiO2 
 PCOD9344010
Probable space group: P B A 2
;
_chemical_formula_sum "Si O2"
_cell_formula_units_Z 30
_cell_length_a 9.197676
_cell_length_b 14.116045
_cell_length_c 9.918125
_cell_angle_alpha 90.000000
_cell_angle_beta 90.000000
_cell_angle_gamma 90.000000
_cell_volume 1287.717858
_symmetry_space_group_name_H-M "P B A 2"
_symmetry_group_IT_number 32
_symmetry_cell_setting 'orthorhombic'
loop_
_space_group_symop_operation_xyz
x,y,z
-x,-y,z
1/2-x,1/2+y,z
1/2+x,1/2-y,z
loop_
_atom_site_type_symbol
_atom_site_label
_atom_site_fract_x
_atom_site_fract_y
_atom_site_fract_z
Si Si1 0.669954 0.315576 0.105370
Si Si2 0.275376 0.900750 0.420331
Si Si3 0.262795 0.612536 0.405521
Si Si4 0.662223 0.977711 0.994103
Si Si5 0.500000 0.000000 0.738356
Si Si6 0.479680 0.399511 0.614456
Si Si7 0.661129 0.633670 0.131362
Si Si8 0.983533 0.308372 0.568953
O O1 0.709312 0.349790 0.256771
O O2 0.499451 0.335657 0.087690
O O3 0.713533 0.207125 0.090355
O O4 0.781565 0.371694 0.009765
O O5 0.175857 0.875181 0.292679
O O6 0.405622 0.827895 0.445015
O O7 0.182246 0.899371 0.556575
O O8 0.319070 0.010742 0.398326
O O9 0.409940 0.591740 0.487405
O O10 0.171184 0.685609 0.495027
O O11 0.500000 0.000000 0.053908
O O12 0.637754 0.003347 0.838689
O O13 0.788327 0.036339 0.065746
O O14 0.493698 0.096634 0.656600
O O15 0.500000 0.500000 0.692955
O O16 0.505223 0.288769 0.652845
#
# Coordination Sequence:
#
# PCOD9344010 Si02
#       8
#     4   4   4   4   2   4   4   4
#     4  12  24  41  71 107 146 184 226 297 375 446
#     4  11  22  37  65 107 141 177 221 280 372 449
#     4  11  22  37  65 107 141 177 221 280 372 449
#     4  10  25  46  71  94 133 183 254 300 354 412
#     4  10  26  48  72  94 130 194 262 308 336 418
#     4  10  22  38  61 101 151 171 216 282 352 453
#     4  12  24  41  71 107 146 184 226 297 375 446
#     4  12  22  43  68  95 143 190 234 288 360 421
#
# _framework density 23.297028999999998
#
# number of rings (size 3 to 8) (size 9 to 14) (size 15 to 20)
#    0.400    0.533    4.000    3.600    3.733    0.000 
#    0.000    2.667    5.867    0.000    0.000    0.000 
#    0.000    0.000    0.000    0.000    0.000    0.000 
#
# Total GULP energy -167529.303668 kJ/mol
# GULP energy per Si atom -5584.310122 kJ/mol
# Density = 2.324400 g / cm^3
# Si number density = 23.297029 Si / 1000 Ang^3
#
#
#
# Elastic Constant Matrix: (Units=GPa)
#
#
# Indices 1 2 3 4 5 6 
#
# 1 95.3864 -3.7613 5.2561 0.0000 0.0000 0.0000
# 2 -3.7613 132.8320 -1.7368 0.0000 0.0000 0.0000
# 3 5.2561 -1.7368 40.9396 0.0000 0.0000 0.0000
# 4 0.0000 0.0000 0.0000 7.8962 0.0000 0.0000
# 5 0.0000 0.0000 0.0000 0.0000 13.1944 0.0000
# 6 0.0000 0.0000 0.0000 0.0000 0.0000 37.0390
#
#
#
# Elastic Compliance Matrix: (Units=1/GPa)
#
#
# Indices 1 2 3 4 5 6 
#
# 1 0.010569 0.000282 -0.001345 0.000000 0.000000 0.000000
# 2 0.000282 0.007540 0.000284 0.000000 0.000000 0.000000
# 3 -0.001345 0.000284 0.024611 0.000000 0.000000 0.000000
# 4 0.000000 0.000000 0.000000 0.126643 0.000000 0.000000
# 5 0.000000 0.000000 0.000000 0.000000 0.075790 0.000000
# 6 0.000000 0.000000 0.000000 0.000000 0.000000 0.026999
#
#
# Mechanical properties :
#
#
# Convention : Reuss Voigt Hill
#
# Bulk Modulus (GPa) = 24.29501 29.85268 27.07384
# Shear Modulus (GPa) = 17.39552 29.58592 23.49072
#
# Velocity S-wave (km/s) = 2.73552 3.56749 3.17884
# Velocity P-wave (km/s) = 4.51978 5.45995 5.01196
#
# Compressibility (1/GPa) = 0.04116071
#
# Stress axis : x y z
#
# Youngs Moduli (GPa) = 94.61732 132.62616 40.63231
#
# Poissons Ratio (x) = -0.03736 0.05465
# Poissons Ratio (y) = -0.02665 -0.01153
# Poissons Ratio (z) = 0.12726 -0.03763
#
# Static dielectric constant tensor:
#      x y z
#    x 1.874080 0.000000 0.000000 
#    y 0.000000 1.940420 0.000000 
#    z 0.000000 0.000000 1.850830 
# 
# From -- ./inp_files/3752.got.cif
#   From: 2010.05.17/outbox.cif.g08.bks.cpg/sg32_2_cif.got.tgz:3752.got - 2010.06.03 17:12:27.
