data_PCOD9344300
_publ_section_title
;
Structure prediction by ZEFSAII (Michael W. Deem and Ramdas Pophale) SiO2 
 PCOD9344300
Probable space group: P B A 2
;
_chemical_formula_sum "Si O2"
_cell_formula_units_Z 22
_cell_length_a 9.480316
_cell_length_b 16.001364
_cell_length_c 6.062487
_cell_angle_alpha 90.000000
_cell_angle_beta 90.000000
_cell_angle_gamma 90.000000
_cell_volume 919.667075
_symmetry_space_group_name_H-M "P B A 2"
_symmetry_group_IT_number 32
_symmetry_cell_setting 'orthorhombic'
loop_
_space_group_symop_operation_xyz
x,y,z
-x,-y,z
1/2-x,1/2+y,z
1/2+x,1/2-y,z
loop_
_atom_site_type_symbol
_atom_site_label
_atom_site_fract_x
_atom_site_fract_y
_atom_site_fract_z
Si Si1 0.462097 0.611998 0.518790
Si Si2 0.500000 0.500000 0.912414
Si Si3 0.741417 0.635853 0.322342
Si Si4 0.737646 0.961965 0.219981
Si Si5 0.141119 0.706944 0.019446
Si Si6 0.373828 0.768896 0.713423
O O1 0.520176 0.578119 0.748706
O O2 0.585378 0.596175 0.346799
O O3 0.318658 0.568531 0.442433
O O4 0.449185 0.710780 0.533408
O O5 0.640157 0.474841 0.038958
O O6 0.828260 0.554715 0.239570
O O7 0.704018 0.717100 0.172741
O O8 0.803728 0.660220 0.561864
O O9 0.650775 0.881037 0.144210
O O10 0.250423 0.712428 0.816497
O O11 0.986773 0.714540 0.907387
#
# Coordination Sequence:
#
# PCOD9344300 Si02
#       6
#     4   2   4   4   4   4
#     4  12  22  43  75 108 136 187 255 309 360 441
#     4  12  20  38  76 106 134 184 252 304 360 438
#     4  12  25  44  76 107 148 196 248 310 376 443
#     4  12  24  42  73 112 148 187 252 315 367 445
#     4  12  27  47  76 107 147 199 246 308 373 453
#     4  12  26  45  77 106 147 197 249 301 380 450
#
# _framework density 23.921700000000001
#
# number of rings (size 3 to 8) (size 9 to 14) (size 15 to 20)
#    0.000    0.000    9.091    2.182    0.000    0.000 
#    0.000    0.909    8.000    0.000    0.000    0.000 
#    0.000    0.000    0.000    0.000    0.000    0.000 
#
# Total GULP energy -122757.589056 kJ/mol
# GULP energy per Si atom -5579.890412 kJ/mol
# Density = 2.386725 g / cm^3
# Si number density = 23.921700 Si / 1000 Ang^3
#
#
#
# Elastic Constant Matrix: (Units=GPa)
#
#
# Indices 1 2 3 4 5 6 
#
# 1 91.6646 43.7810 24.2832 0.0000 0.0000 0.0000
# 2 43.7810 162.4204 48.1586 0.0000 0.0000 0.0000
# 3 24.2832 48.1586 74.5928 0.0000 0.0000 0.0000
# 4 0.0000 0.0000 0.0000 55.8570 0.0000 0.0000
# 5 0.0000 0.0000 0.0000 0.0000 40.0197 0.0000
# 6 0.0000 0.0000 0.0000 0.0000 0.0000 26.7227
#
#
#
# Elastic Compliance Matrix: (Units=1/GPa)
#
#
# Indices 1 2 3 4 5 6 
#
# 1 0.012862 -0.002752 -0.002410 0.000000 0.000000 0.000000
# 2 -0.002752 0.008204 -0.004400 0.000000 0.000000 0.000000
# 3 -0.002410 -0.004400 0.017032 0.000000 0.000000 0.000000
# 4 0.000000 0.000000 0.000000 0.017903 0.000000 0.000000
# 5 0.000000 0.000000 0.000000 0.000000 0.024988 0.000000
# 6 0.000000 0.000000 0.000000 0.000000 0.000000 0.037421
#
#
# Mechanical properties :
#
#
# Convention : Reuss Voigt Hill
#
# Bulk Modulus (GPa) = 52.71027 62.34705 57.52866
# Shear Modulus (GPa) = 34.75612 38.68355 36.71983
#
# Velocity S-wave (km/s) = 3.81584 4.02567 3.92216
# Velocity P-wave (km/s) = 6.44178 6.90851 6.67923
#
# Compressibility (1/GPa) = 0.01897163
#
# Stress axis : x y z
#
# Youngs Moduli (GPa) = 77.74546 121.89894 58.71403
#
# Poissons Ratio (x) = 0.33552 0.14152
# Poissons Ratio (y) = 0.21399 0.25836
# Poissons Ratio (z) = 0.18739 0.53639
#
# Static dielectric constant tensor:
#      x y z
#    x 1.934160 0.000000 0.000000 
#    y 0.000000 2.056190 0.000000 
#    z 0.000000 0.000000 1.911340 
# 
# From -- ./inp_files/826.got.cif
#   From: 2010.05.17/outbox.cif.g08.bks.cpg/sg32_1_cif.got.tgz:826.got - 2010.06.03 17:12:27.
