data_PCOD9344441
_publ_section_title
;
Structure prediction by ZEFSAII (Michael W. Deem and Ramdas Pophale) SiO2 
 PCOD9344441
Probable space group: P N A 21
;
_chemical_formula_sum "Si O2"
_cell_formula_units_Z 24
_cell_length_a 5.533632
_cell_length_b 18.135182
_cell_length_c 8.826962
_cell_angle_alpha 90.000000
_cell_angle_beta 90.000000
_cell_angle_gamma 90.000000
_cell_volume 885.815855
_symmetry_space_group_name_H-M "P N A 21"
_symmetry_group_IT_number 33
_symmetry_cell_setting 'orthorhombic'
loop_
_space_group_symop_operation_xyz
x,y,z
-x,-y,1/2+z
1/2-x,1/2+y,1/2+z
1/2+x,1/2-y,z
loop_
_atom_site_type_symbol
_atom_site_label
_atom_site_fract_x
_atom_site_fract_y
_atom_site_fract_z
Si Si1 0.662108 0.574855 0.469110
Si Si2 0.081616 0.791069 0.972644
Si Si3 0.798244 0.044014 0.513386
Si Si4 0.660444 0.216028 0.862722
Si Si5 0.960213 0.438210 0.234953
Si Si6 0.874748 0.810201 0.651015
O O1 0.514869 0.501306 0.433838
O O2 0.822743 0.627509 0.361177
O O3 0.817666 0.561208 0.618734
O O4 0.454026 0.631863 0.520785
O O5 0.829703 0.751212 0.009367
O O6 0.061132 0.798855 0.788701
O O7 0.108032 0.873368 0.037279
O O8 0.569945 0.045916 0.399259
O O9 0.717161 0.998973 0.661371
O O10 0.406765 0.246818 0.801754
O O11 0.667105 0.240062 0.041881
O O12 0.837535 0.357819 0.230788
#
# Coordination Sequence:
#
# PCOD9344441 Si02
#       6
#     4   4   4   4   4   4
#     4  10  21  36  61  95 141 181 226 288 363 425
#     4  12  25  41  69 107 146 188 243 313 372 432
#     4  11  27  42  71 105 144 199 241 306 369 449
#     4  10  18  32  57  95 134 169 220 287 359 404
#     4  11  23  45  69 103 150 193 242 298 373 440
#     4  10  20  36  63 105 137 178 232 312 366 410
#
# _framework density 27.093665000000001
#
# number of rings (size 3 to 8) (size 9 to 14) (size 15 to 20)
#    0.000    1.333    3.333    3.000    4.667    0.000 
#    0.000    0.000    0.000    6.000    0.000    0.000 
#    0.000    0.000    0.000    0.000    0.000    0.000 
#
# Total GULP energy -134412.010833 kJ/mol
# GULP energy per Si atom -5600.500451 kJ/mol
# Density = 2.703200 g / cm^3
# Si number density = 27.093665 Si / 1000 Ang^3
#
#
#
# Elastic Constant Matrix: (Units=GPa)
#
#
# Indices 1 2 3 4 5 6 
#
# 1 158.2873 62.6632 39.8079 0.0000 0.0000 0.0000
# 2 62.6632 211.6168 29.8943 0.0000 0.0000 0.0000
# 3 39.8079 29.8943 90.6729 0.0000 0.0000 0.0000
# 4 0.0000 0.0000 0.0000 31.8579 0.0000 0.0000
# 5 0.0000 0.0000 0.0000 0.0000 58.3319 0.0000
# 6 0.0000 0.0000 0.0000 0.0000 0.0000 34.3757
#
#
#
# Elastic Compliance Matrix: (Units=1/GPa)
#
#
# Indices 1 2 3 4 5 6 
#
# 1 0.007773 -0.001909 -0.002783 0.000000 0.000000 0.000000
# 2 -0.001909 0.005425 -0.000951 0.000000 0.000000 0.000000
# 3 -0.002783 -0.000951 0.012564 0.000000 0.000000 0.000000
# 4 0.000000 0.000000 0.000000 0.031389 0.000000 0.000000
# 5 0.000000 0.000000 0.000000 0.000000 0.017143 0.000000
# 6 0.000000 0.000000 0.000000 0.000000 0.000000 0.029090
#
#
# Mechanical properties :
#
#
# Convention : Reuss Voigt Hill
#
# Bulk Modulus (GPa) = 69.07523 80.58975 74.83249
# Shear Modulus (GPa) = 41.84233 46.79387 44.31810
#
# Velocity S-wave (km/s) = 3.93410 4.16037 4.04881
# Velocity P-wave (km/s) = 6.79606 7.27239 7.03826
#
# Compressibility (1/GPa) = 0.01447697
#
# Stress axis : x y z
#
# Youngs Moduli (GPa) = 128.64722 184.33253 79.59204
#
# Poissons Ratio (x) = 0.35181 0.22154
# Poissons Ratio (y) = 0.24553 0.07567
# Poissons Ratio (z) = 0.35808 0.17524
#
# Static dielectric constant tensor:
#      x y z
#    x 2.293550 0.000000 0.000000 
#    y 0.000000 2.175780 0.000000 
#    z 0.000000 0.000000 2.167320 
# 
# From -- ./inp_files/5463.got.cif
#   From: 2010.05.17/outbox.cif.g08.bks.cpg/sg33_3_cif.got.tgz:5463.got - 2010.06.03 17:15:25.
