data_PCOD9344533
_publ_section_title
;
Structure prediction by ZEFSAII (Michael W. Deem and Ramdas Pophale) SiO2 
 PCOD9344533
Probable space group: P N A 21
;
_chemical_formula_sum "Si O2"
_cell_formula_units_Z 32
_cell_length_a 14.468511
_cell_length_b 12.837215
_cell_length_c 5.748065
_cell_angle_alpha 90.000000
_cell_angle_beta 90.000000
_cell_angle_gamma 90.000000
_cell_volume 1067.619074
_symmetry_space_group_name_H-M "P N A 21"
_symmetry_group_IT_number 33
_symmetry_cell_setting 'orthorhombic'
loop_
_space_group_symop_operation_xyz
x,y,z
-x,-y,1/2+z
1/2-x,1/2+y,1/2+z
1/2+x,1/2-y,z
loop_
_atom_site_type_symbol
_atom_site_label
_atom_site_fract_x
_atom_site_fract_y
_atom_site_fract_z
Si Si1 0.884074 0.475863 0.627530
Si Si2 0.615926 0.475863 0.354901
Si Si3 0.647140 0.245034 0.898066
Si Si4 0.103144 0.761397 0.087429
Si Si5 0.105946 0.009445 0.855429
Si Si6 0.896855 0.738603 0.895002
Si Si7 0.647139 0.745033 0.584365
Si Si8 0.394054 0.009445 0.127002
O O1 0.856058 0.354400 0.625806
O O2 0.852388 0.517756 0.378425
O O3 0.997138 0.477845 0.629537
O O4 0.854279 0.521723 0.874987
O O5 0.502862 0.477845 0.352894
O O6 0.647612 0.517756 0.604005
O O7 0.643942 0.354400 0.356624
O O8 0.645721 0.521723 0.107444
O O9 0.594899 0.198611 0.126962
O O10 0.750000 0.245678 0.991216
O O11 0.612136 0.364074 0.864056
O O12 0.647738 0.197981 0.636666
O O13 0.094898 0.801389 0.355468
O O14 0.147736 0.802020 0.845765
O O15 0.999999 0.749999 0.991216
O O16 0.612136 0.864074 0.618375
#
# Coordination Sequence:
#
# PCOD9344533 Si02
#       8
#     4   4   4   4   4   4   4   4
#     4   8  14  25  42  64  87 110 144 186 221 261
#     4   8  14  25  42  64  87 110 144 186 221 261
#     4  10  19  31  48  69  94 122 156 202 246 280
#     4  10  19  31  48  71  95 126 165 194 227 283
#     4   8  14  25  42  64  86 110 141 182 229 268
#     4  10  19  31  48  71  95 126 165 194 227 283
#     4  10  19  31  48  69  94 122 156 202 246 280
#     4   8  14  25  42  64  86 110 141 182 229 268
#
# _framework density 29.973234999999999
#
# number of rings (size 3 to 8) (size 9 to 14) (size 15 to 20)
#    0.000    3.000    0.000    1.500    0.000    0.000 
#    0.000    0.000    0.000    3.000    0.000    0.000 
#    0.000    0.000    0.000    0.000    0.000    0.000 
#
# Total GULP energy -179044.103796 kJ/mol
# GULP energy per Si atom -5595.128244 kJ/mol
# Density = 2.990501 g / cm^3
# Si number density = 29.973235 Si / 1000 Ang^3
#
#
#
# Elastic Constant Matrix: (Units=GPa)
#
#
# Indices 1 2 3 4 5 6 
#
# 1 105.2796 -9.4950 35.4748 0.0000 0.0000 0.0000
# 2 -9.4950 91.9801 102.8358 0.0000 0.0000 0.0000
# 3 35.4748 102.8358 467.7329 0.0000 0.0000 0.0000
# 4 0.0000 0.0000 0.0000 95.8233 0.0000 0.0000
# 5 0.0000 0.0000 0.0000 0.0000 54.9750 0.0000
# 6 0.0000 0.0000 0.0000 0.0000 0.0000 7.6350
#
#
#
# Elastic Compliance Matrix: (Units=1/GPa)
#
#
# Indices 1 2 3 4 5 6 
#
# 1 0.010175 0.002537 -0.001329 0.000000 0.000000 0.000000
# 2 0.002537 0.015048 -0.003501 0.000000 0.000000 0.000000
# 3 -0.001329 -0.003501 0.003008 0.000000 0.000000 0.000000
# 4 0.000000 0.000000 0.000000 0.010436 0.000000 0.000000
# 5 0.000000 0.000000 0.000000 0.000000 0.018190 0.000000
# 6 0.000000 0.000000 0.000000 0.000000 0.000000 0.130977
#
#
# Mechanical properties :
#
#
# Convention : Reuss Voigt Hill
#
# Bulk Modulus (GPa) = 42.29310 102.51374 72.40342
# Shear Modulus (GPa) = 24.96223 67.43178 46.19701
#
# Velocity S-wave (km/s) = 2.88899 4.74828 3.93017
# Velocity P-wave (km/s) = 5.02685 8.02107 6.69354
#
# Compressibility (1/GPa) = 0.02364452
#
# Stress axis : x y z
#
# Youngs Moduli (GPa) = 98.27740 66.45503 332.39244
#
# Poissons Ratio (x) = -0.16858 0.44190
# Poissons Ratio (y) = -0.24931 1.16364
# Poissons Ratio (z) = 0.13066 0.23265
#
# Static dielectric constant tensor:
#      x y z
#    x 2.179170 0.000000 0.000000 
#    y 0.000000 2.643800 0.000000 
#    z 0.000000 0.000000 2.560740 
# 
# From -- ./inp_files/1150.got.cif
#   From: 2010.05.17/outbox.cif.g08.bks.cpg/sg33_1_cif.got.tgz:1150.got - 2010.06.03 17:15:25.
