data_PCOD9344213
_publ_section_title
;
Structure prediction by ZEFSAII (Michael W. Deem and Ramdas Pophale) SiO2 
 PCOD9344213
Probable space group: P B A 2
;
_chemical_formula_sum "Si O2"
_cell_formula_units_Z 26
_cell_length_a 9.041868
_cell_length_b 8.932918
_cell_length_c 11.517957
_cell_angle_alpha 90.000000
_cell_angle_beta 90.000000
_cell_angle_gamma 90.000000
_cell_volume 930.308444
_symmetry_space_group_name_H-M "P B A 2"
_symmetry_group_IT_number 32
_symmetry_cell_setting 'orthorhombic'
loop_
_space_group_symop_operation_xyz
x,y,z
-x,-y,z
1/2-x,1/2+y,z
1/2+x,1/2-y,z
loop_
_atom_site_type_symbol
_atom_site_label
_atom_site_fract_x
_atom_site_fract_y
_atom_site_fract_z
Si Si1 0.132378 0.337800 0.407530
Si Si2 0.747476 0.903961 0.569294
Si Si3 0.132589 0.854796 0.722891
Si Si4 0.805356 0.472877 0.030583
Si Si5 0.610384 0.765570 0.248717
Si Si6 0.124631 0.258172 0.883109
Si Si7 0.000000 0.000000 0.136416
O O1 0.153386 0.182205 0.475761
O O2 0.171444 0.459328 0.503882
O O3 0.255463 0.330297 0.304046
O O4 0.029580 0.652137 0.353622
O O5 0.854976 0.983541 0.662225
O O6 0.638876 0.784376 0.631815
O O7 0.983169 0.178727 0.826638
O O8 0.294834 0.845678 0.781272
O O9 0.854662 0.380343 0.144850
O O10 0.645429 0.540977 0.066083
O O11 0.899956 0.614200 0.982323
O O12 0.745380 0.357744 0.933592
O O13 0.483487 0.648240 0.210324
#
# Coordination Sequence:
#
# PCOD9344213 Si02
#       7
#     4   4   4   4   4   4   2
#     4  11  26  48  79 119 161 219 267 333 416 495
#     4  10  26  51  80 120 165 208 279 345 410 487
#     4  11  27  51  81 117 159 209 272 345 408 487
#     4  12  27  51  81 119 165 212 276 335 403 505
#     4  12  26  49  80 118 167 216 270 330 411 497
#     4  12  28  51  80 119 153 215 268 335 419 483
#     4  12  24  54  74 116 170 218 262 338 402 474
#
# _framework density 27.94772
#
# number of rings (size 3 to 8) (size 9 to 14) (size 15 to 20)
#    0.000    0.615    3.077    2.769    0.000   12.308 
#    5.538    1.538    0.000    0.000    0.000    0.000 
#    0.000    0.000    0.000    0.000    0.000    0.000 
#
# Total GULP energy -145785.439042 kJ/mol
# GULP energy per Si atom -5607.132271 kJ/mol
# Density = 2.788411 g / cm^3
# Si number density = 27.947720 Si / 1000 Ang^3
#
#
#
# Elastic Constant Matrix: (Units=GPa)
#
#
# Indices 1 2 3 4 5 6 
#
# 1 86.1670 13.0405 40.2858 0.0000 0.0000 0.0000
# 2 13.0405 143.5146 50.6715 0.0000 0.0000 0.0000
# 3 40.2858 50.6715 132.5031 0.0000 0.0000 0.0000
# 4 0.0000 0.0000 0.0000 77.3913 0.0000 0.0000
# 5 0.0000 0.0000 0.0000 0.0000 57.1037 0.0000
# 6 0.0000 0.0000 0.0000 0.0000 0.0000 41.4740
#
#
#
# Elastic Compliance Matrix: (Units=1/GPa)
#
#
# Indices 1 2 3 4 5 6 
#
# 1 0.013537 0.000258 -0.004214 0.000000 0.000000 0.000000
# 2 0.000258 0.008061 -0.003161 0.000000 0.000000 0.000000
# 3 -0.004214 -0.003161 0.010037 0.000000 0.000000 0.000000
# 4 0.000000 0.000000 0.000000 0.012921 0.000000 0.000000
# 5 0.000000 0.000000 0.000000 0.000000 0.017512 0.000000
# 6 0.000000 0.000000 0.000000 0.000000 0.000000 0.024112
#
#
# Mechanical properties :
#
#
# Convention : Reuss Voigt Hill
#
# Bulk Modulus (GPa) = 57.47203 63.35335 60.41269
# Shear Modulus (GPa) = 47.07499 52.40627 49.74063
#
# Velocity S-wave (km/s) = 4.10859 4.33500 4.22331
# Velocity P-wave (km/s) = 6.56629 6.91188 6.74130
#
# Compressibility (1/GPa) = 0.01739977
#
# Stress axis : x y z
#
# Youngs Moduli (GPa) = 73.87355 124.06129 99.63062
#
# Poissons Ratio (x) = -0.03200 0.41987
# Poissons Ratio (y) = -0.01906 0.31492
# Poissons Ratio (z) = 0.31132 0.39215
#
# Static dielectric constant tensor:
#      x y z
#    x 2.373290 0.000000 0.000000 
#    y 0.000000 2.318510 0.000000 
#    z 0.000000 0.000000 2.221570 
# 
# From -- ./inp_files/3721.got.cif
#   From: 2010.05.17/outbox.cif.g08.bks.cpg/sg32_2_cif.got.tgz:3721.got - 2010.06.03 17:12:27.
