data_PCOD9344427
_publ_section_title
;
Structure prediction by ZEFSAII (Michael W. Deem and Ramdas Pophale) SiO2 
 PCOD9344427
Probable space group: P N A 21
;
_chemical_formula_sum "Si O2"
_cell_formula_units_Z 32
_cell_length_a 9.097726
_cell_length_b 11.188013
_cell_length_c 15.368577
_cell_angle_alpha 90.000000
_cell_angle_beta 90.000000
_cell_angle_gamma 90.000000
_cell_volume 1564.297937
_symmetry_space_group_name_H-M "P N A 21"
_symmetry_group_IT_number 33
_symmetry_cell_setting 'orthorhombic'
loop_
_space_group_symop_operation_xyz
x,y,z
-x,-y,1/2+z
1/2-x,1/2+y,1/2+z
1/2+x,1/2-y,z
loop_
_atom_site_type_symbol
_atom_site_label
_atom_site_fract_x
_atom_site_fract_y
_atom_site_fract_z
Si Si1 0.521766 0.304186 0.293590
Si Si2 0.184215 0.930067 0.677951
Si Si3 0.666031 0.154612 0.543748
Si Si4 0.823947 0.911162 0.951302
Si Si5 0.985518 0.446818 0.389732
Si Si6 0.486570 0.981268 0.198359
Si Si7 0.251421 0.182633 0.138895
Si Si8 0.940295 0.006741 0.563220
O O1 0.372286 0.373320 0.268823
O O2 0.627827 0.377583 0.355250
O O3 0.482819 0.183751 0.343813
O O4 0.622860 0.287432 0.208856
O O5 0.342556 0.990127 0.678177
O O6 0.187495 0.812233 0.616434
O O7 0.049020 0.009980 0.646035
O O8 0.662773 0.291166 0.510421
O O9 0.611096 0.070348 0.463028
O O10 0.574879 0.119787 0.631364
O O11 0.834933 0.120407 0.560010
O O12 0.661568 0.961906 0.946191
O O13 0.947940 0.998812 0.984861
O O14 0.986114 0.532656 0.304423
O O15 0.378184 0.094488 0.176059
O O16 0.167317 0.105788 0.067916
#
# Coordination Sequence:
#
# PCOD9344427 Si02
#       8
#     4   4   4   4   4   4   4   4
#     4  10  18  31  56  89 119 143 187 265 314 363
#     4  11  19  33  56  88 120 154 195 249 321 376
#     4  10  23  37  52  89 131 160 207 264 309 381
#     4  11  21  37  57  88 123 161 208 259 311 370
#     4  11  20  33  60  87 122 157 204 263 322 366
#     4  11  20  33  56  89 122 162 199 254 327 375
#     4  10  18  35  54  88 117 147 196 258 314 363
#     4  10  23  35  55  88 118 166 196 252 316 376
#
# _framework density 20.45646
#
# number of rings (size 3 to 8) (size 9 to 14) (size 15 to 20)
#    0.000    1.500    3.750    3.000    3.500    0.000 
#    0.000    0.000    0.000    0.000   26.000    0.000 
#    0.000    0.000    0.000    0.000    0.000    0.000 
#
# Total GULP energy -178307.611679 kJ/mol
# GULP energy per Si atom -5572.112865 kJ/mol
# Density = 2.040990 g / cm^3
# Si number density = 20.456460 Si / 1000 Ang^3
#
#
#
# Elastic Constant Matrix: (Units=GPa)
#
#
# Indices 1 2 3 4 5 6 
#
# 1 139.5077 22.4950 26.8175 0.0000 0.0000 0.0000
# 2 22.4950 25.2420 23.5347 0.0000 0.0000 0.0000
# 3 26.8175 23.5347 78.9411 0.0000 0.0000 0.0000
# 4 0.0000 0.0000 0.0000 25.6021 0.0000 0.0000
# 5 0.0000 0.0000 0.0000 0.0000 41.0461 0.0000
# 6 0.0000 0.0000 0.0000 0.0000 0.0000 21.8038
#
#
#
# Elastic Compliance Matrix: (Units=1/GPa)
#
#
# Indices 1 2 3 4 5 6 
#
# 1 0.008413 -0.006693 -0.000863 0.000000 0.000000 0.000000
# 2 -0.006693 0.060193 -0.015672 0.000000 0.000000 0.000000
# 3 -0.000863 -0.015672 0.017633 0.000000 0.000000 0.000000
# 4 0.000000 0.000000 0.000000 0.039059 0.000000 0.000000
# 5 0.000000 0.000000 0.000000 0.000000 0.024363 0.000000
# 6 0.000000 0.000000 0.000000 0.000000 0.000000 0.045864
#
#
# Mechanical properties :
#
#
# Convention : Reuss Voigt Hill
#
# Bulk Modulus (GPa) = 25.13562 43.26503 34.20033
# Shear Modulus (GPa) = 19.58930 29.07997 24.33464
#
# Velocity S-wave (km/s) = 3.09788 3.77444 3.45277
# Velocity P-wave (km/s) = 5.01098 6.33963 5.71405
#
# Compressibility (1/GPa) = 0.03978418
#
# Stress axis : x y z
#
# Youngs Moduli (GPa) = 118.86156 16.61317 56.71227
#
# Poissons Ratio (x) = 0.11120 0.04892
# Poissons Ratio (y) = 0.79558 0.88877
# Poissons Ratio (z) = 0.10253 0.26035
#
# Static dielectric constant tensor:
#      x y z
#    x 1.764120 0.000000 0.000000 
#    y 0.000000 1.779760 0.000000 
#    z 0.000000 0.000000 1.813010 
# 
# From -- ./inp_files/7629.got.cif
#   From: 2010.05.17/outbox.cif.g08.bks.cpg/sg33_4_cif.got.tgz:7629.got - 2010.06.03 17:15:25.
