data_PCOD9344744
_publ_section_title
;
Structure prediction by ZEFSAII (Michael W. Deem and Ramdas Pophale) SiO2 
 PCOD9344744
Probable space group: P N A 21
;
_chemical_formula_sum "Si O2"
_cell_formula_units_Z 32
_cell_length_a 11.806539
_cell_length_b 16.756356
_cell_length_c 8.286551
_cell_angle_alpha 90.000000
_cell_angle_beta 90.000000
_cell_angle_gamma 90.000000
_cell_volume 1639.366259
_symmetry_space_group_name_H-M "P N A 21"
_symmetry_group_IT_number 33
_symmetry_cell_setting 'orthorhombic'
loop_
_space_group_symop_operation_xyz
x,y,z
-x,-y,1/2+z
1/2-x,1/2+y,1/2+z
1/2+x,1/2-y,z
loop_
_atom_site_type_symbol
_atom_site_label
_atom_site_fract_x
_atom_site_fract_y
_atom_site_fract_z
Si Si1 0.442612 0.246240 0.886280
Si Si2 0.019514 0.449663 0.189237
Si Si3 0.262862 0.963754 0.889617
Si Si4 0.338104 0.381057 0.685533
Si Si5 0.948089 0.876426 0.620464
Si Si6 0.965608 0.993551 0.316060
Si Si7 0.906622 0.599723 0.331554
Si Si8 0.307922 0.123351 0.092196
O O1 0.385231 0.296194 0.743243
O O2 0.543702 0.189169 0.825431
O O3 0.487665 0.304840 0.029114
O O4 0.350572 0.188506 0.966355
O O5 0.975842 0.539946 0.215198
O O6 0.910188 0.392930 0.216272
O O7 0.124963 0.433622 0.304673
O O8 0.064256 0.432723 0.009622
O O9 0.166994 0.998597 0.768379
O O10 0.204124 0.898146 0.004386
O O11 0.296411 0.038512 0.001495
O O12 0.442843 0.439151 0.725458
O O13 0.226311 0.401244 0.791875
O O14 0.959067 0.948517 0.488227
O O15 0.817091 0.855600 0.648907
O O16 0.992626 0.916057 0.785212
#
# Coordination Sequence:
#
# PCOD9344744 Si02
#       8
#     4   4   4   4   4   4   4   4
#     4  10  22  35  62  91 122 161 206 252 327 369
#     4  11  20  35  64  90 120 164 211 256 302 371
#     4  11  21  37  64  89 127 159 218 259 300 369
#     4  11  21  40  64  89 121 166 211 263 304 379
#     4  10  20  37  61  87 120 158 208 257 307 372
#     4  10  20  36  60  90 113 161 207 251 303 362
#     4  11  21  38  63  92 120 162 213 252 318 374
#     4  10  19  40  60  88 123 157 206 260 303 372
#
# _framework density 19.519739000000001
#
# number of rings (size 3 to 8) (size 9 to 14) (size 15 to 20)
#    0.000    1.500    6.250    0.750    3.500    0.000 
#    0.000    0.000   11.000    0.000    0.000    0.000 
#    0.000    0.000    0.000    0.000    0.000    0.000 
#
# Total GULP energy -178191.878292 kJ/mol
# GULP energy per Si atom -5568.496197 kJ/mol
# Density = 1.947531 g / cm^3
# Si number density = 19.519739 Si / 1000 Ang^3
#
#
#
# Elastic Constant Matrix: (Units=GPa)
#
#
# Indices 1 2 3 4 5 6 
#
# 1 125.8270 25.7161 38.6854 0.0000 0.0000 0.0000
# 2 25.7161 92.1460 33.2829 0.0000 0.0000 0.0000
# 3 38.6854 33.2829 38.3792 0.0000 0.0000 0.0000
# 4 0.0000 0.0000 0.0000 36.2525 0.0000 0.0000
# 5 0.0000 0.0000 0.0000 0.0000 36.1141 0.0000
# 6 0.0000 0.0000 0.0000 0.0000 0.0000 17.7758
#
#
#
# Elastic Compliance Matrix: (Units=1/GPa)
#
#
# Indices 1 2 3 4 5 6 
#
# 1 0.011646 0.001441 -0.012989 0.000000 0.000000 0.000000
# 2 0.001441 0.015981 -0.015311 0.000000 0.000000 0.000000
# 3 -0.012989 -0.015311 0.052427 0.000000 0.000000 0.000000
# 4 0.000000 0.000000 0.000000 0.027584 0.000000 0.000000
# 5 0.000000 0.000000 0.000000 0.000000 0.027690 0.000000
# 6 0.000000 0.000000 0.000000 0.000000 0.000000 0.056256
#
#
# Mechanical properties :
#
#
# Convention : Reuss Voigt Hill
#
# Bulk Modulus (GPa) = 37.97191 50.19122 44.08156
# Shear Modulus (GPa) = 19.67872 28.60635 24.14253
#
# Velocity S-wave (km/s) = 3.17857 3.83235 3.52067
# Velocity P-wave (km/s) = 5.74164 6.73435 6.25771
#
# Compressibility (1/GPa) = 0.02633525
#
# Stress axis : x y z
#
# Youngs Moduli (GPa) = 85.86359 62.57613 19.07411
#
# Poissons Ratio (x) = -0.09020 0.24776
# Poissons Ratio (y) = -0.12377 0.29205
# Poissons Ratio (z) = 1.11531 0.95813
#
# Static dielectric constant tensor:
#      x y z
#    x 1.731850 0.000000 0.000000 
#    y 0.000000 1.691790 0.000000 
#    z 0.000000 0.000000 1.728710 
# 
# From -- ./inp_files/4092.got.cif
#   From: 2010.05.17/outbox.cif.g08.bks.cpg/sg33_3_cif.got.tgz:4092.got - 2010.06.03 17:15:25.
