data_PCOD9344301
_publ_section_title
;
Structure prediction by ZEFSAII (Michael W. Deem and Ramdas Pophale) SiO2 
 PCOD9344301
Probable space group: P B A 2
;
_chemical_formula_sum "Si O2"
_cell_formula_units_Z 20
_cell_length_a 10.178567
_cell_length_b 15.050291
_cell_length_c 5.350613
_cell_angle_alpha 90.000000
_cell_angle_beta 90.000000
_cell_angle_gamma 90.000000
_cell_volume 819.662521
_symmetry_space_group_name_H-M "P B A 2"
_symmetry_group_IT_number 32
_symmetry_cell_setting 'orthorhombic'
loop_
_space_group_symop_operation_xyz
x,y,z
-x,-y,z
1/2-x,1/2+y,z
1/2+x,1/2-y,z
loop_
_atom_site_type_symbol
_atom_site_label
_atom_site_fract_x
_atom_site_fract_y
_atom_site_fract_z
Si Si1 0.357678 0.614841 0.815520
Si Si2 0.764510 0.049890 0.103133
Si Si3 0.441884 0.285379 0.088102
Si Si4 0.395459 0.179941 0.598112
Si Si5 0.500000 0.000000 0.374543
Si Si6 0.000000 0.000000 0.468075
O O1 0.259182 0.674728 0.660378
O O2 0.477162 0.584328 0.643653
O O3 0.284356 0.523508 0.888240
O O4 0.423326 0.658627 0.058545
O O5 0.817673 0.148330 0.043554
O O6 0.619200 0.039187 0.209195
O O7 0.871133 0.017998 0.308356
O O8 0.424465 0.237856 0.352480
O O9 0.452272 0.217607 0.856621
O O10 0.446872 0.081761 0.536669
#
# Coordination Sequence:
#
# PCOD9344301 Si02
#       6
#     4   4   4   4   2   2
#     4  12  26  50  82 117 161 217 281 336 418 506
#     4  12  26  50  84 116 165 215 275 339 422 499
#     4  12  28  50  82 122 157 218 276 351 405 495
#     4  12  31  49  79 118 170 211 277 344 416 497
#     4  12  30  54  78 118 176 222 266 346 438 496
#     4  12  20  50  82 110 150 216 266 332 390 518
#
# _framework density 24.400288
#
# number of rings (size 3 to 8) (size 9 to 14) (size 15 to 20)
#    0.000    0.000    6.000    2.400    5.600    3.200 
#    0.000    0.000    0.000    0.000    0.000    0.000 
#    0.000    0.000    0.000    0.000    0.000    0.000 
#
# Total GULP energy -112064.531997 kJ/mol
# GULP energy per Si atom -5603.226600 kJ/mol
# Density = 2.434475 g / cm^3
# Si number density = 24.400288 Si / 1000 Ang^3
#
#
#
# Elastic Constant Matrix: (Units=GPa)
#
#
# Indices 1 2 3 4 5 6 
#
# 1 134.4430 39.1658 45.1313 0.0000 0.0000 0.0000
# 2 39.1658 128.5491 62.4068 0.0000 0.0000 0.0000
# 3 45.1313 62.4068 147.9580 0.0000 0.0000 0.0000
# 4 0.0000 0.0000 0.0000 45.6705 0.0000 0.0000
# 5 0.0000 0.0000 0.0000 0.0000 55.3553 0.0000
# 6 0.0000 0.0000 0.0000 0.0000 0.0000 34.5751
#
#
#
# Elastic Compliance Matrix: (Units=1/GPa)
#
#
# Indices 1 2 3 4 5 6 
#
# 1 0.008568 -0.001687 -0.001902 0.000000 0.000000 0.000000
# 2 -0.001687 0.010114 -0.003751 0.000000 0.000000 0.000000
# 3 -0.001902 -0.003751 0.008921 0.000000 0.000000 0.000000
# 4 0.000000 0.000000 0.000000 0.021896 0.000000 0.000000
# 5 0.000000 0.000000 0.000000 0.000000 0.018065 0.000000
# 6 0.000000 0.000000 0.000000 0.000000 0.000000 0.028923
#
#
# Mechanical properties :
#
#
# Convention : Reuss Voigt Hill
#
# Bulk Modulus (GPa) = 77.38433 78.26201 77.82317
# Shear Modulus (GPa) = 43.29913 44.73659 44.01786
#
# Velocity S-wave (km/s) = 4.21709 4.28652 4.25195
# Velocity P-wave (km/s) = 7.44951 7.52614 7.48792
#
# Compressibility (1/GPa) = 0.01292251
#
# Stress axis : x y z
#
# Youngs Moduli (GPa) = 116.71275 98.86883 112.09343
#
# Poissons Ratio (x) = 0.16681 0.21319
# Poissons Ratio (y) = 0.19691 0.42052
# Poissons Ratio (z) = 0.22197 0.37091
#
# Static dielectric constant tensor:
#      x y z
#    x 1.933130 0.000000 0.000000 
#    y 0.000000 2.035470 0.000000 
#    z 0.000000 0.000000 1.933080 
# 
# From -- ./inp_files/452.got.cif
#   From: 2010.05.17/outbox.cif.g08.bks.cpg/sg32_1_cif.got.tgz:452.got - 2010.06.03 17:12:27.
