data_PCOD9344848
_publ_section_title
;
Structure prediction by ZEFSAII (Michael W. Deem and Ramdas Pophale) SiO2 
 PCOD9344848
Probable space group: P N A 21
;
_chemical_formula_sum "Si O2"
_cell_formula_units_Z 20
_cell_length_a 11.613859
_cell_length_b 15.465789
_cell_length_c 4.992793
_cell_angle_alpha 90.000000
_cell_angle_beta 90.000000
_cell_angle_gamma 90.000000
_cell_volume 896.792961
_symmetry_space_group_name_H-M "P N A 21"
_symmetry_group_IT_number 33
_symmetry_cell_setting 'orthorhombic'
loop_
_space_group_symop_operation_xyz
x,y,z
-x,-y,1/2+z
1/2-x,1/2+y,1/2+z
1/2+x,1/2-y,z
loop_
_atom_site_type_symbol
_atom_site_label
_atom_site_fract_x
_atom_site_fract_y
_atom_site_fract_z
Si Si1 0.004185 0.616178 0.060290
Si Si2 0.153883 0.051209 0.693166
Si Si3 0.078181 0.901279 0.405851
Si Si4 0.006836 0.188044 0.425930
Si Si5 0.131416 0.556575 0.559138
O O1 0.971292 0.711996 0.977008
O O2 0.045506 0.610382 0.366114
O O3 0.907074 0.543201 0.027276
O O4 0.108143 0.586205 0.861791
O O5 0.119909 0.132874 0.509301
O O6 0.174944 0.965593 0.515985
O O7 0.246329 0.068236 0.920471
O O8 0.032441 0.037105 0.847685
O O9 0.090745 0.847748 0.133648
O O10 0.036893 0.835039 0.632782
#
# Coordination Sequence:
#
# PCOD9344848 Si02
#       5
#     4   4   4   4   4
#     4  10  22  43  58  88 122 166 202 260 293 375
#     4  10  21  38  62  93 121 163 200 251 315 369
#     4  10  20  35  61  87 125 155 190 270 300 363
#     4  10  20  37  61  84 127 154 204 258 307 347
#     4  10  23  39  66  82 125 166 206 241 319 372
#
# _framework density 22.301694000000001
#
# number of rings (size 3 to 8) (size 9 to 14) (size 15 to 20)
#    1.200    0.800    2.000    1.200    2.800    0.000 
#    3.600    2.000    0.000    0.000    0.000    0.000 
#    0.000    0.000    0.000    0.000    0.000    0.000 
#
# Total GULP energy -111614.137161 kJ/mol
# GULP energy per Si atom -5580.706858 kJ/mol
# Density = 2.225093 g / cm^3
# Si number density = 22.301694 Si / 1000 Ang^3
#
#
#
# Elastic Constant Matrix: (Units=GPa)
#
#
# Indices 1 2 3 4 5 6 
#
# 1 30.7305 -3.2017 -7.8092 0.0000 0.0000 0.0000
# 2 -3.2017 120.2181 8.7347 0.0000 0.0000 0.0000
# 3 -7.8092 8.7347 93.8802 0.0000 0.0000 0.0000
# 4 0.0000 0.0000 0.0000 30.3133 0.0000 0.0000
# 5 0.0000 0.0000 0.0000 0.0000 21.7621 0.0000
# 6 0.0000 0.0000 0.0000 0.0000 0.0000 8.3298
#
#
#
# Elastic Compliance Matrix: (Units=1/GPa)
#
#
# Indices 1 2 3 4 5 6 
#
# 1 0.033301 0.000690 0.002706 0.000000 0.000000 0.000000
# 2 0.000690 0.008389 -0.000723 0.000000 0.000000 0.000000
# 3 0.002706 -0.000723 0.010944 0.000000 0.000000 0.000000
# 4 0.000000 0.000000 0.000000 0.032989 0.000000 0.000000
# 5 0.000000 0.000000 0.000000 0.000000 0.045951 0.000000
# 6 0.000000 0.000000 0.000000 0.000000 0.000000 0.120051
#
#
# Mechanical properties :
#
#
# Convention : Reuss Voigt Hill
#
# Bulk Modulus (GPa) = 17.24739 26.69738 21.97238
# Shear Modulus (GPa) = 18.82489 28.55470 23.68979
#
# Velocity S-wave (km/s) = 2.90849 3.58212 3.26274
# Velocity P-wave (km/s) = 4.36229 5.39498 4.90588
#
# Compressibility (1/GPa) = 0.05797978
#
# Stress axis : x y z
#
# Youngs Moduli (GPa) = 30.02957 119.20176 91.37235
#
# Poissons Ratio (x) = -0.08228 -0.24723
# Poissons Ratio (y) = -0.02073 0.06607
# Poissons Ratio (z) = -0.08125 0.08620
#
# Static dielectric constant tensor:
#      x y z
#    x 1.879080 0.000000 0.000000 
#    y 0.000000 1.806700 0.000000 
#    z 0.000000 0.000000 1.852730 
# 
# From -- ./inp_files/737.got.cif
#   From: 2010.05.17/outbox.cif.g08.bks.cpg/sg33_1_cif.got.tgz:737.got - 2010.06.03 17:15:25.
