data_PCOD9344051
_publ_section_title
;
Structure prediction by ZEFSAII (Michael W. Deem and Ramdas Pophale) SiO2 
 PCOD9344051
Probable space group: P B A 2
;
_chemical_formula_sum "Si O2"
_cell_formula_units_Z 32
_cell_length_a 10.574698
_cell_length_b 14.901748
_cell_length_c 8.732716
_cell_angle_alpha 90.000000
_cell_angle_beta 90.000000
_cell_angle_gamma 90.000000
_cell_volume 1376.114353
_symmetry_space_group_name_H-M "P B A 2"
_symmetry_group_IT_number 32
_symmetry_cell_setting 'orthorhombic'
loop_
_space_group_symop_operation_xyz
x,y,z
-x,-y,z
1/2-x,1/2+y,z
1/2+x,1/2-y,z
loop_
_atom_site_type_symbol
_atom_site_label
_atom_site_fract_x
_atom_site_fract_y
_atom_site_fract_z
Si Si1 0.039604 0.249145 0.724530
Si Si2 0.285345 0.234840 0.562035
Si Si3 0.137179 0.545635 0.439748
Si Si4 0.642152 0.211515 0.259019
Si Si5 0.438576 0.231512 0.048480
Si Si6 0.624764 0.056731 0.726858
Si Si7 0.739697 0.400185 0.128531
Si Si8 0.282807 0.413550 0.031795
O O1 0.902413 0.219437 0.656329
O O2 0.167911 0.201676 0.668550
O O3 0.069972 0.349490 0.670310
O O4 0.034277 0.261158 0.907249
O O5 0.351103 0.147403 0.494472
O O6 0.216029 0.285942 0.419880
O O7 0.193281 0.489844 0.583272
O O8 0.203685 0.551253 0.277497
O O9 0.000000 0.500000 0.421076
O O10 0.492909 0.213620 0.219236
O O11 0.673533 0.309484 0.186067
O O12 0.686306 0.126114 0.160055
O O13 0.346965 0.145721 0.020881
O O14 0.377236 0.329698 0.038357
O O15 0.500000 0.000000 0.770425
O O16 0.712355 0.076570 0.870441
O O17 0.667028 0.484964 0.057465
#
# Coordination Sequence:
#
# PCOD9344051 Si02
#       8
#     4   4   4   4   4   4   4   4
#     4  12  24  43  71 106 146 189 240 311 373 444
#     4  11  26  43  70 108 146 192 237 313 376 449
#     4  10  22  41  67 104 137 182 248 304 354 447
#     4  10  25  43  67 103 144 189 244 304 377 455
#     4  11  25  46  69 103 147 195 251 309 381 456
#     4  11  21  39  69 106 138 180 255 303 360 448
#     4  10  25  42  68 104 142 184 248 306 363 446
#     4  11  24  41  69 102 137 191 244 308 372 440
#
# _framework density 23.253881
#
# number of rings (size 3 to 8) (size 9 to 14) (size 15 to 20)
#    0.000    1.250    3.750    1.500   10.500    0.500 
#    0.000    0.000    0.000    2.250    0.000    0.000 
#    0.000    0.000    0.000    0.000    0.000    0.000 
#
# Total GULP energy -178170.867945 kJ/mol
# GULP energy per Si atom -5567.839623 kJ/mol
# Density = 2.320095 g / cm^3
# Si number density = 23.253881 Si / 1000 Ang^3
#
#
#
# Elastic Constant Matrix: (Units=GPa)
#
#
# Indices 1 2 3 4 5 6 
#
# 1 73.6820 18.5153 43.0955 0.0000 0.0000 0.0000
# 2 18.5153 118.5360 28.1222 0.0000 0.0000 0.0000
# 3 43.0955 28.1222 111.2339 0.0000 0.0000 0.0000
# 4 0.0000 0.0000 0.0000 30.5134 0.0000 0.0000
# 5 0.0000 0.0000 0.0000 0.0000 34.4548 0.0000
# 6 0.0000 0.0000 0.0000 0.0000 0.0000 28.1060
#
#
#
# Elastic Compliance Matrix: (Units=1/GPa)
#
#
# Indices 1 2 3 4 5 6 
#
# 1 0.017710 -0.001211 -0.006555 0.000000 0.000000 0.000000
# 2 -0.001211 0.009057 -0.001821 0.000000 0.000000 0.000000
# 3 -0.006555 -0.001821 0.011990 0.000000 0.000000 0.000000
# 4 0.000000 0.000000 0.000000 0.032772 0.000000 0.000000
# 5 0.000000 0.000000 0.000000 0.000000 0.029024 0.000000
# 6 0.000000 0.000000 0.000000 0.000000 0.000000 0.035580
#
#
# Mechanical properties :
#
#
# Convention : Reuss Voigt Hill
#
# Bulk Modulus (GPa) = 51.06328 53.65756 52.36042
# Shear Modulus (GPa) = 30.89559 32.86277 31.87918
#
# Velocity S-wave (km/s) = 3.64898 3.76336 3.70661
# Velocity P-wave (km/s) = 6.30556 6.48140 6.39409
#
# Compressibility (1/GPa) = 0.01958355
#
# Stress axis : x y z
#
# Youngs Moduli (GPa) = 56.46442 110.40725 83.40214
#
# Poissons Ratio (x) = 0.13372 0.54673
# Poissons Ratio (y) = 0.06838 0.15185
# Poissons Ratio (z) = 0.37014 0.20102
#
# Static dielectric constant tensor:
#      x y z
#    x 2.110010 0.000000 0.000000 
#    y 0.000000 1.880600 0.000000 
#    z 0.000000 0.000000 1.920650 
# 
# From -- ./inp_files/2868.got.cif
#   From: 2010.05.17/outbox.cif.g08.bks.cpg/sg32_2_cif.got.tgz:2868.got - 2010.06.03 17:12:27.
