data_PCOD9344932
_publ_section_title
;
Structure prediction by ZEFSAII (Michael W. Deem and Ramdas Pophale) SiO2 
 PCOD9344932
Probable space group: P N A 21
;
_chemical_formula_sum "Si O2"
_cell_formula_units_Z 28
_cell_length_a 13.286294
_cell_length_b 17.853370
_cell_length_c 5.263801
_cell_angle_alpha 90.000000
_cell_angle_beta 90.000000
_cell_angle_gamma 90.000000
_cell_volume 1248.600562
_symmetry_space_group_name_H-M "P N A 21"
_symmetry_group_IT_number 33
_symmetry_cell_setting 'orthorhombic'
loop_
_space_group_symop_operation_xyz
x,y,z
-x,-y,1/2+z
1/2-x,1/2+y,1/2+z
1/2+x,1/2-y,z
loop_
_atom_site_type_symbol
_atom_site_label
_atom_site_fract_x
_atom_site_fract_y
_atom_site_fract_z
Si Si1 0.349005 0.972454 0.353740
Si Si2 0.055289 0.766282 0.297073
Si Si3 0.637689 0.157819 0.248218
Si Si4 0.190072 0.896855 0.083535
Si Si5 0.439172 0.697915 0.791064
Si Si6 0.009104 0.955643 0.747124
Si Si7 0.962173 0.395424 0.578780
O O1 0.335414 0.901564 0.537784
O O2 0.243872 0.970102 0.202804
O O3 0.452927 0.949396 0.208173
O O4 0.372937 0.049962 0.493618
O O5 0.136220 0.831133 0.240675
O O6 0.025551 0.780130 0.587632
O O7 0.071917 0.677429 0.241498
O O8 0.968949 0.785462 0.083693
O O9 0.712080 0.143169 0.475362
O O10 0.645891 0.245535 0.194865
O O11 0.524659 0.138129 0.340489
O O12 0.111697 0.922262 0.867093
O O13 0.427409 0.610171 0.760553
O O14 0.019714 0.982049 0.457293
#
# Coordination Sequence:
#
# PCOD9344932 Si02
#       7
#     4   4   4   4   4   4   4
#     4  11  20  37  66  97 139 167 227 276 351 394
#     4  10  21  40  65  92 128 173 223 261 337 400
#     4  10  21  38  65  93 129 171 224 277 335 403
#     4  10  25  40  64  98 131 184 224 287 331 398
#     4  10  21  41  69  91 122 175 226 266 330 411
#     4  11  24  45  71  95 136 184 230 276 341 409
#     4  10  20  37  64  98 127 180 212 277 343 415
#
# _framework density 22.425107000000001
#
# number of rings (size 3 to 8) (size 9 to 14) (size 15 to 20)
#    0.000    1.714    2.857    1.714    6.000    0.000 
#    2.571    0.000    0.000    0.000    0.000    0.000 
#    0.000    0.000    0.000    0.000    0.000    0.000 
#
# Total GULP energy -156020.661654 kJ/mol
# GULP energy per Si atom -5572.166488 kJ/mol
# Density = 2.237407 g / cm^3
# Si number density = 22.425107 Si / 1000 Ang^3
#
#
#
# Elastic Constant Matrix: (Units=GPa)
#
#
# Indices 1 2 3 4 5 6 
#
# 1 48.8124 17.9565 0.5500 0.0000 0.0000 0.0000
# 2 17.9565 115.0655 2.4200 0.0000 0.0000 0.0000
# 3 0.5500 2.4200 46.7960 0.0000 0.0000 0.0000
# 4 0.0000 0.0000 0.0000 71.4639 0.0000 0.0000
# 5 0.0000 0.0000 0.0000 0.0000 137.2409 0.0000
# 6 0.0000 0.0000 0.0000 0.0000 0.0000 24.5540
#
#
#
# Elastic Compliance Matrix: (Units=1/GPa)
#
#
# Indices 1 2 3 4 5 6 
#
# 1 0.021735 -0.003390 -0.000080 0.000000 0.000000 0.000000
# 2 -0.003390 0.009229 -0.000437 0.000000 0.000000 0.000000
# 3 -0.000080 -0.000437 0.021393 0.000000 0.000000 0.000000
# 4 0.000000 0.000000 0.000000 0.013993 0.000000 0.000000
# 5 0.000000 0.000000 0.000000 0.000000 0.007286 0.000000
# 6 0.000000 0.000000 0.000000 0.000000 0.000000 0.040727
#
#
# Mechanical properties :
#
#
# Convention : Reuss Voigt Hill
#
# Bulk Modulus (GPa) = 22.45112 28.05852 25.25482
# Shear Modulus (GPa) = 36.48971 59.30158 47.89565
#
# Velocity S-wave (km/s) = 4.03821 5.14798 4.62649
# Velocity P-wave (km/s) = 5.63704 6.91917 6.31075
#
# Compressibility (1/GPa) = 0.04454121
#
# Stress axis : x y z
#
# Youngs Moduli (GPa) = 46.00958 108.35479 46.74442
#
# Poissons Ratio (x) = 0.36733 0.00374
# Poissons Ratio (y) = 0.15598 0.02045
# Poissons Ratio (z) = 0.00369 0.04740
#
# Static dielectric constant tensor:
#      x y z
#    x 1.724230 0.000000 0.000000 
#    y 0.000000 1.919350 0.000000 
#    z 0.000000 0.000000 1.897850 
# 
# From -- ./inp_files/1451.got.cif
#   From: 2010.05.17/outbox.cif.g08.bks.cpg/sg33_1_cif.got.tgz:1451.got - 2010.06.03 17:15:25.
