data_PCOD9344484
_publ_section_title
;
Structure prediction by ZEFSAII (Michael W. Deem and Ramdas Pophale) SiO2 
 PCOD9344484
Probable space group: P N A 21
;
_chemical_formula_sum "Si O2"
_cell_formula_units_Z 28
_cell_length_a 15.729475
_cell_length_b 5.080115
_cell_length_c 13.498074
_cell_angle_alpha 90.000000
_cell_angle_beta 90.000000
_cell_angle_gamma 90.000000
_cell_volume 1078.597914
_symmetry_space_group_name_H-M "P N A 21"
_symmetry_group_IT_number 33
_symmetry_cell_setting 'orthorhombic'
loop_
_space_group_symop_operation_xyz
x,y,z
-x,-y,1/2+z
1/2-x,1/2+y,1/2+z
1/2+x,1/2-y,z
loop_
_atom_site_type_symbol
_atom_site_label
_atom_site_fract_x
_atom_site_fract_y
_atom_site_fract_z
Si Si1 0.273558 0.034431 0.532800
Si Si2 0.619304 0.997989 0.374318
Si Si3 0.540577 0.305816 0.198890
Si Si4 0.038348 0.993353 0.404050
Si Si5 0.758206 0.778065 0.244094
Si Si6 0.364249 0.535367 0.501410
Si Si7 0.848354 0.246012 0.171961
O O1 0.334292 0.830836 0.475729
O O2 0.194669 0.848895 0.568484
O O3 0.293645 0.128465 0.646144
O O4 0.289325 0.321508 0.485104
O O5 0.559929 0.801130 0.434122
O O6 0.699632 0.824449 0.339058
O O7 0.579354 0.082951 0.268991
O O8 0.611205 0.286063 0.426497
O O9 0.530540 0.522338 0.285088
O O10 0.448374 0.218023 0.161849
O O11 0.602521 0.407720 0.113850
O O12 0.948321 0.071447 0.448322
O O13 0.798046 0.495124 0.217791
O O14 0.831876 0.998005 0.244584
#
# Coordination Sequence:
#
# PCOD9344484 Si02
#       7
#     4   4   4   4   4   4   4
#     4  10  19  35  59  90 111 168 204 244 310 392
#     4  10  20  38  60  86 125 156 216 250 304 374
#     4  10  24  38  65  95 124 162 205 274 306 359
#     4  10  23  37  62  97 119 158 221 261 304 370
#     4  10  18  36  58  90 114 168 201 247 305 391
#     4  12  21  39  67  86 126 165 213 256 313 370
#     4  10  21  33  61  90 123 151 212 250 318 370
#
# _framework density 25.959624999999999
#
# number of rings (size 3 to 8) (size 9 to 14) (size 15 to 20)
#    1.714    0.000    2.857    2.571    2.000    0.000 
#    0.000    0.000    9.429    0.000    0.000    0.000 
#    0.000    0.000    0.000    0.000    0.000    0.000 
#
# Total GULP energy -155900.324041 kJ/mol
# GULP energy per Si atom -5567.868716 kJ/mol
# Density = 2.590054 g / cm^3
# Si number density = 25.959625 Si / 1000 Ang^3
#
#
#
# Elastic Constant Matrix: (Units=GPa)
#
#
# Indices 1 2 3 4 5 6 
#
# 1 86.2959 46.5583 19.5961 0.0000 0.0000 0.0000
# 2 46.5583 199.5257 28.2900 0.0000 0.0000 0.0000
# 3 19.5961 28.2900 58.7732 0.0000 0.0000 0.0000
# 4 0.0000 0.0000 0.0000 17.7005 0.0000 0.0000
# 5 0.0000 0.0000 0.0000 0.0000 44.7482 0.0000
# 6 0.0000 0.0000 0.0000 0.0000 0.0000 -24.7649
#
#
#
# Elastic Compliance Matrix: (Units=1/GPa)
#
#
# Indices 1 2 3 4 5 6 
#
# 1 0.013822 -0.002760 -0.003280 0.000000 0.000000 0.000000
# 2 -0.002760 0.005930 -0.001934 0.000000 0.000000 0.000000
# 3 -0.003280 -0.001934 0.019039 0.000000 0.000000 0.000000
# 4 0.000000 0.000000 0.000000 0.056496 0.000000 0.000000
# 5 0.000000 0.000000 0.000000 0.000000 0.022347 0.000000
# 6 0.000000 0.000000 0.000000 0.000000 0.000000 -0.040380
#
#
# Mechanical properties :
#
#
# Convention : Reuss Voigt Hill
#
# Bulk Modulus (GPa) = 43.77750 59.27594 51.52672
# Shear Modulus (GPa) = 49.59470 24.21347 36.90408
#
# Velocity S-wave (km/s) = 4.37562 3.05739 3.77450
# Velocity P-wave (km/s) = 6.51370 5.94533 6.23600
#
# Compressibility (1/GPa) = 0.02284278
#
# Stress axis : x y z
#
# Youngs Moduli (GPa) = 72.34815 168.62804 52.52340
#
# Poissons Ratio (x) = 0.46546 0.17227
# Poissons Ratio (y) = 0.19970 0.10159
# Poissons Ratio (z) = 0.23730 0.32615
#
# Static dielectric constant tensor:
#      x y z
#    x 2.072040 0.000000 0.000000 
#    y 0.000000 2.049060 0.000000 
#    z 0.000000 0.000000 2.101530 
# 
# From -- ./inp_files/8833.got.cif
#   From: 2010.05.17/outbox.cif.g08.bks.cpg/sg33_5_cif.got.tgz:8833.got - 2010.06.03 17:15:25.
