data_PCOD9344309
_publ_section_title
;
Structure prediction by ZEFSAII (Michael W. Deem and Ramdas Pophale) SiO2 
 PCOD9344309
Probable space group: P B A 2
;
_chemical_formula_sum "Si O2"
_cell_formula_units_Z 24
_cell_length_a 14.836789
_cell_length_b 15.202509
_cell_length_c 4.993755
_cell_angle_alpha 90.000000
_cell_angle_beta 90.000000
_cell_angle_gamma 90.000000
_cell_volume 1126.373492
_symmetry_space_group_name_H-M "P B A 2"
_symmetry_group_IT_number 32
_symmetry_cell_setting 'orthorhombic'
loop_
_space_group_symop_operation_xyz
x,y,z
-x,-y,z
1/2-x,1/2+y,z
1/2+x,1/2-y,z
loop_
_atom_site_type_symbol
_atom_site_label
_atom_site_fract_x
_atom_site_fract_y
_atom_site_fract_z
Si Si1 0.101954 0.467805 0.128490
Si Si2 0.125144 0.353581 0.627441
Si Si3 0.710968 0.765616 0.446509
Si Si4 0.241415 0.615966 0.945604
Si Si5 0.991770 0.199865 0.456550
Si Si6 0.950407 0.910082 0.955439
O O1 0.115060 0.436997 0.432583
O O2 0.171733 0.543251 0.047073
O O3 0.000000 0.500000 0.089631
O O4 0.119281 0.385509 0.931555
O O5 0.217626 0.304730 0.555762
O O6 0.046393 0.285147 0.555073
O O7 0.739420 0.804893 0.160893
O O8 0.612395 0.724149 0.429673
O O9 0.712746 0.845055 0.660111
O O10 0.342964 0.579512 0.929378
O O11 0.029798 0.163525 0.178218
O O12 0.009470 0.125178 0.677419
O O13 0.000000 0.000000 0.032123
#
# Coordination Sequence:
#
# PCOD9344309 Si02
#       6
#     4   4   4   4   4   4
#     4  12  26  43  70  99 136 174 221 278 338 401
#     4  12  24  44  68 101 131 172 227 274 331 399
#     4  12  25  44  72  97 132 178 224 276 332 395
#     4  12  24  47  67 102 138 176 219 279 337 392
#     4  12  25  46  70  97 135 177 226 277 332 398
#     4  12  26  44  67  99 138 180 221 276 335 401
#
# _framework density 21.307321999999999
#
# number of rings (size 3 to 8) (size 9 to 14) (size 15 to 20)
#    0.000    0.000    3.333    7.000    4.667    0.000 
#    0.000    0.000    0.000    0.000    0.000    0.000 
#    0.000    0.000    0.000    0.000    0.000    0.000 
#
# Total GULP energy -134525.408866 kJ/mol
# GULP energy per Si atom -5605.225369 kJ/mol
# Density = 2.125883 g / cm^3
# Si number density = 21.307322 Si / 1000 Ang^3
#
#
#
# Elastic Constant Matrix: (Units=GPa)
#
#
# Indices 1 2 3 4 5 6 
#
# 1 98.1427 37.4839 -25.2805 0.0000 0.0000 0.0000
# 2 37.4839 55.5524 -10.2309 0.0000 0.0000 0.0000
# 3 -25.2805 -10.2309 63.6273 0.0000 0.0000 0.0000
# 4 0.0000 0.0000 0.0000 52.7954 0.0000 0.0000
# 5 0.0000 0.0000 0.0000 0.0000 35.5075 0.0000
# 6 0.0000 0.0000 0.0000 0.0000 0.0000 44.5260
#
#
#
# Elastic Compliance Matrix: (Units=1/GPa)
#
#
# Indices 1 2 3 4 5 6 
#
# 1 0.014841 -0.009200 0.004417 0.000000 0.000000 0.000000
# 2 -0.009200 0.024254 0.000244 0.000000 0.000000 0.000000
# 3 0.004417 0.000244 0.017511 0.000000 0.000000 0.000000
# 4 0.000000 0.000000 0.000000 0.018941 0.000000 0.000000
# 5 0.000000 0.000000 0.000000 0.000000 0.028163 0.000000
# 6 0.000000 0.000000 0.000000 0.000000 0.000000 0.022459
#
#
# Mechanical properties :
#
#
# Convention : Reuss Voigt Hill
#
# Bulk Modulus (GPa) = 21.04006 24.58526 22.81266
# Shear Modulus (GPa) = 33.09301 40.92245 37.00773
#
# Velocity S-wave (km/s) = 3.94525 4.38720 4.17208
# Velocity P-wave (km/s) = 5.53618 6.10138 5.82564
#
# Compressibility (1/GPa) = 0.04752838
#
# Stress axis : x y z
#
# Youngs Moduli (GPa) = 67.38063 41.23023 57.10728
#
# Poissons Ratio (x) = 0.37934 -0.25226
# Poissons Ratio (y) = 0.61993 -0.01396
# Poissons Ratio (z) = -0.29764 -0.01008
#
# Static dielectric constant tensor:
#      x y z
#    x 1.709130 0.000000 0.000000 
#    y 0.000000 1.788180 0.000000 
#    z 0.000000 0.000000 1.742120 
# 
# From -- ./inp_files/1185.got.cif
#   From: 2010.05.17/outbox.cif.g08.bks.cpg/sg32_1_cif.got.tgz:1185.got - 2010.06.03 17:12:27.
