data_PCOD9344014
_publ_section_title
;
Structure prediction by ZEFSAII (Michael W. Deem and Ramdas Pophale) SiO2 
 PCOD9344014
Probable space group: P B A 2
;
_chemical_formula_sum "Si O2"
_cell_formula_units_Z 30
_cell_length_a 20.370968
_cell_length_b 13.233735
_cell_length_c 4.937275
_cell_angle_alpha 90.000000
_cell_angle_beta 90.000000
_cell_angle_gamma 90.000000
_cell_volume 1331.010305
_symmetry_space_group_name_H-M "P B A 2"
_symmetry_group_IT_number 32
_symmetry_cell_setting 'orthorhombic'
loop_
_space_group_symop_operation_xyz
x,y,z
-x,-y,z
1/2-x,1/2+y,z
1/2+x,1/2-y,z
loop_
_atom_site_type_symbol
_atom_site_label
_atom_site_fract_x
_atom_site_fract_y
_atom_site_fract_z
Si Si1 0.135270 0.744485 0.640490
Si Si2 0.000000 0.000000 0.528786
Si Si3 0.687849 0.078708 0.118656
Si Si4 0.672541 0.641714 0.147110
Si Si5 0.916753 0.731797 0.903367
Si Si6 0.364844 0.552754 0.832143
Si Si7 0.778214 0.449356 0.626450
Si Si8 0.001298 0.229927 0.388976
O O1 0.159854 0.838476 0.459808
O O2 0.185734 0.655657 0.576192
O O3 0.063383 0.723671 0.523472
O O4 0.136041 0.778961 0.951573
O O5 0.933481 0.982657 0.699669
O O6 0.006791 0.892391 0.378432
O O7 0.750571 0.151568 0.084575
O O8 0.625365 0.138205 0.009181
O O9 0.694392 0.033853 0.419722
O O10 0.700349 0.984012 0.924398
O O11 0.651399 0.530499 0.057481
O O12 0.981065 0.735297 0.090469
O O13 0.877381 0.836132 0.952198
O O14 0.939120 0.738982 0.590908
O O15 0.300871 0.558557 0.637357
#
# Coordination Sequence:
#
# PCOD9344014 Si02
#       8
#     4   2   4   4   4   4   4   4
#     4  12  24  43  65  98 134 176 221 280 325 404
#     4  10  22  38  66  96 140 172 204 274 340 424
#     4  11  24  45  67  95 128 181 226 287 320 395
#     4  11  23  39  67  95 133 167 217 266 342 399
#     4  11  25  43  66  96 138 173 226 272 342 403
#     4  10  23  42  66 104 134 176 212 274 348 420
#     4  11  25  44  68  95 133 174 236 275 331 392
#     4  11  25  40  65  98 135 177 221 268 342 410
#
# _framework density 22.539272
#
# number of rings (size 3 to 8) (size 9 to 14) (size 15 to 20)
#    0.000    1.067    1.333    4.800    3.733    6.933 
#    0.000    4.000    0.000    0.000    0.000    0.000 
#    0.000    0.000    0.000    0.000    0.000    0.000 
#
# Total GULP energy -167804.564383 kJ/mol
# GULP energy per Si atom -5593.485479 kJ/mol
# Density = 2.248797 g / cm^3
# Si number density = 22.539272 Si / 1000 Ang^3
#
#
#
# Elastic Constant Matrix: (Units=GPa)
#
#
# Indices 1 2 3 4 5 6 
#
# 1 106.0865 45.4741 4.8034 0.0000 0.0000 0.0000
# 2 45.4741 56.9908 -1.5775 0.0000 0.0000 0.0000
# 3 4.8034 -1.5775 61.2930 0.0000 0.0000 0.0000
# 4 0.0000 0.0000 0.0000 21.4253 0.0000 0.0000
# 5 0.0000 0.0000 0.0000 0.0000 28.7960 0.0000
# 6 0.0000 0.0000 0.0000 0.0000 0.0000 33.6806
#
#
#
# Elastic Compliance Matrix: (Units=1/GPa)
#
#
# Indices 1 2 3 4 5 6 
#
# 1 0.014450 -0.011570 -0.001430 0.000000 0.000000 0.000000
# 2 -0.011570 0.026823 0.001597 0.000000 0.000000 0.000000
# 3 -0.001430 0.001597 0.016468 0.000000 0.000000 0.000000
# 4 0.000000 0.000000 0.000000 0.046674 0.000000 0.000000
# 5 0.000000 0.000000 0.000000 0.000000 0.034727 0.000000
# 6 0.000000 0.000000 0.000000 0.000000 0.000000 0.029691
#
#
# Mechanical properties :
#
#
# Convention : Reuss Voigt Hill
#
# Bulk Modulus (GPa) = 28.62435 35.75227 32.18831
# Shear Modulus (GPa) = 24.59609 28.49174 26.54392
#
# Velocity S-wave (km/s) = 3.30700 3.55927 3.43545
# Velocity P-wave (km/s) = 5.22580 5.72606 5.48164
#
# Compressibility (1/GPa) = 0.03493529
#
# Stress axis : x y z
#
# Youngs Moduli (GPa) = 69.20177 37.28174 60.72287
#
# Poissons Ratio (x) = 0.43135 0.08685
# Poissons Ratio (y) = 0.80066 -0.09698
# Poissons Ratio (z) = 0.09897 -0.05954
#
# Static dielectric constant tensor:
#      x y z
#    x 1.871230 0.000000 0.000000 
#    y 0.000000 1.806880 0.000000 
#    z 0.000000 0.000000 1.817730 
# 
# From -- ./inp_files/1053.got.cif
#   From: 2010.05.17/outbox.cif.g08.bks.cpg/sg32_1_cif.got.tgz:1053.got - 2010.06.03 17:12:27.
