data_PCOD9344119
_publ_section_title
;
Structure prediction by ZEFSAII (Michael W. Deem and Ramdas Pophale) SiO2 
 PCOD9344119
Probable space group: P B A 2
;
_chemical_formula_sum "Si O2"
_cell_formula_units_Z 32
_cell_length_a 25.938917
_cell_length_b 9.409384
_cell_length_c 5.388916
_cell_angle_alpha 90.000000
_cell_angle_beta 90.000000
_cell_angle_gamma 90.000000
_cell_volume 1315.268582
_symmetry_space_group_name_H-M "P B A 2"
_symmetry_group_IT_number 32
_symmetry_cell_setting 'orthorhombic'
loop_
_space_group_symop_operation_xyz
x,y,z
-x,-y,z
1/2-x,1/2+y,z
1/2+x,1/2-y,z
loop_
_atom_site_type_symbol
_atom_site_label
_atom_site_fract_x
_atom_site_fract_y
_atom_site_fract_z
Si Si1 0.416004 0.647001 0.326120
Si Si2 0.678872 0.279434 0.691821
Si Si3 0.514954 0.637795 0.668375
Si Si4 0.236111 0.513495 0.702188
Si Si5 0.317530 0.112847 0.217858
Si Si6 0.899483 0.158650 0.291172
Si Si7 0.464138 0.116587 0.983158
Si Si8 0.890957 0.604071 0.046561
O O1 0.366040 0.692820 0.489857
O O2 0.468690 0.619496 0.472730
O O3 0.400183 0.501322 0.191846
O O4 0.428781 0.781929 0.161292
O O5 0.706172 0.429679 0.745012
O O6 0.649202 0.207550 0.918389
O O7 0.722046 0.152871 0.657633
O O8 0.500000 0.500000 0.837349
O O9 0.573697 0.642134 0.562859
O O10 0.507761 0.794310 0.774973
O O11 0.221327 0.586170 0.440696
O O12 0.205181 0.577397 0.943229
O O13 0.344782 0.264604 0.257731
O O14 0.362205 0.993576 0.248018
O O15 0.938570 0.263213 0.150535
O O16 0.500000 0.000000 0.111333
O O17 0.418222 0.015210 0.879084
#
# Coordination Sequence:
#
# PCOD9344119 Si02
#       8
#     4   4   4   4   4   4   4   4
#     4  11  23  45  69 102 144 187 241 304 367 444
#     4  11  26  44  70 103 140 189 241 310 368 440
#     4  10  24  42  67 102 141 185 238 297 366 447
#     4  11  26  45  73 102 146 186 251 304 375 432
#     4  10  24  45  71 105 140 188 241 304 363 442
#     4  10  25  41  69  99 141 189 237 299 367 438
#     4  11  23  39  67  99 137 187 237 294 363 437
#     4  10  23  43  68  99 140 183 236 301 362 435
#
# _framework density 24.329633000000001
#
# number of rings (size 3 to 8) (size 9 to 14) (size 15 to 20)
#    0.000    1.500    1.250    1.500    8.750    8.000 
#    0.000    0.000    0.000    0.000    0.000    0.000 
#    0.000    0.000    0.000    0.000    0.000    0.000 
#
# Total GULP energy -178380.282644 kJ/mol
# GULP energy per Si atom -5574.383833 kJ/mol
# Density = 2.427426 g / cm^3
# Si number density = 24.329633 Si / 1000 Ang^3
#
#
#
# Elastic Constant Matrix: (Units=GPa)
#
#
# Indices 1 2 3 4 5 6 
#
# 1 58.9229 36.7440 10.4800 0.0000 0.0000 0.0000
# 2 36.7440 137.0027 13.0533 0.0000 0.0000 0.0000
# 3 10.4800 13.0533 42.9382 0.0000 0.0000 0.0000
# 4 0.0000 0.0000 0.0000 43.0692 0.0000 0.0000
# 5 0.0000 0.0000 0.0000 0.0000 -2.8430 0.0000
# 6 0.0000 0.0000 0.0000 0.0000 0.0000 54.7500
#
#
#
# Elastic Compliance Matrix: (Units=1/GPa)
#
#
# Indices 1 2 3 4 5 6 
#
# 1 0.020877 -0.005266 -0.003494 0.000000 0.000000 0.000000
# 2 -0.005266 0.008845 -0.001404 0.000000 0.000000 0.000000
# 3 -0.003494 -0.001404 0.024569 0.000000 0.000000 0.000000
# 4 0.000000 0.000000 0.000000 0.023218 0.000000 0.000000
# 5 0.000000 0.000000 0.000000 0.000000 -0.351736 0.000000
# 6 0.000000 0.000000 0.000000 0.000000 0.000000 0.018265
#
#
# Mechanical properties :
#
#
# Convention : Reuss Voigt Hill
#
# Bulk Modulus (GPa) = 29.44444 39.93541 34.68993
# Shear Modulus (GPa) = -22.29031 30.90100 4.30535
#
# Velocity S-wave (km/s) = -3.03013 3.56771 1.33170
# Velocity P-wave (km/s) = 0.33716 5.78112 4.08091
#
# Compressibility (1/GPa) = 0.03396226
#
# Stress axis : x y z
#
# Youngs Moduli (GPa) = 47.90000 113.05498 40.70190
#
# Poissons Ratio (x) = 0.59537 0.14223
# Poissons Ratio (y) = 0.25225 0.05713
# Poissons Ratio (z) = 0.16739 0.15869
#
# Static dielectric constant tensor:
#      x y z
#    x 2.052650 0.000000 0.000000 
#    y 0.000000 1.921710 0.000000 
#    z 0.000000 0.000000 2.053630 
# 
# From -- ./inp_files/1817.got.cif
#   From: 2010.05.17/outbox.cif.g08.bks.cpg/sg32_1_cif.got.tgz:1817.got - 2010.06.03 17:12:27.
