data_PCOD9344761
_publ_section_title
;
Structure prediction by ZEFSAII (Michael W. Deem and Ramdas Pophale) SiO2 
 PCOD9344761
Probable space group: P N A 21
;
_chemical_formula_sum "Si O2"
_cell_formula_units_Z 32
_cell_length_a 12.102053
_cell_length_b 10.258686
_cell_length_c 10.720992
_cell_angle_alpha 90.000000
_cell_angle_beta 90.000000
_cell_angle_gamma 90.000000
_cell_volume 1331.023611
_symmetry_space_group_name_H-M "P N A 21"
_symmetry_group_IT_number 33
_symmetry_cell_setting 'orthorhombic'
loop_
_space_group_symop_operation_xyz
x,y,z
-x,-y,1/2+z
1/2-x,1/2+y,1/2+z
1/2+x,1/2-y,z
loop_
_atom_site_type_symbol
_atom_site_label
_atom_site_fract_x
_atom_site_fract_y
_atom_site_fract_z
Si Si1 0.249598 0.102505 0.812490
Si Si2 0.598968 0.004543 0.503902
Si Si3 0.861354 0.145194 0.697454
Si Si4 0.172841 0.979616 0.565675
Si Si5 0.205577 0.589072 0.739918
Si Si6 0.742135 0.743816 0.964957
Si Si7 0.025252 0.143362 0.919769
Si Si8 0.612089 0.079641 0.956171
O O1 0.277942 0.246929 0.760724
O O2 0.151911 0.098050 0.913930
O O3 0.362606 0.049116 0.869326
O O4 0.197534 0.009984 0.707792
O O5 0.645892 0.906742 0.608041
O O6 0.664030 0.140472 0.502133
O O7 0.468808 0.021036 0.526257
O O8 0.814819 0.998388 0.715051
O O9 0.858453 0.193454 0.553512
O O10 0.971761 0.145030 0.780522
O O11 0.056464 0.931530 0.513244
O O12 0.271143 0.887498 0.516901
O O13 0.208673 0.116336 0.503260
O O14 0.216578 0.722120 0.819790
O O15 0.133728 0.489882 0.825260
O O16 0.038643 0.292969 0.955561
#
# Coordination Sequence:
#
# PCOD9344761 Si02
#       8
#     4   4   4   4   4   4   4   4
#     4  11  24  43  66 102 136 178 236 286 352 433
#     4  11  25  40  67 104 137 185 237 280 366 436
#     4  10  19  41  69  95 130 174 235 282 344 425
#     4  10  24  46  65 101 138 177 230 294 357 415
#     4  10  21  44  65  95 136 181 226 294 352 414
#     4   9  21  43  64  95 140 176 227 294 346 423
#     4  12  21  42  74 100 130 186 235 292 357 423
#     4  11  23  41  70  96 135 181 228 292 350 419
#
# _framework density 24.041647999999999
#
# number of rings (size 3 to 8) (size 9 to 14) (size 15 to 20)
#    0.000    1.500    5.000    0.000    1.750    4.000 
#    4.500    0.000    0.000    0.000    0.000    0.000 
#    0.000    0.000    0.000    0.000    0.000    0.000 
#
# Total GULP energy -178530.900345 kJ/mol
# GULP energy per Si atom -5579.090636 kJ/mol
# Density = 2.398693 g / cm^3
# Si number density = 24.041648 Si / 1000 Ang^3
#
#
#
# Elastic Constant Matrix: (Units=GPa)
#
#
# Indices 1 2 3 4 5 6 
#
# 1 74.7055 5.8389 11.2795 0.0000 0.0000 0.0000
# 2 5.8389 42.9771 25.8769 0.0000 0.0000 0.0000
# 3 11.2795 25.8769 85.7309 0.0000 0.0000 0.0000
# 4 0.0000 0.0000 0.0000 39.8139 0.0000 0.0000
# 5 0.0000 0.0000 0.0000 0.0000 27.1022 0.0000
# 6 0.0000 0.0000 0.0000 0.0000 0.0000 31.8604
#
#
#
# Elastic Compliance Matrix: (Units=1/GPa)
#
#
# Indices 1 2 3 4 5 6 
#
# 1 0.013689 -0.000948 -0.001515 0.000000 0.000000 0.000000
# 2 -0.000948 0.028502 -0.008478 0.000000 0.000000 0.000000
# 3 -0.001515 -0.008478 0.014423 0.000000 0.000000 0.000000
# 4 0.000000 0.000000 0.000000 0.025117 0.000000 0.000000
# 5 0.000000 0.000000 0.000000 0.000000 0.036897 0.000000
# 6 0.000000 0.000000 0.000000 0.000000 0.000000 0.031387
#
#
# Mechanical properties :
#
#
# Convention : Reuss Voigt Hill
#
# Bulk Modulus (GPa) = 28.79220 32.15601 30.47411
# Shear Modulus (GPa) = 27.25193 30.44984 28.85088
#
# Velocity S-wave (km/s) = 3.37045 3.56272 3.46791
# Velocity P-wave (km/s) = 5.21042 5.50710 5.36081
#
# Compressibility (1/GPa) = 0.03473163
#
# Stress axis : x y z
#
# Youngs Moduli (GPa) = 73.05298 35.08555 69.33473
#
# Poissons Ratio (x) = 0.03325 0.10504
# Poissons Ratio (y) = 0.06922 0.58784
# Poissons Ratio (z) = 0.11067 0.29746
#
# Static dielectric constant tensor:
#      x y z
#    x 1.929580 0.000000 0.000000 
#    y 0.000000 1.986640 0.000000 
#    z 0.000000 0.000000 2.030120 
# 
# From -- ./inp_files/6505.got.cif
#   From: 2010.05.17/outbox.cif.g08.bks.cpg/sg33_4_cif.got.tgz:6505.got - 2010.06.03 17:15:25.
