data_PCOD9344123
_publ_section_title
;
Structure prediction by ZEFSAII (Michael W. Deem and Ramdas Pophale) SiO2 
 PCOD9344123
Probable space group: P B A 2
;
_chemical_formula_sum "Si O2"
_cell_formula_units_Z 32
_cell_length_a 8.023464
_cell_length_b 29.943987
_cell_length_c 6.097147
_cell_angle_alpha 90.000000
_cell_angle_beta 90.000000
_cell_angle_gamma 90.000000
_cell_volume 1464.867014
_symmetry_space_group_name_H-M "P B A 2"
_symmetry_group_IT_number 32
_symmetry_cell_setting 'orthorhombic'
loop_
_space_group_symop_operation_xyz
x,y,z
-x,-y,z
1/2-x,1/2+y,z
1/2+x,1/2-y,z
loop_
_atom_site_type_symbol
_atom_site_label
_atom_site_fract_x
_atom_site_fract_y
_atom_site_fract_z
Si Si1 0.444691 0.795148 0.376160
Si Si2 0.568388 0.954181 0.418109
Si Si3 0.412646 0.884895 0.107223
Si Si4 0.307367 0.243362 0.683878
Si Si5 0.037492 0.875475 0.015720
Si Si6 0.369403 0.538299 0.113820
Si Si7 0.058733 0.217899 0.014336
Si Si8 0.782245 0.400873 0.792982
O O1 0.410421 0.842989 0.273013
O O2 0.618070 0.790729 0.507137
O O3 0.312543 0.777117 0.554318
O O4 0.444362 0.758667 0.181813
O O5 0.443360 0.930750 0.242835
O O6 0.734834 0.970342 0.296695
O O7 0.500000 0.000000 0.522808
O O8 0.628825 0.913254 0.569190
O O9 0.575137 0.880375 0.950888
O O10 0.234297 0.883200 0.981176
O O11 0.442605 0.273872 0.803577
O O12 0.234765 0.217186 0.893004
O O13 0.766218 0.949167 0.896801
O O14 0.900030 0.877321 0.815330
O O15 0.003423 0.827481 0.122224
O O16 0.500000 0.500000 0.078496
O O17 0.469749 0.584054 0.163281
#
# Coordination Sequence:
#
# PCOD9344123 Si02
#       8
#     4   4   4   4   4   4   4   4
#     4  11  24  41  66  98 131 182 228 275 353 398
#     4  11  24  43  69 100 134 174 225 282 347 407
#     4  11  24  45  68  96 137 177 223 284 336 411
#     4  10  24  39  63  98 131 176 230 278 330 422
#     4  10  23  44  66  94 133 179 217 280 337 400
#     4   9  21  43  66  96 132 170 221 278 337 403
#     4  11  23  42  64  94 139 178 223 285 337 401
#     4   9  25  43  66 100 127 178 219 278 341 404
#
# _framework density 21.844988000000001
#
# number of rings (size 3 to 8) (size 9 to 14) (size 15 to 20)
#    0.750    1.000    0.000    3.000    5.250    5.500 
#    9.000    0.000    0.000    0.000    0.000    0.000 
#    0.000    0.000    0.000    0.000    0.000    0.000 
#
# Total GULP energy -178274.772667 kJ/mol
# GULP energy per Si atom -5571.086646 kJ/mol
# Density = 2.179527 g / cm^3
# Si number density = 21.844988 Si / 1000 Ang^3
#
#
#
# Elastic Constant Matrix: (Units=GPa)
#
#
# Indices 1 2 3 4 5 6 
#
# 1 111.9157 34.2399 15.0558 0.0000 0.0000 0.0000
# 2 34.2399 95.6098 5.6572 0.0000 0.0000 0.0000
# 3 15.0558 5.6572 42.3697 0.0000 0.0000 0.0000
# 4 0.0000 0.0000 0.0000 15.1282 0.0000 0.0000
# 5 0.0000 0.0000 0.0000 0.0000 22.2539 0.0000
# 6 0.0000 0.0000 0.0000 0.0000 0.0000 26.7488
#
#
#
# Elastic Compliance Matrix: (Units=1/GPa)
#
#
# Indices 1 2 3 4 5 6 
#
# 1 0.010459 -0.003554 -0.003242 0.000000 0.000000 0.000000
# 2 -0.003554 0.011750 -0.000306 0.000000 0.000000 0.000000
# 3 -0.003242 -0.000306 0.024795 0.000000 0.000000 0.000000
# 4 0.000000 0.000000 0.000000 0.066102 0.000000 0.000000
# 5 0.000000 0.000000 0.000000 0.000000 0.044936 0.000000
# 6 0.000000 0.000000 0.000000 0.000000 0.000000 0.037385
#
#
# Mechanical properties :
#
#
# Convention : Reuss Voigt Hill
#
# Bulk Modulus (GPa) = 30.48789 39.97789 35.23289
# Shear Modulus (GPa) = 22.66932 25.82232 24.24582
#
# Velocity S-wave (km/s) = 3.22489 3.44186 3.33514
# Velocity P-wave (km/s) = 5.27762 5.84257 5.56727
#
# Compressibility (1/GPa) = 0.03279991
#
# Stress axis : x y z
#
# Youngs Moduli (GPa) = 95.61473 85.10698 40.33128
#
# Poissons Ratio (x) = 0.30244 0.13075
# Poissons Ratio (y) = 0.33978 0.01234
# Poissons Ratio (z) = 0.30998 0.02605
#
# Static dielectric constant tensor:
#      x y z
#    x 1.890720 0.000000 0.000000 
#    y 0.000000 1.805140 0.000000 
#    z 0.000000 0.000000 1.805640 
# 
# From -- ./inp_files/609.got.cif
#   From: 2010.05.17/outbox.cif.g08.bks.cpg/sg32_1_cif.got.tgz:609.got - 2010.06.03 17:12:27.
