data_PCOD9344702
_publ_section_title
;
Structure prediction by ZEFSAII (Michael W. Deem and Ramdas Pophale) SiO2 
 PCOD9344702
Probable space group: P N A 21
;
_chemical_formula_sum "Si O2"
_cell_formula_units_Z 24
_cell_length_a 8.242152
_cell_length_b 21.075905
_cell_length_c 5.627248
_cell_angle_alpha 90.000000
_cell_angle_beta 90.000000
_cell_angle_gamma 90.000000
_cell_volume 977.513822
_symmetry_space_group_name_H-M "P N A 21"
_symmetry_group_IT_number 33
_symmetry_cell_setting 'orthorhombic'
loop_
_space_group_symop_operation_xyz
x,y,z
-x,-y,1/2+z
1/2-x,1/2+y,1/2+z
1/2+x,1/2-y,z
loop_
_atom_site_type_symbol
_atom_site_label
_atom_site_fract_x
_atom_site_fract_y
_atom_site_fract_z
Si Si1 0.658601 0.819339 0.433910
Si Si2 0.121569 0.776364 0.054813
Si Si3 0.937824 0.659895 0.836344
Si Si4 0.915623 0.023313 0.129218
Si Si5 0.844172 0.429216 0.550959
Si Si6 0.415893 0.640073 0.762321
O O1 0.488465 0.837860 0.562505
O O2 0.686705 0.880631 0.266193
O O3 0.824850 0.814608 0.582794
O O4 0.641658 0.750257 0.316361
O O5 0.074649 0.710567 0.926172
O O6 0.275705 0.810308 0.939853
O O7 0.976382 0.823746 0.995090
O O8 0.979602 0.591647 0.954665
O O9 0.939774 0.098610 0.152930
O O10 0.731354 0.997323 0.111873
O O11 0.989820 0.996121 0.382095
O O12 0.726595 0.407715 0.336032
#
# Coordination Sequence:
#
# PCOD9344702 Si02
#       6
#     4   4   4   4   4   4
#     4  10  20  40  61  87 127 168 208 269 325 388
#     4  11  23  39  59  91 126 168 214 260 326 397
#     4  10  22  37  60  87 126 163 210 259 325 391
#     4  10  19  37  67  97 124 167 225 277 326 390
#     4   9  19  36  62  90 119 162 214 267 322 385
#     4  10  21  37  63  94 126 166 221 270 326 395
#
# _framework density 24.55208
#
# number of rings (size 3 to 8) (size 9 to 14) (size 15 to 20)
#    0.000    2.000    1.667    3.000    0.000    8.000 
#    0.000    1.667    3.667    0.000    0.000    0.000 
#    0.000    0.000    0.000    0.000    0.000    0.000 
#
# Total GULP energy -133748.566883 kJ/mol
# GULP energy per Si atom -5572.856953 kJ/mol
# Density = 2.449620 g / cm^3
# Si number density = 24.552080 Si / 1000 Ang^3
#
#
#
# Elastic Constant Matrix: (Units=GPa)
#
#
# Indices 1 2 3 4 5 6 
#
# 1 52.0560 11.7648 30.6097 0.0000 0.0000 0.0000
# 2 11.7648 29.6330 20.3994 0.0000 0.0000 0.0000
# 3 30.6097 20.3994 94.9775 0.0000 0.0000 0.0000
# 4 0.0000 0.0000 0.0000 37.2223 0.0000 0.0000
# 5 0.0000 0.0000 0.0000 0.0000 20.3278 0.0000
# 6 0.0000 0.0000 0.0000 0.0000 0.0000 21.3145
#
#
#
# Elastic Compliance Matrix: (Units=1/GPa)
#
#
# Indices 1 2 3 4 5 6 
#
# 1 0.024317 -0.004998 -0.006763 0.000000 0.000000 0.000000
# 2 -0.004998 0.040629 -0.007115 0.000000 0.000000 0.000000
# 3 -0.006763 -0.007115 0.014237 0.000000 0.000000 0.000000
# 4 0.000000 0.000000 0.000000 0.026866 0.000000 0.000000
# 5 0.000000 0.000000 0.000000 0.000000 0.049194 0.000000
# 6 0.000000 0.000000 0.000000 0.000000 0.000000 0.046916
#
#
# Mechanical properties :
#
#
# Convention : Reuss Voigt Hill
#
# Bulk Modulus (GPa) = 24.13813 33.57935 28.85874
# Shear Modulus (GPa) = 19.70667 23.36578 21.53623
#
# Velocity S-wave (km/s) = 2.83618 3.08828 2.96491
# Velocity P-wave (km/s) = 4.53629 5.14034 4.84773
#
# Compressibility (1/GPa) = 0.04142822
#
# Stress axis : x y z
#
# Youngs Moduli (GPa) = 41.12417 24.61309 70.24064
#
# Poissons Ratio (x) = 0.12302 0.47506
# Poissons Ratio (y) = 0.20555 0.49979
# Poissons Ratio (z) = 0.27814 0.17513
#
# Static dielectric constant tensor:
#      x y z
#    x 2.025930 0.000000 0.000000 
#    y 0.000000 1.981720 0.000000 
#    z 0.000000 0.000000 2.228420 
# 
# From -- ./inp_files/444.got.cif
#   From: 2010.05.17/outbox.cif.g08.bks.cpg/sg33_1_cif.got.tgz:444.got - 2010.06.03 17:15:25.
