data_PCOD9344575
_publ_section_title
;
Structure prediction by ZEFSAII (Michael W. Deem and Ramdas Pophale) SiO2 
 PCOD9344575
Probable space group: P N A 21
;
_chemical_formula_sum "Si O2"
_cell_formula_units_Z 32
_cell_length_a 11.063487
_cell_length_b 13.868172
_cell_length_c 8.235808
_cell_angle_alpha 90.000000
_cell_angle_beta 90.000000
_cell_angle_gamma 90.000000
_cell_volume 1263.622827
_symmetry_space_group_name_H-M "P N A 21"
_symmetry_group_IT_number 33
_symmetry_cell_setting 'orthorhombic'
loop_
_space_group_symop_operation_xyz
x,y,z
-x,-y,1/2+z
1/2-x,1/2+y,1/2+z
1/2+x,1/2-y,z
loop_
_atom_site_type_symbol
_atom_site_label
_atom_site_fract_x
_atom_site_fract_y
_atom_site_fract_z
Si Si1 0.072518 0.193793 0.017280
Si Si2 0.427482 0.306207 0.455872
Si Si3 0.592627 0.104138 0.929278
Si Si4 0.840957 0.108173 0.130179
Si Si5 0.252690 0.433142 0.642795
Si Si6 0.747310 0.433142 0.830357
Si Si7 0.659043 0.391827 0.342974
Si Si8 0.092627 0.604138 0.043875
O O1 0.023101 0.299833 0.978744
O O2 0.136006 0.181803 0.193282
O O3 0.959408 0.121855 0.022785
O O4 0.169228 0.157671 0.886474
O O5 0.363994 0.318197 0.279870
O O6 0.330771 0.342329 0.586677
O O7 0.476899 0.200167 0.494408
O O8 0.718681 0.121424 0.030050
O O9 0.546870 1.000000 0.986577
O O10 0.634591 0.096326 0.743247
O O11 0.040591 0.121855 0.450367
O O12 0.828205 0.004157 0.213426
O O13 0.227329 0.500000 0.486576
O O14 0.328205 0.504157 0.759727
O O15 0.865408 0.403673 0.729905
O O16 0.781319 0.378576 0.443102
#
# Coordination Sequence:
#
# PCOD9344575 Si02
#       8
#     4   4   4   4   4   4   4   4
#     4  10  19  34  56  82 113 149 188 238 295 350
#     4  10  19  34  56  82 113 149 188 238 295 350
#     4  10  20  35  56  81 112 151 191 235 286 348
#     4   9  20  33  53  83 111 144 188 239 290 344
#     4   9  19  33  53  84 116 146 190 242 291 340
#     4   9  19  33  53  84 116 146 190 242 291 340
#     4   9  20  33  53  83 111 144 188 239 290 344
#     4  10  20  35  56  81 112 151 191 235 286 348
#
# _framework density 25.324014999999999
#
# number of rings (size 3 to 8) (size 9 to 14) (size 15 to 20)
#    0.000    2.500    0.000    1.500    0.000   18.000 
#    0.000    0.000    0.000   22.500    0.000    0.000 
#    0.000    0.000    0.000    0.000    0.000    0.000 
#
# Total GULP energy -179210.735467 kJ/mol
# GULP energy per Si atom -5600.335483 kJ/mol
# Density = 2.526638 g / cm^3
# Si number density = 25.324015 Si / 1000 Ang^3
#
#
#
# Elastic Constant Matrix: (Units=GPa)
#
#
# Indices 1 2 3 4 5 6 
#
# 1 76.1041 16.1979 9.2952 0.0000 0.0000 0.0000
# 2 16.1979 131.8798 45.4296 0.0000 0.0000 0.0000
# 3 9.2952 45.4296 90.3389 0.0000 0.0000 0.0000
# 4 0.0000 0.0000 0.0000 36.3058 0.0000 0.0000
# 5 0.0000 0.0000 0.0000 0.0000 31.6128 0.0000
# 6 0.0000 0.0000 0.0000 0.0000 0.0000 24.7009
#
#
#
# Elastic Compliance Matrix: (Units=1/GPa)
#
#
# Indices 1 2 3 4 5 6 
#
# 1 0.013526 -0.001430 -0.000673 0.000000 0.000000 0.000000
# 2 -0.001430 0.009323 -0.004541 0.000000 0.000000 0.000000
# 3 -0.000673 -0.004541 0.013422 0.000000 0.000000 0.000000
# 4 0.000000 0.000000 0.000000 0.027544 0.000000 0.000000
# 5 0.000000 0.000000 0.000000 0.000000 0.031633 0.000000
# 6 0.000000 0.000000 0.000000 0.000000 0.000000 0.040484
#
#
# Mechanical properties :
#
#
# Convention : Reuss Voigt Hill
#
# Bulk Modulus (GPa) = 43.50809 48.90757 46.20783
# Shear Modulus (GPa) = 31.87143 33.68391 32.77767
#
# Velocity S-wave (km/s) = 3.55145 3.65103 3.60158
# Velocity P-wave (km/s) = 5.83394 6.09328 5.96502
#
# Compressibility (1/GPa) = 0.02298423
#
# Stress axis : x y z
#
# Youngs Moduli (GPa) = 73.92985 107.26710 74.50320
#
# Poissons Ratio (x) = 0.15335 0.05013
# Poissons Ratio (y) = 0.10569 0.33832
# Poissons Ratio (z) = 0.04974 0.48710
#
# Static dielectric constant tensor:
#      x y z
#    x 2.008170 0.000000 0.000000 
#    y 0.000000 1.968060 0.000000 
#    z 0.000000 0.000000 2.027270 
# 
# From -- ./inp_files/4505.got.cif
#   From: 2010.05.17/outbox.cif.g08.bks.cpg/sg33_3_cif.got.tgz:4505.got - 2010.06.03 17:15:25.
