data_PCOD9344846
_publ_section_title
;
Structure prediction by ZEFSAII (Michael W. Deem and Ramdas Pophale) SiO2 
 PCOD9344846
Probable space group: P N A 21
;
_chemical_formula_sum "Si O2"
_cell_formula_units_Z 28
_cell_length_a 6.873506
_cell_length_b 21.367750
_cell_length_c 9.457483
_cell_angle_alpha 90.000000
_cell_angle_beta 90.000000
_cell_angle_gamma 90.000000
_cell_volume 1389.033370
_symmetry_space_group_name_H-M "P N A 21"
_symmetry_group_IT_number 33
_symmetry_cell_setting 'orthorhombic'
loop_
_space_group_symop_operation_xyz
x,y,z
-x,-y,1/2+z
1/2-x,1/2+y,1/2+z
1/2+x,1/2-y,z
loop_
_atom_site_type_symbol
_atom_site_label
_atom_site_fract_x
_atom_site_fract_y
_atom_site_fract_z
Si Si1 0.470768 0.803241 0.407710
Si Si2 0.207796 0.437704 0.424250
Si Si3 0.742305 0.625363 0.208093
Si Si4 0.843320 0.590184 0.611446
Si Si5 0.911968 0.839436 0.414248
Si Si6 0.695253 0.445433 0.105752
Si Si7 0.299183 0.996939 0.373372
O O1 0.354357 0.813753 0.262547
O O2 0.355961 0.844583 0.525260
O O3 0.683593 0.831540 0.384220
O O4 0.484709 0.730671 0.444260
O O5 0.251629 0.385960 0.542787
O O6 0.241336 0.411658 0.267788
O O7 0.313960 0.499323 0.488573
O O8 0.981601 0.459857 0.413867
O O9 0.533002 0.630456 0.284991
O O10 0.851452 0.564715 0.277830
O O11 0.740598 0.535758 0.519310
O O12 0.072850 0.570784 0.615434
O O13 0.915378 0.884915 0.549168
O O14 0.654539 0.468250 0.265728
#
# Coordination Sequence:
#
# PCOD9344846 Si02
#       7
#     4   4   4   4   4   4   4
#     4  10  20  36  59  80 110 158 209 252 293 365
#     4   9  16  33  58  85 121 151 188 248 312 369
#     4  10  20  35  60  86 114 159 200 247 305 361
#     4   8  15  29  57  84 112 155 191 238 308 362
#     4  11  20  35  59  85 114 156 214 253 300 364
#     4   8  16  29  52  84 113 145 189 249 296 364
#     4   8  15  31  55  86 114 148 189 235 310 365
#
# _framework density 20.157903000000001
#
# number of rings (size 3 to 8) (size 9 to 14) (size 15 to 20)
#    0.000    2.857    1.429    1.714    0.000    0.000 
#    0.000    8.571    9.429    6.857    0.000    0.000 
#    0.000    0.000    0.000    0.000    0.000    0.000 
#
# Total GULP energy -155980.282496 kJ/mol
# GULP energy per Si atom -5570.724375 kJ/mol
# Density = 2.011202 g / cm^3
# Si number density = 20.157903 Si / 1000 Ang^3
#
#
#
# Elastic Constant Matrix: (Units=GPa)
#
#
# Indices 1 2 3 4 5 6 
#
# 1 92.7524 34.2350 42.0429 0.0000 0.0000 0.0000
# 2 34.2350 113.5754 75.6871 0.0000 0.0000 0.0000
# 3 42.0429 75.6871 200.8337 0.0000 0.0000 0.0000
# 4 0.0000 0.0000 0.0000 23.0206 0.0000 0.0000
# 5 0.0000 0.0000 0.0000 0.0000 21.6127 0.0000
# 6 0.0000 0.0000 0.0000 0.0000 0.0000 31.0765
#
#
#
# Elastic Compliance Matrix: (Units=1/GPa)
#
#
# Indices 1 2 3 4 5 6 
#
# 1 0.012504 -0.002704 -0.001599 0.000000 0.000000 0.000000
# 2 -0.002704 0.012342 -0.004085 0.000000 0.000000 0.000000
# 3 -0.001599 -0.004085 0.006854 0.000000 0.000000 0.000000
# 4 0.000000 0.000000 0.000000 0.043439 0.000000 0.000000
# 5 0.000000 0.000000 0.000000 0.000000 0.046269 0.000000
# 6 0.000000 0.000000 0.000000 0.000000 0.000000 0.032179
#
#
# Mechanical properties :
#
#
# Convention : Reuss Voigt Hill
#
# Bulk Modulus (GPa) = 67.00497 79.01016 73.00757
# Shear Modulus (GPa) = 28.51653 32.15507 30.33580
#
# Velocity S-wave (km/s) = 3.76527 3.99828 3.88352
# Velocity P-wave (km/s) = 7.22601 7.78432 7.51036
#
# Compressibility (1/GPa) = 0.01492427
#
# Stress axis : x y z
#
# Youngs Moduli (GPa) = 79.97459 81.02296 145.91022
#
# Poissons Ratio (x) = 0.21906 0.23326
# Poissons Ratio (y) = 0.21623 0.59609
# Poissons Ratio (z) = 0.12785 0.33101
#
# Static dielectric constant tensor:
#      x y z
#    x 1.815460 0.000000 0.000000 
#    y 0.000000 1.729420 0.000000 
#    z 0.000000 0.000000 1.717700 
# 
# From -- ./inp_files/3410.got.cif
#   From: 2010.05.17/outbox.cif.g08.bks.cpg/sg33_2_cif.got.tgz:3410.got - 2010.06.03 17:15:25.
