data_PCOD9344282
_publ_section_title
;
Structure prediction by ZEFSAII (Michael W. Deem and Ramdas Pophale) SiO2 
 PCOD9344282
Probable space group: P B A 2
;
_chemical_formula_sum "Si O2"
_cell_formula_units_Z 16
_cell_length_a 9.896897
_cell_length_b 9.078053
_cell_length_c 7.217929
_cell_angle_alpha 90.000000
_cell_angle_beta 90.000000
_cell_angle_gamma 90.000000
_cell_volume 648.491623
_symmetry_space_group_name_H-M "P B A 2"
_symmetry_group_IT_number 32
_symmetry_cell_setting 'orthorhombic'
loop_
_space_group_symop_operation_xyz
x,y,z
-x,-y,z
1/2-x,1/2+y,z
1/2+x,1/2-y,z
loop_
_atom_site_type_symbol
_atom_site_label
_atom_site_fract_x
_atom_site_fract_y
_atom_site_fract_z
Si Si1 0.854725 0.551992 0.704760
Si Si2 0.405329 0.382926 0.232176
Si Si3 0.645275 0.948009 0.130190
Si Si4 0.405328 0.617074 0.602770
O O1 0.734404 0.472864 0.597383
O O2 0.862769 0.727956 0.688481
O O3 0.000000 0.500000 0.636095
O O4 0.841417 0.500001 0.917475
O O5 0.500000 0.500000 0.125263
O O6 0.362770 0.227956 0.146467
O O7 0.265597 0.472864 0.237566
O O8 0.500001 0.353559 0.417473
O O9 0.500000 0.000000 0.198856
O O10 0.500000 0.500000 0.709683
#
# Coordination Sequence:
#
# PCOD9344282 Si02
#       4
#     4   4   4   4
#     4  11  25  47  74 108 149 194 245 304 369 438
#     4  11  26  46  75 112 150 193 245 306 370 440
#     4  11  25  47  74 108 149 194 245 304 369 438
#     4  11  26  46  75 112 150 193 245 306 370 440
#
# _framework density 24.672639
#
# number of rings (size 3 to 8) (size 9 to 14) (size 15 to 20)
#    0.000    1.000    0.000    4.500    0.000   24.000 
#    0.000    2.500    0.000    0.000    0.000    0.000 
#    0.000    0.000    0.000    0.000    0.000    0.000 
#
# Total GULP energy -89310.450387 kJ/mol
# GULP energy per Si atom -5581.903149 kJ/mol
# Density = 2.461648 g / cm^3
# Si number density = 24.672639 Si / 1000 Ang^3
#
#
#
# Elastic Constant Matrix: (Units=GPa)
#
#
# Indices 1 2 3 4 5 6 
#
# 1 263.0903 108.2200 68.6209 0.0000 0.0000 0.0000
# 2 108.2200 314.7910 81.8426 0.0000 0.0000 0.0000
# 3 68.6209 81.8426 177.2056 0.0000 0.0000 0.0000
# 4 0.0000 0.0000 0.000016366.6875 0.0000 0.0000
# 5 0.0000 0.0000 0.0000 0.0000 12.9105 0.0000
# 6 0.0000 0.0000 0.0000 0.0000 0.0000 64.7777
#
#
#
# Elastic Compliance Matrix: (Units=1/GPa)
#
#
# Indices 1 2 3 4 5 6 
#
# 1 0.004643 -0.001283 -0.001206 0.000000 0.000000 0.000000
# 2 -0.001283 0.003965 -0.001334 0.000000 0.000000 0.000000
# 3 -0.001206 -0.001334 0.006726 0.000000 0.000000 0.000000
# 4 0.000000 0.000000 0.000000 0.000061 0.000000 0.000000
# 5 0.000000 0.000000 0.000000 0.000000 0.077456 0.000000
# 6 0.000000 0.000000 0.000000 0.000000 0.000000 0.015437
#
#
# Mechanical properties :
#
#
# Convention : Reuss Voigt Hill
#
# Bulk Modulus (GPa) = 130.06134 141.38377 135.72256
# Shear Modulus (GPa) = 42.19513 3321.96869 1682.08191
#
# Velocity S-wave (km/s) = 4.13994 36.73338 26.13886
# Velocity P-wave (km/s) = 8.69951 43.08770 31.08240
#
# Compressibility (1/GPa) = 0.00768868
#
# Stress axis : x y z
#
# Youngs Moduli (GPa) = 215.37463 252.23083 148.67143
#
# Poissons Ratio (x) = 0.32356 0.17923
# Poissons Ratio (y) = 0.27628 0.19837
# Poissons Ratio (z) = 0.25964 0.33656
#
# Static dielectric constant tensor:
#      x y z
#    x 1.430160 0.000000 0.000000 
#    y 0.000000 1.951850 0.000000 
#    z 0.000000 0.000000 2.108820 
# 
# From -- ./inp_files/2107.got.cif
#   From: 2010.05.17/outbox.cif.g08.bks.cpg/sg32_2_cif.got.tgz:2107.got - 2010.06.03 17:12:27.
