data_PCOD9344141
_publ_section_title
;
Structure prediction by ZEFSAII (Michael W. Deem and Ramdas Pophale) SiO2 
 PCOD9344141
Probable space group: P B A 2
;
_chemical_formula_sum "Si O2"
_cell_formula_units_Z 20
_cell_length_a 14.602824
_cell_length_b 9.185738
_cell_length_c 6.096222
_cell_angle_alpha 90.000000
_cell_angle_beta 90.000000
_cell_angle_gamma 90.000000
_cell_volume 817.733291
_symmetry_space_group_name_H-M "P B A 2"
_symmetry_group_IT_number 32
_symmetry_cell_setting 'orthorhombic'
loop_
_space_group_symop_operation_xyz
x,y,z
-x,-y,z
1/2-x,1/2+y,z
1/2+x,1/2-y,z
loop_
_atom_site_type_symbol
_atom_site_label
_atom_site_fract_x
_atom_site_fract_y
_atom_site_fract_z
Si Si1 0.489036 0.671548 0.451090
Si Si2 0.777802 0.161806 0.980127
Si Si3 0.341540 0.157502 0.400939
Si Si4 0.076743 0.409078 0.128004
Si Si5 0.685888 0.395454 0.699386
O O1 0.500000 0.500000 0.407400
O O2 0.583540 0.744694 0.529697
O O3 0.457589 0.758194 0.232175
O O4 0.407999 0.680212 0.629708
O O5 0.759652 0.293276 0.816417
O O6 0.829891 0.031032 0.859735
O O7 0.816973 0.232485 0.200537
O O8 0.673838 0.107488 0.015126
O O9 0.245868 0.083753 0.478784
O O10 0.400424 0.019370 0.325845
O O11 0.000000 0.500000 0.996181
#
# Coordination Sequence:
#
# PCOD9344141 Si02
#       5
#     4   4   4   4   4
#     4  11  25  45  74 107 148 196 248 316 389 454
#     4  12  25  44  75 106 148 199 253 315 388 466
#     4  11  25  49  72 103 151 200 249 318 387 458
#     4  10  23  46  73  99 144 199 241 305 382 456
#     4  12  26  44  73 108 147 197 254 315 384 463
#
# _framework density 24.457850000000001
#
# number of rings (size 3 to 8) (size 9 to 14) (size 15 to 20)
#    0.000    0.800    4.000    2.400    5.600    1.600 
#    7.200    0.000    0.000    0.000    0.000    0.000 
#    0.000    0.000    0.000    0.000    0.000    0.000 
#
# Total GULP energy -111677.408235 kJ/mol
# GULP energy per Si atom -5583.870412 kJ/mol
# Density = 2.440218 g / cm^3
# Si number density = 24.457850 Si / 1000 Ang^3
#
#
#
# Elastic Constant Matrix: (Units=GPa)
#
#
# Indices 1 2 3 4 5 6 
#
# 1 120.3284 9.6120 28.9175 0.0000 0.0000 0.0000
# 2 9.6120 88.7451 -3.0593 0.0000 0.0000 0.0000
# 3 28.9175 -3.0593 20.9941 0.0000 0.0000 0.0000
# 4 0.0000 0.0000 0.0000 20.0567 0.0000 0.0000
# 5 0.0000 0.0000 0.0000 0.0000 33.0052 0.0000
# 6 0.0000 0.0000 0.0000 0.0000 0.0000 48.5068
#
#
#
# Elastic Compliance Matrix: (Units=1/GPa)
#
#
# Indices 1 2 3 4 5 6 
#
# 1 0.012766 -0.001999 -0.017876 0.000000 0.000000 0.000000
# 2 -0.001999 0.011638 0.004449 0.000000 0.000000 0.000000
# 3 -0.017876 0.004449 0.072903 0.000000 0.000000 0.000000
# 4 0.000000 0.000000 0.000000 0.049859 0.000000 0.000000
# 5 0.000000 0.000000 0.000000 0.000000 0.030298 0.000000
# 6 0.000000 0.000000 0.000000 0.000000 0.000000 0.020616
#
#
# Mechanical properties :
#
#
# Convention : Reuss Voigt Hill
#
# Bulk Modulus (GPa) = 15.04740 33.44533 24.24637
# Shear Modulus (GPa) = 19.91379 33.28688 26.60033
#
# Velocity S-wave (km/s) = 2.85653 3.69316 3.30145
# Velocity P-wave (km/s) = 4.12861 5.64715 4.94650
#
# Compressibility (1/GPa) = 0.06645665
#
# Stress axis : x y z
#
# Youngs Moduli (GPa) = 78.33210 85.92458 13.71689
#
# Poissons Ratio (x) = 0.17176 0.24520
# Poissons Ratio (y) = 0.15658 -0.06103
# Poissons Ratio (z) = 1.40023 -0.38230
#
# Static dielectric constant tensor:
#      x y z
#    x 2.073600 0.000000 0.000000 
#    y 0.000000 2.010080 0.000000 
#    z 0.000000 0.000000 2.182940 
# 
# From -- ./inp_files/1385.got.cif
#   From: 2010.05.17/outbox.cif.g08.bks.cpg/sg32_1_cif.got.tgz:1385.got - 2010.06.03 17:12:27.
