data_PCOD9344132
_publ_section_title
;
Structure prediction by ZEFSAII (Michael W. Deem and Ramdas Pophale) SiO2 
 PCOD9344132
Probable space group: P B A 2
;
_chemical_formula_sum "Si O2"
_cell_formula_units_Z 32
_cell_length_a 24.612207
_cell_length_b 9.816744
_cell_length_c 5.355477
_cell_angle_alpha 90.000000
_cell_angle_beta 90.000000
_cell_angle_gamma 90.000000
_cell_volume 1293.946092
_symmetry_space_group_name_H-M "P B A 2"
_symmetry_group_IT_number 32
_symmetry_cell_setting 'orthorhombic'
loop_
_space_group_symop_operation_xyz
x,y,z
-x,-y,z
1/2-x,1/2+y,z
1/2+x,1/2-y,z
loop_
_atom_site_type_symbol
_atom_site_label
_atom_site_fract_x
_atom_site_fract_y
_atom_site_fract_z
Si Si1 0.181845 0.342496 0.871550
Si Si2 0.389988 0.041234 0.156585
Si Si3 0.253459 0.916967 0.364088
Si Si4 0.112628 0.085009 0.854327
Si Si5 0.878549 0.233694 0.821391
Si Si6 0.027252 0.619292 0.507959
Si Si7 0.457467 0.624295 0.356390
Si Si8 0.701766 0.836483 0.481826
O O1 0.128657 0.435567 0.943538
O O2 0.210598 0.368036 0.605941
O O3 0.162813 0.187264 0.886967
O O4 0.222662 0.383470 0.092669
O O5 0.399010 0.195319 0.068127
O O6 0.443011 0.016435 0.314675
O O7 0.339675 0.062553 0.343527
O O8 0.202530 0.815186 0.376138
O O9 0.244264 0.076399 0.425945
O O10 0.083595 0.116383 0.590830
O O11 0.127179 0.925886 0.842746
O O12 0.073044 0.111902 0.090906
O O13 0.924311 0.290773 0.632312
O O14 0.821513 0.309957 0.756057
O O15 0.000000 0.500000 0.681568
O O16 0.989142 0.734877 0.394387
O O17 0.500000 0.500000 0.375390
#
# Coordination Sequence:
#
# PCOD9344132 Si02
#       8
#     4   4   4   4   4   4   4   4
#     4  11  25  46  69 103 137 182 226 286 338 414
#     4  10  23  45  68  96 142 180 231 286 353 406
#     4  11  25  45  72 104 138 174 234 277 342 412
#     4  12  27  43  71  96 144 181 227 285 351 404
#     4  11  24  44  67  99 137 185 225 288 349 413
#     4  11  25  42  70 101 135 188 237 286 349 418
#     4  12  25  46  65 103 138 179 232 289 336 415
#     4  10  25  44  70 101 139 178 224 293 337 418
#
# _framework density 24.730550999999998
#
# number of rings (size 3 to 8) (size 9 to 14) (size 15 to 20)
#    0.000    1.000    2.500    2.625    8.750    1.500 
#    0.000    0.000    0.000    0.000    0.000    0.000 
#    0.000    0.000    0.000    0.000    0.000    0.000 
#
# Total GULP energy -178606.064230 kJ/mol
# GULP energy per Si atom -5581.439507 kJ/mol
# Density = 2.467426 g / cm^3
# Si number density = 24.730551 Si / 1000 Ang^3
#
#
#
# Elastic Constant Matrix: (Units=GPa)
#
#
# Indices 1 2 3 4 5 6 
#
# 1 16.4912 22.7870 20.5535 0.0000 0.0000 0.0000
# 2 22.7870 158.1094 26.2070 0.0000 0.0000 0.0000
# 3 20.5535 26.2070 111.0256 0.0000 0.0000 0.0000
# 4 0.0000 0.0000 0.0000 29.5964 0.0000 0.0000
# 5 0.0000 0.0000 0.0000 0.0000 29.9786 0.0000
# 6 0.0000 0.0000 0.0000 0.0000 0.0000 34.6408
#
#
#
# Elastic Compliance Matrix: (Units=1/GPa)
#
#
# Indices 1 2 3 4 5 6 
#
# 1 0.094618 -0.011170 -0.014879 0.000000 0.000000 0.000000
# 2 -0.011170 0.007901 0.000203 0.000000 0.000000 0.000000
# 3 -0.014879 0.000203 0.011714 0.000000 0.000000 0.000000
# 4 0.000000 0.000000 0.000000 0.033788 0.000000 0.000000
# 5 0.000000 0.000000 0.000000 0.000000 0.033357 0.000000
# 6 0.000000 0.000000 0.000000 0.000000 0.000000 0.028868
#
#
# Mechanical properties :
#
#
# Convention : Reuss Voigt Hill
#
# Bulk Modulus (GPa) = 15.99005 47.19125 31.59065
# Shear Modulus (GPa) = 17.68132 33.24839 25.46485
#
# Velocity S-wave (km/s) = 2.67677 3.67062 3.21236
# Velocity P-wave (km/s) = 4.00415 6.09001 5.15371
#
# Compressibility (1/GPa) = 0.06253891
#
# Stress axis : x y z
#
# Youngs Moduli (GPa) = 10.56886 126.56666 85.37119
#
# Poissons Ratio (x) = 1.41377 1.27026
# Poissons Ratio (y) = 0.11806 -0.01732
# Poissons Ratio (z) = 0.15726 -0.02568
#
# Static dielectric constant tensor:
#      x y z
#    x 2.272520 0.000000 0.000000 
#    y 0.000000 2.062960 0.000000 
#    z 0.000000 0.000000 1.972940 
# 
# From -- ./inp_files/1832.got.cif
#   From: 2010.05.17/outbox.cif.g08.bks.cpg/sg32_1_cif.got.tgz:1832.got - 2010.06.03 17:12:27.
