data_PCOD9344800
_publ_section_title
;
Structure prediction by ZEFSAII (Michael W. Deem and Ramdas Pophale) SiO2 
 PCOD9344800
Probable space group: P N A 21
;
_chemical_formula_sum "Si O2"
_cell_formula_units_Z 32
_cell_length_a 5.855132
_cell_length_b 18.004920
_cell_length_c 13.759369
_cell_angle_alpha 90.000000
_cell_angle_beta 90.000000
_cell_angle_gamma 90.000000
_cell_volume 1450.528961
_symmetry_space_group_name_H-M "P N A 21"
_symmetry_group_IT_number 33
_symmetry_cell_setting 'orthorhombic'
loop_
_space_group_symop_operation_xyz
x,y,z
-x,-y,1/2+z
1/2-x,1/2+y,1/2+z
1/2+x,1/2-y,z
loop_
_atom_site_type_symbol
_atom_site_label
_atom_site_fract_x
_atom_site_fract_y
_atom_site_fract_z
Si Si1 0.892257 0.225017 0.066410
Si Si2 0.158047 0.025186 0.881249
Si Si3 0.841953 0.974814 0.163288
Si Si4 0.107743 0.774983 0.978125
Si Si5 0.587621 0.828114 0.382468
Si Si6 0.087620 0.671886 0.162067
Si Si7 0.760435 0.070742 0.000589
Si Si8 0.760437 0.070742 0.543948
O O1 0.637865 0.246443 0.108854
O O2 0.900108 0.136523 0.055627
O O3 0.876416 0.262717 0.958760
O O4 0.204259 0.113589 0.878244
O O5 0.175273 0.997030 0.772268
O O6 0.910947 0.019705 0.929964
O O7 0.321588 0.980757 0.954882
O O8 0.678411 0.019244 0.089655
O O9 0.795739 0.886411 0.166291
O O10 0.089052 0.980295 0.114572
O O11 0.362135 0.753557 0.935681
O O12 0.123584 0.737283 0.085774
O O13 0.099893 0.863477 0.988909
O O14 0.531585 0.804408 0.272268
O O15 0.401494 0.881740 0.431473
O O16 0.901491 0.618261 0.113063
#
# Coordination Sequence:
#
# PCOD9344800 Si02
#       8
#     4   4   4   4   4   4   4   4
#     4  10  20  35  55  84 113 152 186 233 289 346
#     4  10  20  35  55  81 111 149 196 236 287 350
#     4  10  20  35  55  81 111 149 196 236 287 350
#     4  10  20  35  55  84 113 152 186 233 289 346
#     4  10  20  33  54  84 114 146 187 236 292 347
#     4  10  20  33  54  84 114 146 187 236 292 347
#     4  10  20  35  54  80 116 151 185 238 295 344
#     4  10  20  35  54  80 116 151 185 238 295 344
#
# _framework density 22.060915999999999
#
# number of rings (size 3 to 8) (size 9 to 14) (size 15 to 20)
#    0.000    2.000    2.500    1.500    0.000    5.000 
#    0.000    0.000    0.000    6.000    0.000    0.000 
#    0.000    0.000    0.000    0.000    0.000    0.000 
#
# Total GULP energy -178155.296900 kJ/mol
# GULP energy per Si atom -5567.353028 kJ/mol
# Density = 2.201070 g / cm^3
# Si number density = 22.060916 Si / 1000 Ang^3
#
#
#
# Elastic Constant Matrix: (Units=GPa)
#
#
# Indices 1 2 3 4 5 6 
#
# 1 87.9900 0.5716 17.1274 0.0000 0.0000 0.0000
# 2 0.5716 86.4703 14.2593 0.0000 0.0000 0.0000
# 3 17.1274 14.2593 75.7690 0.0000 0.0000 0.0000
# 4 0.0000 0.0000 0.0000 27.8204 0.0000 0.0000
# 5 0.0000 0.0000 0.0000 0.0000 10.8286 0.0000
# 6 0.0000 0.0000 0.0000 0.0000 0.0000 37.1848
#
#
#
# Elastic Compliance Matrix: (Units=1/GPa)
#
#
# Indices 1 2 3 4 5 6 
#
# 1 0.011900 0.000377 -0.002761 0.000000 0.000000 0.000000
# 2 0.000377 0.011947 -0.002333 0.000000 0.000000 0.000000
# 3 -0.002761 -0.002333 0.014261 0.000000 0.000000 0.000000
# 4 0.000000 0.000000 0.000000 0.035945 0.000000 0.000000
# 5 0.000000 0.000000 0.000000 0.000000 0.092348 0.000000
# 6 0.000000 0.000000 0.000000 0.000000 0.000000 0.026893
#
#
# Mechanical properties :
#
#
# Convention : Reuss Voigt Hill
#
# Bulk Modulus (GPa) = 34.87638 34.90511 34.89074
# Shear Modulus (GPa) = 23.55310 29.71818 26.63564
#
# Velocity S-wave (km/s) = 3.27102 3.67426 3.47849
# Velocity P-wave (km/s) = 5.48722 5.81866 5.65537
#
# Compressibility (1/GPa) = 0.02867270
#
# Stress axis : x y z
#
# Youngs Moduli (GPa) = 84.03449 83.70318 70.12019
#
# Poissons Ratio (x) = -0.03152 0.19359
# Poissons Ratio (y) = -0.03165 0.16362
# Poissons Ratio (z) = 0.23200 0.19532
#
# Static dielectric constant tensor:
#      x y z
#    x 1.988170 0.000000 0.000000 
#    y 0.000000 1.817670 0.000000 
#    z 0.000000 0.000000 1.792120 
# 
# From -- ./inp_files/5550.got.cif
#   From: 2010.05.17/outbox.cif.g08.bks.cpg/sg33_3_cif.got.tgz:5550.got - 2010.06.03 17:15:25.
