data_PCOD9344094
_publ_section_title
;
Structure prediction by ZEFSAII (Michael W. Deem and Ramdas Pophale) SiO2 
 PCOD9344094
Probable space group: P B A 2
;
_chemical_formula_sum "Si O2"
_cell_formula_units_Z 32
_cell_length_a 8.224027
_cell_length_b 15.234857
_cell_length_c 12.383831
_cell_angle_alpha 90.000000
_cell_angle_beta 90.000000
_cell_angle_gamma 90.000000
_cell_volume 1551.593410
_symmetry_space_group_name_H-M "P B A 2"
_symmetry_group_IT_number 32
_symmetry_cell_setting 'orthorhombic'
loop_
_space_group_symop_operation_xyz
x,y,z
-x,-y,z
1/2-x,1/2+y,z
1/2+x,1/2-y,z
loop_
_atom_site_type_symbol
_atom_site_label
_atom_site_fract_x
_atom_site_fract_y
_atom_site_fract_z
Si Si1 0.618179 0.197626 0.146520
Si Si2 0.372418 0.290945 0.798555
Si Si3 0.629690 0.432175 0.837135
Si Si4 0.834520 0.327515 0.002900
Si Si5 0.138681 0.443224 0.742880
Si Si6 0.617709 0.690787 0.299764
Si Si7 0.564722 0.829083 0.594936
Si Si8 0.647771 0.306473 0.452609
O O1 0.709702 0.275949 0.081644
O O2 0.498201 0.146347 0.066122
O O3 0.494383 0.243566 0.230049
O O4 0.758928 0.146984 0.213428
O O5 0.532586 0.350351 0.789704
O O6 0.218297 0.356647 0.795056
O O7 0.371079 0.221840 0.701369
O O8 0.382185 0.243362 0.912166
O O9 0.500000 0.500000 0.884796
O O10 0.718087 0.485903 0.742116
O O11 0.744968 0.401306 0.933482
O O12 0.000000 0.500000 0.802553
O O13 0.051581 0.406508 0.636448
O O14 0.486469 0.644309 0.378488
O O15 0.737625 0.746966 0.375845
O O16 0.455417 0.759640 0.528367
O O17 0.720283 0.857412 0.524580
#
# Coordination Sequence:
#
# PCOD9344094 Si02
#       8
#     4   4   4   4   4   4   4   4
#     4   9  18  29  58  84 121 138 201 237 317 336
#     4  11  22  37  54  79 122 155 203 241 282 350
#     4  10  23  38  49  75 126 166 190 246 298 340
#     4  11  19  34  57  86 111 166 198 238 285 373
#     4  11  24  36  52  78 122 160 191 239 287 341
#     4   8  16  34  48  91 119 134 171 285 298 336
#     4  11  20  35  56  87 110 163 195 236 281 369
#     4   9  18  31  59  81 121 140 197 234 322 332
#
# _framework density 20.623957999999998
#
# number of rings (size 3 to 8) (size 9 to 14) (size 15 to 20)
#    0.000    2.000    2.500    1.500    3.500    0.000 
#    0.000    0.000    0.000    0.000    0.000   10.500 
#    0.000    0.000    0.000    0.000    0.000    0.000 
#
# Total GULP energy -178273.298781 kJ/mol
# GULP energy per Si atom -5571.040587 kJ/mol
# Density = 2.057702 g / cm^3
# Si number density = 20.623958 Si / 1000 Ang^3
#
#
#
# Elastic Constant Matrix: (Units=GPa)
#
#
# Indices 1 2 3 4 5 6 
#
# 1 141.2361 27.9986 56.6338 0.0000 0.0000 0.0000
# 2 27.9986 50.9197 20.9139 0.0000 0.0000 0.0000
# 3 56.6338 20.9139 86.8746 0.0000 0.0000 0.0000
# 4 0.0000 0.0000 0.0000 5.6518 0.0000 0.0000
# 5 0.0000 0.0000 0.0000 0.0000 65.4382 0.0000
# 6 0.0000 0.0000 0.0000 0.0000 0.0000 38.1248
#
#
#
# Elastic Compliance Matrix: (Units=1/GPa)
#
#
# Indices 1 2 3 4 5 6 
#
# 1 0.010018 -0.003136 -0.005776 0.000000 0.000000 0.000000
# 2 -0.003136 0.022775 -0.003438 0.000000 0.000000 0.000000
# 3 -0.005776 -0.003438 0.016104 0.000000 0.000000 0.000000
# 4 0.000000 0.000000 0.000000 0.176935 0.000000 0.000000
# 5 0.000000 0.000000 0.000000 0.000000 0.015282 0.000000
# 6 0.000000 0.000000 0.000000 0.000000 0.000000 0.026230
#
#
# Mechanical properties :
#
#
# Convention : Reuss Voigt Hill
#
# Bulk Modulus (GPa) = 41.32817 54.45810 47.89313
# Shear Modulus (GPa) = 16.66057 33.40856 25.03456
#
# Velocity S-wave (km/s) = 2.84531 4.02915 3.48783
# Velocity P-wave (km/s) = 5.55669 6.93599 6.28430
#
# Compressibility (1/GPa) = 0.02419657
#
# Stress axis : x y z
#
# Youngs Moduli (GPa) = 99.81929 43.90687 62.09695
#
# Poissons Ratio (x) = 0.13770 0.35866
# Poissons Ratio (y) = 0.31306 0.21351
# Poissons Ratio (z) = 0.57654 0.15097
#
# Static dielectric constant tensor:
#      x y z
#    x 1.835060 0.000000 0.000000 
#    y 0.000000 1.704380 0.000000 
#    z 0.000000 0.000000 1.771150 
# 
# From -- ./inp_files/3806.got.cif
#   From: 2010.05.17/outbox.cif.g08.bks.cpg/sg32_2_cif.got.tgz:3806.got - 2010.06.03 17:12:27.
