data_PCOD9344685
_publ_section_title
;
Structure prediction by ZEFSAII (Michael W. Deem and Ramdas Pophale) SiO2 
 PCOD9344685
Probable space group: P N A 21
;
_chemical_formula_sum "Si O2"
_cell_formula_units_Z 28
_cell_length_a 5.163299
_cell_length_b 13.198432
_cell_length_c 17.158841
_cell_angle_alpha 90.000000
_cell_angle_beta 90.000000
_cell_angle_gamma 90.000000
_cell_volume 1169.331272
_symmetry_space_group_name_H-M "P N A 21"
_symmetry_group_IT_number 33
_symmetry_cell_setting 'orthorhombic'
loop_
_space_group_symop_operation_xyz
x,y,z
-x,-y,1/2+z
1/2-x,1/2+y,1/2+z
1/2+x,1/2-y,z
loop_
_atom_site_type_symbol
_atom_site_label
_atom_site_fract_x
_atom_site_fract_y
_atom_site_fract_z
Si Si1 0.926961 0.313711 0.531300
Si Si2 0.939002 0.851763 0.260728
Si Si3 0.788869 0.183063 0.241428
Si Si4 0.565811 0.123502 0.695843
Si Si5 0.398470 0.946054 0.887261
Si Si6 0.893721 0.073852 0.914351
Si Si7 0.209746 0.316813 0.068218
O O1 0.129065 0.220020 0.536906
O O2 0.990335 0.382185 0.606336
O O3 0.002060 0.366299 0.451558
O O4 0.153451 0.916958 0.215524
O O5 0.026804 0.841548 0.349973
O O6 0.668270 0.907938 0.250637
O O7 0.897348 0.743139 0.219851
O O8 0.582558 0.276393 0.246172
O O9 0.710147 0.112585 0.312636
O O10 0.746935 0.138323 0.154710
O O11 0.655445 0.013171 0.876601
O O12 0.154463 0.008289 0.921691
O O13 0.789516 0.113178 0.996397
O O14 0.416388 0.223863 0.062601
#
# Coordination Sequence:
#
# PCOD9344685 Si02
#       7
#     4   4   4   4   4   4   4
#     4  12  21  41  66  95 130 165 225 269 314 392
#     4  10  20  36  60  85 131 156 210 256 304 396
#     4  10  21  45  72  94 120 172 237 277 315 376
#     4  10  19  37  60  97 114 159 215 259 315 369
#     4  12  26  43  63  98 140 174 212 267 343 403
#     4  12  26  43  61 101 138 175 211 265 350 396
#     4  10  23  43  72  94 123 171 232 281 313 382
#
# _framework density 23.945309999999999
#
# number of rings (size 3 to 8) (size 9 to 14) (size 15 to 20)
#    0.000    1.143    2.857    4.286    4.000    0.000 
#    7.714    0.000    0.000    0.000    0.000    0.000 
#    0.000    0.000    0.000    0.000    0.000    0.000 
#
# Total GULP energy -156589.453930 kJ/mol
# GULP energy per Si atom -5592.480498 kJ/mol
# Density = 2.389081 g / cm^3
# Si number density = 23.945310 Si / 1000 Ang^3
#
#
#
# Elastic Constant Matrix: (Units=GPa)
#
#
# Indices 1 2 3 4 5 6 
#
# 1 106.6329 -9.5046 -35.3564 0.0000 0.0000 0.0000
# 2 -9.5046 19.7410 20.5766 0.0000 0.0000 0.0000
# 3 -35.3564 20.5766 109.4997 0.0000 0.0000 0.0000
# 4 0.0000 0.0000 0.0000 39.4767 0.0000 0.0000
# 5 0.0000 0.0000 0.0000 0.0000 34.9600 0.0000
# 6 0.0000 0.0000 0.0000 0.0000 0.0000 7.1126
#
#
#
# Elastic Compliance Matrix: (Units=1/GPa)
#
#
# Indices 1 2 3 4 5 6 
#
# 1 0.010560 0.001903 0.003052 0.000000 0.000000 0.000000
# 2 0.001903 0.063338 -0.011288 0.000000 0.000000 0.000000
# 3 0.003052 -0.011288 0.012239 0.000000 0.000000 0.000000
# 4 0.000000 0.000000 0.000000 0.025331 0.000000 0.000000
# 5 0.000000 0.000000 0.000000 0.000000 0.028604 0.000000
# 6 0.000000 0.000000 0.000000 0.000000 0.000000 0.140596
#
#
# Mechanical properties :
#
#
# Convention : Reuss Voigt Hill
#
# Bulk Modulus (GPa) = 13.61089 20.81164 17.21127
# Shear Modulus (GPa) = 15.73199 33.65372 24.69285
#
# Velocity S-wave (km/s) = 2.56598 3.75299 3.21474
# Velocity P-wave (km/s) = 3.80466 5.24310 4.58070
#
# Compressibility (1/GPa) = 0.07347058
#
# Stress axis : x y z
#
# Youngs Moduli (GPa) = 94.70117 15.78840 81.70587
#
# Poissons Ratio (x) = -0.03004 -0.24937
# Poissons Ratio (y) = -0.18020 0.92227
# Poissons Ratio (z) = -0.28903 0.17821
#
# Static dielectric constant tensor:
#      x y z
#    x 1.974350 0.000000 0.000000 
#    y 0.000000 1.839350 0.000000 
#    z 0.000000 0.000000 1.910430 
# 
# From -- ./inp_files/7411.got.cif
#   From: 2010.05.17/outbox.cif.g08.bks.cpg/sg33_4_cif.got.tgz:7411.got - 2010.06.03 17:15:25.
