data_PCOD9344057
_publ_section_title
;
Structure prediction by ZEFSAII (Michael W. Deem and Ramdas Pophale) SiO2 
 PCOD9344057
Probable space group: P B A 2
;
_chemical_formula_sum "Si O2"
_cell_formula_units_Z 30
_cell_length_a 20.904519
_cell_length_b 12.113531
_cell_length_c 5.478816
_cell_angle_alpha 90.000000
_cell_angle_beta 90.000000
_cell_angle_gamma 90.000000
_cell_volume 1387.387092
_symmetry_space_group_name_H-M "P B A 2"
_symmetry_group_IT_number 32
_symmetry_cell_setting 'orthorhombic'
loop_
_space_group_symop_operation_xyz
x,y,z
-x,-y,z
1/2-x,1/2+y,z
1/2+x,1/2-y,z
loop_
_atom_site_type_symbol
_atom_site_label
_atom_site_fract_x
_atom_site_fract_y
_atom_site_fract_z
Si Si1 0.063841 0.197196 0.992100
Si Si2 0.178985 0.788268 0.954351
Si Si3 0.598055 0.115943 0.377475
Si Si4 0.105324 0.834325 0.451797
Si Si5 0.500000 0.500000 0.273176
Si Si6 0.875370 0.450523 0.993777
Si Si7 0.022290 0.663829 0.667392
Si Si8 0.822392 0.680721 0.778197
O O1 0.131476 0.216955 0.855117
O O2 0.006824 0.231843 0.813698
O O3 0.070317 0.293810 0.192161
O O4 0.043407 0.083453 0.113306
O O5 0.141127 0.833976 0.714357
O O6 0.169270 0.656092 0.978187
O O7 0.252680 0.806850 0.887462
O O8 0.151005 0.835740 0.210990
O O9 0.540806 0.106607 0.568009
O O10 0.663145 0.166053 0.490695
O O11 0.610093 0.998271 0.259652
O O12 0.067175 0.717806 0.461709
O O13 0.051525 0.928300 0.423010
O O14 0.938170 0.408159 0.856545
O O15 0.847027 0.561117 0.871799
#
# Coordination Sequence:
#
# PCOD9344057 Si02
#       8
#     4   4   4   4   2   4   4   4
#     4  10  23  42  69 101 147 181 241 307 361 445
#     4  11  27  50  68 103 148 189 250 296 357 447
#     4  10  22  42  66 102 138 183 238 304 368 434
#     4  11  26  45  73 103 146 190 237 308 354 446
#     4  12  22  46  74 108 144 196 242 298 404 432
#     4  10  24  41  69 100 135 189 228 299 373 420
#     4  10  22  43  63 109 144 180 236 313 371 449
#     4  10  25  46  67 101 139 191 248 300 356 446
#
# _framework density 21.623383
#
# number of rings (size 3 to 8) (size 9 to 14) (size 15 to 20)
#    0.000    1.600    1.333    1.600    7.467    9.067 
#    2.400    0.000    0.000    0.000    0.000    0.000 
#    0.000    0.000    0.000    0.000    0.000    0.000 
#
# Total GULP energy -167444.878436 kJ/mol
# GULP energy per Si atom -5581.495948 kJ/mol
# Density = 2.157417 g / cm^3
# Si number density = 21.623383 Si / 1000 Ang^3
#
#
#
# Elastic Constant Matrix: (Units=GPa)
#
#
# Indices 1 2 3 4 5 6 
#
# 1 150.7189 56.2250 70.2643 0.0000 0.0000 0.0000
# 2 56.2250 112.4228 52.8254 0.0000 0.0000 0.0000
# 3 70.2643 52.8254 111.7154 0.0000 0.0000 0.0000
# 4 0.0000 0.0000 0.0000 -3.2137 0.0000 0.0000
# 5 0.0000 0.0000 0.0000 0.0000 22.0589 0.0000
# 6 0.0000 0.0000 0.0000 0.0000 0.0000 28.0282
#
#
#
# Elastic Compliance Matrix: (Units=1/GPa)
#
#
# Indices 1 2 3 4 5 6 
#
# 1 0.009953 -0.002618 -0.005022 0.000000 0.000000 0.000000
# 2 -0.002618 0.012124 -0.004087 0.000000 0.000000 0.000000
# 3 -0.005022 -0.004087 0.014042 0.000000 0.000000 0.000000
# 4 0.000000 0.000000 0.000000 -0.311169 0.000000 0.000000
# 5 0.000000 0.000000 0.000000 0.000000 0.045333 0.000000
# 6 0.000000 0.000000 0.000000 0.000000 0.000000 0.035678
#
#
# Mechanical properties :
#
#
# Convention : Reuss Voigt Hill
#
# Bulk Modulus (GPa) = 78.94770 81.49850 80.22310
# Shear Modulus (GPa) = -30.05482 22.41083 -3.82199
#
# Velocity S-wave (km/s) = -3.73221 3.22283 -1.33093
# Velocity P-wave (km/s) = 4.24465 7.18475 5.90075
#
# Compressibility (1/GPa) = 0.01266661
#
# Stress axis : x y z
#
# Youngs Moduli (GPa) = 100.47592 82.47798 71.21342
#
# Poissons Ratio (x) = 0.21591 0.35763
# Poissons Ratio (y) = 0.26303 0.29102
# Poissons Ratio (z) = 0.50458 0.33706
#
# Static dielectric constant tensor:
#      x y z
#    x 1.803150 0.000000 0.000000 
#    y 0.000000 1.791660 0.000000 
#    z 0.000000 0.000000 1.947640 
# 
# From -- ./inp_files/1596.got.cif
#   From: 2010.05.17/outbox.cif.g08.bks.cpg/sg32_1_cif.got.tgz:1596.got - 2010.06.03 17:12:27.
