data_PCOD9344888
_publ_section_title
;
Structure prediction by ZEFSAII (Michael W. Deem and Ramdas Pophale) SiO2 
 PCOD9344888
Probable space group: P N A 21
;
_chemical_formula_sum "Si O2"
_cell_formula_units_Z 28
_cell_length_a 11.314085
_cell_length_b 21.588088
_cell_length_c 5.025767
_cell_angle_alpha 90.000000
_cell_angle_beta 90.000000
_cell_angle_gamma 90.000000
_cell_volume 1227.540889
_symmetry_space_group_name_H-M "P N A 21"
_symmetry_group_IT_number 33
_symmetry_cell_setting 'orthorhombic'
loop_
_space_group_symop_operation_xyz
x,y,z
-x,-y,1/2+z
1/2-x,1/2+y,1/2+z
1/2+x,1/2-y,z
loop_
_atom_site_type_symbol
_atom_site_label
_atom_site_fract_x
_atom_site_fract_y
_atom_site_fract_z
Si Si1 0.250407 0.947430 0.961730
Si Si2 0.944290 0.472091 0.052389
Si Si3 0.114121 0.744253 0.970170
Si Si4 0.933671 0.136104 0.778475
Si Si5 0.562625 0.476042 0.696204
Si Si6 0.226441 0.326938 0.165276
Si Si7 0.978549 0.327659 0.961838
O O1 0.312294 0.887955 0.827725
O O2 0.325712 0.993117 0.143475
O O3 0.186561 0.991324 0.749013
O O4 0.151663 0.912643 0.132888
O O5 0.962606 0.503178 0.764850
O O6 0.947932 0.399059 0.018730
O O7 0.240963 0.770783 0.865587
O O8 0.056032 0.713332 0.715159
O O9 0.050008 0.804875 0.091274
O O10 0.096832 0.695715 0.209988
O O11 0.050516 0.094394 0.803682
O O12 0.853278 0.157611 0.026850
O O13 0.525381 0.485049 0.391291
O O14 0.121766 0.318208 0.950658
#
# Coordination Sequence:
#
# PCOD9344888 Si02
#       7
#     4   4   4   4   4   4   4
#     4  10  22  39  69 103 133 182 221 288 356 421
#     4  12  25  44  70 104 137 179 233 287 357 420
#     4  11  26  45  67 101 134 185 244 283 347 420
#     4  10  21  43  72  98 135 184 230 279 346 435
#     4  10  20  36  62  98 135 162 222 279 334 407
#     4  11  22  46  75  94 138 193 232 280 369 429
#     4  12  26  45  71 100 142 179 240 302 337 434
#
# _framework density 22.809833000000001
#
# number of rings (size 3 to 8) (size 9 to 14) (size 15 to 20)
#    0.000    1.143    4.286    1.714    4.000    0.000 
#    5.143    0.000    0.000    0.000    0.000    0.000 
#    0.000    0.000    0.000    0.000    0.000    0.000 
#
# Total GULP energy -156188.419154 kJ/mol
# GULP energy per Si atom -5578.157827 kJ/mol
# Density = 2.275792 g / cm^3
# Si number density = 22.809833 Si / 1000 Ang^3
#
#
#
# Elastic Constant Matrix: (Units=GPa)
#
#
# Indices 1 2 3 4 5 6 
#
# 1 32.6794 35.7891 11.3122 0.0000 0.0000 0.0000
# 2 35.7891 140.5984 21.6040 0.0000 0.0000 0.0000
# 3 11.3122 21.6040 85.1159 0.0000 0.0000 0.0000
# 4 0.0000 0.0000 0.0000 33.1721 0.0000 0.0000
# 5 0.0000 0.0000 0.0000 0.0000 22.9073 0.0000
# 6 0.0000 0.0000 0.0000 0.0000 0.0000 26.0414
#
#
#
# Elastic Compliance Matrix: (Units=1/GPa)
#
#
# Indices 1 2 3 4 5 6 
#
# 1 0.043185 -0.010521 -0.003069 0.000000 0.000000 0.000000
# 2 -0.010521 0.009964 -0.001131 0.000000 0.000000 0.000000
# 3 -0.003069 -0.001131 0.012444 0.000000 0.000000 0.000000
# 4 0.000000 0.000000 0.000000 0.030146 0.000000 0.000000
# 5 0.000000 0.000000 0.000000 0.000000 0.043654 0.000000
# 6 0.000000 0.000000 0.000000 0.000000 0.000000 0.038400
#
#
# Mechanical properties :
#
#
# Convention : Reuss Voigt Hill
#
# Bulk Modulus (GPa) = 27.66176 43.97826 35.82001
# Shear Modulus (GPa) = 22.80137 29.07007 25.93572
#
# Velocity S-wave (km/s) = 3.16512 3.57382 3.37566
# Velocity P-wave (km/s) = 5.05082 6.02925 5.56159
#
# Compressibility (1/GPa) = 0.03615099
#
# Stress axis : x y z
#
# Youngs Moduli (GPa) = 23.15630 100.35799 80.36268
#
# Poissons Ratio (x) = 1.05587 0.24663
# Poissons Ratio (y) = 0.24363 0.09088
# Poissons Ratio (z) = 0.07107 0.11349
#
# Static dielectric constant tensor:
#      x y z
#    x 2.042070 0.000000 0.000000 
#    y 0.000000 1.874360 0.000000 
#    z 0.000000 0.000000 1.911970 
# 
# From -- ./inp_files/985.got.cif
#   From: 2010.05.17/outbox.cif.g08.bks.cpg/sg33_1_cif.got.tgz:985.got - 2010.06.03 17:15:25.
