data_PCOD9344101
_publ_section_title
;
Structure prediction by ZEFSAII (Michael W. Deem and Ramdas Pophale) SiO2 
 PCOD9344101
Probable space group: P B A 2
;
_chemical_formula_sum "Si O2"
_cell_formula_units_Z 32
_cell_length_a 10.569910
_cell_length_b 13.560629
_cell_length_c 9.662965
_cell_angle_alpha 90.000000
_cell_angle_beta 90.000000
_cell_angle_gamma 90.000000
_cell_volume 1385.037494
_symmetry_space_group_name_H-M "P B A 2"
_symmetry_group_IT_number 32
_symmetry_cell_setting 'orthorhombic'
loop_
_space_group_symop_operation_xyz
x,y,z
-x,-y,z
1/2-x,1/2+y,z
1/2+x,1/2-y,z
loop_
_atom_site_type_symbol
_atom_site_label
_atom_site_fract_x
_atom_site_fract_y
_atom_site_fract_z
Si Si1 0.629414 0.977564 0.852690
Si Si2 0.615423 0.066701 0.158948
Si Si3 0.639179 0.452438 0.227616
Si Si4 0.852049 0.178493 0.548415
Si Si5 0.366956 0.518526 0.672823
Si Si6 0.402562 0.727007 0.035158
Si Si7 0.153559 0.755008 0.867797
Si Si8 0.376660 0.696133 0.478222
O O1 0.631097 0.861536 0.871151
O O2 0.500000 0.000000 0.772989
O O3 0.751295 0.006755 0.768527
O O4 0.624968 0.031346 0.999038
O O5 0.587111 0.183865 0.148508
O O6 0.500000 0.000000 0.218492
O O7 0.749573 0.033418 0.222029
O O8 0.500000 0.500000 0.230070
O O9 0.645110 0.376021 0.098702
O O10 0.654383 0.378601 0.355950
O O11 0.867384 0.060427 0.547795
O O12 0.855531 0.208074 0.710618
O O13 0.722087 0.215852 0.484944
O O14 0.975768 0.223972 0.476200
O O15 0.500000 0.500000 0.746825
O O16 0.359500 0.629239 0.616994
O O17 0.294065 0.766109 0.930425
O O18 0.537609 0.706719 0.962483
#
# Coordination Sequence:
#
# PCOD9344101 Si02
#       8
#     4   4   4   4   4   4   4   4
#     4  11  21  40  65  96 140 170 212 281 343 404
#     4  11  23  44  66  96 134 174 220 281 340 405
#     4  12  27  46  70  97 136 182 233 278 330 400
#     4  11  24  42  70  96 137 175 219 282 338 400
#     4  10  23  41  65  95 133 174 221 274 336 402
#     4  12  24  42  68 102 137 177 223 280 343 404
#     4  12  23  40  67 103 136 173 223 275 348 413
#     4  11  26  47  66  97 132 179 233 276 328 398
#
# _framework density 23.104068000000002
#
# number of rings (size 3 to 8) (size 9 to 14) (size 15 to 20)
#    0.000    0.750    5.000    3.375    3.500    4.500 
#    0.000    0.625    0.000    0.000    0.000    0.000 
#    0.000    0.000    0.000    0.000    0.000    0.000 
#
# Total GULP energy -179031.653231 kJ/mol
# GULP energy per Si atom -5594.739163 kJ/mol
# Density = 2.305148 g / cm^3
# Si number density = 23.104068 Si / 1000 Ang^3
#
#
#
# Elastic Constant Matrix: (Units=GPa)
#
#
# Indices 1 2 3 4 5 6 
#
# 1 140.1396 -15.1629 5.5687 0.0000 0.0000 0.0000
# 2 -15.1629 75.0923 -21.5234 0.0000 0.0000 0.0000
# 3 5.5687 -21.5234 38.8047 0.0000 0.0000 0.0000
# 4 0.0000 0.0000 0.0000 22.6815 0.0000 0.0000
# 5 0.0000 0.0000 0.0000 0.0000 22.0082 0.0000
# 6 0.0000 0.0000 0.0000 0.0000 0.0000 39.3465
#
#
#
# Elastic Compliance Matrix: (Units=1/GPa)
#
#
# Indices 1 2 3 4 5 6 
#
# 1 0.007298 0.001395 -0.000273 0.000000 0.000000 0.000000
# 2 0.001395 0.016101 0.008730 0.000000 0.000000 0.000000
# 3 -0.000273 0.008730 0.030652 0.000000 0.000000 0.000000
# 4 0.000000 0.000000 0.000000 0.044089 0.000000 0.000000
# 5 0.000000 0.000000 0.000000 0.000000 0.045438 0.000000
# 6 0.000000 0.000000 0.000000 0.000000 0.000000 0.025415
#
#
# Mechanical properties :
#
#
# Convention : Reuss Voigt Hill
#
# Bulk Modulus (GPa) = 13.55848 21.31128 17.43488
# Shear Modulus (GPa) = 28.75674 35.81753 32.28714
#
# Velocity S-wave (km/s) = 3.53180 3.94162 3.74232
# Velocity P-wave (km/s) = 4.74475 5.47350 5.12210
#
# Compressibility (1/GPa) = 0.07375460
#
# Stress axis : x y z
#
# Youngs Moduli (GPa) = 137.03203 62.10785 32.62461
#
# Poissons Ratio (x) = -0.08665 0.00892
# Poissons Ratio (y) = -0.19118 -0.28482
# Poissons Ratio (z) = 0.03746 -0.54222
#
# Static dielectric constant tensor:
#      x y z
#    x 1.925670 0.000000 0.000000 
#    y 0.000000 1.928920 0.000000 
#    z 0.000000 0.000000 1.882000 
# 
# From -- ./inp_files/3789.got.cif
#   From: 2010.05.17/outbox.cif.g08.bks.cpg/sg32_2_cif.got.tgz:3789.got - 2010.06.03 17:12:27.
