data_PCOD9344250
_publ_section_title
;
Structure prediction by ZEFSAII (Michael W. Deem and Ramdas Pophale) SiO2 
 PCOD9344250
Probable space group: P B A 2
;
_chemical_formula_sum "Si O2"
_cell_formula_units_Z 32
_cell_length_a 14.722012
_cell_length_b 8.765147
_cell_length_c 11.145513
_cell_angle_alpha 90.000000
_cell_angle_beta 90.000000
_cell_angle_gamma 90.000000
_cell_volume 1438.223677
_symmetry_space_group_name_H-M "P B A 2"
_symmetry_group_IT_number 32
_symmetry_cell_setting 'orthorhombic'
loop_
_space_group_symop_operation_xyz
x,y,z
-x,-y,z
1/2-x,1/2+y,z
1/2+x,1/2-y,z
loop_
_atom_site_type_symbol
_atom_site_label
_atom_site_fract_x
_atom_site_fract_y
_atom_site_fract_z
Si Si1 0.527405 0.822241 0.750000
Si Si2 0.818652 0.442413 0.597889
Si Si3 0.312322 0.899317 0.166133
Si Si4 0.102776 0.646440 0.336671
Si Si5 0.411719 0.710075 0.329035
Si Si6 0.514650 0.180558 0.028305
Si Si7 0.372044 0.700763 0.598730
Si Si8 0.610422 0.588297 0.183427
O O1 0.626576 0.833217 0.691028
O O2 0.460752 0.706625 0.681714
O O3 0.500000 0.000000 0.729051
O O4 0.511462 0.794271 0.890215
O O5 0.857725 0.402340 0.464625
O O6 0.713357 0.407217 0.620352
O O7 0.836637 0.623527 0.607762
O O8 0.320696 0.788601 0.281398
O O9 0.378875 0.818725 0.068660
O O10 0.210239 0.926804 0.124920
O O11 0.353783 0.051774 0.226548
O O12 0.125450 0.820620 0.307237
O O13 0.992172 0.662500 0.328668
O O14 0.403719 0.662693 0.464667
O O15 0.422556 0.573068 0.235437
O O16 0.451530 0.302446 0.099185
O O17 0.500000 0.000000 0.051543
#
# Coordination Sequence:
#
# PCOD9344250 Si02
#       8
#     4   4   4   4   4   4   4   4
#     4   9  22  44  71  96 132 188 238 277 341 418
#     4  11  23  41  68 100 137 178 231 285 347 420
#     4  12  23  41  69  98 139 182 229 285 355 425
#     4  12  23  42  65  98 139 183 220 282 356 420
#     4  12  24  40  65 100 143 176 226 285 357 422
#     4  11  23  45  72  99 136 193 239 282 348 418
#     4  11  23  42  68 101 136 180 228 287 350 414
#     4  12  26  41  65 107 140 178 232 296 350 421
#
# _framework density 22.249668
#
# number of rings (size 3 to 8) (size 9 to 14) (size 15 to 20)
#    0.000    0.750    5.000    3.000    1.750    1.000 
#    0.000    0.625    5.500    0.000    0.000    0.000 
#    0.000    0.000    0.000    0.000    0.000    0.000 
#
# Total GULP energy -178291.373814 kJ/mol
# GULP energy per Si atom -5571.605432 kJ/mol
# Density = 2.219903 g / cm^3
# Si number density = 22.249668 Si / 1000 Ang^3
#
#
#
# Elastic Constant Matrix: (Units=GPa)
#
#
# Indices 1 2 3 4 5 6 
#
# 1 118.4192 18.5956 25.3467 0.0000 0.0000 0.0000
# 2 18.5956 76.9176 13.8188 0.0000 0.0000 0.0000
# 3 25.3467 13.8188 85.0568 0.0000 0.0000 0.0000
# 4 0.0000 0.0000 0.0000 24.5174 0.0000 0.0000
# 5 0.0000 0.0000 0.0000 0.0000 10.3491 0.0000
# 6 0.0000 0.0000 0.0000 0.0000 0.0000 29.5107
#
#
#
# Elastic Compliance Matrix: (Units=1/GPa)
#
#
# Indices 1 2 3 4 5 6 
#
# 1 0.009254 -0.001794 -0.002466 0.000000 0.000000 0.000000
# 2 -0.001794 0.013740 -0.001698 0.000000 0.000000 0.000000
# 3 -0.002466 -0.001698 0.012768 0.000000 0.000000 0.000000
# 4 0.000000 0.000000 0.000000 0.040787 0.000000 0.000000
# 5 0.000000 0.000000 0.000000 0.000000 0.096626 0.000000
# 6 0.000000 0.000000 0.000000 0.000000 0.000000 0.033886
#
#
# Mechanical properties :
#
#
# Convention : Reuss Voigt Hill
#
# Bulk Modulus (GPa) = 41.93671 43.99063 42.96367
# Shear Modulus (GPa) = 22.03364 27.71761 24.87562
#
# Velocity S-wave (km/s) = 3.15030 3.53335 3.34731
# Velocity P-wave (km/s) = 5.66760 6.03824 5.85586
#
# Compressibility (1/GPa) = 0.02384546
#
# Stress axis : x y z
#
# Youngs Moduli (GPa) = 108.05898 72.78193 78.32342
#
# Poissons Ratio (x) = 0.13059 0.19316
# Poissons Ratio (y) = 0.19388 0.13296
# Poissons Ratio (z) = 0.26650 0.12355
#
# Static dielectric constant tensor:
#      x y z
#    x 1.932490 0.000000 0.000000 
#    y 0.000000 1.882090 0.000000 
#    z 0.000000 0.000000 1.804340 
# 
# From -- ./inp_files/3966.got.cif
#   From: 2010.05.17/outbox.cif.g08.bks.cpg/sg32_2_cif.got.tgz:3966.got - 2010.06.03 17:12:27.
