data_PCOD9344530
_publ_section_title
;
Structure prediction by ZEFSAII (Michael W. Deem and Ramdas Pophale) SiO2 
 PCOD9344530
Probable space group: P N A 21
;
_chemical_formula_sum "Si O2"
_cell_formula_units_Z 28
_cell_length_a 5.585844
_cell_length_b 20.708106
_cell_length_c 9.021803
_cell_angle_alpha 90.000000
_cell_angle_beta 90.000000
_cell_angle_gamma 90.000000
_cell_volume 1043.572249
_symmetry_space_group_name_H-M "P N A 21"
_symmetry_group_IT_number 33
_symmetry_cell_setting 'orthorhombic'
loop_
_space_group_symop_operation_xyz
x,y,z
-x,-y,1/2+z
1/2-x,1/2+y,1/2+z
1/2+x,1/2-y,z
loop_
_atom_site_type_symbol
_atom_site_label
_atom_site_fract_x
_atom_site_fract_y
_atom_site_fract_z
Si Si1 0.954161 0.730559 0.443270
Si Si2 0.572450 0.040468 0.399980
Si Si3 0.726843 0.280907 0.305948
Si Si4 0.177070 0.181472 0.646834
Si Si5 0.873199 0.055020 0.659161
Si Si6 0.560270 0.420204 0.259731
Si Si7 0.015937 0.399589 0.841598
O O1 0.194125 0.759095 0.506657
O O2 0.922860 0.771825 0.280838
O O3 0.990835 0.653806 0.465982
O O4 0.619600 0.048151 0.574084
O O5 0.305931 0.058554 0.349253
O O6 0.796820 0.079650 0.333886
O O7 0.624234 0.965119 0.365226
O O8 0.508044 0.231326 0.277802
O O9 0.718561 0.287059 0.488251
O O10 0.630559 0.346900 0.229758
O O11 0.016408 0.118052 0.612135
O O12 0.412295 0.148104 0.715523
O O13 0.787904 0.077597 0.820946
O O14 0.972141 0.982754 0.651845
#
# Coordination Sequence:
#
# PCOD9344530 Si02
#       7
#     4   4   4   4   4   4   4
#     4  10  19  30  50  78 113 148 180 230 296 357
#     4  11  23  38  62  89 123 161 206 251 307 371
#     4  12  25  39  61  90 125 160 206 252 312 376
#     4  11  20  33  58  89 123 153 194 244 320 359
#     4  11  22  38  61  88 125 161 205 252 302 374
#     4  11  24  42  60  91 125 163 204 255 311 365
#     4  10  21  36  54  87 124 160 193 250 302 372
#
# _framework density 26.830915000000001
#
# number of rings (size 3 to 8) (size 9 to 14) (size 15 to 20)
#    0.000    1.143    4.286    3.429    2.000    0.000 
#    0.000    0.000    0.000    3.429    0.000    0.000 
#    0.000    0.000    0.000    0.000    0.000    0.000 
#
# Total GULP energy -155959.110488 kJ/mol
# GULP energy per Si atom -5569.968232 kJ/mol
# Density = 2.676985 g / cm^3
# Si number density = 26.830915 Si / 1000 Ang^3
#
#
#
# Elastic Constant Matrix: (Units=GPa)
#
#
# Indices 1 2 3 4 5 6 
#
# 1 133.0863 45.5474 32.4007 0.0000 0.0000 0.0000
# 2 45.5474 150.4393 12.7148 0.0000 0.0000 0.0000
# 3 32.4007 12.7148 54.0583 0.0000 0.0000 0.0000
# 4 0.0000 0.0000 0.0000 21.8101 0.0000 0.0000
# 5 0.0000 0.0000 0.0000 0.0000 32.8115 0.0000
# 6 0.0000 0.0000 0.0000 0.0000 0.0000 56.0034
#
#
#
# Elastic Compliance Matrix: (Units=1/GPa)
#
#
# Indices 1 2 3 4 5 6 
#
# 1 0.009624 -0.002475 -0.005186 0.000000 0.000000 0.000000
# 2 -0.002475 0.007419 -0.000261 0.000000 0.000000 0.000000
# 3 -0.005186 -0.000261 0.021668 0.000000 0.000000 0.000000
# 4 0.000000 0.000000 0.000000 0.045850 0.000000 0.000000
# 5 0.000000 0.000000 0.000000 0.000000 0.030477 0.000000
# 6 0.000000 0.000000 0.000000 0.000000 0.000000 0.017856
#
#
# Mechanical properties :
#
#
# Convention : Reuss Voigt Hill
#
# Bulk Modulus (GPa) = 43.73386 57.65663 50.69524
# Shear Modulus (GPa) = 31.97730 38.58641 35.28185
#
# Velocity S-wave (km/s) = 3.45600 3.79639 3.63019
# Velocity P-wave (km/s) = 5.67983 6.38375 6.04205
#
# Compressibility (1/GPa) = 0.02286558
#
# Stress axis : x y z
#
# Youngs Moduli (GPa) = 103.91103 134.79396 46.15059
#
# Poissons Ratio (x) = 0.33367 0.23933
# Poissons Ratio (y) = 0.25722 0.01206
# Poissons Ratio (z) = 0.53887 0.03522
#
# Static dielectric constant tensor:
#      x y z
#    x 2.072810 0.000000 0.000000 
#    y 0.000000 2.224650 0.000000 
#    z 0.000000 0.000000 2.559450 
# 
# From -- ./inp_files/5473.got.cif
#   From: 2010.05.17/outbox.cif.g08.bks.cpg/sg33_3_cif.got.tgz:5473.got - 2010.06.03 17:15:25.
