data_PCOD9344729
_publ_section_title
;
Structure prediction by ZEFSAII (Michael W. Deem and Ramdas Pophale) SiO2 
 PCOD9344729
Probable space group: P N A 21
;
_chemical_formula_sum "Si O2"
_cell_formula_units_Z 32
_cell_length_a 8.854204
_cell_length_b 17.456888
_cell_length_c 10.427570
_cell_angle_alpha 90.000000
_cell_angle_beta 90.000000
_cell_angle_gamma 90.000000
_cell_volume 1611.756623
_symmetry_space_group_name_H-M "P N A 21"
_symmetry_group_IT_number 33
_symmetry_cell_setting 'orthorhombic'
loop_
_space_group_symop_operation_xyz
x,y,z
-x,-y,1/2+z
1/2-x,1/2+y,1/2+z
1/2+x,1/2-y,z
loop_
_atom_site_type_symbol
_atom_site_label
_atom_site_fract_x
_atom_site_fract_y
_atom_site_fract_z
Si Si1 0.297083 0.018282 0.194290
Si Si2 0.364879 0.483234 0.425442
Si Si3 0.905517 0.705161 0.943020
Si Si4 0.900010 0.167377 0.558336
Si Si5 0.675315 0.690659 0.585383
Si Si6 0.115449 0.422580 0.243744
Si Si7 0.345864 0.681210 0.715172
Si Si8 0.110106 0.895414 0.332707
O O1 0.475943 0.030610 0.188725
O O2 0.216356 0.096847 0.237391
O O3 0.248244 0.949958 0.288762
O O4 0.225947 0.002357 0.054881
O O5 0.441048 0.400948 0.458797
O O6 0.246397 0.471852 0.310857
O O7 0.484711 0.547968 0.391637
O O8 0.950539 0.633366 0.855139
O O9 0.836009 0.765591 0.840864
O O10 0.779348 0.676189 0.041046
O O11 0.030814 0.752516 0.016103
O O12 0.944509 0.142993 0.700527
O O13 0.799392 0.632063 0.643091
O O14 0.517773 0.681345 0.662826
O O15 0.740432 0.775161 0.611143
O O16 0.650016 0.667170 0.438990
#
# Coordination Sequence:
#
# PCOD9344729 Si02
#       8
#     4   4   4   4   4   4   4   4
#     4  11  22  39  64  90 125 172 214 265 330 388
#     4  10  22  41  60  90 129 166 220 260 323 403
#     4  10  19  39  62  90 118 153 212 258 308 382
#     4  10  22  38  63  89 123 164 206 260 322 389
#     4  11  23  39  64  97 126 168 220 271 334 392
#     4  10  22  38  65  92 122 163 217 275 319 392
#     4  11  20  39  66  91 122 168 218 270 317 392
#     4  11  24  41  60  93 135 170 209 273 339 398
#
# _framework density 19.854113000000002
#
# number of rings (size 3 to 8) (size 9 to 14) (size 15 to 20)
#    0.000    1.500    1.250    6.000    3.500    1.000 
#    0.000    3.750    0.000    0.000    0.000    0.000 
#    0.000    0.000    0.000    0.000    0.000    0.000 
#
# Total GULP energy -178771.409571 kJ/mol
# GULP energy per Si atom -5586.606549 kJ/mol
# Density = 1.980892 g / cm^3
# Si number density = 19.854113 Si / 1000 Ang^3
#
#
#
# Elastic Constant Matrix: (Units=GPa)
#
#
# Indices 1 2 3 4 5 6 
#
# 1 57.7861 10.1781 24.3088 0.0000 0.0000 0.0000
# 2 10.1781 38.2566 3.7149 0.0000 0.0000 0.0000
# 3 24.3088 3.7149 69.3284 0.0000 0.0000 0.0000
# 4 0.0000 0.0000 0.0000 25.0468 0.0000 0.0000
# 5 0.0000 0.0000 0.0000 0.0000 15.2462 0.0000
# 6 0.0000 0.0000 0.0000 0.0000 0.0000 35.3391
#
#
#
# Elastic Compliance Matrix: (Units=1/GPa)
#
#
# Indices 1 2 3 4 5 6 
#
# 1 0.021190 -0.004942 -0.007165 0.000000 0.000000 0.000000
# 2 -0.004942 0.027428 0.000263 0.000000 0.000000 0.000000
# 3 -0.007165 0.000263 0.016922 0.000000 0.000000 0.000000
# 4 0.000000 0.000000 0.000000 0.039925 0.000000 0.000000
# 5 0.000000 0.000000 0.000000 0.000000 0.065590 0.000000
# 6 0.000000 0.000000 0.000000 0.000000 0.000000 0.028297
#
#
# Mechanical properties :
#
#
# Convention : Reuss Voigt Hill
#
# Bulk Modulus (GPa) = 23.89314 26.86384 25.37849
# Shear Modulus (GPa) = 21.09781 23.60439 22.35110
#
# Velocity S-wave (km/s) = 3.26336 3.45177 3.35888
# Velocity P-wave (km/s) = 5.12443 5.42644 5.27760
#
# Compressibility (1/GPa) = 0.04185302
#
# Stress axis : x y z
#
# Youngs Moduli (GPa) = 47.19282 36.45851 59.09368
#
# Poissons Ratio (x) = 0.18017 0.42341
# Poissons Ratio (y) = 0.23321 -0.01554
# Poissons Ratio (z) = 0.33814 -0.00959
#
# Static dielectric constant tensor:
#      x y z
#    x 1.695090 0.000000 0.000000 
#    y 0.000000 1.705430 0.000000 
#    z 0.000000 0.000000 1.690540 
# 
# From -- ./inp_files/6037.got.cif
#   From: 2010.05.17/outbox.cif.g08.bks.cpg/sg33_4_cif.got.tgz:6037.got - 2010.06.03 17:15:25.
