data_PCOD9344294
_publ_section_title
;
Structure prediction by ZEFSAII (Michael W. Deem and Ramdas Pophale) SiO2 
 PCOD9344294
Probable space group: P B A 2
;
_chemical_formula_sum "Si O2"
_cell_formula_units_Z 16
_cell_length_a 9.606325
_cell_length_b 8.570721
_cell_length_c 7.486554
_cell_angle_alpha 90.000000
_cell_angle_beta 90.000000
_cell_angle_gamma 90.000000
_cell_volume 616.391434
_symmetry_space_group_name_H-M "P B A 2"
_symmetry_group_IT_number 32
_symmetry_cell_setting 'orthorhombic'
loop_
_space_group_symop_operation_xyz
x,y,z
-x,-y,z
1/2-x,1/2+y,z
1/2+x,1/2-y,z
loop_
_atom_site_type_symbol
_atom_site_label
_atom_site_fract_x
_atom_site_fract_y
_atom_site_fract_z
Si Si1 0.295248 0.453955 0.636760
Si Si2 0.844399 0.050773 0.232833
Si Si3 0.043799 0.252568 0.760813
Si Si4 0.102607 0.618654 0.117422
O O1 0.302915 0.503301 0.429988
O O2 0.142859 0.389927 0.686142
O O3 0.356565 0.599424 0.749291
O O4 0.406831 0.311717 0.658990
O O5 0.843668 0.235723 0.226865
O O6 0.738289 0.985609 0.087439
O O7 0.000000 0.000000 0.193002
O O8 0.982250 0.312188 0.949809
O O9 0.000000 0.500000 0.216845
#
# Coordination Sequence:
#
# PCOD9344294 Si02
#       4
#     4   4   4   4
#     4  11  27  52  81 119 167 215 281 343 420 502
#     4  12  27  54  81 119 167 219 280 348 423 505
#     4  11  28  49  80 121 159 218 275 348 412 503
#     4  12  31  48  84 120 165 222 276 349 423 507
#
# _framework density 25.957529999999998
#
# number of rings (size 3 to 8) (size 9 to 14) (size 15 to 20)
#    0.000    0.500    2.500    3.000   17.500    0.000 
#    0.000    0.000    0.000    0.000    0.000    0.000 
#    0.000    0.000    0.000    0.000    0.000    0.000 
#
# Total GULP energy -89628.978075 kJ/mol
# GULP energy per Si atom -5601.811130 kJ/mol
# Density = 2.589845 g / cm^3
# Si number density = 25.957530 Si / 1000 Ang^3
#
#
#
# Elastic Constant Matrix: (Units=GPa)
#
#
# Indices 1 2 3 4 5 6 
#
# 1 184.3367 69.5471 60.9465 0.0000 0.0000 0.0000
# 2 69.5471 149.4619 38.8336 0.0000 0.0000 0.0000
# 3 60.9465 38.8336 91.7882 0.0000 0.0000 0.0000
# 4 0.0000 0.0000 0.0000 -7.7445 0.0000 0.0000
# 5 0.0000 0.0000 0.0000 0.0000 31.4809 0.0000
# 6 0.0000 0.0000 0.0000 0.0000 0.0000 57.2697
#
#
#
# Elastic Compliance Matrix: (Units=1/GPa)
#
#
# Indices 1 2 3 4 5 6 
#
# 1 0.007724 -0.002541 -0.004053 0.000000 0.000000 0.000000
# 2 -0.002541 0.008353 -0.001847 0.000000 0.000000 0.000000
# 3 -0.004053 -0.001847 0.014367 0.000000 0.000000 0.000000
# 4 0.000000 0.000000 0.000000 -0.129123 0.000000 0.000000
# 5 0.000000 0.000000 0.000000 0.000000 0.031765 0.000000
# 6 0.000000 0.000000 0.000000 0.000000 0.000000 0.017461
#
#
# Mechanical properties :
#
#
# Convention : Reuss Voigt Hill
#
# Bulk Modulus (GPa) = 73.73691 84.91571 79.32631
# Shear Modulus (GPa) = -178.25215 33.28519 -72.48348
#
# Velocity S-wave (km/s) = -8.29577 3.58480 -5.29004
# Velocity P-wave (km/s) = 7.95558 7.06532 2.58578
#
# Compressibility (1/GPa) = 0.01356173
#
# Stress axis : x y z
#
# Youngs Moduli (GPa) = 129.47301 119.72071 69.60165
#
# Poissons Ratio (x) = 0.30418 0.28213
# Poissons Ratio (y) = 0.32896 0.12854
# Poissons Ratio (z) = 0.52482 0.22111
#
# Static dielectric constant tensor:
#      x y z
#    x 2.013700 0.000000 0.000000 
#    y 0.000000 2.102880 0.000000 
#    z 0.000000 0.000000 2.003030 
# 
# From -- ./inp_files/2114.got.cif
#   From: 2010.05.17/outbox.cif.g08.bks.cpg/sg32_2_cif.got.tgz:2114.got - 2010.06.03 17:12:27.
