data_PCOD9344812
_publ_section_title
;
Structure prediction by ZEFSAII (Michael W. Deem and Ramdas Pophale) SiO2 
 PCOD9344812
Probable space group: P N A 21
;
_chemical_formula_sum "Si O2"
_cell_formula_units_Z 28
_cell_length_a 7.591185
_cell_length_b 18.429243
_cell_length_c 7.311193
_cell_angle_alpha 90.000000
_cell_angle_beta 90.000000
_cell_angle_gamma 90.000000
_cell_volume 1022.834387
_symmetry_space_group_name_H-M "P N A 21"
_symmetry_group_IT_number 33
_symmetry_cell_setting 'orthorhombic'
loop_
_space_group_symop_operation_xyz
x,y,z
-x,-y,1/2+z
1/2-x,1/2+y,1/2+z
1/2+x,1/2-y,z
loop_
_atom_site_type_symbol
_atom_site_label
_atom_site_fract_x
_atom_site_fract_y
_atom_site_fract_z
Si Si1 0.648807 0.952851 0.244450
Si Si2 0.744237 0.784407 0.543648
Si Si3 0.904991 0.153298 0.569275
Si Si4 0.375822 0.356913 0.983465
Si Si5 0.690626 0.806917 0.116475
Si Si6 0.121756 0.575580 0.666776
Si Si7 0.477355 0.495949 0.626362
O O1 0.596541 0.886716 0.104160
O O2 0.609298 0.927780 0.447661
O O3 0.861308 0.958504 0.235387
O O4 0.542895 0.027443 0.225627
O O5 0.752504 0.698771 0.586040
O O6 0.665953 0.787372 0.334311
O O7 0.650874 0.838077 0.689638
O O8 0.937667 0.817332 0.519421
O O9 0.832332 0.231177 0.509039
O O10 0.108200 0.174300 0.583330
O O11 0.904917 0.070570 0.497074
O O12 0.824967 0.139784 0.771382
O O13 0.410740 0.437918 0.044073
O O14 0.303628 0.532809 0.714607
#
# Coordination Sequence:
#
# PCOD9344812 Si02
#       7
#     4   4   4   4   4   4   4
#     4  10  22  38  59  89 120 154 196 245 297 354
#     4   8  16  30  49  79 108 136 188 242 287 335
#     4   9  17  30  51  79 108 141 186 243 293 337
#     4   9  17  30  51  79 108 141 186 243 293 337
#     4   8  16  30  49  79 108 136 188 242 287 335
#     4  10  22  38  59  89 120 154 196 245 297 354
#     4  10  20  34  54  86 118 150 188 240 300 352
#
# _framework density 27.374911000000001
#
# number of rings (size 3 to 8) (size 9 to 14) (size 15 to 20)
#    0.000    2.857    0.000    2.571    4.000    2.286 
#    0.000    0.000    0.000    3.429    0.000    0.000 
#    0.000    0.000    0.000    0.000    0.000    0.000 
#
# Total GULP energy -156140.262399 kJ/mol
# GULP energy per Si atom -5576.437943 kJ/mol
# Density = 2.731260 g / cm^3
# Si number density = 27.374911 Si / 1000 Ang^3
#
#
#
# Elastic Constant Matrix: (Units=GPa)
#
#
# Indices 1 2 3 4 5 6 
#
# 1 62.0689 21.1489 1.7626 0.0000 0.0000 0.0000
# 2 21.1489 212.6543 15.3451 0.0000 0.0000 0.0000
# 3 1.7626 15.3451 34.0942 0.0000 0.0000 0.0000
# 4 0.0000 0.0000 0.0000 42.0450 0.0000 0.0000
# 5 0.0000 0.0000 0.0000 0.0000 21.0583 0.0000
# 6 0.0000 0.0000 0.0000 0.0000 0.0000 46.4882
#
#
#
# Elastic Compliance Matrix: (Units=1/GPa)
#
#
# Indices 1 2 3 4 5 6 
#
# 1 0.016677 -0.001650 -0.000120 0.000000 0.000000 0.000000
# 2 -0.001650 0.005024 -0.002176 0.000000 0.000000 0.000000
# 3 -0.000120 -0.002176 0.030316 0.000000 0.000000 0.000000
# 4 0.000000 0.000000 0.000000 0.023784 0.000000 0.000000
# 5 0.000000 0.000000 0.000000 0.000000 0.047487 0.000000
# 6 0.000000 0.000000 0.000000 0.000000 0.000000 0.021511
#
#
# Mechanical properties :
#
#
# Convention : Reuss Voigt Hill
#
# Bulk Modulus (GPa) = 22.66248 42.81451 32.73849
# Shear Modulus (GPa) = 29.86907 39.95568 34.91237
#
# Velocity S-wave (km/s) = 3.30678 3.82458 3.57507
# Velocity P-wave (km/s) = 4.78291 5.93104 5.38765
#
# Compressibility (1/GPa) = 0.04412580
#
# Stress axis : x y z
#
# Youngs Moduli (GPa) = 59.96388 199.06240 32.98601
#
# Poissons Ratio (x) = 0.32843 0.00394
# Poissons Ratio (y) = 0.09893 0.07177
# Poissons Ratio (z) = 0.00717 0.43310
#
# Static dielectric constant tensor:
#      x y z
#    x 2.143410 0.000000 0.000000 
#    y 0.000000 2.452170 0.000000 
#    z 0.000000 0.000000 2.315390 
# 
# From -- ./inp_files/3299.got.cif
#   From: 2010.05.17/outbox.cif.g08.bks.cpg/sg33_2_cif.got.tgz:3299.got - 2010.06.03 17:15:25.
