data_PCOD9344243
_publ_section_title
;
Structure prediction by ZEFSAII (Michael W. Deem and Ramdas Pophale) SiO2 
 PCOD9344243
Probable space group: P B A 2
;
_chemical_formula_sum "Si O2"
_cell_formula_units_Z 32
_cell_length_a 12.627323
_cell_length_b 19.328680
_cell_length_c 6.829111
_cell_angle_alpha 90.000000
_cell_angle_beta 90.000000
_cell_angle_gamma 90.000000
_cell_volume 1666.777608
_symmetry_space_group_name_H-M "P B A 2"
_symmetry_group_IT_number 32
_symmetry_cell_setting 'orthorhombic'
loop_
_space_group_symop_operation_xyz
x,y,z
-x,-y,z
1/2-x,1/2+y,z
1/2+x,1/2-y,z
loop_
_atom_site_type_symbol
_atom_site_label
_atom_site_fract_x
_atom_site_fract_y
_atom_site_fract_z
Si Si1 0.073832 0.201851 0.743570
Si Si2 0.064443 0.934238 0.709828
Si Si3 0.737776 0.346755 0.046996
Si Si4 0.718660 0.509420 0.030182
Si Si5 0.755218 0.598498 0.419283
Si Si6 0.090271 0.444315 0.755358
Si Si7 0.986206 0.320363 0.005470
Si Si8 0.359747 0.764499 0.332885
O O1 0.095423 0.238566 0.538377
O O2 0.014278 0.129441 0.728767
O O3 0.184560 0.186365 0.853261
O O4 0.001543 0.252155 0.874161
O O5 0.155920 0.913319 0.559881
O O6 0.000000 0.000000 0.633674
O O7 0.119426 0.957306 0.914195
O O8 0.706767 0.427415 0.062530
O O9 0.686934 0.301513 0.219872
O O10 0.864335 0.338749 0.042584
O O11 0.742809 0.549956 0.230338
O O12 0.817798 0.520700 0.884855
O O13 0.857357 0.580936 0.553215
O O14 0.768545 0.678118 0.358712
O O15 0.000000 0.500000 0.715765
O O16 0.042896 0.381758 0.884291
O O17 0.050519 0.302443 0.202784
#
# Coordination Sequence:
#
# PCOD9344243 Si02
#       8
#     4   4   4   4   4   4   4   4
#     4  11  26  46  65  96 137 174 225 278 329 406
#     4  11  26  45  69  95 134 185 223 274 343 400
#     4  11  26  42  69  98 132 176 224 280 333 408
#     4  11  24  45  66  97 136 175 223 277 338 405
#     4  11  26  42  68  99 135 175 227 278 336 414
#     4  11  22  42  66  98 133 172 217 274 341 401
#     4  11  24  43  69  96 131 178 219 273 344 399
#     4  11  26  43  67 102 136 174 227 278 340 403
#
# _framework density 19.198720000000002
#
# number of rings (size 3 to 8) (size 9 to 14) (size 15 to 20)
#    0.000    1.000    5.000    0.000    7.000    3.000 
#    0.000    0.000    0.000    0.000    0.000    0.000 
#    0.000    0.000    0.000    0.000    0.000    0.000 
#
# Total GULP energy -178873.343391 kJ/mol
# GULP energy per Si atom -5589.791981 kJ/mol
# Density = 1.915502 g / cm^3
# Si number density = 19.198720 Si / 1000 Ang^3
#
#
#
# Elastic Constant Matrix: (Units=GPa)
#
#
# Indices 1 2 3 4 5 6 
#
# 1 68.4081 9.0682 23.7421 0.0000 0.0000 0.0000
# 2 9.0682 115.4605 34.7041 0.0000 0.0000 0.0000
# 3 23.7421 34.7041 110.9191 0.0000 0.0000 0.0000
# 4 0.0000 0.0000 0.0000 31.7935 0.0000 0.0000
# 5 0.0000 0.0000 0.0000 0.0000 3.1650 0.0000
# 6 0.0000 0.0000 0.0000 0.0000 0.0000 38.4771
#
#
#
# Elastic Compliance Matrix: (Units=1/GPa)
#
#
# Indices 1 2 3 4 5 6 
#
# 1 0.015798 -0.000248 -0.003304 0.000000 0.000000 0.000000
# 2 -0.000248 0.009564 -0.002939 0.000000 0.000000 0.000000
# 3 -0.003304 -0.002939 0.010642 0.000000 0.000000 0.000000
# 4 0.000000 0.000000 0.000000 0.031453 0.000000 0.000000
# 5 0.000000 0.000000 0.000000 0.000000 0.315956 0.000000
# 6 0.000000 0.000000 0.000000 0.000000 0.000000 0.025990
#
#
# Mechanical properties :
#
#
# Convention : Reuss Voigt Hill
#
# Bulk Modulus (GPa) = 43.43653 47.75739 45.59696
# Shear Modulus (GPa) = 11.62632 29.83867 20.73250
#
# Velocity S-wave (km/s) = 2.46352 3.94661 3.28973
# Velocity P-wave (km/s) = 5.54669 6.75995 6.18315
#
# Compressibility (1/GPa) = 0.02302209
#
# Stress axis : x y z
#
# Youngs Moduli (GPa) = 63.30037 104.55992 93.96337
#
# Poissons Ratio (x) = 0.02589 0.31045
# Poissons Ratio (y) = 0.01568 0.27619
# Poissons Ratio (z) = 0.20914 0.30733
#
# Static dielectric constant tensor:
#      x y z
#    x 1.653920 0.000000 0.000000 
#    y 0.000000 1.654690 0.000000 
#    z 0.000000 0.000000 1.648130 
# 
# From -- ./inp_files/1051.got.cif
#   From: 2010.05.17/outbox.cif.g08.bks.cpg/sg32_1_cif.got.tgz:1051.got - 2010.06.03 17:12:27.
