data_PCOD9344369
_publ_section_title
;
Structure prediction by ZEFSAII (Michael W. Deem and Ramdas Pophale) SiO2 
 PCOD9344369
Probable space group: P N A 21
;
_chemical_formula_sum "Si O2"
_cell_formula_units_Z 32
_cell_length_a 9.786171
_cell_length_b 9.696375
_cell_length_c 14.731945
_cell_angle_alpha 90.000000
_cell_angle_beta 90.000000
_cell_angle_gamma 90.000000
_cell_volume 1397.919916
_symmetry_space_group_name_H-M "P N A 21"
_symmetry_group_IT_number 33
_symmetry_cell_setting 'orthorhombic'
loop_
_space_group_symop_operation_xyz
x,y,z
-x,-y,1/2+z
1/2-x,1/2+y,1/2+z
1/2+x,1/2-y,z
loop_
_atom_site_type_symbol
_atom_site_label
_atom_site_fract_x
_atom_site_fract_y
_atom_site_fract_z
Si Si1 0.703116 0.278665 0.681790
Si Si2 0.727160 0.552165 0.760693
Si Si3 0.308201 0.483297 0.781179
Si Si4 0.853784 0.260487 0.100339
Si Si5 0.482447 0.085295 0.252070
Si Si6 0.992563 0.166264 0.375639
Si Si7 0.103396 0.074824 0.080554
Si Si8 0.051142 0.750941 0.063337
O O1 0.648059 0.415400 0.729932
O O2 0.781208 0.174329 0.749417
O O3 0.810400 0.314482 0.601460
O O4 0.570715 0.215934 0.632416
O O5 0.712869 0.665711 0.680725
O O6 0.659285 0.612499 0.850758
O O7 0.881895 0.499130 0.765751
O O8 0.154767 0.535763 0.799505
O O9 0.404881 0.537276 0.862078
O O10 0.363641 0.555044 0.688277
O O11 0.940104 0.381968 0.149175
O O12 0.733159 0.336208 0.046122
O O13 0.966474 0.159390 0.058520
O O14 0.526855 0.230865 0.293687
O O15 0.998123 0.267590 0.461215
O O16 0.082787 0.916216 0.053821
#
# Coordination Sequence:
#
# PCOD9344369 Si02
#       8
#     4   4   4   4   4   4   4   4
#     4  11  23  41  63  88 130 171 208 252 327 399
#     4  11  19  35  61  88 115 162 209 250 303 386
#     4  10  20  37  60  88 115 163 210 244 308 390
#     4  10  16  31  58  84 111 149 206 253 294 348
#     4  10  19  31  60  89 110 145 206 263 295 358
#     4  11  22  38  61  88 127 152 207 271 317 355
#     4  10  18  36  56  87 117 156 203 256 305 369
#     4  11  25  39  59  92 131 162 201 271 327 373
#
# _framework density 22.891152000000002
#
# number of rings (size 3 to 8) (size 9 to 14) (size 15 to 20)
#    0.000    1.500    5.000    3.000    3.500    0.000 
#    0.000    1.250    0.000    1.500    0.000    0.000 
#    0.000    0.000    0.000    0.000    0.000    0.000 
#
# Total GULP energy -178360.979887 kJ/mol
# GULP energy per Si atom -5573.780621 kJ/mol
# Density = 2.283905 g / cm^3
# Si number density = 22.891152 Si / 1000 Ang^3
#
#
#
# Elastic Constant Matrix: (Units=GPa)
#
#
# Indices 1 2 3 4 5 6 
#
# 1 97.8196 -11.3601 0.9644 0.0000 0.0000 0.0000
# 2 -11.3601 67.9046 -7.4348 0.0000 0.0000 0.0000
# 3 0.9644 -7.4348 13.8896 0.0000 0.0000 0.0000
# 4 0.0000 0.0000 0.0000 19.1210 0.0000 0.0000
# 5 0.0000 0.0000 0.0000 0.0000 12.0707 0.0000
# 6 0.0000 0.0000 0.0000 0.0000 0.0000 32.9403
#
#
#
# Elastic Compliance Matrix: (Units=1/GPa)
#
#
# Indices 1 2 3 4 5 6 
#
# 1 0.010426 0.001769 0.000223 0.000000 0.000000 0.000000
# 2 0.001769 0.015943 0.008411 0.000000 0.000000 0.000000
# 3 0.000223 0.008411 0.076483 0.000000 0.000000 0.000000
# 4 0.000000 0.000000 0.000000 0.052298 0.000000 0.000000
# 5 0.000000 0.000000 0.000000 0.000000 0.082845 0.000000
# 6 0.000000 0.000000 0.000000 0.000000 0.000000 0.030358
#
#
# Mechanical properties :
#
#
# Convention : Reuss Voigt Hill
#
# Bulk Modulus (GPa) = 8.08683 15.99477 12.04080
# Shear Modulus (GPa) = 17.31495 25.98937 21.65216
#
# Velocity S-wave (km/s) = 2.75326 3.37314 3.07884
# Velocity P-wave (km/s) = 3.69428 4.70885 4.23208
#
# Compressibility (1/GPa) = 0.12365789
#
# Stress axis : x y z
#
# Youngs Moduli (GPa) = 95.91316 62.72203 13.07480
#
# Poissons Ratio (x) = -0.11093 -0.00291
# Poissons Ratio (y) = -0.16963 -0.10998
# Poissons Ratio (z) = -0.02137 -0.52757
#
# Static dielectric constant tensor:
#      x y z
#    x 1.925560 0.000000 0.000000 
#    y 0.000000 1.900200 0.000000 
#    z 0.000000 0.000000 1.975550 
# 
# From -- ./inp_files/7658.got.cif
#   From: 2010.05.17/outbox.cif.g08.bks.cpg/sg33_4_cif.got.tgz:7658.got - 2010.06.03 17:15:25.
