data_PCOD9344979
_publ_section_title
;
Structure prediction by ZEFSAII (Michael W. Deem and Ramdas Pophale) SiO2 
 PCOD9344979
Probable space group: P N A 21
;
_chemical_formula_sum "Si O2"
_cell_formula_units_Z 32
_cell_length_a 9.355078
_cell_length_b 13.121681
_cell_length_c 13.197236
_cell_angle_alpha 90.000000
_cell_angle_beta 90.000000
_cell_angle_gamma 90.000000
_cell_volume 1620.018117
_symmetry_space_group_name_H-M "P N A 21"
_symmetry_group_IT_number 33
_symmetry_cell_setting 'orthorhombic'
loop_
_space_group_symop_operation_xyz
x,y,z
-x,-y,1/2+z
1/2-x,1/2+y,1/2+z
1/2+x,1/2-y,z
loop_
_atom_site_type_symbol
_atom_site_label
_atom_site_fract_x
_atom_site_fract_y
_atom_site_fract_z
Si Si1 0.232659 0.536610 0.720810
Si Si2 0.346058 0.476293 0.347736
Si Si3 0.419185 0.907555 0.738555
Si Si4 0.043959 0.186921 0.751024
Si Si5 0.029864 0.190656 0.227434
Si Si6 0.178110 0.868137 0.571255
Si Si7 0.965593 0.057984 0.569477
Si Si8 0.246146 0.347311 0.845163
O O1 0.244669 0.468381 0.822147
O O2 0.967432 0.701836 0.782160
O O3 0.309429 0.646528 0.724976
O O4 0.064486 0.541240 0.700158
O O5 0.178978 0.464291 0.320665
O O6 0.390400 0.589709 0.312490
O O7 0.436566 0.397385 0.279309
O O8 0.393641 0.442409 0.459352
O O9 0.311100 0.883110 0.646595
O O10 0.622770 0.211064 0.785039
O O11 0.886125 0.197039 0.793181
O O12 0.031670 0.153494 0.632517
O O13 0.946308 0.202757 0.120481
O O14 0.238808 0.830658 0.464543
O O15 0.092570 0.974909 0.561004
O O16 0.835641 0.019606 0.640942
#
# Coordination Sequence:
#
# PCOD9344979 Si02
#       8
#     4   4   4   4   4   4   4   4
#     4  10  21  40  59  90 132 160 203 268 319 373
#     4  11  21  42  65  86 126 173 213 254 326 389
#     4  11  23  35  64  97 119 154 218 278 312 370
#     4  11  23  42  64  91 128 168 213 265 325 386
#     4  10  20  41  62  88 126 162 210 262 317 382
#     4  10  20  38  63  95 119 164 206 260 329 376
#     4  10  20  43  66  81 130 183 202 250 334 397
#     4  11  24  39  63  94 128 166 209 269 322 385
#
# _framework density 19.752865
#
# number of rings (size 3 to 8) (size 9 to 14) (size 15 to 20)
#    0.000    1.500    6.250    1.500    3.500    2.000 
#    4.500    0.000    2.750    0.000    0.000    0.000 
#    0.000    0.000    0.000    0.000    0.000    0.000 
#
# Total GULP energy -178244.978888 kJ/mol
# GULP energy per Si atom -5570.155590 kJ/mol
# Density = 1.970791 g / cm^3
# Si number density = 19.752865 Si / 1000 Ang^3
#
#
#
# Elastic Constant Matrix: (Units=GPa)
#
#
# Indices 1 2 3 4 5 6 
#
# 1 122.6880 10.3257 9.1362 0.0000 0.0000 0.0000
# 2 10.3257 23.7810 10.7744 0.0000 0.0000 0.0000
# 3 9.1362 10.7744 86.0150 0.0000 0.0000 0.0000
# 4 0.0000 0.0000 0.0000 10.7694 0.0000 0.0000
# 5 0.0000 0.0000 0.0000 0.0000 20.1410 0.0000
# 6 0.0000 0.0000 0.0000 0.0000 0.0000 14.7781
#
#
#
# Elastic Compliance Matrix: (Units=1/GPa)
#
#
# Indices 1 2 3 4 5 6 
#
# 1 0.008477 -0.003470 -0.000466 0.000000 0.000000 0.000000
# 2 -0.003470 0.046001 -0.005394 0.000000 0.000000 0.000000
# 3 -0.000466 -0.005394 0.012351 0.000000 0.000000 0.000000
# 4 0.000000 0.000000 0.000000 0.092856 0.000000 0.000000
# 5 0.000000 0.000000 0.000000 0.000000 0.049650 0.000000
# 6 0.000000 0.000000 0.000000 0.000000 0.000000 0.067668
#
#
# Mechanical properties :
#
#
# Convention : Reuss Voigt Hill
#
# Bulk Modulus (GPa) = 20.75954 32.55074 26.65514
# Shear Modulus (GPa) = 16.04015 22.62088 19.33052
#
# Velocity S-wave (km/s) = 2.85273 3.38774 3.13168
# Velocity P-wave (km/s) = 4.62419 5.64067 5.15754
#
# Compressibility (1/GPa) = 0.04817062
#
# Stress axis : x y z
#
# Youngs Moduli (GPa) = 117.95965 21.73878 80.96533
#
# Poissons Ratio (x) = 0.07543 0.03771
# Poissons Ratio (y) = 0.40931 0.43669
# Poissons Ratio (z) = 0.05495 0.11725
#
# Static dielectric constant tensor:
#      x y z
#    x 1.716420 0.000000 0.000000 
#    y 0.000000 1.740130 0.000000 
#    z 0.000000 0.000000 1.765120 
# 
# From -- ./inp_files/7765.got.cif
#   From: 2010.05.17/outbox.cif.g08.bks.cpg/sg33_4_cif.got.tgz:7765.got - 2010.06.03 17:15:25.
