data_PCOD9344440
_publ_section_title
;
Structure prediction by ZEFSAII (Michael W. Deem and Ramdas Pophale) SiO2 
 PCOD9344440
Probable space group: P N A 21
;
_chemical_formula_sum "Si O2"
_cell_formula_units_Z 32
_cell_length_a 5.418986
_cell_length_b 29.791322
_cell_length_c 9.507035
_cell_angle_alpha 90.000000
_cell_angle_beta 90.000000
_cell_angle_gamma 90.000000
_cell_volume 1534.803912
_symmetry_space_group_name_H-M "P N A 21"
_symmetry_group_IT_number 33
_symmetry_cell_setting 'orthorhombic'
loop_
_space_group_symop_operation_xyz
x,y,z
-x,-y,1/2+z
1/2-x,1/2+y,1/2+z
1/2+x,1/2-y,z
loop_
_atom_site_type_symbol
_atom_site_label
_atom_site_fract_x
_atom_site_fract_y
_atom_site_fract_z
Si Si1 0.378933 0.639452 0.394670
Si Si2 0.648106 0.936612 0.216714
Si Si3 0.858609 0.724556 0.596623
Si Si4 0.382926 0.739920 0.285047
Si Si5 0.459725 0.491541 0.347704
Si Si6 0.747097 0.065839 0.948019
Si Si7 0.478827 0.126556 0.151560
Si Si8 0.047849 0.563638 0.889245
O O1 0.223001 0.610982 0.282752
O O2 0.393370 0.689907 0.344879
O O3 0.633427 0.612596 0.399169
O O4 0.254072 0.635652 0.548752
O O5 0.433886 0.951285 0.325614
O O6 0.870743 0.972257 0.231316
O O7 0.576149 0.933075 0.056540
O O8 0.608821 0.749733 0.642670
O O9 0.870946 0.728719 0.425548
O O10 0.867256 0.672562 0.639419
O O11 0.630424 0.751863 0.205052
O O12 0.542611 0.528375 0.467276
O O13 0.705253 0.461714 0.330796
O O14 0.217658 0.461168 0.371330
O O15 0.600758 0.081341 0.084853
O O16 0.442586 0.111498 0.310854
#
# Coordination Sequence:
#
# PCOD9344440 Si02
#       8
#     4   4   4   4   4   4   4   4
#     4  10  21  37  65  94 130 160 215 262 324 373
#     4  10  25  44  64  91 129 170 209 270 319 385
#     4  10  19  34  61  92 128 162 205 266 322 379
#     4  10  18  32  57  93 122 159 199 262 311 372
#     4  11  26  44  64  88 121 171 224 258 315 380
#     4  10  22  40  65  93 126 166 212 271 311 379
#     4  11  24  39  63 104 129 167 217 273 326 384
#     4  12  29  42  67  91 131 171 213 266 326 388
#
# _framework density 20.849565999999999
#
# number of rings (size 3 to 8) (size 9 to 14) (size 15 to 20)
#    0.000    1.500    3.750    1.500    8.750    2.000 
#    0.000    0.000    0.000    1.500    0.000    0.000 
#    0.000    0.000    0.000    0.000    0.000    0.000 
#
# Total GULP energy -178437.632923 kJ/mol
# GULP energy per Si atom -5576.176029 kJ/mol
# Density = 2.080211 g / cm^3
# Si number density = 20.849566 Si / 1000 Ang^3
#
#
#
# Elastic Constant Matrix: (Units=GPa)
#
#
# Indices 1 2 3 4 5 6 
#
# 1 145.9036 44.3401 15.6252 0.0000 0.0000 0.0000
# 2 44.3401 101.6703 30.5046 0.0000 0.0000 0.0000
# 3 15.6252 30.5046 51.9025 0.0000 0.0000 0.0000
# 4 0.0000 0.0000 0.0000 15.7330 0.0000 0.0000
# 5 0.0000 0.0000 0.0000 0.0000 -6.2862 0.0000
# 6 0.0000 0.0000 0.0000 0.0000 0.0000 31.5981
#
#
#
# Elastic Compliance Matrix: (Units=1/GPa)
#
#
# Indices 1 2 3 4 5 6 
#
# 1 0.007909 -0.003320 -0.000430 0.000000 0.000000 0.000000
# 2 -0.003320 0.013335 -0.006838 0.000000 0.000000 0.000000
# 3 -0.000430 -0.006838 0.023415 0.000000 0.000000 0.000000
# 4 0.000000 0.000000 0.000000 0.063561 0.000000 0.000000
# 5 0.000000 0.000000 0.000000 0.000000 -0.159078 0.000000
# 6 0.000000 0.000000 0.000000 0.000000 0.000000 0.031648
#
#
# Mechanical properties :
#
#
# Convention : Reuss Voigt Hill
#
# Bulk Modulus (GPa) = 42.58280 53.37959 47.98119
# Shear Modulus (GPa) = 510.56475 22.14273 266.35374
#
# Velocity S-wave (km/s) = 15.66563 3.26241 11.31493
# Velocity P-wave (km/s) = 18.64629 6.31260 13.92000
#
# Compressibility (1/GPa) = 0.02348366
#
# Stress axis : x y z
#
# Youngs Moduli (GPa) = 126.44011 74.98832 42.70747
#
# Poissons Ratio (x) = 0.24899 0.01834
# Poissons Ratio (y) = 0.41982 0.29204
# Poissons Ratio (z) = 0.05431 0.51277
#
# Static dielectric constant tensor:
#      x y z
#    x 1.867580 0.000000 0.000000 
#    y 0.000000 1.758080 0.000000 
#    z 0.000000 0.000000 1.743900 
# 
# From -- ./inp_files/2837.got.cif
#   From: 2010.05.17/outbox.cif.g08.bks.cpg/sg33_2_cif.got.tgz:2837.got - 2010.06.03 17:15:25.
