data_PCOD9344916
_publ_section_title
;
Structure prediction by ZEFSAII (Michael W. Deem and Ramdas Pophale) SiO2 
 PCOD9344916
Probable space group: P N A 21
;
_chemical_formula_sum "Si O2"
_cell_formula_units_Z 20
_cell_length_a 10.346273
_cell_length_b 13.314203
_cell_length_c 5.380071
_cell_angle_alpha 90.000000
_cell_angle_beta 90.000000
_cell_angle_gamma 90.000000
_cell_volume 741.117580
_symmetry_space_group_name_H-M "P N A 21"
_symmetry_group_IT_number 33
_symmetry_cell_setting 'orthorhombic'
loop_
_space_group_symop_operation_xyz
x,y,z
-x,-y,1/2+z
1/2-x,1/2+y,1/2+z
1/2+x,1/2-y,z
loop_
_atom_site_type_symbol
_atom_site_label
_atom_site_fract_x
_atom_site_fract_y
_atom_site_fract_z
Si Si1 0.254760 0.102043 0.603130
Si Si2 0.201784 0.514749 0.601502
Si Si3 0.342930 0.803856 0.844553
Si Si4 0.923868 0.200885 0.127967
Si Si5 0.972185 0.078683 0.633259
O O1 0.205702 0.212568 0.524645
O O2 0.119432 0.041841 0.631538
O O3 0.334952 0.053682 0.375525
O O4 0.321304 0.090460 0.870719
O O5 0.156262 0.406189 0.503370
O O6 0.357286 0.501514 0.637203
O O7 0.230860 0.795284 0.636890
O O8 0.476513 0.789465 0.697219
O O9 0.950356 0.137546 0.379159
O O10 0.960431 0.152692 0.866594
#
# Coordination Sequence:
#
# PCOD9344916 Si02
#       5
#     4   4   4   4   4
#     4  11  22  37  62  93 128 171 218 272 332 394
#     4  11  22  37  62  93 128 171 218 272 332 394
#     4  10  24  44  64  98 136 178 228 280 338 406
#     4  10  22  39  66  91 131 176 217 273 336 397
#     4  10  20  37  62  95 125 162 221 287 338 383
#
# _framework density 26.986267999999999
#
# number of rings (size 3 to 8) (size 9 to 14) (size 15 to 20)
#    0.000    1.600    0.000    6.000    0.000   14.400 
#    0.000    2.000    0.000    0.000    0.000    0.000 
#    0.000    0.000    0.000    0.000    0.000    0.000 
#
# Total GULP energy -111855.771529 kJ/mol
# GULP energy per Si atom -5592.788576 kJ/mol
# Density = 2.692485 g / cm^3
# Si number density = 26.986268 Si / 1000 Ang^3
#
#
#
# Elastic Constant Matrix: (Units=GPa)
#
#
# Indices 1 2 3 4 5 6 
#
# 1 106.4834 27.1003 39.1864 0.0000 0.0000 0.0000
# 2 27.1003 96.2197 56.0877 0.0000 0.0000 0.0000
# 3 39.1864 56.0877 222.2428 0.0000 0.0000 0.0000
# 4 0.0000 0.0000 0.0000 58.9124 0.0000 0.0000
# 5 0.0000 0.0000 0.0000 0.0000 30.3171 0.0000
# 6 0.0000 0.0000 0.0000 0.0000 0.0000 34.4095
#
#
#
# Elastic Compliance Matrix: (Units=1/GPa)
#
#
# Indices 1 2 3 4 5 6 
#
# 1 0.010421 -0.002185 -0.001286 0.000000 0.000000 0.000000
# 2 -0.002185 0.012644 -0.002806 0.000000 0.000000 0.000000
# 3 -0.001286 -0.002806 0.005434 0.000000 0.000000 0.000000
# 4 0.000000 0.000000 0.000000 0.016974 0.000000 0.000000
# 5 0.000000 0.000000 0.000000 0.000000 0.032985 0.000000
# 6 0.000000 0.000000 0.000000 0.000000 0.000000 0.029062
#
#
# Mechanical properties :
#
#
# Convention : Reuss Voigt Hill
#
# Bulk Modulus (GPa) = 62.71557 74.41054 68.56305
# Shear Modulus (GPa) = 39.87616 44.89924 42.38770
#
# Velocity S-wave (km/s) = 3.84819 4.08337 3.96752
# Velocity P-wave (km/s) = 6.56011 7.06153 6.81543
#
# Compressibility (1/GPa) = 0.01594500
#
# Stress axis : x y z
#
# Youngs Moduli (GPa) = 95.96446 79.08997 184.01433
#
# Poissons Ratio (x) = 0.17284 0.23661
# Poissons Ratio (y) = 0.20972 0.51627
# Poissons Ratio (z) = 0.12339 0.22190
#
# Static dielectric constant tensor:
#      x y z
#    x 2.130730 0.000000 0.000000 
#    y 0.000000 2.259480 0.000000 
#    z 0.000000 0.000000 2.069570 
# 
# From -- ./inp_files/742.got.cif
#   From: 2010.05.17/outbox.cif.g08.bks.cpg/sg33_1_cif.got.tgz:742.got - 2010.06.03 17:15:25.
