data_PCOD9344765
_publ_section_title
;
Structure prediction by ZEFSAII (Michael W. Deem and Ramdas Pophale) SiO2 
 PCOD9344765
Probable space group: P N A 21
;
_chemical_formula_sum "Si O2"
_cell_formula_units_Z 20
_cell_length_a 9.092192
_cell_length_b 7.669130
_cell_length_c 12.139366
_cell_angle_alpha 90.000000
_cell_angle_beta 90.000000
_cell_angle_gamma 90.000000
_cell_volume 846.468309
_symmetry_space_group_name_H-M "P N A 21"
_symmetry_group_IT_number 33
_symmetry_cell_setting 'orthorhombic'
loop_
_space_group_symop_operation_xyz
x,y,z
-x,-y,1/2+z
1/2-x,1/2+y,1/2+z
1/2+x,1/2-y,z
loop_
_atom_site_type_symbol
_atom_site_label
_atom_site_fract_x
_atom_site_fract_y
_atom_site_fract_z
Si Si1 0.029751 0.796798 0.327550
Si Si2 0.019508 0.659692 0.559236
Si Si3 0.214426 0.629963 0.993071
Si Si4 0.550714 0.524234 0.012595
Si Si5 0.809447 0.510900 0.250022
O O1 0.089230 0.695097 0.437477
O O2 0.155956 0.886682 0.258286
O O3 0.931801 0.661788 0.262927
O O4 0.935279 0.946557 0.388254
O O5 0.890864 0.516979 0.546694
O O6 0.950745 0.849131 0.585806
O O7 0.138049 0.600582 0.647009
O O8 0.164172 0.821527 0.026434
O O9 0.384652 0.598764 0.020157
O O10 0.191314 0.603370 0.862006
#
# Coordination Sequence:
#
# PCOD9344765 Si02
#       5
#     4   4   4   4   4
#     4   8  20  39  64  99 135 171 228 284 326 424
#     4   9  21  40  64  94 136 175 226 272 340 406
#     4  10  21  41  62  95 133 175 218 280 336 396
#     4   9  21  40  62  94 133 172 214 281 328 402
#     4  10  19  42  66  96 137 181 220 281 352 400
#
# _framework density 23.627583999999999
#
# number of rings (size 3 to 8) (size 9 to 14) (size 15 to 20)
#    1.200    1.600    0.000    0.000    0.000    6.400 
#   10.800    0.000    0.000    2.400    0.000    0.000 
#    0.000    0.000    0.000    0.000    0.000    0.000 
#
# Total GULP energy -111801.264970 kJ/mol
# GULP energy per Si atom -5590.063248 kJ/mol
# Density = 2.357381 g / cm^3
# Si number density = 23.627584 Si / 1000 Ang^3
#
#
#
# Elastic Constant Matrix: (Units=GPa)
#
#
# Indices 1 2 3 4 5 6 
#
# 1 53.5431 38.5698 8.7023 0.0000 0.0000 0.0000
# 2 38.5698 162.6150 33.2306 0.0000 0.0000 0.0000
# 3 8.7023 33.2306 55.6651 0.0000 0.0000 0.0000
# 4 0.0000 0.0000 0.0000 26.8961 0.0000 0.0000
# 5 0.0000 0.0000 0.0000 0.0000 15.0374 0.0000
# 6 0.0000 0.0000 0.0000 0.0000 0.0000 16.1670
#
#
#
# Elastic Compliance Matrix: (Units=1/GPa)
#
#
# Indices 1 2 3 4 5 6 
#
# 1 0.022532 -0.005267 -0.000378 0.000000 0.000000 0.000000
# 2 -0.005267 0.008235 -0.004093 0.000000 0.000000 0.000000
# 3 -0.000378 -0.004093 0.020467 0.000000 0.000000 0.000000
# 4 0.000000 0.000000 0.000000 0.037180 0.000000 0.000000
# 5 0.000000 0.000000 0.000000 0.000000 0.066501 0.000000
# 6 0.000000 0.000000 0.000000 0.000000 0.000000 0.061855
#
#
# Mechanical properties :
#
#
# Convention : Reuss Voigt Hill
#
# Bulk Modulus (GPa) = 31.48789 48.09206 39.78998
# Shear Modulus (GPa) = 20.25670 24.37479 22.31574
#
# Velocity S-wave (km/s) = 2.93120 3.21538 3.07657
# Velocity P-wave (km/s) = 4.98112 5.84664 5.43115
#
# Compressibility (1/GPa) = 0.03175824
#
# Stress axis : x y z
#
# Youngs Moduli (GPa) = 44.38112 121.43149 48.85916
#
# Poissons Ratio (x) = 0.63958 0.01848
# Poissons Ratio (y) = 0.23375 0.19997
# Poissons Ratio (z) = 0.01679 0.49699
#
# Static dielectric constant tensor:
#      x y z
#    x 1.890590 0.000000 0.000000 
#    y 0.000000 1.873060 0.000000 
#    z 0.000000 0.000000 1.973920 
# 
# From -- ./inp_files/5719.got.cif
#   From: 2010.05.17/outbox.cif.g08.bks.cpg/sg33_3_cif.got.tgz:5719.got - 2010.06.03 17:15:25.
