data_PCOD9344851
_publ_section_title
;
Structure prediction by ZEFSAII (Michael W. Deem and Ramdas Pophale) SiO2 
 PCOD9344851
Probable space group: P N A 21
;
_chemical_formula_sum "Si O2"
_cell_formula_units_Z 24
_cell_length_a 5.293991
_cell_length_b 13.612416
_cell_length_c 12.574334
_cell_angle_alpha 90.000000
_cell_angle_beta 90.000000
_cell_angle_gamma 90.000000
_cell_volume 906.156903
_symmetry_space_group_name_H-M "P N A 21"
_symmetry_group_IT_number 33
_symmetry_cell_setting 'orthorhombic'
loop_
_space_group_symop_operation_xyz
x,y,z
-x,-y,1/2+z
1/2-x,1/2+y,1/2+z
1/2+x,1/2-y,z
loop_
_atom_site_type_symbol
_atom_site_label
_atom_site_fract_x
_atom_site_fract_y
_atom_site_fract_z
Si Si1 0.102796 0.221494 0.727790
Si Si2 0.115116 0.985946 0.243726
Si Si3 0.971444 0.520238 0.056579
Si Si4 0.950018 0.908787 0.951014
Si Si5 0.901997 0.695185 0.466919
Si Si6 0.433358 0.306583 0.243663
O O1 0.850216 0.248242 0.667234
O O2 0.065819 0.107545 0.749787
O O3 0.097826 0.288401 0.836672
O O4 0.160626 0.014000 0.364845
O O5 0.976441 0.083622 0.199512
O O6 0.372794 0.976129 0.178187
O O7 0.715681 0.556892 0.998176
O O8 0.022672 0.409759 0.014078
O O9 0.219315 0.585915 0.033220
O O10 0.520813 0.680250 0.871886
O O11 0.122655 0.771114 0.499772
O O12 0.161392 0.265498 0.215201
#
# Coordination Sequence:
#
# PCOD9344851 Si02
#       6
#     4   4   4   4   4   4
#     4  10  20  38  62  94 133 173 219 275 351 410
#     4  10  26  42  73 105 140 188 234 301 360 429
#     4  12  23  43  68 105 136 186 239 289 356 437
#     4  10  24  42  68  93 142 180 232 290 355 414
#     4  10  20  35  61  93 131 165 219 280 352 399
#     4  10  23  44  68  96 136 188 235 291 356 421
#
# _framework density 26.485481
#
# number of rings (size 3 to 8) (size 9 to 14) (size 15 to 20)
#    1.000    0.667    0.000    6.000    0.000    6.667 
#    0.000    5.000    0.000    0.000    0.000    0.000 
#    0.000    0.000    0.000    0.000    0.000    0.000 
#
# Total GULP energy -134247.488954 kJ/mol
# GULP energy per Si atom -5593.645373 kJ/mol
# Density = 2.642520 g / cm^3
# Si number density = 26.485481 Si / 1000 Ang^3
#
#
#
# Elastic Constant Matrix: (Units=GPa)
#
#
# Indices 1 2 3 4 5 6 
#
# 1 163.0095 10.9442 12.2626 0.0000 0.0000 0.0000
# 2 10.9442 97.3977 13.5115 0.0000 0.0000 0.0000
# 3 12.2626 13.5115 92.0080 0.0000 0.0000 0.0000
# 4 0.0000 0.0000 0.0000 43.9747 0.0000 0.0000
# 5 0.0000 0.0000 0.0000 0.0000 31.0240 0.0000
# 6 0.0000 0.0000 0.0000 0.0000 0.0000 27.9824
#
#
#
# Elastic Compliance Matrix: (Units=1/GPa)
#
#
# Indices 1 2 3 4 5 6 
#
# 1 0.006231 -0.000597 -0.000743 0.000000 0.000000 0.000000
# 2 -0.000597 0.010538 -0.001468 0.000000 0.000000 0.000000
# 3 -0.000743 -0.001468 0.011183 0.000000 0.000000 0.000000
# 4 0.000000 0.000000 0.000000 0.022740 0.000000 0.000000
# 5 0.000000 0.000000 0.000000 0.000000 0.032233 0.000000
# 6 0.000000 0.000000 0.000000 0.000000 0.000000 0.035737
#
#
# Mechanical properties :
#
#
# Convention : Reuss Voigt Hill
#
# Bulk Modulus (GPa) = 44.77033 47.31687 46.04360
# Shear Modulus (GPa) = 37.95855 41.64270 39.80062
#
# Velocity S-wave (km/s) = 3.78985 3.96951 3.88072
# Velocity P-wave (km/s) = 6.00758 6.23805 6.12390
#
# Compressibility (1/GPa) = 0.02233622
#
# Stress axis : x y z
#
# Youngs Moduli (GPa) = 160.49902 94.89550 89.42007
#
# Poissons Ratio (x) = 0.05666 0.06641
# Poissons Ratio (y) = 0.09583 0.13126
# Poissons Ratio (z) = 0.11920 0.13930
#
# Static dielectric constant tensor:
#      x y z
#    x 2.061240 0.000000 0.000000 
#    y 0.000000 2.067940 0.000000 
#    z 0.000000 0.000000 2.210090 
# 
# From -- ./inp_files/7397.got.cif
#   From: 2010.05.17/outbox.cif.g08.bks.cpg/sg33_4_cif.got.tgz:7397.got - 2010.06.03 17:15:25.
