data_PCOD9344739
_publ_section_title
;
Structure prediction by ZEFSAII (Michael W. Deem and Ramdas Pophale) SiO2 
 PCOD9344739
Probable space group: P N A 21
;
_chemical_formula_sum "Si O2"
_cell_formula_units_Z 28
_cell_length_a 5.326712
_cell_length_b 24.904392
_cell_length_c 7.909190
_cell_angle_alpha 90.000000
_cell_angle_beta 90.000000
_cell_angle_gamma 90.000000
_cell_volume 1049.221469
_symmetry_space_group_name_H-M "P N A 21"
_symmetry_group_IT_number 33
_symmetry_cell_setting 'orthorhombic'
loop_
_space_group_symop_operation_xyz
x,y,z
-x,-y,1/2+z
1/2-x,1/2+y,1/2+z
1/2+x,1/2-y,z
loop_
_atom_site_type_symbol
_atom_site_label
_atom_site_fract_x
_atom_site_fract_y
_atom_site_fract_z
Si Si1 0.015565 0.881562 0.446530
Si Si2 0.383924 0.728865 0.381488
Si Si3 0.783624 0.369552 0.426103
Si Si4 0.282611 0.010549 0.954710
Si Si5 0.972094 0.744884 0.981891
Si Si6 0.391438 0.924603 0.669208
Si Si7 0.281299 0.407533 0.611415
O O1 0.824870 0.833253 0.413943
O O2 0.177546 0.883282 0.615953
O O3 0.197970 0.876503 0.286115
O O4 0.896425 0.939879 0.424391
O O5 0.156351 0.761300 0.461302
O O6 0.434846 0.746225 0.185935
O O7 0.811369 0.305020 0.444523
O O8 0.522162 0.389823 0.500338
O O9 0.865861 0.393543 0.244260
O O10 0.009800 0.392847 0.539172
O O11 0.303995 0.968747 0.803684
O O12 0.537658 0.040246 0.006165
O O13 0.208072 0.972382 0.111608
O O14 0.207826 0.783319 0.923925
#
# Coordination Sequence:
#
# PCOD9344739 Si02
#       7
#     4   4   4   4   4   4   4
#     4  12  26  43  75 107 146 198 248 312 379 454
#     4  10  22  41  68 102 138 181 248 307 366 439
#     4  11  25  46  72 107 143 194 244 312 375 455
#     4  11  27  45  71 105 150 197 245 306 375 466
#     4  10  19  39  68  99 135 177 243 302 364 435
#     4  11  28  46  71 109 154 200 251 310 388 463
#     4  11  25  42  73 103 146 189 245 299 375 452
#
# _framework density 26.686454000000001
#
# number of rings (size 3 to 8) (size 9 to 14) (size 15 to 20)
#    0.000    1.143    0.000    6.000   18.000    0.000 
#    0.000    1.429    0.000    0.000    0.000    0.000 
#    0.000    0.000    0.000    0.000    0.000    0.000 
#
# Total GULP energy -156351.067819 kJ/mol
# GULP energy per Si atom -5583.966708 kJ/mol
# Density = 2.662571 g / cm^3
# Si number density = 26.686454 Si / 1000 Ang^3
#
#
#
# Elastic Constant Matrix: (Units=GPa)
#
#
# Indices 1 2 3 4 5 6 
#
# 1 239.8664 81.7395 4.8574 0.0000 0.0000 0.0000
# 2 81.7395 205.6650 -0.4489 0.0000 0.0000 0.0000
# 3 4.8574 -0.4489 75.6698 0.0000 0.0000 0.0000
# 4 0.0000 0.0000 0.0000 29.4759 0.0000 0.0000
# 5 0.0000 0.0000 0.0000 0.0000 19.3452 0.0000
# 6 0.0000 0.0000 0.0000 0.0000 0.0000 25.7863
#
#
#
# Elastic Compliance Matrix: (Units=1/GPa)
#
#
# Indices 1 2 3 4 5 6 
#
# 1 0.004830 -0.001920 -0.000321 0.000000 0.000000 0.000000
# 2 -0.001920 0.005626 0.000157 0.000000 0.000000 0.000000
# 3 -0.000321 0.000157 0.013237 0.000000 0.000000 0.000000
# 4 0.000000 0.000000 0.000000 0.033926 0.000000 0.000000
# 5 0.000000 0.000000 0.000000 0.000000 0.051692 0.000000
# 6 0.000000 0.000000 0.000000 0.000000 0.000000 0.038780
#
#
# Mechanical properties :
#
#
# Convention : Reuss Voigt Hill
#
# Bulk Modulus (GPa) = 51.22317 77.05525 64.13921
# Shear Modulus (GPa) = 31.49235 43.92504 37.70869
#
# Velocity S-wave (km/s) = 3.43897 4.06145 3.76310
# Velocity P-wave (km/s) = 5.91648 7.13659 6.55498
#
# Compressibility (1/GPa) = 0.01952242
#
# Stress axis : x y z
#
# Youngs Moduli (GPa) = 207.04474 177.75196 75.54652
#
# Poissons Ratio (x) = 0.34133 0.02428
# Poissons Ratio (y) = 0.39759 -0.01183
# Poissons Ratio (z) = 0.06655 -0.02784
#
# Static dielectric constant tensor:
#      x y z
#    x 1.613520 0.000000 0.000000 
#    y 0.000000 2.512670 0.000000 
#    z 0.000000 0.000000 2.127040 
# 
# From -- ./inp_files/2738.got.cif
#   From: 2010.05.17/outbox.cif.g08.bks.cpg/sg33_2_cif.got.tgz:2738.got - 2010.06.03 17:15:25.
