data_PCOD9344930
_publ_section_title
;
Structure prediction by ZEFSAII (Michael W. Deem and Ramdas Pophale) SiO2 
 PCOD9344930
Probable space group: P N A 21
;
_chemical_formula_sum "Si O2"
_cell_formula_units_Z 32
_cell_length_a 14.715692
_cell_length_b 8.629557
_cell_length_c 11.713284
_cell_angle_alpha 90.000000
_cell_angle_beta 90.000000
_cell_angle_gamma 90.000000
_cell_volume 1487.468798
_symmetry_space_group_name_H-M "P N A 21"
_symmetry_group_IT_number 33
_symmetry_cell_setting 'orthorhombic'
loop_
_space_group_symop_operation_xyz
x,y,z
-x,-y,1/2+z
1/2-x,1/2+y,1/2+z
1/2+x,1/2-y,z
loop_
_atom_site_type_symbol
_atom_site_label
_atom_site_fract_x
_atom_site_fract_y
_atom_site_fract_z
Si Si1 0.160510 0.341186 0.629170
Si Si2 0.561788 0.261634 0.857857
Si Si3 0.236091 0.049744 0.270525
Si Si4 0.597611 0.736172 0.755266
Si Si5 0.572714 0.909868 0.513487
Si Si6 0.326012 0.508510 0.096788
Si Si7 0.947813 0.930485 0.874243
Si Si8 0.751600 0.731428 0.448319
O O1 0.095072 0.309679 0.738023
O O2 0.233048 0.478233 0.650462
O O3 0.095997 0.410213 0.531828
O O4 0.211427 0.179770 0.612886
O O5 0.512356 0.133209 0.935877
O O6 0.492864 0.403592 0.845082
O O7 0.653411 0.312869 0.924637
O O8 0.314315 0.172284 0.300379
O O9 0.135371 0.108719 0.288935
O O10 0.241715 0.897892 0.349993
O O11 0.564474 0.829924 0.640606
O O12 0.627757 0.568914 0.705552
O O13 0.523328 0.699361 0.850667
O O14 0.661770 0.834055 0.454644
O O15 0.402204 0.539505 0.998373
O O16 0.253800 0.379144 0.059029
#
# Coordination Sequence:
#
# PCOD9344930 Si02
#       8
#     4   4   4   4   4   4   4   4
#     4  10  22  38  62  95 130 163 218 270 310 385
#     4  11  20  40  68  89 128 173 212 263 328 387
#     4   9  20  40  60  84 122 166 205 262 319 375
#     4  10  20  37  64  92 125 168 218 261 313 389
#     4  10  21  41  62  91 133 167 210 271 322 378
#     4  10  20  40  57  93 132 160 217 273 304 380
#     4  11  21  41  68  90 129 174 212 261 327 389
#     4   9  20  39  59  82 121 165 206 259 323 373
#
# _framework density 21.513055999999999
#
# number of rings (size 3 to 8) (size 9 to 14) (size 15 to 20)
#    0.000    2.000    5.000    0.000    0.000    6.000 
#    6.750    0.000    2.750    0.000    0.000    0.000 
#    0.000    0.000    0.000    0.000    0.000    0.000 
#
# Total GULP energy -178312.000031 kJ/mol
# GULP energy per Si atom -5572.250001 kJ/mol
# Density = 2.146409 g / cm^3
# Si number density = 21.513056 Si / 1000 Ang^3
#
#
#
# Elastic Constant Matrix: (Units=GPa)
#
#
# Indices 1 2 3 4 5 6 
#
# 1 107.8683 26.7787 27.3367 0.0000 0.0000 0.0000
# 2 26.7787 71.3690 4.7640 0.0000 0.0000 0.0000
# 3 27.3367 4.7640 46.6365 0.0000 0.0000 0.0000
# 4 0.0000 0.0000 0.0000 20.6400 0.0000 0.0000
# 5 0.0000 0.0000 0.0000 0.0000 27.6724 0.0000
# 6 0.0000 0.0000 0.0000 0.0000 0.0000 35.9250
#
#
#
# Elastic Compliance Matrix: (Units=1/GPa)
#
#
# Indices 1 2 3 4 5 6 
#
# 1 0.011943 -0.004042 -0.006588 0.000000 0.000000 0.000000
# 2 -0.004042 0.015476 0.000788 0.000000 0.000000 0.000000
# 3 -0.006588 0.000788 0.025224 0.000000 0.000000 0.000000
# 4 0.000000 0.000000 0.000000 0.048449 0.000000 0.000000
# 5 0.000000 0.000000 0.000000 0.000000 0.036137 0.000000
# 6 0.000000 0.000000 0.000000 0.000000 0.000000 0.027836
#
#
# Mechanical properties :
#
#
# Convention : Reuss Voigt Hill
#
# Bulk Modulus (GPa) = 30.34001 38.18140 34.26070
# Shear Modulus (GPa) = 25.54482 27.98045 26.76263
#
# Velocity S-wave (km/s) = 3.44962 3.61033 3.53089
# Velocity P-wave (km/s) = 5.47724 5.93008 5.70815
#
# Compressibility (1/GPa) = 0.03295978
#
# Stress axis : x y z
#
# Youngs Moduli (GPa) = 83.72759 64.61808 39.64546
#
# Poissons Ratio (x) = 0.26116 0.26118
# Poissons Ratio (y) = 0.33840 -0.03125
# Poissons Ratio (z) = 0.55160 -0.05093
#
# Static dielectric constant tensor:
#      x y z
#    x 1.824880 0.000000 0.000000 
#    y 0.000000 1.835700 0.000000 
#    z 0.000000 0.000000 1.913870 
# 
# From -- ./inp_files/6786.got.cif
#   From: 2010.05.17/outbox.cif.g08.bks.cpg/sg33_4_cif.got.tgz:6786.got - 2010.06.03 17:15:25.
