data_PCOD9344510
_publ_section_title
;
Structure prediction by ZEFSAII (Michael W. Deem and Ramdas Pophale) SiO2 
 PCOD9344510
Probable space group: P N A 21
;
_chemical_formula_sum "Si O2"
_cell_formula_units_Z 32
_cell_length_a 18.048123
_cell_length_b 6.857902
_cell_length_c 10.570697
_cell_angle_alpha 90.000000
_cell_angle_beta 90.000000
_cell_angle_gamma 90.000000
_cell_volume 1308.359045
_symmetry_space_group_name_H-M "P N A 21"
_symmetry_group_IT_number 33
_symmetry_cell_setting 'orthorhombic'
loop_
_space_group_symop_operation_xyz
x,y,z
-x,-y,1/2+z
1/2-x,1/2+y,1/2+z
1/2+x,1/2-y,z
loop_
_atom_site_type_symbol
_atom_site_label
_atom_site_fract_x
_atom_site_fract_y
_atom_site_fract_z
Si Si1 0.284247 0.968277 0.629150
Si Si2 0.399159 0.163288 0.928579
Si Si3 0.115225 0.023124 0.597567
Si Si4 0.833830 0.684812 0.878008
Si Si5 0.129930 0.153082 0.014274
Si Si6 0.541356 0.647828 0.178002
Si Si7 0.043498 0.538307 0.951853
Si Si8 0.173565 0.753226 0.909784
O O1 0.343520 0.912582 0.738379
O O2 0.296903 0.779602 0.542033
O O3 0.197834 0.007080 0.656568
O O4 0.310646 0.155380 0.548346
O O5 0.416507 0.291205 0.804998
O O6 0.328891 0.022723 0.950893
O O7 0.459979 0.991383 0.911859
O O8 0.406054 0.310833 0.043933
O O9 0.126711 0.161517 0.471846
O O10 0.046486 0.095252 0.682895
O O11 0.752866 0.777691 0.848248
O O12 0.073417 0.320168 0.970312
O O13 0.087247 0.036765 0.125298
O O14 0.151145 0.976249 0.923397
O O15 0.541566 0.822059 0.074358
O O16 0.102126 0.639858 0.858380
#
# Coordination Sequence:
#
# PCOD9344510 Si02
#       8
#     4   4   4   4   4   4   4   4
#     4  10  22  40  63  93 128 174 228 273 330 397
#     4  12  23  40  69  94 133 183 219 269 349 395
#     4  11  24  44  64 101 139 170 230 282 329 410
#     4  11  22  42  63  93 132 177 220 277 336 396
#     4  10  18  39  63  85 122 168 210 266 328 383
#     4  11  23  41  64  98 133 172 220 279 333 399
#     4  10  21  40  60  94 128 166 221 274 321 404
#     4   9  21  38  62  88 127 166 218 274 318 392
#
# _framework density 24.458120000000001
#
# number of rings (size 3 to 8) (size 9 to 14) (size 15 to 20)
#    0.000    1.500    2.500    3.750    0.000    1.000 
#    2.250    0.000    0.000    0.000    0.000    0.000 
#    0.000    0.000    0.000    0.000    0.000    0.000 
#
# Total GULP energy -178145.018040 kJ/mol
# GULP energy per Si atom -5567.031814 kJ/mol
# Density = 2.440245 g / cm^3
# Si number density = 24.458120 Si / 1000 Ang^3
#
#
#
# Elastic Constant Matrix: (Units=GPa)
#
#
# Indices 1 2 3 4 5 6 
#
# 1 94.5343 12.5500 -4.5286 0.0000 0.0000 0.0000
# 2 12.5500 126.4413 17.6648 0.0000 0.0000 0.0000
# 3 -4.5286 17.6648 43.3724 0.0000 0.0000 0.0000
# 4 0.0000 0.0000 0.0000 17.3508 0.0000 0.0000
# 5 0.0000 0.0000 0.0000 0.0000 20.4853 0.0000
# 6 0.0000 0.0000 0.0000 0.0000 0.0000 44.6911
#
#
#
# Elastic Compliance Matrix: (Units=1/GPa)
#
#
# Indices 1 2 3 4 5 6 
#
# 1 0.010831 -0.001307 0.001663 0.000000 0.000000 0.000000
# 2 -0.001307 0.008544 -0.003616 0.000000 0.000000 0.000000
# 3 0.001663 -0.003616 0.024703 0.000000 0.000000 0.000000
# 4 0.000000 0.000000 0.000000 0.057634 0.000000 0.000000
# 5 0.000000 0.000000 0.000000 0.000000 0.048815 0.000000
# 6 0.000000 0.000000 0.000000 0.000000 0.000000 0.022376
#
#
# Mechanical properties :
#
#
# Convention : Reuss Voigt Hill
#
# Bulk Modulus (GPa) = 26.62597 35.08005 30.85301
# Shear Modulus (GPa) = 26.04938 32.41622 29.23280
#
# Velocity S-wave (km/s) = 3.26707 3.64452 3.46094
# Velocity P-wave (km/s) = 5.01414 5.66428 5.34910
#
# Compressibility (1/GPa) = 0.03755732
#
# Stress axis : x y z
#
# Youngs Moduli (GPa) = 92.32394 117.04401 40.48148
#
# Poissons Ratio (x) = 0.15303 -0.06734
# Poissons Ratio (y) = 0.12071 0.14639
# Poissons Ratio (z) = -0.15358 0.42326
#
# Static dielectric constant tensor:
#      x y z
#    x 2.168970 0.000000 0.000000 
#    y 0.000000 1.946400 0.000000 
#    z 0.000000 0.000000 2.089560 
# 
# From -- ./inp_files/7259.got.cif
#   From: 2010.05.17/outbox.cif.g08.bks.cpg/sg33_4_cif.got.tgz:7259.got - 2010.06.03 17:15:25.
