data_PCOD9344152
_publ_section_title
;
Structure prediction by ZEFSAII (Michael W. Deem and Ramdas Pophale) SiO2 
 PCOD9344152
Probable space group: P B A 2
;
_chemical_formula_sum "Si O2"
_cell_formula_units_Z 16
_cell_length_a 9.711776
_cell_length_b 11.644401
_cell_length_c 6.933287
_cell_angle_alpha 90.000000
_cell_angle_beta 90.000000
_cell_angle_gamma 90.000000
_cell_volume 784.070272
_symmetry_space_group_name_H-M "P B A 2"
_symmetry_group_IT_number 32
_symmetry_cell_setting 'orthorhombic'
loop_
_space_group_symop_operation_xyz
x,y,z
-x,-y,z
1/2-x,1/2+y,z
1/2+x,1/2-y,z
loop_
_atom_site_type_symbol
_atom_site_label
_atom_site_fract_x
_atom_site_fract_y
_atom_site_fract_z
Si Si1 0.500000 0.000000 0.997640
Si Si2 0.845591 0.111249 0.349265
Si Si3 0.404755 0.775472 0.225407
Si Si4 0.793190 0.926511 0.998794
Si Si5 0.500000 0.500000 0.693276
O O1 0.352827 0.035307 0.906964
O O2 0.466186 0.886792 0.121925
O O3 0.701784 0.176185 0.381522
O O4 0.892352 0.056432 0.548368
O O5 0.970977 0.195136 0.291650
O O6 0.825173 0.017970 0.174340
O O7 0.803196 0.800959 0.092279
O O8 0.911314 0.924142 0.838839
#
# Coordination Sequence:
#
# PCOD9344152 Si02
#       5
#     2   4   4   4   2
#     4  10  24  40  72  96 124 184 224 262 342 398
#     4  11  23  42  67  94 129 180 219 269 340 392
#     4  11  20  44  67  92 133 173 218 278 323 399
#     4  11  22  44  67  95 134 174 223 278 332 396
#     4  12  22  42  68 100 130 174 222 268 346 398
#
# _framework density 20.406334000000001
#
# number of rings (size 3 to 8) (size 9 to 14) (size 15 to 20)
#    0.000    1.000    7.500    0.000    0.000    0.000 
#   13.500    5.000    0.000    0.000    0.000    0.000 
#    0.000    0.000    0.000    0.000    0.000    0.000 
#
# Total GULP energy -89141.941648 kJ/mol
# GULP energy per Si atom -5571.371353 kJ/mol
# Density = 2.035989 g / cm^3
# Si number density = 20.406334 Si / 1000 Ang^3
#
#
#
# Elastic Constant Matrix: (Units=GPa)
#
#
# Indices 1 2 3 4 5 6 
#
# 1 91.1754 7.1167 9.3798 0.0000 0.0000 0.0000
# 2 7.1167 84.5336 8.1374 0.0000 0.0000 0.0000
# 3 9.3798 8.1374 58.9941 0.0000 0.0000 0.0000
# 4 0.0000 0.0000 0.0000 6.5045 0.0000 0.0000
# 5 0.0000 0.0000 0.0000 0.0000 10.3084 0.0000
# 6 0.0000 0.0000 0.0000 0.0000 0.0000 20.4896
#
#
#
# Elastic Compliance Matrix: (Units=1/GPa)
#
#
# Indices 1 2 3 4 5 6 
#
# 1 0.011201 -0.000782 -0.001673 0.000000 0.000000 0.000000
# 2 -0.000782 0.012043 -0.001537 0.000000 0.000000 0.000000
# 3 -0.001673 -0.001537 0.017429 0.000000 0.000000 0.000000
# 4 0.000000 0.000000 0.000000 0.153739 0.000000 0.000000
# 5 0.000000 0.000000 0.000000 0.000000 0.097009 0.000000
# 6 0.000000 0.000000 0.000000 0.000000 0.000000 0.048805
#
#
# Mechanical properties :
#
#
# Convention : Reuss Voigt Hill
#
# Bulk Modulus (GPa) = 30.59088 31.55233 31.07160
# Shear Modulus (GPa) = 13.92345 21.46510 17.69428
#
# Velocity S-wave (km/s) = 2.61494 3.24680 2.94785
# Velocity P-wave (km/s) = 4.91331 5.43610 5.18130
#
# Compressibility (1/GPa) = 0.03268948
#
# Stress axis : x y z
#
# Youngs Moduli (GPa) = 89.27753 83.03311 57.37612
#
# Poissons Ratio (x) = 0.06493 0.09599
# Poissons Ratio (y) = 0.06981 0.08818
# Poissons Ratio (z) = 0.14937 0.12761
#
# Static dielectric constant tensor:
#      x y z
#    x 1.715930 0.000000 0.000000 
#    y 0.000000 1.750230 0.000000 
#    z 0.000000 0.000000 1.684850 
# 
# From -- ./inp_files/330.got.cif
#   From: 2010.05.17/outbox.cif.g08.bks.cpg/sg32_1_cif.got.tgz:330.got - 2010.06.03 17:12:27.
