data_PCOD9344805
_publ_section_title
;
Structure prediction by ZEFSAII (Michael W. Deem and Ramdas Pophale) SiO2 
 PCOD9344805
Probable space group: P N A 21
;
_chemical_formula_sum "Si O2"
_cell_formula_units_Z 32
_cell_length_a 9.474448
_cell_length_b 18.520012
_cell_length_c 8.570595
_cell_angle_alpha 90.000000
_cell_angle_beta 90.000000
_cell_angle_gamma 90.000000
_cell_volume 1503.855656
_symmetry_space_group_name_H-M "P N A 21"
_symmetry_group_IT_number 33
_symmetry_cell_setting 'orthorhombic'
loop_
_space_group_symop_operation_xyz
x,y,z
-x,-y,1/2+z
1/2-x,1/2+y,1/2+z
1/2+x,1/2-y,z
loop_
_atom_site_type_symbol
_atom_site_label
_atom_site_fract_x
_atom_site_fract_y
_atom_site_fract_z
Si Si1 0.732819 0.104379 0.136070
Si Si2 0.625424 0.787779 0.180963
Si Si3 0.855751 0.914675 0.792699
Si Si4 0.039355 0.140967 0.008248
Si Si5 0.717064 0.943833 0.076538
Si Si6 0.129328 0.839666 0.938548
Si Si7 0.135327 0.282131 0.891231
Si Si8 0.024903 0.934044 0.196982
O O1 0.753449 0.141737 0.306850
O O2 0.895765 0.109350 0.078397
O O3 0.671425 0.022886 0.134871
O O4 0.658469 0.148424 0.997732
O O5 0.667120 0.871170 0.158643
O O6 0.722202 0.750902 0.315770
O O7 0.467006 0.789793 0.244361
O O8 0.636907 0.738080 0.024410
O O9 0.836477 0.891847 0.612891
O O10 0.972399 0.857510 0.863760
O O11 0.922964 0.994094 0.778681
O O12 0.714443 0.924714 0.892659
O O13 0.061992 0.225604 0.008474
O O14 0.029817 0.119877 0.828783
O O15 0.885624 0.949930 0.099869
O O16 0.136182 0.896746 0.082213
#
# Coordination Sequence:
#
# PCOD9344805 Si02
#       8
#     4   4   4   4   4   4   4   4
#     4  11  23  41  66  98 138 174 226 284 345 407
#     4  12  25  44  70  93 138 182 231 274 346 418
#     4  10  20  33  66 101 133 161 229 285 339 395
#     4  11  19  36  65  98 127 171 223 285 329 401
#     4  11  22  38  62  98 135 178 224 282 344 416
#     4  10  21  37  62 101 134 171 221 290 340 392
#     4  12  24  44  68  95 131 184 228 275 346 412
#     4  11  16  35  63 100 132 167 222 287 341 393
#
# _framework density 21.278638000000001
#
# number of rings (size 3 to 8) (size 9 to 14) (size 15 to 20)
#    0.000    1.000    7.500    1.500    1.750    0.000 
#    0.000    1.250    2.750    0.000    0.000    0.000 
#    0.000    0.000    0.000    0.000    0.000    0.000 
#
# Total GULP energy -178199.212572 kJ/mol
# GULP energy per Si atom -5568.725393 kJ/mol
# Density = 2.123021 g / cm^3
# Si number density = 21.278638 Si / 1000 Ang^3
#
#
#
# Elastic Constant Matrix: (Units=GPa)
#
#
# Indices 1 2 3 4 5 6 
#
# 1 27.1923 15.6953 12.0736 0.0000 0.0000 0.0000
# 2 15.6953 154.9449 44.8324 0.0000 0.0000 0.0000
# 3 12.0736 44.8324 102.8625 0.0000 0.0000 0.0000
# 4 0.0000 0.0000 0.0000 34.6669 0.0000 0.0000
# 5 0.0000 0.0000 0.0000 0.0000 10.8227 0.0000
# 6 0.0000 0.0000 0.0000 0.0000 0.0000 16.6300
#
#
#
# Elastic Compliance Matrix: (Units=1/GPa)
#
#
# Indices 1 2 3 4 5 6 
#
# 1 0.040046 -0.003086 -0.003356 0.000000 0.000000 0.000000
# 2 -0.003086 0.007623 -0.002960 0.000000 0.000000 0.000000
# 3 -0.003356 -0.002960 0.011406 0.000000 0.000000 0.000000
# 4 0.000000 0.000000 0.000000 0.028846 0.000000 0.000000
# 5 0.000000 0.000000 0.000000 0.000000 0.092398 0.000000
# 6 0.000000 0.000000 0.000000 0.000000 0.000000 0.060132
#
#
# Mechanical properties :
#
#
# Convention : Reuss Voigt Hill
#
# Bulk Modulus (GPa) = 24.83123 47.80025 36.31574
# Shear Modulus (GPa) = 18.33664 26.58382 22.46023
#
# Velocity S-wave (km/s) = 2.93872 3.53841 3.25242
# Velocity P-wave (km/s) = 4.81764 6.26151 5.58642
#
# Compressibility (1/GPa) = 0.04027187
#
# Stress axis : x y z
#
# Youngs Moduli (GPa) = 24.97131 131.18183 87.67450
#
# Poissons Ratio (x) = 0.40477 0.29420
# Poissons Ratio (y) = 0.07705 0.25954
# Poissons Ratio (z) = 0.08379 0.38834
#
# Static dielectric constant tensor:
#      x y z
#    x 1.775730 0.000000 0.000000 
#    y 0.000000 1.817120 0.000000 
#    z 0.000000 0.000000 1.942320 
# 
# From -- ./inp_files/4073.got.cif
#   From: 2010.05.17/outbox.cif.g08.bks.cpg/sg33_3_cif.got.tgz:4073.got - 2010.06.03 17:15:25.
