data_PCOD9344495
_publ_section_title
;
Structure prediction by ZEFSAII (Michael W. Deem and Ramdas Pophale) SiO2 
 PCOD9344495
Probable space group: P N A 21
;
_chemical_formula_sum "Si O2"
_cell_formula_units_Z 32
_cell_length_a 8.644406
_cell_length_b 21.692457
_cell_length_c 8.888340
_cell_angle_alpha 90.000000
_cell_angle_beta 90.000000
_cell_angle_gamma 90.000000
_cell_volume 1666.727344
_symmetry_space_group_name_H-M "P N A 21"
_symmetry_group_IT_number 33
_symmetry_cell_setting 'orthorhombic'
loop_
_space_group_symop_operation_xyz
x,y,z
-x,-y,1/2+z
1/2-x,1/2+y,1/2+z
1/2+x,1/2-y,z
loop_
_atom_site_type_symbol
_atom_site_label
_atom_site_fract_x
_atom_site_fract_y
_atom_site_fract_z
Si Si1 0.172435 0.105554 0.503920
Si Si2 0.029302 0.945338 0.242627
Si Si3 0.146972 0.054743 0.032399
Si Si4 0.739210 0.223640 0.303831
Si Si5 0.455021 0.167455 0.417166
Si Si6 0.963064 0.830538 0.703009
Si Si7 0.309939 0.974400 0.418595
Si Si8 0.527093 0.944755 0.683097
O O1 0.342671 0.134260 0.537288
O O2 0.100674 0.139065 0.358317
O O3 0.046953 0.105487 0.635151
O O4 0.210602 0.035544 0.457937
O O5 0.188196 0.930882 0.331846
O O6 0.898651 0.961315 0.364104
O O7 0.069968 0.004368 0.141360
O O8 0.083190 0.122261 0.073619
O O9 0.326228 0.054129 0.072304
O O10 0.631475 0.189937 0.427291
O O11 0.857516 0.271770 0.377963
O O12 0.626475 0.264893 0.198433
O O13 0.853476 0.178478 0.215567
O O14 0.464093 0.117934 0.280254
O O15 0.381039 0.950698 0.574141
O O16 0.440882 0.999827 0.302345
#
# Coordination Sequence:
#
# PCOD9344495 Si02
#       8
#     4   4   4   4   4   4   4   4
#     4  10  19  38  51  81 120 144 198 240 275 360
#     4  11  21  35  57  81 117 158 191 230 290 356
#     4  11  20  36  55  81 116 158 191 240 283 358
#     4   9  18  32  62  86 102 146 190 257 294 341
#     4   9  18  36  56  86 110 138 196 246 289 343
#     4  10  18  37  58  86 109 144 201 246 297 348
#     4  10  21  36  52  81 118 157 188 230 289 354
#     4  10  21  36  51  82 122 145 191 239 283 352
#
# _framework density 19.199300000000001
#
# number of rings (size 3 to 8) (size 9 to 14) (size 15 to 20)
#    0.000    2.000    6.250    0.000    3.500    0.000 
#   11.250    0.000    0.000    6.000    0.000    0.000 
#    0.000    0.000    0.000    0.000    0.000    0.000 
#
# Total GULP energy -178205.101962 kJ/mol
# GULP energy per Si atom -5568.909436 kJ/mol
# Density = 1.915560 g / cm^3
# Si number density = 19.199300 Si / 1000 Ang^3
#
#
#
# Elastic Constant Matrix: (Units=GPa)
#
#
# Indices 1 2 3 4 5 6 
#
# 1 94.1709 30.8839 17.6944 0.0000 0.0000 0.0000
# 2 30.8839 34.8305 7.3581 0.0000 0.0000 0.0000
# 3 17.6944 7.3581 52.8416 0.0000 0.0000 0.0000
# 4 0.0000 0.0000 0.0000 6.8157 0.0000 0.0000
# 5 0.0000 0.0000 0.0000 0.0000 42.0427 0.0000
# 6 0.0000 0.0000 0.0000 0.0000 0.0000 20.8847
#
#
#
# Elastic Compliance Matrix: (Units=1/GPa)
#
#
# Indices 1 2 3 4 5 6 
#
# 1 0.015539 -0.013063 -0.003384 0.000000 0.000000 0.000000
# 2 -0.013063 0.040563 -0.001274 0.000000 0.000000 0.000000
# 3 -0.003384 -0.001274 0.020235 0.000000 0.000000 0.000000
# 4 0.000000 0.000000 0.000000 0.146720 0.000000 0.000000
# 5 0.000000 0.000000 0.000000 0.000000 0.023785 0.000000
# 6 0.000000 0.000000 0.000000 0.000000 0.000000 0.047882
#
#
# Mechanical properties :
#
#
# Convention : Reuss Voigt Hill
#
# Bulk Modulus (GPa) = 24.45363 32.63510 28.54436
# Shear Modulus (GPa) = 14.54337 22.34238 18.44287
#
# Velocity S-wave (km/s) = 2.75525 3.41502 3.10272
# Velocity P-wave (km/s) = 4.78396 5.70831 5.26645
#
# Compressibility (1/GPa) = 0.04089372
#
# Stress axis : x y z
#
# Youngs Moduli (GPa) = 64.35362 24.65307 49.41895
#
# Poissons Ratio (x) = 0.32205 0.16725
# Poissons Ratio (y) = 0.84068 0.06296
# Poissons Ratio (z) = 0.21779 0.03141
#
# Static dielectric constant tensor:
#      x y z
#    x 1.739080 0.000000 0.000000 
#    y 0.000000 1.695700 0.000000 
#    z 0.000000 0.000000 1.670610 
# 
# From -- ./inp_files/3453.got.cif
#   From: 2010.05.17/outbox.cif.g08.bks.cpg/sg33_2_cif.got.tgz:3453.got - 2010.06.03 17:15:25.
