data_PCOD9344687
_publ_section_title
;
Structure prediction by ZEFSAII (Michael W. Deem and Ramdas Pophale) SiO2 
 PCOD9344687
Probable space group: P N A 21
;
_chemical_formula_sum "Si O2"
_cell_formula_units_Z 32
_cell_length_a 17.807927
_cell_length_b 14.457603
_cell_length_c 5.615242
_cell_angle_alpha 90.000000
_cell_angle_beta 90.000000
_cell_angle_gamma 90.000000
_cell_volume 1445.699862
_symmetry_space_group_name_H-M "P N A 21"
_symmetry_group_IT_number 33
_symmetry_cell_setting 'orthorhombic'
loop_
_space_group_symop_operation_xyz
x,y,z
-x,-y,1/2+z
1/2-x,1/2+y,1/2+z
1/2+x,1/2-y,z
loop_
_atom_site_type_symbol
_atom_site_label
_atom_site_fract_x
_atom_site_fract_y
_atom_site_fract_z
Si Si1 0.082114 0.487922 0.797620
Si Si2 0.319624 0.282407 0.059502
Si Si3 0.443370 0.546062 0.481430
Si Si4 0.030032 0.647022 0.107079
Si Si5 0.596345 0.671030 0.053938
Si Si6 0.601365 0.460950 0.469659
Si Si7 0.738807 0.039662 0.065853
Si Si8 0.330919 0.085440 0.904521
O O1 0.114358 0.518624 0.546266
O O2 0.032379 0.396239 0.779192
O O3 0.032661 0.575257 0.886932
O O4 0.158424 0.474896 0.945610
O O5 0.366023 0.297422 0.303439
O O6 0.250902 0.351929 0.092529
O O7 0.357808 0.312767 0.803904
O O8 0.301848 0.173779 0.047551
O O9 0.418718 0.437681 0.510401
O O10 0.534109 0.538826 0.476454
O O11 0.417476 0.593152 0.726573
O O12 0.410480 0.581933 0.232570
O O13 0.026658 0.756644 0.071122
O O14 0.113787 0.630646 0.210353
O O15 0.685544 0.499613 0.446712
O O16 0.733613 0.979361 0.304835
#
# Coordination Sequence:
#
# PCOD9344687 Si02
#       8
#     4   4   4   4   4   4   4   4
#     4  11  21  39  63  91 124 168 219 277 334 387
#     4  11  23  41  65  94 128 165 224 265 321 415
#     4  10  19  37  61  89 121 168 213 265 304 383
#     4  10  21  38  64  89 121 161 228 272 323 395
#     4  11  20  38  67  92 120 169 215 273 321 383
#     4  10  21  36  61  90 126 163 218 255 318 393
#     4  11  24  39  64  95 131 178 213 277 344 400
#     4  10  23  40  65  90 125 176 214 270 337 396
#
# _framework density 22.134606999999999
#
# number of rings (size 3 to 8) (size 9 to 14) (size 15 to 20)
#    0.000    1.500    5.000    0.000    3.500    0.000 
#    2.250    0.000    0.000    0.000    0.000    0.000 
#    0.000    0.000    0.000    0.000    0.000    0.000 
#
# Total GULP energy -178163.144627 kJ/mol
# GULP energy per Si atom -5567.598270 kJ/mol
# Density = 2.208423 g / cm^3
# Si number density = 22.134607 Si / 1000 Ang^3
#
#
#
# Elastic Constant Matrix: (Units=GPa)
#
#
# Indices 1 2 3 4 5 6 
#
# 1 84.7416 31.4158 21.3602 0.0000 0.0000 0.0000
# 2 31.4158 100.5576 23.2157 0.0000 0.0000 0.0000
# 3 21.3602 23.2157 130.6748 0.0000 0.0000 0.0000
# 4 0.0000 0.0000 0.0000 21.6038 0.0000 0.0000
# 5 0.0000 0.0000 0.0000 0.0000 28.4904 0.0000
# 6 0.0000 0.0000 0.0000 0.0000 0.0000 36.6937
#
#
#
# Elastic Compliance Matrix: (Units=1/GPa)
#
#
# Indices 1 2 3 4 5 6 
#
# 1 0.013635 -0.003906 -0.001535 0.000000 0.000000 0.000000
# 2 -0.003906 0.011489 -0.001403 0.000000 0.000000 0.000000
# 3 -0.001535 -0.001403 0.008153 0.000000 0.000000 0.000000
# 4 0.000000 0.000000 0.000000 0.046288 0.000000 0.000000
# 5 0.000000 0.000000 0.000000 0.000000 0.035100 0.000000
# 6 0.000000 0.000000 0.000000 0.000000 0.000000 0.027253
#
#
# Mechanical properties :
#
#
# Convention : Reuss Voigt Hill
#
# Bulk Modulus (GPa) = 51.04580 51.99526 51.52053
# Shear Modulus (GPa) = 30.83881 33.35640 32.09760
#
# Velocity S-wave (km/s) = 3.73666 3.88619 3.81216
# Velocity P-wave (km/s) = 6.45976 6.60895 6.53478
#
# Compressibility (1/GPa) = 0.01959025
#
# Stress axis : x y z
#
# Youngs Moduli (GPa) = 73.33872 87.04334 122.65892
#
# Poissons Ratio (x) = 0.33995 0.18828
# Poissons Ratio (y) = 0.28643 0.17205
# Poissons Ratio (z) = 0.11257 0.12209
#
# Static dielectric constant tensor:
#      x y z
#    x 1.872560 0.000000 0.000000 
#    y 0.000000 1.837190 0.000000 
#    z 0.000000 0.000000 1.997620 
# 
# From -- ./inp_files/1841.got.cif
#   From: 2010.05.17/outbox.cif.g08.bks.cpg/sg33_1_cif.got.tgz:1841.got - 2010.06.03 17:15:25.
