data_PCOD9344219
_publ_section_title
;
Structure prediction by ZEFSAII (Michael W. Deem and Ramdas Pophale) SiO2 
 PCOD9344219
Probable space group: P B A 2
;
_chemical_formula_sum "Si O2"
_cell_formula_units_Z 20
_cell_length_a 13.849415
_cell_length_b 11.904174
_cell_length_c 4.800580
_cell_angle_alpha 90.000000
_cell_angle_beta 90.000000
_cell_angle_gamma 90.000000
_cell_volume 791.451683
_symmetry_space_group_name_H-M "P B A 2"
_symmetry_group_IT_number 32
_symmetry_cell_setting 'orthorhombic'
loop_
_space_group_symop_operation_xyz
x,y,z
-x,-y,z
1/2-x,1/2+y,z
1/2+x,1/2-y,z
loop_
_atom_site_type_symbol
_atom_site_label
_atom_site_fract_x
_atom_site_fract_y
_atom_site_fract_z
Si Si1 0.085369 0.782520 0.537900
Si Si2 0.889221 0.542329 0.232977
Si Si3 0.700276 0.926925 0.740727
Si Si4 0.607922 0.473059 0.463794
Si Si5 0.053006 0.223568 0.057244
O O1 0.155107 0.692540 0.670343
O O2 0.140021 0.896629 0.449666
O O3 0.038494 0.744317 0.250969
O O4 0.993170 0.787026 0.751834
O O5 0.858414 0.517461 0.549901
O O6 0.000000 0.500000 0.190814
O O7 0.817767 0.464726 0.053427
O O8 0.811449 0.920392 0.656642
O O9 0.879279 0.669698 0.119214
O O10 0.500000 0.500000 0.572461
O O11 0.590336 0.392871 0.197482
#
# Coordination Sequence:
#
# PCOD9344219 Si02
#       5
#     4   4   4   4   4
#     4  11  23  46  72 107 147 196 256 301 382 454
#     4  12  23  45  74 113 150 191 254 315 389 445
#     4  12  25  44  74 111 150 197 254 316 372 465
#     4  10  28  48  73 105 156 201 252 311 382 457
#     4  11  24  46  75 104 152 197 240 316 382 447
#
# _framework density 25.270019999999999
#
# number of rings (size 3 to 8) (size 9 to 14) (size 15 to 20)
#    0.000    0.800    4.000    1.800    2.800   13.600 
#    3.600    0.000    0.000    0.000    0.000    0.000 
#    0.000    0.000    0.000    0.000    0.000    0.000 
#
# Total GULP energy -111786.379067 kJ/mol
# GULP energy per Si atom -5589.318953 kJ/mol
# Density = 2.521250 g / cm^3
# Si number density = 25.270020 Si / 1000 Ang^3
#
#
#
# Elastic Constant Matrix: (Units=GPa)
#
#
# Indices 1 2 3 4 5 6 
#
# 1 121.6770 12.6059 4.4068 0.0000 0.0000 0.0000
# 2 12.6059 161.3898 -4.3730 0.0000 0.0000 0.0000
# 3 4.4068 -4.3730 67.2205 0.0000 0.0000 0.0000
# 4 0.0000 0.0000 0.0000 30.2319 0.0000 0.0000
# 5 0.0000 0.0000 0.0000 0.0000 13.7651 0.0000
# 6 0.0000 0.0000 0.0000 0.0000 0.0000 21.5832
#
#
#
# Elastic Compliance Matrix: (Units=1/GPa)
#
#
# Indices 1 2 3 4 5 6 
#
# 1 0.008309 -0.000665 -0.000588 0.000000 0.000000 0.000000
# 2 -0.000665 0.006260 0.000451 0.000000 0.000000 0.000000
# 3 -0.000588 0.000451 0.014944 0.000000 0.000000 0.000000
# 4 0.000000 0.000000 0.000000 0.033078 0.000000 0.000000
# 5 0.000000 0.000000 0.000000 0.000000 0.072647 0.000000
# 6 0.000000 0.000000 0.000000 0.000000 0.000000 0.046332
#
#
# Mechanical properties :
#
#
# Convention : Reuss Voigt Hill
#
# Bulk Modulus (GPa) = 35.83041 41.72965 38.78003
# Shear Modulus (GPa) = 25.97703 35.62588 30.80146
#
# Velocity S-wave (km/s) = 3.20969 3.75881 3.49505
# Velocity P-wave (km/s) = 5.28639 5.94875 5.62732
#
# Compressibility (1/GPa) = 0.02790926
#
# Stress axis : x y z
#
# Youngs Moduli (GPa) = 120.35634 159.73599 66.91524
#
# Poissons Ratio (x) = 0.10621 0.03934
# Poissons Ratio (y) = 0.08003 -0.03017
# Poissons Ratio (z) = 0.07076 -0.07202
#
# Static dielectric constant tensor:
#      x y z
#    x 2.071570 0.000000 0.000000 
#    y 0.000000 2.324770 0.000000 
#    z 0.000000 0.000000 1.930130 
# 
# From -- ./inp_files/1128.got.cif
#   From: 2010.05.17/outbox.cif.g08.bks.cpg/sg32_1_cif.got.tgz:1128.got - 2010.06.03 17:12:27.
