data_PCOD9344206
_publ_section_title
;
Structure prediction by ZEFSAII (Michael W. Deem and Ramdas Pophale) SiO2 
 PCOD9344206
Probable space group: P B A 2
;
_chemical_formula_sum "Si O2"
_cell_formula_units_Z 16
_cell_length_a 5.150434
_cell_length_b 23.763927
_cell_length_c 5.234414
_cell_angle_alpha 90.000000
_cell_angle_beta 90.000000
_cell_angle_gamma 90.000000
_cell_volume 640.663681
_symmetry_space_group_name_H-M "P B A 2"
_symmetry_group_IT_number 32
_symmetry_cell_setting 'orthorhombic'
loop_
_space_group_symop_operation_xyz
x,y,z
-x,-y,z
1/2-x,1/2+y,z
1/2+x,1/2-y,z
loop_
_atom_site_type_symbol
_atom_site_label
_atom_site_fract_x
_atom_site_fract_y
_atom_site_fract_z
Si Si1 0.500000 0.500000 0.921660
Si Si2 0.427419 0.875221 0.482268
Si Si3 0.261769 0.709444 0.255630
Si Si4 0.000000 0.500000 0.568646
Si Si5 0.581358 0.625750 0.997632
O O1 0.249673 0.500749 0.745396
O O2 0.502781 0.560811 0.052765
O O3 0.682409 0.836146 0.473282
O O4 0.260341 0.858157 0.236857
O O5 0.498156 0.940417 0.430258
O O6 0.251761 0.870740 0.738093
O O7 0.512410 0.749724 0.263535
O O8 0.336523 0.667705 0.020498
#
# Coordination Sequence:
#
# PCOD9344206 Si02
#       5
#     2   4   4   2   4
#     4  10  26  46  80 116 154 196 248 320 398 468
#     4  11  28  50  80 115 156 202 260 326 397 468
#     4  12  28  52  78 112 156 212 266 318 382 464
#     4  10  26  46  80 116 154 196 248 320 398 468
#     4  11  28  50  80 115 156 202 260 326 397 468
#
# _framework density 24.974101999999998
#
# number of rings (size 3 to 8) (size 9 to 14) (size 15 to 20)
#    0.000    1.000    2.500    0.000   17.500    4.000 
#    0.000    0.000    0.000    0.000    0.000    0.000 
#    0.000    0.000    0.000    0.000    0.000    0.000 
#
# Total GULP energy -89381.849871 kJ/mol
# GULP energy per Si atom -5586.365617 kJ/mol
# Density = 2.491726 g / cm^3
# Si number density = 24.974102 Si / 1000 Ang^3
#
#
#
# Elastic Constant Matrix: (Units=GPa)
#
#
# Indices 1 2 3 4 5 6 
#
# 1 180.3595 38.8918 33.9751 0.0000 0.0000 0.0000
# 2 38.8918 93.7194 -49.8887 0.0000 0.0000 0.0000
# 3 33.9751 -49.8887 92.8257 0.0000 0.0000 0.0000
# 4 0.0000 0.0000 0.0000 100.3659 0.0000 0.0000
# 5 0.0000 0.0000 0.0000 0.0000 46.6893 0.0000
# 6 0.0000 0.0000 0.0000 0.0000 0.0000 7.6019
#
#
#
# Elastic Compliance Matrix: (Units=1/GPa)
#
#
# Indices 1 2 3 4 5 6 
#
# 1 0.008396 -0.007172 -0.006927 0.000000 0.000000 0.000000
# 2 -0.007172 0.021072 0.013950 0.000000 0.000000 0.000000
# 3 -0.006927 0.013950 0.020806 0.000000 0.000000 0.000000
# 4 0.000000 0.000000 0.000000 0.009964 0.000000 0.000000
# 5 0.000000 0.000000 0.000000 0.000000 0.021418 0.000000
# 6 0.000000 0.000000 0.000000 0.000000 0.000000 0.131546
#
#
# Mechanical properties :
#
#
# Convention : Reuss Voigt Hill
#
# Bulk Modulus (GPa) = 20.00971 45.87344 32.94157
# Shear Modulus (GPa) = 21.72414 53.85984 37.79199
#
# Velocity S-wave (km/s) = 2.95255 4.64899 3.89427
# Velocity P-wave (km/s) = 4.43317 6.87210 5.78268
#
# Compressibility (1/GPa) = 0.04997574
#
# Stress axis : x y z
#
# Youngs Moduli (GPa) = 119.10572 47.45591 48.06359
#
# Poissons Ratio (x) = 0.34034 0.33296
# Poissons Ratio (y) = 0.85419 -0.67049
# Poissons Ratio (z) = 0.82509 -0.66201
#
# Static dielectric constant tensor:
#      x y z
#    x 2.060050 0.000000 0.000000 
#    y 0.000000 2.060330 0.000000 
#    z 0.000000 0.000000 2.011740 
# 
# From -- ./inp_files/142.got.cif
#   From: 2010.05.17/outbox.cif.g08.bks.cpg/sg32_1_cif.got.tgz:142.got - 2010.06.03 17:12:27.
