data_PCOD9344125
_publ_section_title
;
Structure prediction by ZEFSAII (Michael W. Deem and Ramdas Pophale) SiO2 
 PCOD9344125
Probable space group: P B A 2
;
_chemical_formula_sum "Si O2"
_cell_formula_units_Z 24
_cell_length_a 15.119535
_cell_length_b 7.329244
_cell_length_c 8.570937
_cell_angle_alpha 90.000000
_cell_angle_beta 90.000000
_cell_angle_gamma 90.000000
_cell_volume 949.786337
_symmetry_space_group_name_H-M "P B A 2"
_symmetry_group_IT_number 32
_symmetry_cell_setting 'orthorhombic'
loop_
_space_group_symop_operation_xyz
x,y,z
-x,-y,z
1/2-x,1/2+y,z
1/2+x,1/2-y,z
loop_
_atom_site_type_symbol
_atom_site_label
_atom_site_fract_x
_atom_site_fract_y
_atom_site_fract_z
Si Si1 0.567064 0.762298 0.752070
Si Si2 0.873375 0.819775 0.389455
Si Si3 0.295119 0.370100 0.943447
Si Si4 0.067065 0.762299 0.386067
Si Si5 0.626625 0.180224 0.748681
Si Si6 0.704881 0.870099 0.194689
O O1 0.631719 0.603367 0.811302
O O2 0.551795 0.750000 0.569068
O O3 0.467900 0.755896 0.817488
O O4 0.615213 0.959237 0.763427
O O5 0.861304 0.749999 0.569068
O O6 0.786825 0.778115 0.287398
O O7 0.967900 0.755896 0.320648
O O8 0.884787 0.040762 0.374710
O O9 0.213176 0.278116 0.850738
O O10 0.349786 0.250002 0.069069
O O11 0.250000 0.500001 0.069068
O O12 0.131720 0.603368 0.326835
#
# Coordination Sequence:
#
# PCOD9344125 Si02
#       6
#     4   4   4   4   4   4
#     4  10  23  44  68  95 129 178 229 277 329 402
#     4  10  23  44  68  95 129 176 231 277 331 400
#     4  12  25  42  65 100 137 177 217 275 346 408
#     4  10  23  44  68  95 129 178 229 277 329 402
#     4  10  23  44  68  95 129 176 231 277 331 400
#     4  12  25  42  65 100 137 177 217 275 346 408
#
# _framework density 25.268840999999998
#
# number of rings (size 3 to 8) (size 9 to 14) (size 15 to 20)
#    0.000    1.333    3.333    1.000    4.667    4.000 
#    0.000    0.000    0.000    0.000    0.000    0.000 
#    0.000    0.000    0.000    0.000    0.000    0.000 
#
# Total GULP energy -133732.298950 kJ/mol
# GULP energy per Si atom -5572.179123 kJ/mol
# Density = 2.521133 g / cm^3
# Si number density = 25.268841 Si / 1000 Ang^3
#
#
#
# Elastic Constant Matrix: (Units=GPa)
#
#
# Indices 1 2 3 4 5 6 
#
# 1 175.2341 38.1467 67.5057 0.0000 0.0000 0.0000
# 2 38.1467 69.3868 21.4828 0.0000 0.0000 0.0000
# 3 67.5057 21.4828 105.3042 0.0000 0.0000 0.0000
# 4 0.0000 0.0000 0.0000 54.9637 0.0000 0.0000
# 5 0.0000 0.0000 0.0000 0.0000 -23.3018 0.0000
# 6 0.0000 0.0000 0.0000 0.0000 0.0000 31.7541
#
#
#
# Elastic Compliance Matrix: (Units=1/GPa)
#
#
# Indices 1 2 3 4 5 6 
#
# 1 0.008142 -0.003053 -0.004597 0.000000 0.000000 0.000000
# 2 -0.003053 0.016528 -0.001415 0.000000 0.000000 0.000000
# 3 -0.004597 -0.001415 0.012732 0.000000 0.000000 0.000000
# 4 0.000000 0.000000 0.000000 0.018194 0.000000 0.000000
# 5 0.000000 0.000000 0.000000 0.000000 -0.042915 0.000000
# 6 0.000000 0.000000 0.000000 0.000000 0.000000 0.031492
#
#
# Mechanical properties :
#
#
# Convention : Reuss Voigt Hill
#
# Bulk Modulus (GPa) = 51.88553 67.13285 59.50919
# Shear Modulus (GPa) = 72.75250 27.53586 50.14418
#
# Velocity S-wave (km/s) = 5.37158 3.30467 4.45952
# Velocity P-wave (km/s) = 7.68439 6.41765 7.07941
#
# Compressibility (1/GPa) = 0.01927320
#
# Stress axis : x y z
#
# Youngs Moduli (GPa) = 122.81920 60.50172 78.54462
#
# Poissons Ratio (x) = 0.18472 0.36104
# Poissons Ratio (y) = 0.37498 0.11112
# Poissons Ratio (z) = 0.56456 0.08559
#
# Static dielectric constant tensor:
#      x y z
#    x 1.876700 0.000000 0.000000 
#    y 0.000000 2.532470 0.000000 
#    z 0.000000 0.000000 1.978360 
# 
# From -- ./inp_files/3009.got.cif
#   From: 2010.05.17/outbox.cif.g08.bks.cpg/sg32_2_cif.got.tgz:3009.got - 2010.06.03 17:12:27.
