data_PCOD9344523
_publ_section_title
;
Structure prediction by ZEFSAII (Michael W. Deem and Ramdas Pophale) SiO2 
 PCOD9344523
Probable space group: P N A 21
;
_chemical_formula_sum "Si O2"
_cell_formula_units_Z 28
_cell_length_a 12.379749
_cell_length_b 10.567910
_cell_length_c 8.409364
_cell_angle_alpha 90.000000
_cell_angle_beta 90.000000
_cell_angle_gamma 90.000000
_cell_volume 1100.180889
_symmetry_space_group_name_H-M "P N A 21"
_symmetry_group_IT_number 33
_symmetry_cell_setting 'orthorhombic'
loop_
_space_group_symop_operation_xyz
x,y,z
-x,-y,1/2+z
1/2-x,1/2+y,1/2+z
1/2+x,1/2-y,z
loop_
_atom_site_type_symbol
_atom_site_label
_atom_site_fract_x
_atom_site_fract_y
_atom_site_fract_z
Si Si1 0.900025 0.638304 0.572810
Si Si2 0.925736 0.235605 0.598831
Si Si3 0.286330 0.466433 0.744268
Si Si4 0.874833 0.900647 0.447939
Si Si5 0.043295 0.475512 0.749867
Si Si6 0.687339 0.628242 0.782880
Si Si7 0.083178 0.013545 0.521736
O O1 0.884730 0.753429 0.449452
O O2 0.935883 0.535510 0.438441
O O3 0.795302 0.657625 0.685646
O O4 0.993238 0.610409 0.700851
O O5 0.841706 0.169535 0.720844
O O6 0.859399 0.212991 0.428963
O O7 0.966004 0.365254 0.679103
O O8 0.033739 0.146454 0.579475
O O9 0.351302 0.558264 0.627989
O O10 0.164545 0.463805 0.685423
O O11 0.306595 0.517727 0.921680
O O12 0.990079 0.961310 0.407177
O O13 0.792586 0.983676 0.347199
O O14 0.599030 0.599054 0.647806
#
# Coordination Sequence:
#
# PCOD9344523 Si02
#       7
#     4   4   4   4   4   4   4
#     4  12  28  46  73 109 162 205 261 343 407 490
#     4  10  23  44  76 106 153 208 259 331 402 500
#     4  10  22  45  72 106 153 203 263 325 406 485
#     4  10  23  44  72 102 146 206 259 325 394 494
#     4  12  28  47  70 118 156 205 266 346 415 483
#     4  10  22  46  73 108 143 207 267 317 407 493
#     4  10  18  42  72 105 137 200 269 311 387 483
#
# _framework density 25.450358999999999
#
# number of rings (size 3 to 8) (size 9 to 14) (size 15 to 20)
#    0.000    1.714    1.429    5.143    4.000    6.857 
#    0.000    0.000    0.000    0.000    0.000    0.000 
#    0.000    0.000    0.000    0.000    0.000    0.000 
#
# Total GULP energy -155996.673370 kJ/mol
# GULP energy per Si atom -5571.309763 kJ/mol
# Density = 2.539243 g / cm^3
# Si number density = 25.450359 Si / 1000 Ang^3
#
#
#
# Elastic Constant Matrix: (Units=GPa)
#
#
# Indices 1 2 3 4 5 6 
#
# 1 111.2848 40.4199 14.5280 0.0000 0.0000 0.0000
# 2 40.4199 73.6425 22.2742 0.0000 0.0000 0.0000
# 3 14.5280 22.2742 75.2902 0.0000 0.0000 0.0000
# 4 0.0000 0.0000 0.0000 22.2495 0.0000 0.0000
# 5 0.0000 0.0000 0.0000 0.0000 43.0986 0.0000
# 6 0.0000 0.0000 0.0000 0.0000 0.0000 12.5252
#
#
#
# Elastic Compliance Matrix: (Units=1/GPa)
#
#
# Indices 1 2 3 4 5 6 
#
# 1 0.011233 -0.006051 -0.000377 0.000000 0.000000 0.000000
# 2 -0.006051 0.018174 -0.004209 0.000000 0.000000 0.000000
# 3 -0.000377 -0.004209 0.014600 0.000000 0.000000 0.000000
# 4 0.000000 0.000000 0.000000 0.044945 0.000000 0.000000
# 5 0.000000 0.000000 0.000000 0.000000 0.023203 0.000000
# 6 0.000000 0.000000 0.000000 0.000000 0.000000 0.079839
#
#
# Mechanical properties :
#
#
# Convention : Reuss Voigt Hill
#
# Bulk Modulus (GPa) = 43.99174 46.07351 45.03263
# Shear Modulus (GPa) = 22.64026 27.77435 25.20731
#
# Velocity S-wave (km/s) = 2.98583 3.30709 3.15056
# Velocity P-wave (km/s) = 5.40460 5.72058 5.56483
#
# Compressibility (1/GPa) = 0.02273154
#
# Stress axis : x y z
#
# Youngs Moduli (GPa) = 89.02232 55.02505 68.49363
#
# Poissons Ratio (x) = 0.33298 0.02584
# Poissons Ratio (y) = 0.53871 0.28828
# Poissons Ratio (z) = 0.03359 0.23159
#
# Static dielectric constant tensor:
#      x y z
#    x 2.053050 0.000000 0.000000 
#    y 0.000000 2.127870 0.000000 
#    z 0.000000 0.000000 2.140150 
# 
# From -- ./inp_files/3851.got.cif
#   From: 2010.05.17/outbox.cif.g08.bks.cpg/sg33_2_cif.got.tgz:3851.got - 2010.06.03 17:15:25.
