data_PCOD9344499
_publ_section_title
;
Structure prediction by ZEFSAII (Michael W. Deem and Ramdas Pophale) SiO2 
 PCOD9344499
Probable space group: P N A 21
;
_chemical_formula_sum "Si O2"
_cell_formula_units_Z 32
_cell_length_a 5.568071
_cell_length_b 22.948244
_cell_length_c 9.850868
_cell_angle_alpha 90.000000
_cell_angle_beta 90.000000
_cell_angle_gamma 90.000000
_cell_volume 1258.718812
_symmetry_space_group_name_H-M "P N A 21"
_symmetry_group_IT_number 33
_symmetry_cell_setting 'orthorhombic'
loop_
_space_group_symop_operation_xyz
x,y,z
-x,-y,1/2+z
1/2-x,1/2+y,1/2+z
1/2+x,1/2-y,z
loop_
_atom_site_type_symbol
_atom_site_label
_atom_site_fract_x
_atom_site_fract_y
_atom_site_fract_z
Si Si1 0.978563 0.476827 0.739500
Si Si2 0.691008 0.591121 0.066653
Si Si3 0.590787 0.813491 0.006527
Si Si4 0.229060 0.460296 0.002955
Si Si5 0.449561 0.612894 0.818797
Si Si6 0.269676 0.601805 0.522652
Si Si7 0.201208 0.146002 0.760221
Si Si8 0.897376 0.230165 0.257770
O O1 0.781029 0.511466 0.653242
O O2 0.872095 0.411676 0.757466
O O3 0.186325 0.464912 0.630622
O O4 0.109673 0.497321 0.877401
O O5 0.530300 0.620841 0.182996
O O6 0.866707 0.643768 0.025431
O O7 0.570040 0.570268 0.926119
O O8 0.693850 0.805118 0.158582
O O9 0.558197 0.758308 0.908938
O O10 0.776491 0.852338 0.921095
O O11 0.497016 0.437425 0.973685
O O12 0.014907 0.412544 0.013551
O O13 0.310855 0.599262 0.683397
O O14 0.639956 0.661366 0.766914
O O15 0.314237 0.656718 0.420765
O O16 0.659821 0.258118 0.194410
#
# Coordination Sequence:
#
# PCOD9344499 Si02
#       8
#     4   4   4   4   4   4   4   4
#     4  10  23  39  60  90 123 163 209 264 311 370
#     4  10  18  37  60  87 119 161 209 249 313 363
#     4   9  19  35  61  92 117 160 204 258 304 368
#     4  11  26  41  63  88 128 163 213 261 312 373
#     4  10  22  35  63  91 125 161 208 257 308 382
#     4  11  25  42  60  93 126 171 205 256 319 378
#     4   9  20  40  60  86 124 165 206 255 315 376
#     4  10  19  35  59  93 122 152 202 258 308 352
#
# _framework density 25.422674000000001
#
# number of rings (size 3 to 8) (size 9 to 14) (size 15 to 20)
#    0.000    2.000    2.500    0.000    5.250    2.000 
#    0.000    0.000    0.000    9.000    0.000    0.000 
#    0.000    0.000    0.000    0.000    0.000    0.000 
#
# Total GULP energy -178287.510843 kJ/mol
# GULP energy per Si atom -5571.484714 kJ/mol
# Density = 2.536481 g / cm^3
# Si number density = 25.422674 Si / 1000 Ang^3
#
#
#
# Elastic Constant Matrix: (Units=GPa)
#
#
# Indices 1 2 3 4 5 6 
#
# 1 95.2791 9.3012 14.4311 0.0000 0.0000 0.0000
# 2 9.3012 17.0309 -4.0902 0.0000 0.0000 0.0000
# 3 14.4311 -4.0902 121.4069 0.0000 0.0000 0.0000
# 4 0.0000 0.0000 0.0000 22.7836 0.0000 0.0000
# 5 0.0000 0.0000 0.0000 0.0000 22.0603 0.0000
# 6 0.0000 0.0000 0.0000 0.0000 0.0000 26.0999
#
#
#
# Elastic Compliance Matrix: (Units=1/GPa)
#
#
# Indices 1 2 3 4 5 6 
#
# 1 0.011377 -0.006592 -0.001574 0.000000 0.000000 0.000000
# 2 -0.006592 0.063015 0.002907 0.000000 0.000000 0.000000
# 3 -0.001574 0.002907 0.008522 0.000000 0.000000 0.000000
# 4 0.000000 0.000000 0.000000 0.043891 0.000000 0.000000
# 5 0.000000 0.000000 0.000000 0.000000 0.045330 0.000000
# 6 0.000000 0.000000 0.000000 0.000000 0.000000 0.038314
#
#
# Mechanical properties :
#
#
# Convention : Reuss Voigt Hill
#
# Bulk Modulus (GPa) = 13.81315 30.33343 22.07329
# Shear Modulus (GPa) = 20.39975 28.46042 24.43008
#
# Velocity S-wave (km/s) = 2.83578 3.34951 3.10329
# Velocity P-wave (km/s) = 4.02087 5.18811 4.64133
#
# Compressibility (1/GPa) = 0.07239477
#
# Stress axis : x y z
#
# Youngs Moduli (GPa) = 87.89321 15.86926 117.34562
#
# Poissons Ratio (x) = 0.10461 0.18476
# Poissons Ratio (y) = 0.57937 -0.34107
# Poissons Ratio (z) = 0.13838 -0.04612
#
# Static dielectric constant tensor:
#      x y z
#    x 2.126340 0.000000 0.000000 
#    y 0.000000 2.059420 0.000000 
#    z 0.000000 0.000000 2.131140 
# 
# From -- ./inp_files/2877.got.cif
#   From: 2010.05.17/outbox.cif.g08.bks.cpg/sg33_2_cif.got.tgz:2877.got - 2010.06.03 17:15:25.
