data_PCOD9344578
_publ_section_title
;
Structure prediction by ZEFSAII (Michael W. Deem and Ramdas Pophale) SiO2 
 PCOD9344578
Probable space group: P N A 21
;
_chemical_formula_sum "Si O2"
_cell_formula_units_Z 32
_cell_length_a 16.264671
_cell_length_b 11.454917
_cell_length_c 8.800498
_cell_angle_alpha 90.000000
_cell_angle_beta 90.000000
_cell_angle_gamma 90.000000
_cell_volume 1639.624798
_symmetry_space_group_name_H-M "P N A 21"
_symmetry_group_IT_number 33
_symmetry_cell_setting 'orthorhombic'
loop_
_space_group_symop_operation_xyz
x,y,z
-x,-y,1/2+z
1/2-x,1/2+y,1/2+z
1/2+x,1/2-y,z
loop_
_atom_site_type_symbol
_atom_site_label
_atom_site_fract_x
_atom_site_fract_y
_atom_site_fract_z
Si Si1 0.555714 0.419804 0.434500
Si Si2 0.396001 0.830032 0.939365
Si Si3 0.356377 0.827169 0.289980
Si Si4 0.895604 0.289399 0.934426
Si Si5 0.474975 0.972821 0.492057
Si Si6 0.328113 0.010670 0.727220
Si Si7 0.705994 0.580796 0.485005
Si Si8 0.466960 0.623844 0.291300
O O1 0.575362 0.292446 0.370103
O O2 0.638245 0.495376 0.415705
O O3 0.483237 0.499190 0.367781
O O4 0.538626 0.398130 0.612271
O O5 0.331716 0.900166 0.838392
O O6 0.476313 0.910881 0.952848
O O7 0.358838 0.819394 0.108500
O O8 0.424942 0.918702 0.350227
O O9 0.272976 0.872534 0.364690
O O10 0.387745 0.699082 0.343728
O O11 0.839882 0.372104 0.825962
O O12 0.842467 0.198664 0.032364
O O13 0.956399 0.208781 0.832693
O O14 0.954912 0.376372 0.027461
O O15 0.409505 0.997211 0.622892
O O16 0.251270 0.991818 0.616914
#
# Coordination Sequence:
#
# PCOD9344578 Si02
#       8
#     4   4   4   4   4   4   4   4
#     4  10  21  37  57  84 114 144 189 232 284 337
#     4  10  19  34  57  85 112 143 194 242 270 332
#     4   9  19  36  58  78 114 154 186 227 292 334
#     4   9  19  36  59  83 113 151 194 235 285 334
#     4   9  17  35  60  86 105 148 197 232 279 332
#     4  10  20  35  61  83 112 150 192 236 282 335
#     4  10  22  37  55  81 117 158 183 228 290 349
#     4   9  19  36  59  82 107 154 191 234 278 333
#
# _framework density 19.516660000000002
#
# number of rings (size 3 to 8) (size 9 to 14) (size 15 to 20)
#    0.000    2.500    0.000    3.000    3.500    4.000 
#    4.500    2.500    2.750    0.000    0.000    0.000 
#    0.000    0.000    0.000    0.000    0.000    0.000 
#
# Total GULP energy -178377.915435 kJ/mol
# GULP energy per Si atom -5574.309857 kJ/mol
# Density = 1.947224 g / cm^3
# Si number density = 19.516660 Si / 1000 Ang^3
#
#
#
# Elastic Constant Matrix: (Units=GPa)
#
#
# Indices 1 2 3 4 5 6 
#
# 1 46.8689 4.0524 -14.1624 0.0000 0.0000 0.0000
# 2 4.0524 94.0491 -17.5628 0.0000 0.0000 0.0000
# 3 -14.1624 -17.5628 10.3825 0.0000 0.0000 0.0000
# 4 0.0000 0.0000 0.0000 25.1300 0.0000 0.0000
# 5 0.0000 0.0000 0.0000 0.0000 12.3196 0.0000
# 6 0.0000 0.0000 0.0000 0.0000 0.0000 0.1046
#
#
#
# Elastic Compliance Matrix: (Units=1/GPa)
#
#
# Indices 1 2 3 4 5 6 
#
# 1 0.046745 0.014461 0.088225 0.000000 0.000000 0.000000
# 2 0.014461 0.020016 0.053585 0.000000 0.000000 0.000000
# 3 0.088225 0.053585 0.307303 0.000000 0.000000 0.000000
# 4 0.000000 0.000000 0.000000 0.039793 0.000000 0.000000
# 5 0.000000 0.000000 0.000000 0.000000 0.081172 0.000000
# 6 0.000000 0.000000 0.000000 0.000000 0.000000 9.564687
#
#
# Mechanical properties :
#
#
# Convention : Reuss Voigt Hill
#
# Bulk Modulus (GPa) = 1.45644 10.66167 6.05906
# Shear Modulus (GPa) = 0.50120 19.44238 9.97179
#
# Velocity S-wave (km/s) = 0.50731 3.15968 2.26284
# Velocity P-wave (km/s) = 1.04452 4.33430 3.15255
#
# Compressibility (1/GPa) = 0.68660432
#
# Stress axis : x y z
#
# Youngs Moduli (GPa) = 21.39288 49.95983 3.25411
#
# Poissons Ratio (x) = -0.72247 -0.28709
# Poissons Ratio (y) = -0.30936 -0.17437
# Poissons Ratio (z) = -1.88738 -2.67708
#
# Static dielectric constant tensor:
#      x y z
#    x 1.703410 0.000000 0.000000 
#    y 0.000000 1.708410 0.000000 
#    z 0.000000 0.000000 1.687480 
# 
# From -- ./inp_files/4873.got.cif
#   From: 2010.05.17/outbox.cif.g08.bks.cpg/sg33_3_cif.got.tgz:4873.got - 2010.06.03 17:15:25.
