data_PCOD9344626
_publ_section_title
;
Structure prediction by ZEFSAII (Michael W. Deem and Ramdas Pophale) SiO2 
 PCOD9344626
Probable space group: P N A 21
;
_chemical_formula_sum "Si O2"
_cell_formula_units_Z 28
_cell_length_a 12.675116
_cell_length_b 11.712670
_cell_length_c 7.641388
_cell_angle_alpha 90.000000
_cell_angle_beta 90.000000
_cell_angle_gamma 90.000000
_cell_volume 1134.436267
_symmetry_space_group_name_H-M "P N A 21"
_symmetry_group_IT_number 33
_symmetry_cell_setting 'orthorhombic'
loop_
_space_group_symop_operation_xyz
x,y,z
-x,-y,1/2+z
1/2-x,1/2+y,1/2+z
1/2+x,1/2-y,z
loop_
_atom_site_type_symbol
_atom_site_label
_atom_site_fract_x
_atom_site_fract_y
_atom_site_fract_z
Si Si1 0.540350 0.565808 0.064420
Si Si2 0.931733 0.740209 0.187836
Si Si3 0.014100 0.387816 0.331243
Si Si4 0.783329 0.160976 0.832801
Si Si5 0.778913 0.421748 0.433575
Si Si6 0.428887 0.658965 0.733844
Si Si7 0.871451 0.375830 0.815300
O O1 0.439558 0.623997 0.162138
O O2 0.633757 0.622872 0.180288
O O3 0.559929 0.431445 0.077207
O O4 0.518577 0.608265 0.868112
O O5 0.823159 0.686287 0.233721
O O6 0.018662 0.691554 0.315932
O O7 0.969143 0.683448 0.007242
O O8 0.047983 0.290813 0.193218
O O9 0.092432 0.495024 0.344730
O O10 0.890591 0.422157 0.325845
O O11 0.805260 0.283179 0.925763
O O12 0.766331 0.050251 0.950717
O O13 0.685651 0.355452 0.329553
O O14 0.813507 0.377453 0.624907
#
# Coordination Sequence:
#
# PCOD9344626 Si02
#       7
#     4   4   4   4   4   4   4
#     4   9  20  37  61  81 117 161 200 243 304 358
#     4   9  18  36  57  81 116 158 195 245 301 359
#     4  10  20  37  61  86 123 156 199 250 303 364
#     4  10  19  38  60  83 120 161 199 245 303 363
#     4  10  21  40  61  84 125 159 196 254 305 362
#     4  10  21  41  58  89 122 161 201 257 305 363
#     4  10  19  35  60  90 113 158 204 246 301 359
#
# _framework density 24.681863
#
# number of rings (size 3 to 8) (size 9 to 14) (size 15 to 20)
#    0.000    2.286    1.429    2.571    0.000    0.000 
#   12.857    2.857    0.000    0.000    0.000    0.000 
#    0.000    0.000    0.000    0.000    0.000    0.000 
#
# Total GULP energy -156048.604095 kJ/mol
# GULP energy per Si atom -5573.164432 kJ/mol
# Density = 2.462569 g / cm^3
# Si number density = 24.681863 Si / 1000 Ang^3
#
#
#
# Elastic Constant Matrix: (Units=GPa)
#
#
# Indices 1 2 3 4 5 6 
#
# 1 89.9764 34.0581 16.5378 0.0000 0.0000 0.0000
# 2 34.0581 190.9701 4.0054 0.0000 0.0000 0.0000
# 3 16.5378 4.0054 49.4687 0.0000 0.0000 0.0000
# 4 0.0000 0.0000 0.0000 23.4123 0.0000 0.0000
# 5 0.0000 0.0000 0.0000 0.0000 11.9133 0.0000
# 6 0.0000 0.0000 0.0000 0.0000 0.0000 34.5927
#
#
#
# Elastic Compliance Matrix: (Units=1/GPa)
#
#
# Indices 1 2 3 4 5 6 
#
# 1 0.012685 -0.002177 -0.004064 0.000000 0.000000 0.000000
# 2 -0.002177 0.005619 0.000273 0.000000 0.000000 0.000000
# 3 -0.004064 0.000273 0.021551 0.000000 0.000000 0.000000
# 4 0.000000 0.000000 0.000000 0.042713 0.000000 0.000000
# 5 0.000000 0.000000 0.000000 0.000000 0.083940 0.000000
# 6 0.000000 0.000000 0.000000 0.000000 0.000000 0.028908
#
#
# Mechanical properties :
#
#
# Convention : Reuss Voigt Hill
#
# Bulk Modulus (GPa) = 35.81888 48.84641 42.33265
# Shear Modulus (GPa) = 23.07772 32.37125 27.72449
#
# Velocity S-wave (km/s) = 3.06111 3.62545 3.35516
# Velocity P-wave (km/s) = 5.19977 6.11216 5.67433
#
# Compressibility (1/GPa) = 0.02791824
#
# Stress axis : x y z
#
# Youngs Moduli (GPa) = 78.83242 177.96888 46.40052
#
# Poissons Ratio (x) = 0.38745 0.18859
# Poissons Ratio (y) = 0.17162 -0.01266
# Poissons Ratio (z) = 0.32041 -0.04856
#
# Static dielectric constant tensor:
#      x y z
#    x 2.038800 0.000000 0.000000 
#    y 0.000000 2.082800 0.000000 
#    z 0.000000 0.000000 2.124260 
# 
# From -- ./inp_files/6427.got.cif
#   From: 2010.05.17/outbox.cif.g08.bks.cpg/sg33_4_cif.got.tgz:6427.got - 2010.06.03 17:15:25.
