data_PCOD9344479
_publ_section_title
;
Structure prediction by ZEFSAII (Michael W. Deem and Ramdas Pophale) SiO2 
 PCOD9344479
Probable space group: P N A 21
;
_chemical_formula_sum "Si O2"
_cell_formula_units_Z 32
_cell_length_a 25.582629
_cell_length_b 8.623451
_cell_length_c 5.939425
_cell_angle_alpha 90.000000
_cell_angle_beta 90.000000
_cell_angle_gamma 90.000000
_cell_volume 1310.299802
_symmetry_space_group_name_H-M "P N A 21"
_symmetry_group_IT_number 33
_symmetry_cell_setting 'orthorhombic'
loop_
_space_group_symop_operation_xyz
x,y,z
-x,-y,1/2+z
1/2-x,1/2+y,1/2+z
1/2+x,1/2-y,z
loop_
_atom_site_type_symbol
_atom_site_label
_atom_site_fract_x
_atom_site_fract_y
_atom_site_fract_z
Si Si1 0.562928 0.423809 0.202690
Si Si2 0.108939 0.865259 0.842095
Si Si3 0.347518 0.891564 0.368681
Si Si4 0.471583 0.275768 0.981022
Si Si5 0.900578 0.401712 0.675047
Si Si6 0.340501 0.607597 0.034504
Si Si7 0.754486 0.086512 0.111590
Si Si8 0.198985 0.584605 0.490968
O O1 0.534915 0.557781 0.352316
O O2 0.616709 0.389176 0.336160
O O3 0.577037 0.500216 0.965624
O O4 0.523580 0.286905 0.132889
O O5 0.074258 0.772797 0.664687
O O6 0.150511 0.958875 0.698662
O O7 0.121298 0.749271 0.042442
O O8 0.352069 0.754613 0.190248
O O9 0.398227 0.960213 0.492578
O O10 0.304652 0.855085 0.555303
O O11 0.317865 0.025306 0.233134
O O12 0.454925 0.146824 0.795861
O O13 0.855326 0.431573 0.854470
O O14 0.280387 0.564640 0.981820
O O15 0.743064 0.018560 0.364193
O O16 0.783744 0.238898 0.017760
#
# Coordination Sequence:
#
# PCOD9344479 Si02
#       8
#     4   4   4   4   4   4   4   4
#     4  10  20  34  65 102 138 163 223 292 364 412
#     4  10  20  38  66  98 131 163 220 288 345 419
#     4  11  25  43  63  96 139 184 230 293 346 432
#     4  10  18  35  62 105 131 166 216 294 353 430
#     4  10  22  39  64  97 132 178 230 279 361 420
#     4  11  24  40  63 103 135 183 235 292 362 417
#     4  11  23  42  61  98 135 182 234 294 348 420
#     4  11  24  41  66  95 131 185 236 284 355 424
#
# _framework density 24.421892
#
# number of rings (size 3 to 8) (size 9 to 14) (size 15 to 20)
#    0.000    1.500    2.500    3.750    1.750    4.000 
#    0.000    0.000    0.000    0.000   32.500    0.000 
#    0.000    0.000    0.000    0.000    0.000    0.000 
#
# Total GULP energy -178398.401784 kJ/mol
# GULP energy per Si atom -5574.950056 kJ/mol
# Density = 2.436631 g / cm^3
# Si number density = 24.421892 Si / 1000 Ang^3
#
#
#
# Elastic Constant Matrix: (Units=GPa)
#
#
# Indices 1 2 3 4 5 6 
#
# 1 51.1327 6.9013 22.8077 0.0000 0.0000 0.0000
# 2 6.9013 49.0467 6.1818 0.0000 0.0000 0.0000
# 3 22.8077 6.1818 68.4735 0.0000 0.0000 0.0000
# 4 0.0000 0.0000 0.0000 32.8398 0.0000 0.0000
# 5 0.0000 0.0000 0.0000 0.0000 31.8464 0.0000
# 6 0.0000 0.0000 0.0000 0.0000 0.0000 11.9235
#
#
#
# Elastic Compliance Matrix: (Units=1/GPa)
#
#
# Indices 1 2 3 4 5 6 
#
# 1 0.023228 -0.002320 -0.007527 0.000000 0.000000 0.000000
# 2 -0.002320 0.020855 -0.001110 0.000000 0.000000 0.000000
# 3 -0.007527 -0.001110 0.017212 0.000000 0.000000 0.000000
# 4 0.000000 0.000000 0.000000 0.030451 0.000000 0.000000
# 5 0.000000 0.000000 0.000000 0.000000 0.031401 0.000000
# 6 0.000000 0.000000 0.000000 0.000000 0.000000 0.083868
#
#
# Mechanical properties :
#
#
# Convention : Reuss Voigt Hill
#
# Bulk Modulus (GPa) = 25.39360 26.71495 26.05427
# Shear Modulus (GPa) = 20.65647 24.17276 22.41461
#
# Velocity S-wave (km/s) = 2.91145 3.14952 3.03282
# Velocity P-wave (km/s) = 4.66074 4.91820 4.79120
#
# Compressibility (1/GPa) = 0.03938001
#
# Stress axis : x y z
#
# Youngs Moduli (GPa) = 43.05216 47.95008 58.09993
#
# Poissons Ratio (x) = 0.11122 0.43734
# Poissons Ratio (y) = 0.09986 0.06450
# Poissons Ratio (z) = 0.32407 0.05323
#
# Static dielectric constant tensor:
#      x y z
#    x 2.272430 0.000000 0.000000 
#    y 0.000000 2.050420 0.000000 
#    z 0.000000 0.000000 2.011870 
# 
# From -- ./inp_files/2530.got.cif
#   From: 2010.05.17/outbox.cif.g08.bks.cpg/sg33_2_cif.got.tgz:2530.got - 2010.06.03 17:15:25.
