data_PCOD9344011
_publ_section_title
;
Structure prediction by ZEFSAII (Michael W. Deem and Ramdas Pophale) SiO2 
 PCOD9344011
Probable space group: P B A 2
;
_chemical_formula_sum "Si O2"
_cell_formula_units_Z 30
_cell_length_a 8.800207
_cell_length_b 10.931663
_cell_length_c 14.813389
_cell_angle_alpha 90.000000
_cell_angle_beta 90.000000
_cell_angle_gamma 90.000000
_cell_volume 1425.061313
_symmetry_space_group_name_H-M "P B A 2"
_symmetry_group_IT_number 32
_symmetry_cell_setting 'orthorhombic'
loop_
_space_group_symop_operation_xyz
x,y,z
-x,-y,z
1/2-x,1/2+y,z
1/2+x,1/2-y,z
loop_
_atom_site_type_symbol
_atom_site_label
_atom_site_fract_x
_atom_site_fract_y
_atom_site_fract_z
Si Si1 0.412709 0.867915 0.635750
Si Si2 0.573864 0.131414 0.847714
Si Si3 0.110488 0.168145 0.092487
Si Si4 0.848632 0.208116 0.964513
Si Si5 0.584886 0.633765 0.545999
Si Si6 0.000000 0.000000 0.225982
Si Si7 0.986189 0.638920 0.244472
Si Si8 0.817183 0.191596 0.343000
O O1 0.404594 0.839728 0.742607
O O2 0.489954 0.748824 0.587802
O O3 0.241291 0.882671 0.600664
O O4 0.500000 0.000000 0.622697
O O5 0.726951 0.133704 0.906629
O O6 0.455301 0.222132 0.894248
O O7 0.500000 0.000000 0.852787
O O8 0.061369 0.281469 0.157185
O O9 0.251077 0.203294 0.030127
O O10 0.127979 0.057620 0.161510
O O11 0.966105 0.140404 0.029339
O O12 0.500000 0.500000 0.543490
O O13 0.636689 0.676051 0.446103
O O14 0.075096 0.899023 0.287213
O O15 0.854797 0.659149 0.319353
O O16 0.000000 0.500000 0.217252
O O17 0.139137 0.680698 0.296005
#
# Coordination Sequence:
#
# PCOD9344011 Si02
#       8
#     4   4   4   4   4   2   4   4
#     4  11  25  46  71 105 141 182 230 292 359 426
#     4  10  23  44  68  94 134 171 216 280 344 404
#     4  10  22  38  61  94 127 174 222 267 333 383
#     4  10  22  40  62  97 125 167 223 269 323 408
#     4  12  25  44  73 104 139 182 233 290 351 425
#     4  10  22  38  62  86 138 162 218 272 318 390
#     4  11  26  42  65  90 135 181 226 283 335 396
#     4  11  25  43  64  96 129 178 228 273 336 394
#
# _framework density 21.051725999999999
#
# number of rings (size 3 to 8) (size 9 to 14) (size 15 to 20)
#    0.000    1.333    0.667    4.000    7.467    6.400 
#    0.000    0.000    0.000    0.000    0.000    0.000 
#    0.000    0.000    0.000    0.000    0.000    0.000 
#
# Total GULP energy -167640.451743 kJ/mol
# GULP energy per Si atom -5588.015058 kJ/mol
# Density = 2.100381 g / cm^3
# Si number density = 21.051726 Si / 1000 Ang^3
#
#
#
# Elastic Constant Matrix: (Units=GPa)
#
#
# Indices 1 2 3 4 5 6 
#
# 1 109.2245 13.8800 48.4086 0.0000 0.0000 0.0000
# 2 13.8800 83.9886 48.5454 0.0000 0.0000 0.0000
# 3 48.4086 48.5454 155.3245 0.0000 0.0000 0.0000
# 4 0.0000 0.0000 0.0000 26.0778 0.0000 0.0000
# 5 0.0000 0.0000 0.0000 0.0000 36.4712 0.0000
# 6 0.0000 0.0000 0.0000 0.0000 0.0000 15.8237
#
#
#
# Elastic Compliance Matrix: (Units=1/GPa)
#
#
# Indices 1 2 3 4 5 6 
#
# 1 0.010625 0.000193 -0.003372 0.000000 0.000000 0.000000
# 2 0.000193 0.014535 -0.004603 0.000000 0.000000 0.000000
# 3 -0.003372 -0.004603 0.008928 0.000000 0.000000 0.000000
# 4 0.000000 0.000000 0.000000 0.038347 0.000000 0.000000
# 5 0.000000 0.000000 0.000000 0.000000 0.027419 0.000000
# 6 0.000000 0.000000 0.000000 0.000000 0.000000 0.063197
#
#
# Mechanical properties :
#
#
# Convention : Reuss Voigt Hill
#
# Bulk Modulus (GPa) = 53.98297 63.35618 58.66957
# Shear Modulus (GPa) = 27.05796 31.52144 29.28970
#
# Velocity S-wave (km/s) = 3.58901 3.87374 3.73409
# Velocity P-wave (km/s) = 6.54777 7.08298 6.82063
#
# Compressibility (1/GPa) = 0.01852436
#
# Stress axis : x y z
#
# Youngs Moduli (GPa) = 94.11467 68.79957 112.01218
#
# Poissons Ratio (x) = -0.01328 0.37768
# Poissons Ratio (y) = -0.01816 0.51558
# Poissons Ratio (z) = 0.31734 0.31668
#
# Static dielectric constant tensor:
#      x y z
#    x 1.804670 0.000000 0.000000 
#    y 0.000000 1.752590 0.000000 
#    z 0.000000 0.000000 1.746630 
# 
# From -- ./inp_files/4132.got.cif
#   From: 2010.05.17/outbox.cif.g08.bks.cpg/sg32_3_cif.got.tgz:4132.got - 2010.06.03 17:12:27.
