data_PCOD9344148
_publ_section_title
;
Structure prediction by ZEFSAII (Michael W. Deem and Ramdas Pophale) SiO2 
 PCOD9344148
Probable space group: P B A 2
;
_chemical_formula_sum "Si O2"
_cell_formula_units_Z 30
_cell_length_a 6.804215
_cell_length_b 28.004829
_cell_length_c 5.547764
_cell_angle_alpha 90.000000
_cell_angle_beta 90.000000
_cell_angle_gamma 90.000000
_cell_volume 1057.131299
_symmetry_space_group_name_H-M "P B A 2"
_symmetry_group_IT_number 32
_symmetry_cell_setting 'orthorhombic'
loop_
_space_group_symop_operation_xyz
x,y,z
-x,-y,z
1/2-x,1/2+y,z
1/2+x,1/2-y,z
loop_
_atom_site_type_symbol
_atom_site_label
_atom_site_fract_x
_atom_site_fract_y
_atom_site_fract_z
Si Si1 0.486875 0.594429 0.079180
Si Si2 0.857936 0.555137 0.591595
Si Si3 0.500000 0.500000 0.828413
Si Si4 0.540755 0.076433 0.083981
Si Si5 0.899420 0.323940 0.917416
Si Si6 0.346045 0.750983 0.160740
Si Si7 0.902763 0.248022 0.522536
Si Si8 0.440220 0.362481 0.586807
O O1 0.725330 0.587881 0.084651
O O2 0.453805 0.619341 0.339408
O O3 0.417358 0.540560 0.013301
O O4 0.447533 0.620297 0.824424
O O5 0.665089 0.523052 0.651080
O O6 0.980186 0.551880 0.344067
O O7 0.768922 0.609465 0.586431
O O8 0.987759 0.550106 0.830002
O O9 0.419224 0.124411 0.036559
O O10 0.895057 0.301238 0.649096
O O11 0.100120 0.298471 0.016199
O O12 0.710587 0.297474 0.028970
O O13 0.595229 0.740141 0.215617
O O14 0.347279 0.752074 0.464802
O O15 0.911419 0.193644 0.616706
#
# Coordination Sequence:
#
# PCOD9344148 Si02
#       8
#     4   4   2   4   4   4   4   4
#     4   9  18  30  51  78 110 148 176 237 291 371
#     4   9  18  30  51  78 110 148 176 237 291 371
#     4   8  16  30  52  82 116 144 188 218 312 380
#     4   9  19  30  48  72 107 146 183 226 287 340
#     4  11  23  37  56  78 113 155 211 251 301 346
#     4  10  24  36  54  80 102 154 198 262 288 350
#     4  11  23  37  56  78 113 155 211 251 301 346
#     4   9  19  30  48  72 107 146 183 226 287 340
#
# _framework density 28.378691
#
# number of rings (size 3 to 8) (size 9 to 14) (size 15 to 20)
#    0.000    2.667    0.000    2.400   14.933    8.533 
#    0.000    0.000    0.000    0.000    0.000    0.000 
#    0.000   25.600    0.000    0.000    0.000    0.000 
#
# Total GULP energy -167335.776463 kJ/mol
# GULP energy per Si atom -5577.859215 kJ/mol
# Density = 2.831410 g / cm^3
# Si number density = 28.378691 Si / 1000 Ang^3
#
#
#
# Elastic Constant Matrix: (Units=GPa)
#
#
# Indices 1 2 3 4 5 6 
#
# 1 161.0952 17.3252 38.4516 0.0000 0.0000 0.0000
# 2 17.3252 163.6915 58.7311 0.0000 0.0000 0.0000
# 3 38.4516 58.7311 228.3456 0.0000 0.0000 0.0000
# 4 0.0000 0.0000 0.0000 3.7758 0.0000 0.0000
# 5 0.0000 0.0000 0.0000 0.0000 -335.3970 0.0000
# 6 0.0000 0.0000 0.0000 0.0000 0.0000 40.3024
#
#
#
# Elastic Compliance Matrix: (Units=1/GPa)
#
#
# Indices 1 2 3 4 5 6 
#
# 1 0.006483 -0.000324 -0.001008 0.000000 0.000000 0.000000
# 2 -0.000324 0.006746 -0.001681 0.000000 0.000000 0.000000
# 3 -0.001008 -0.001681 0.004981 0.000000 0.000000 0.000000
# 4 0.000000 0.000000 0.000000 0.264843 0.000000 0.000000
# 5 0.000000 0.000000 0.000000 0.000000 -0.002982 0.000000
# 6 0.000000 0.000000 0.000000 0.000000 0.000000 0.024812
#
#
# Mechanical properties :
#
#
# Convention : Reuss Voigt Hill
#
# Bulk Modulus (GPa) = 82.07271 86.90535 84.48903
# Shear Modulus (GPa) = 15.87441 -29.02214 -6.57387
#
# Velocity S-wave (km/s) = 2.36768 -3.20140 -1.52365
# Velocity P-wave (km/s) = 6.03804 4.12610 5.17120
#
# Compressibility (1/GPa) = 0.01218432
#
# Stress axis : x y z
#
# Youngs Moduli (GPa) = 154.24814 148.22818 200.74866
#
# Poissons Ratio (x) = 0.04809 0.20241
# Poissons Ratio (y) = 0.05004 0.33737
# Poissons Ratio (z) = 0.15552 0.24911
#
# Static dielectric constant tensor:
#      x y z
#    x 2.499500 0.000000 0.000000 
#    y 0.000000 2.440400 0.000000 
#    z 0.000000 0.000000 2.340100 
# 
# From -- ./inp_files/621.got.cif
#   From: 2010.05.17/outbox.cif.g08.bks.cpg/sg32_1_cif.got.tgz:621.got - 2010.06.03 17:12:27.
