data_PCOD9344638
_publ_section_title
;
Structure prediction by ZEFSAII (Michael W. Deem and Ramdas Pophale) SiO2 
 PCOD9344638
Probable space group: P N A 21
;
_chemical_formula_sum "Si O2"
_cell_formula_units_Z 28
_cell_length_a 9.009596
_cell_length_b 23.847125
_cell_length_c 4.979309
_cell_angle_alpha 90.000000
_cell_angle_beta 90.000000
_cell_angle_gamma 90.000000
_cell_volume 1069.819287
_symmetry_space_group_name_H-M "P N A 21"
_symmetry_group_IT_number 33
_symmetry_cell_setting 'orthorhombic'
loop_
_space_group_symop_operation_xyz
x,y,z
-x,-y,1/2+z
1/2-x,1/2+y,1/2+z
1/2+x,1/2-y,z
loop_
_atom_site_type_symbol
_atom_site_label
_atom_site_fract_x
_atom_site_fract_y
_atom_site_fract_z
Si Si1 0.026207 0.137869 0.019790
Si Si2 0.089425 0.565969 0.836369
Si Si3 0.720101 0.776994 0.573932
Si Si4 0.743975 0.678635 0.267067
Si Si5 0.294110 0.010739 0.837399
Si Si6 0.596273 0.581012 0.061054
Si Si7 0.459613 0.191833 0.537438
O O1 0.944365 0.115194 0.288003
O O2 0.164945 0.172783 0.119594
O O3 0.932009 0.181981 0.833622
O O4 0.029855 0.088494 0.792281
O O5 0.201744 0.533265 0.035054
O O6 0.069860 0.628915 0.934273
O O7 0.931121 0.534287 0.845414
O O8 0.154538 0.559697 0.538965
O O9 0.796996 0.717899 0.508294
O O10 0.627603 0.797828 0.313926
O O11 0.613559 0.767759 0.822983
O O12 0.735754 0.611595 0.216774
O O13 0.865059 0.698761 0.058988
O O14 0.152972 0.978226 0.957029
#
# Coordination Sequence:
#
# PCOD9344638 Si02
#       7
#     4   4   4   4   4   4   4
#     4  10  23  42  65  92 135 176 225 261 335 405
#     4  10  20  36  61  99 134 161 207 283 350 381
#     4  12  27  43  65  96 139 180 216 279 338 396
#     4  10  26  43  70  96 129 175 232 269 331 396
#     4  10  19  35  65  97 129 164 214 275 342 396
#     4  10  21  40  67  95 126 171 223 270 316 413
#     4  12  26  43  69  99 138 169 225 285 334 389
#
# _framework density 26.172642
#
# number of rings (size 3 to 8) (size 9 to 14) (size 15 to 20)
#    0.857    0.571    1.429    3.429    4.000    2.286 
#    0.000    0.000    0.000   17.143    0.000    0.000 
#    0.000    0.000    0.000    0.000    0.000    0.000 
#
# Total GULP energy -156166.197081 kJ/mol
# GULP energy per Si atom -5577.364181 kJ/mol
# Density = 2.611307 g / cm^3
# Si number density = 26.172642 Si / 1000 Ang^3
#
#
#
# Elastic Constant Matrix: (Units=GPa)
#
#
# Indices 1 2 3 4 5 6 
#
# 1 66.4654 19.8777 46.2626 0.0000 0.0000 0.0000
# 2 19.8777 81.9579 34.6318 0.0000 0.0000 0.0000
# 3 46.2626 34.6318 120.5996 0.0000 0.0000 0.0000
# 4 0.0000 0.0000 0.0000 31.4137 0.0000 0.0000
# 5 0.0000 0.0000 0.0000 0.0000 40.7035 0.0000
# 6 0.0000 0.0000 0.0000 0.0000 0.0000 36.1621
#
#
#
# Elastic Compliance Matrix: (Units=1/GPa)
#
#
# Indices 1 2 3 4 5 6 
#
# 1 0.020783 -0.001903 -0.007426 0.000000 0.000000 0.000000
# 2 -0.001903 0.014061 -0.003308 0.000000 0.000000 0.000000
# 3 -0.007426 -0.003308 0.012091 0.000000 0.000000 0.000000
# 4 0.000000 0.000000 0.000000 0.031833 0.000000 0.000000
# 5 0.000000 0.000000 0.000000 0.000000 0.024568 0.000000
# 6 0.000000 0.000000 0.000000 0.000000 0.000000 0.027653
#
#
# Mechanical properties :
#
#
# Convention : Reuss Voigt Hill
#
# Bulk Modulus (GPa) = 46.16583 52.28523 49.22553
# Shear Modulus (GPa) = 30.58427 32.87260 31.72844
#
# Velocity S-wave (km/s) = 3.42213 3.54784 3.48555
# Velocity P-wave (km/s) = 5.76991 6.06657 5.92010
#
# Compressibility (1/GPa) = 0.02166104
#
# Stress axis : x y z
#
# Youngs Moduli (GPa) = 48.11530 71.12083 82.70947
#
# Poissons Ratio (x) = 0.13532 0.61422
# Poissons Ratio (y) = 0.09155 0.27359
# Poissons Ratio (z) = 0.35732 0.23525
#
# Static dielectric constant tensor:
#      x y z
#    x 2.116890 0.000000 0.000000 
#    y 0.000000 2.132940 0.000000 
#    z 0.000000 0.000000 2.033880 
# 
# From -- ./inp_files/535.got.cif
#   From: 2010.05.17/outbox.cif.g08.bks.cpg/sg33_1_cif.got.tgz:535.got - 2010.06.03 17:15:25.
