data_PCOD9344394
_publ_section_title
;
Structure prediction by ZEFSAII (Michael W. Deem and Ramdas Pophale) SiO2 
 PCOD9344394
Probable space group: P N A 21
;
_chemical_formula_sum "Si O2"
_cell_formula_units_Z 32
_cell_length_a 17.869890
_cell_length_b 7.723883
_cell_length_c 8.984744
_cell_angle_alpha 90.000000
_cell_angle_beta 90.000000
_cell_angle_gamma 90.000000
_cell_volume 1240.118748
_symmetry_space_group_name_H-M "P N A 21"
_symmetry_group_IT_number 33
_symmetry_cell_setting 'orthorhombic'
loop_
_space_group_symop_operation_xyz
x,y,z
-x,-y,1/2+z
1/2-x,1/2+y,1/2+z
1/2+x,1/2-y,z
loop_
_atom_site_type_symbol
_atom_site_label
_atom_site_fract_x
_atom_site_fract_y
_atom_site_fract_z
Si Si1 0.437711 0.178412 0.309460
Si Si2 0.023284 0.277639 0.803567
Si Si3 0.729685 0.639689 0.310196
Si Si4 0.391167 0.278326 0.009485
Si Si5 0.393560 0.761660 0.770048
Si Si6 0.704542 0.065193 0.504111
Si Si7 0.156818 0.130169 0.961355
Si Si8 0.615673 0.855288 0.129813
O O1 0.397212 0.290382 0.184251
O O2 0.521537 0.257308 0.328808
O O3 0.389173 0.165310 0.456018
O O4 0.450606 0.973947 0.270917
O O5 0.092885 0.155446 0.838318
O O6 0.957571 0.247357 0.685354
O O7 0.975181 0.256571 0.954559
O O8 0.657113 0.587480 0.411305
O O9 0.788107 0.706879 0.432640
O O10 0.690669 0.782039 0.201583
O O11 0.779937 0.553159 0.182046
O O12 0.349609 0.097588 0.978058
O O13 0.370888 0.634650 0.633269
O O14 0.336474 0.785823 0.909143
O O15 0.393390 0.948016 0.683908
O O16 0.786202 0.026359 0.437518
#
# Coordination Sequence:
#
# PCOD9344394 Si02
#       8
#     4   4   4   4   4   4   4   4
#     4  11  18  31  65  95 117 147 207 279 312 349
#     4  10  17  32  60  93 122 153 203 266 312 351
#     4  10  23  39  58  85 133 166 191 253 320 380
#     4  10  19  37  59  92 123 158 208 260 314 364
#     4  11  21  37  60  98 119 153 214 263 311 373
#     4  11  23  40  59  88 131 168 203 244 326 385
#     4  11  21  38  63  89 124 166 202 258 315 380
#     4  10  20  36  60  94 121 153 202 265 320 358
#
# _framework density 25.803981
#
# number of rings (size 3 to 8) (size 9 to 14) (size 15 to 20)
#    0.000    1.500    7.500    1.500    1.750    2.000 
#    0.000    0.000    5.500    0.000    0.000    0.000 
#    0.000    0.000    0.000    0.000    0.000    0.000 
#
# Total GULP energy -178546.119191 kJ/mol
# GULP energy per Si atom -5579.566225 kJ/mol
# Density = 2.574525 g / cm^3
# Si number density = 25.803981 Si / 1000 Ang^3
#
#
#
# Elastic Constant Matrix: (Units=GPa)
#
#
# Indices 1 2 3 4 5 6 
#
# 1 91.2322 41.2636 14.8616 0.0000 0.0000 0.0000
# 2 41.2636 56.6259 18.2473 0.0000 0.0000 0.0000
# 3 14.8616 18.2473 111.4628 0.0000 0.0000 0.0000
# 4 0.0000 0.0000 0.0000 20.8940 0.0000 0.0000
# 5 0.0000 0.0000 0.0000 0.0000 52.5665 0.0000
# 6 0.0000 0.0000 0.0000 0.0000 0.0000 22.3033
#
#
#
# Elastic Compliance Matrix: (Units=1/GPa)
#
#
# Indices 1 2 3 4 5 6 
#
# 1 0.016356 -0.011840 -0.000242 0.000000 0.000000 0.000000
# 2 -0.011840 0.027215 -0.002877 0.000000 0.000000 0.000000
# 3 -0.000242 -0.002877 0.009475 0.000000 0.000000 0.000000
# 4 0.000000 0.000000 0.000000 0.047861 0.000000 0.000000
# 5 0.000000 0.000000 0.000000 0.000000 0.019024 0.000000
# 6 0.000000 0.000000 0.000000 0.000000 0.000000 0.044836
#
#
# Mechanical properties :
#
#
# Convention : Reuss Voigt Hill
#
# Bulk Modulus (GPa) = 43.24000 45.34067 44.29033
# Shear Modulus (GPa) = 24.70429 31.48265 28.09347
#
# Velocity S-wave (km/s) = 3.09752 3.49674 3.30316
# Velocity P-wave (km/s) = 5.43933 5.82342 5.63465
#
# Compressibility (1/GPa) = 0.02312674
#
# Stress axis : x y z
#
# Youngs Moduli (GPa) = 61.14008 36.74453 105.54271
#
# Poissons Ratio (x) = 0.43507 0.02558
# Poissons Ratio (y) = 0.72393 0.30360
# Poissons Ratio (z) = 0.01482 0.10570
#
# Static dielectric constant tensor:
#      x y z
#    x 2.039070 0.000000 0.000000 
#    y 0.000000 2.129640 0.000000 
#    z 0.000000 0.000000 2.101960 
# 
# From -- ./inp_files/4866.got.cif
#   From: 2010.05.17/outbox.cif.g08.bks.cpg/sg33_3_cif.got.tgz:4866.got - 2010.06.03 17:15:25.
