data_PCOD9344527
_publ_section_title
;
Structure prediction by ZEFSAII (Michael W. Deem and Ramdas Pophale) SiO2 
 PCOD9344527
Probable space group: P N A 21
;
_chemical_formula_sum "Si O2"
_cell_formula_units_Z 32
_cell_length_a 5.628649
_cell_length_b 22.798519
_cell_length_c 12.055434
_cell_angle_alpha 90.000000
_cell_angle_beta 90.000000
_cell_angle_gamma 90.000000
_cell_volume 1547.011894
_symmetry_space_group_name_H-M "P N A 21"
_symmetry_group_IT_number 33
_symmetry_cell_setting 'orthorhombic'
loop_
_space_group_symop_operation_xyz
x,y,z
-x,-y,1/2+z
1/2-x,1/2+y,1/2+z
1/2+x,1/2-y,z
loop_
_atom_site_type_symbol
_atom_site_label
_atom_site_fract_x
_atom_site_fract_y
_atom_site_fract_z
Si Si1 0.250000 0.719591 0.153890
Si Si2 0.249999 0.895938 0.883718
Si Si3 0.250000 0.602651 0.293851
Si Si4 0.750000 0.570687 0.316315
Si Si5 0.750000 0.737032 0.907375
Si Si6 0.750001 0.015104 0.583503
Si Si7 0.249999 0.566793 0.872215
Si Si8 0.750001 0.487209 0.603070
O O1 0.500000 0.750000 0.187679
O O2 0.250000 0.655957 0.207827
O O3 0.250000 0.723807 0.019557
O O4 0.250000 0.831757 0.938067
O O5 0.508251 0.903965 0.828432
O O6 0.991748 0.903965 0.828432
O O7 0.249999 0.949802 0.969536
O O8 0.505077 0.600780 0.353381
O O9 0.249999 0.542232 0.223349
O O10 0.994922 0.600780 0.353381
O O11 0.749999 0.564848 0.180897
O O12 0.750000 0.502398 0.348036
O O13 0.500000 0.750000 0.848737
O O14 0.501991 0.981407 0.591191
O O15 0.998010 0.981407 0.591191
O O16 0.249999 0.564308 0.008199
#
# Coordination Sequence:
#
# PCOD9344527 Si02
#       8
#     4   4   4   4   4   4   4   4
#     4  10  21  27  43  64  88 111 159 185 219 250
#     4  10  19  31  44  60  89 117 148 196 214 255
#     4  10  19  31  44  60  89 117 148 196 214 255
#     4  10  19  29  44  60  81 113 158 186 227 263
#     4  10  21  27  43  64  88 111 159 185 219 250
#     4   8  16  25  42  54  77 107 142 173 224 234
#     4  10  19  29  44  60  81 113 158 186 227 263
#     4   8  16  25  42  54  77 107 142 173 224 234
#
# _framework density 20.685037999999999
#
# number of rings (size 3 to 8) (size 9 to 14) (size 15 to 20)
#    0.000    2.500    0.000    2.250   21.000    0.000 
#    0.000    0.000    0.000    0.000    0.000    0.000 
#    0.000    0.000    0.000    0.000    0.000  787.500 
#
# Total GULP energy -178139.197820 kJ/mol
# GULP energy per Si atom -5566.849932 kJ/mol
# Density = 2.063796 g / cm^3
# Si number density = 20.685038 Si / 1000 Ang^3
#
#
#
# Elastic Constant Matrix: (Units=GPa)
#
#
# Indices 1 2 3 4 5 6 
#
# 1 291.4050 27.5011 3.0648 0.0000 0.0000 0.0000
# 2 27.5011 40.0036 6.5266 0.0000 0.0000 0.0000
# 3 3.0648 6.5266 16.0324 0.0000 0.0000 0.0000
# 4 0.0000 0.0000 0.0000 25.5375 0.0000 0.0000
# 5 0.0000 0.0000 0.0000 0.0000 3.7653 0.0000
# 6 0.0000 0.0000 0.0000 0.0000 0.0000 20.7921
#
#
#
# Elastic Compliance Matrix: (Units=1/GPa)
#
#
# Indices 1 2 3 4 5 6 
#
# 1 0.003672 -0.002581 0.000349 0.000000 0.000000 0.000000
# 2 -0.002581 0.028590 -0.011145 0.000000 0.000000 0.000000
# 3 0.000349 -0.011145 0.066844 0.000000 0.000000 0.000000
# 4 0.000000 0.000000 0.000000 0.039158 0.000000 0.000000
# 5 0.000000 0.000000 0.000000 0.000000 0.265585 0.000000
# 6 0.000000 0.000000 0.000000 0.000000 0.000000 0.048095
#
#
# Mechanical properties :
#
#
# Convention : Reuss Voigt Hill
#
# Bulk Modulus (GPa) = 13.82151 46.84732 30.33441
# Shear Modulus (GPa) = 9.94400 30.70889 20.32644
#
# Velocity S-wave (km/s) = 2.19494 3.85722 3.13815
# Velocity P-wave (km/s) = 3.62217 6.52186 5.27517
#
# Compressibility (1/GPa) = 0.07235101
#
# Stress axis : x y z
#
# Youngs Moduli (GPa) = 272.36376 34.97673 14.96019
#
# Poissons Ratio (x) = 0.09027 -0.00522
# Poissons Ratio (y) = 0.70297 0.16674
# Poissons Ratio (z) = -0.09501 0.38983
#
# Static dielectric constant tensor:
#      x y z
#    x 1.967320 0.000000 0.000000 
#    y 0.000000 1.691670 0.000000 
#    z 0.000000 0.000000 1.789540 
# 
# From -- ./inp_files/7441.got.cif
#   From: 2010.05.17/outbox.cif.g08.bks.cpg/sg33_4_cif.got.tgz:7441.got - 2010.06.03 17:15:25.
