data_PCOD9344212
_publ_section_title
;
Structure prediction by ZEFSAII (Michael W. Deem and Ramdas Pophale) SiO2 
 PCOD9344212
Probable space group: P B A 2
;
_chemical_formula_sum "Si O2"
_cell_formula_units_Z 16
_cell_length_a 9.490468
_cell_length_b 7.436487
_cell_length_c 8.260245
_cell_angle_alpha 90.000000
_cell_angle_beta 90.000000
_cell_angle_gamma 90.000000
_cell_volume 582.972919
_symmetry_space_group_name_H-M "P B A 2"
_symmetry_group_IT_number 32
_symmetry_cell_setting 'orthorhombic'
loop_
_space_group_symop_operation_xyz
x,y,z
-x,-y,z
1/2-x,1/2+y,z
1/2+x,1/2-y,z
loop_
_atom_site_type_symbol
_atom_site_label
_atom_site_fract_x
_atom_site_fract_y
_atom_site_fract_z
Si Si1 0.108290 0.165530 0.079200
Si Si2 0.604290 0.173060 0.723183
Si Si3 0.620869 0.692485 0.513357
Si Si4 0.681809 0.008874 0.280861
O O1 0.090675 0.324245 0.213970
O O2 0.265605 0.097252 0.123552
O O3 0.108427 0.248661 0.902056
O O4 0.000000 0.000000 0.079935
O O5 0.529561 0.309935 0.597434
O O6 0.761687 0.157192 0.652082
O O7 0.500000 0.000000 0.729865
O O8 0.671441 0.576823 0.361153
O O9 0.629191 0.889240 0.428876
#
# Coordination Sequence:
#
# PCOD9344212 Si02
#       4
#     4   4   4   4
#     4  11  29  49  81 113 162 212 271 334 414 477
#     4  12  29  50  80 121 165 214 271 341 412 492
#     4  11  26  51  82 114 162 214 273 337 407 490
#     4  10  26  51  79 115 157 213 273 334 406 486
#
# _framework density 27.445527999999999
#
# number of rings (size 3 to 8) (size 9 to 14) (size 15 to 20)
#    0.000    1.000    2.500    0.000   17.500    2.000 
#    0.000    0.000    0.000    0.000    0.000    0.000 
#    0.000    0.000    0.000    0.000    0.000    0.000 
#
# Total GULP energy -89642.192199 kJ/mol
# GULP energy per Si atom -5602.637012 kJ/mol
# Density = 2.738306 g / cm^3
# Si number density = 27.445528 Si / 1000 Ang^3
#
#
#
# Elastic Constant Matrix: (Units=GPa)
#
#
# Indices 1 2 3 4 5 6 
#
# 1 120.2668 16.7913 54.2383 0.0000 0.0000 0.0000
# 2 16.7913 113.3886 59.4513 0.0000 0.0000 0.0000
# 3 54.2383 59.4513 203.3513 0.0000 0.0000 0.0000
# 4 0.0000 0.0000 0.0000 46.2548 0.0000 0.0000
# 5 0.0000 0.0000 0.0000 0.0000 50.4504 0.0000
# 6 0.0000 0.0000 0.0000 0.0000 0.0000 44.7750
#
#
#
# Elastic Compliance Matrix: (Units=1/GPa)
#
#
# Indices 1 2 3 4 5 6 
#
# 1 0.009453 -0.000092 -0.002494 0.000000 0.000000 0.000000
# 2 -0.000092 0.010417 -0.003021 0.000000 0.000000 0.000000
# 3 -0.002494 -0.003021 0.006466 0.000000 0.000000 0.000000
# 4 0.000000 0.000000 0.000000 0.021619 0.000000 0.000000
# 5 0.000000 0.000000 0.000000 0.000000 0.019821 0.000000
# 6 0.000000 0.000000 0.000000 0.000000 0.000000 0.022334
#
#
# Mechanical properties :
#
#
# Convention : Reuss Voigt Hill
#
# Bulk Modulus (GPa) = 66.13313 77.55206 71.84260
# Shear Modulus (GPa) = 47.00803 48.73110 47.86956
#
# Velocity S-wave (km/s) = 4.14306 4.21831 4.18085
# Velocity P-wave (km/s) = 6.85821 7.21412 7.03842
#
# Compressibility (1/GPa) = 0.01512101
#
# Stress axis : x y z
#
# Youngs Moduli (GPa) = 105.79114 95.99928 154.65349
#
# Poissons Ratio (x) = 0.00883 0.38576
# Poissons Ratio (y) = 0.00973 0.46719
# Poissons Ratio (z) = 0.26388 0.29000
#
# Static dielectric constant tensor:
#      x y z
#    x 2.247370 0.000000 0.000000 
#    y 0.000000 2.350120 0.000000 
#    z 0.000000 0.000000 1.998260 
# 
# From -- ./inp_files/2115.got.cif
#   From: 2010.05.17/outbox.cif.g08.bks.cpg/sg32_2_cif.got.tgz:2115.got - 2010.06.03 17:12:27.
