data_PCOD9344037
_publ_section_title
;
Structure prediction by ZEFSAII (Michael W. Deem and Ramdas Pophale) SiO2 
 PCOD9344037
Probable space group: P B A 2
;
_chemical_formula_sum "Si O2"
_cell_formula_units_Z 20
_cell_length_a 8.700657
_cell_length_b 16.152568
_cell_length_c 5.397883
_cell_angle_alpha 90.000000
_cell_angle_beta 90.000000
_cell_angle_gamma 90.000000
_cell_volume 758.607432
_symmetry_space_group_name_H-M "P B A 2"
_symmetry_group_IT_number 32
_symmetry_cell_setting 'orthorhombic'
loop_
_space_group_symop_operation_xyz
x,y,z
-x,-y,z
1/2-x,1/2+y,z
1/2+x,1/2-y,z
loop_
_atom_site_type_symbol
_atom_site_label
_atom_site_fract_x
_atom_site_fract_y
_atom_site_fract_z
Si Si1 0.902955 0.071874 0.217150
Si Si2 0.378501 0.685050 0.488192
Si Si3 0.203438 0.304078 0.881984
Si Si4 0.069733 0.678647 0.246015
Si Si5 0.116025 0.447054 0.517865
O O1 0.756180 0.028599 0.341692
O O2 0.018216 0.105343 0.432040
O O3 0.832855 0.151938 0.064233
O O4 0.000000 0.000000 0.076371
O O5 0.500467 0.757166 0.443346
O O6 0.251170 0.687108 0.269385
O O7 0.291804 0.714683 0.738653
O O8 0.194177 0.374072 0.672053
O O9 0.036028 0.305627 0.010423
O O10 0.016889 0.589900 0.342364
O O11 0.000000 0.500000 0.690400
#
# Coordination Sequence:
#
# PCOD9344037 Si02
#       5
#     4   4   4   4   4
#     4  11  25  45  71 106 146 190 250 316 376 442
#     4  11  23  43  68 101 141 186 245 306 356 438
#     4  10  24  45  69 102 144 199 246 292 378 455
#     4  10  22  40  67  95 133 182 235 291 353 432
#     4  10  22  41  65  98 139 185 242 301 364 437
#
# _framework density 26.364099
#
# number of rings (size 3 to 8) (size 9 to 14) (size 15 to 20)
#    0.000    1.600    0.000    4.800    0.000   15.200 
#    0.000    4.000    0.000    0.000    0.000    0.000 
#    0.000    0.000    0.000    0.000    0.000    0.000 
#
# Total GULP energy -111358.977688 kJ/mol
# GULP energy per Si atom -5567.948884 kJ/mol
# Density = 2.630409 g / cm^3
# Si number density = 26.364099 Si / 1000 Ang^3
#
#
#
# Elastic Constant Matrix: (Units=GPa)
#
#
# Indices 1 2 3 4 5 6 
#
# 1 195.4734 57.9555 39.8799 0.0000 0.0000 0.0000
# 2 57.9555 84.5415 9.6194 0.0000 0.0000 0.0000
# 3 39.8799 9.6194 100.7864 0.0000 0.0000 0.0000
# 4 0.0000 0.0000 0.0000 9.8475 0.0000 0.0000
# 5 0.0000 0.0000 0.0000 0.0000 30.2034 0.0000
# 6 0.0000 0.0000 0.0000 0.0000 0.0000 65.9570
#
#
#
# Elastic Compliance Matrix: (Units=1/GPa)
#
#
# Indices 1 2 3 4 5 6 
#
# 1 0.006914 -0.004477 -0.002309 0.000000 0.000000 0.000000
# 2 -0.004477 0.014858 0.000354 0.000000 0.000000 0.000000
# 3 -0.002309 0.000354 0.010802 0.000000 0.000000 0.000000
# 4 0.000000 0.000000 0.000000 0.101549 0.000000 0.000000
# 5 0.000000 0.000000 0.000000 0.000000 0.033109 0.000000
# 6 0.000000 0.000000 0.000000 0.000000 0.000000 0.015161
#
#
# Mechanical properties :
#
#
# Convention : Reuss Voigt Hill
#
# Bulk Modulus (GPa) = 50.73832 66.19011 58.46421
# Shear Modulus (GPa) = 24.77376 39.42467 32.09922
#
# Velocity S-wave (km/s) = 3.06874 3.87123 3.49311
# Velocity P-wave (km/s) = 5.64298 6.71882 6.20426
#
# Compressibility (1/GPa) = 0.01970897
#
# Stress axis : x y z
#
# Youngs Moduli (GPa) = 144.62983 67.30592 92.57811
#
# Poissons Ratio (x) = 0.30134 0.21372
# Poissons Ratio (y) = 0.64754 -0.03273
# Poissons Ratio (z) = 0.33388 -0.02379
#
# Static dielectric constant tensor:
#      x y z
#    x 2.130800 0.000000 0.000000 
#    y 0.000000 2.431880 0.000000 
#    z 0.000000 0.000000 2.164350 
# 
# From -- ./inp_files/402.got.cif
#   From: 2010.05.17/outbox.cif.g08.bks.cpg/sg32_1_cif.got.tgz:402.got - 2010.06.03 17:12:27.
