data_PCOD9344516
_publ_section_title
;
Structure prediction by ZEFSAII (Michael W. Deem and Ramdas Pophale) SiO2 
 PCOD9344516
Probable space group: P N A 21
;
_chemical_formula_sum "Si O2"
_cell_formula_units_Z 32
_cell_length_a 13.725305
_cell_length_b 10.710256
_cell_length_c 9.234756
_cell_angle_alpha 90.000000
_cell_angle_beta 90.000000
_cell_angle_gamma 90.000000
_cell_volume 1357.523263
_symmetry_space_group_name_H-M "P N A 21"
_symmetry_group_IT_number 33
_symmetry_cell_setting 'orthorhombic'
loop_
_space_group_symop_operation_xyz
x,y,z
-x,-y,1/2+z
1/2-x,1/2+y,1/2+z
1/2+x,1/2-y,z
loop_
_atom_site_type_symbol
_atom_site_label
_atom_site_fract_x
_atom_site_fract_y
_atom_site_fract_z
Si Si1 0.616409 0.930764 0.125000
Si Si2 0.731379 0.176203 0.203240
Si Si3 0.099361 0.170661 0.676434
Si Si4 0.091654 0.191734 0.997195
Si Si5 0.983772 0.452868 0.920848
Si Si6 0.693863 0.096690 0.525903
Si Si7 0.609746 0.581361 0.531372
Si Si8 0.634524 0.656364 0.205403
O O1 0.537028 0.955444 0.251211
O O2 0.663014 0.798407 0.162393
O O3 0.688405 0.046659 0.138101
O O4 0.558911 0.941343 0.974440
O O5 0.717101 0.164345 0.373474
O O6 0.668426 0.280725 0.122486
O O7 0.842070 0.171395 0.150894
O O8 0.135183 0.152315 0.841927
O O9 0.134044 0.304364 0.621886
O O10 0.981641 0.159006 0.681517
O O11 0.131620 0.061440 0.569455
O O12 0.031937 0.321605 0.964876
O O13 0.006272 0.097468 0.037067
O O14 0.878277 0.481915 0.991581
O O15 0.795397 0.071731 0.607257
O O16 0.647842 0.622574 0.373723
#
# Coordination Sequence:
#
# PCOD9344516 Si02
#       8
#     4   4   4   4   4   4   4   4
#     4  10  19  39  66  93 123 170 215 281 333 401
#     4  10  24  39  64 101 133 170 232 282 341 412
#     4  11  23  44  68  96 134 186 228 279 346 418
#     4  10  22  44  70  92 134 185 227 289 341 404
#     4  10  18  40  67  95 123 166 229 276 337 394
#     4  11  23  39  65 102 135 171 227 288 344 420
#     4  11  24  44  64  96 135 187 231 273 350 420
#     4  11  23  43  66  95 139 181 223 278 356 409
#
# _framework density 23.572340000000001
#
# number of rings (size 3 to 8) (size 9 to 14) (size 15 to 20)
#    0.000    1.500    3.750    1.500    0.000    6.000 
#    6.750    0.000    0.000    0.000    0.000    0.000 
#    0.000    0.000    0.000    0.000    0.000    0.000 
#
# Total GULP energy -178977.310414 kJ/mol
# GULP energy per Si atom -5593.040950 kJ/mol
# Density = 2.351869 g / cm^3
# Si number density = 23.572340 Si / 1000 Ang^3
#
#
#
# Elastic Constant Matrix: (Units=GPa)
#
#
# Indices 1 2 3 4 5 6 
#
# 1 58.4779 1.2164 31.2297 0.0000 0.0000 0.0000
# 2 1.2164 74.0096 11.0589 0.0000 0.0000 0.0000
# 3 31.2297 11.0589 67.0397 0.0000 0.0000 0.0000
# 4 0.0000 0.0000 0.0000 33.1641 0.0000 0.0000
# 5 0.0000 0.0000 0.0000 0.0000 25.2632 0.0000
# 6 0.0000 0.0000 0.0000 0.0000 0.0000 24.9348
#
#
#
# Elastic Compliance Matrix: (Units=1/GPa)
#
#
# Indices 1 2 3 4 5 6 
#
# 1 0.022875 0.001247 -0.010862 0.000000 0.000000 0.000000
# 2 0.001247 0.013921 -0.002877 0.000000 0.000000 0.000000
# 3 -0.010862 -0.002877 0.020451 0.000000 0.000000 0.000000
# 4 0.000000 0.000000 0.000000 0.030153 0.000000 0.000000
# 5 0.000000 0.000000 0.000000 0.000000 0.039583 0.000000
# 6 0.000000 0.000000 0.000000 0.000000 0.000000 0.040105
#
#
# Mechanical properties :
#
#
# Convention : Reuss Voigt Hill
#
# Bulk Modulus (GPa) = 30.99512 31.83746 31.41629
# Shear Modulus (GPa) = 24.65150 27.07389 25.86270
#
# Velocity S-wave (km/s) = 3.23736 3.39270 3.31594
# Velocity P-wave (km/s) = 5.21071 5.37427 5.29312
#
# Compressibility (1/GPa) = 0.03226315
#
# Stress axis : x y z
#
# Youngs Moduli (GPa) = 43.71531 71.83274 48.89717
#
# Poissons Ratio (x) = -0.08958 0.53112
# Poissons Ratio (y) = -0.05452 0.14070
# Poissons Ratio (z) = 0.47483 0.20669
#
# Static dielectric constant tensor:
#      x y z
#    x 1.950960 0.000000 0.000000 
#    y 0.000000 1.932400 0.000000 
#    z 0.000000 0.000000 1.842640 
# 
# From -- ./inp_files/4391.got.cif
#   From: 2010.05.17/outbox.cif.g08.bks.cpg/sg33_3_cif.got.tgz:4391.got - 2010.06.03 17:15:25.
