data_PCOD9344431
_publ_section_title
;
Structure prediction by ZEFSAII (Michael W. Deem and Ramdas Pophale) SiO2 
 PCOD9344431
Probable space group: P N A 21
;
_chemical_formula_sum "Si O2"
_cell_formula_units_Z 24
_cell_length_a 9.892151
_cell_length_b 15.973489
_cell_length_c 5.557742
_cell_angle_alpha 90.000000
_cell_angle_beta 90.000000
_cell_angle_gamma 90.000000
_cell_volume 878.190847
_symmetry_space_group_name_H-M "P N A 21"
_symmetry_group_IT_number 33
_symmetry_cell_setting 'orthorhombic'
loop_
_space_group_symop_operation_xyz
x,y,z
-x,-y,1/2+z
1/2-x,1/2+y,1/2+z
1/2+x,1/2-y,z
loop_
_atom_site_type_symbol
_atom_site_label
_atom_site_fract_x
_atom_site_fract_y
_atom_site_fract_z
Si Si1 0.838917 0.225178 0.175730
Si Si2 0.024042 0.115000 0.597144
Si Si3 0.095441 0.302684 0.532655
Si Si4 0.045327 0.538199 0.847198
Si Si5 0.239734 0.920369 0.346046
Si Si6 0.381759 0.649974 0.586883
O O1 0.739252 0.223137 0.410410
O O2 0.761622 0.302969 0.052356
O O3 0.000680 0.222310 0.124937
O O4 0.813241 0.131479 0.071294
O O5 0.021591 0.217454 0.606259
O O6 0.875611 0.079423 0.643938
O O7 0.085062 0.100870 0.334588
O O8 0.099598 0.095770 0.846500
O O9 0.998372 0.366388 0.387217
O O10 0.140841 0.359814 0.754128
O O11 0.196124 0.508725 0.905103
O O12 0.028722 0.512012 0.566858
#
# Coordination Sequence:
#
# PCOD9344431 Si02
#       6
#     4   4   4   4   4   4
#     4  10  18  32  46  72 104 136 172 216 268 324
#     4  10  20  30  48  70 102 134 170 210 268 316
#     4  10  18  32  46  72 104 139 169 224 265 337
#     4  10  20  30  48  70 102 142 172 220 278 332
#     4  10  18  32  46  72 104 139 169 224 265 337
#     4  10  20  30  48  70 102 140 166 220 260 324
#
# _framework density 27.328911999999999
#
# number of rings (size 3 to 8) (size 9 to 14) (size 15 to 20)
#    0.000    2.000    5.000    0.000    0.000    0.000 
#    0.000    0.000    0.000    0.000    0.000    0.000 
#   20.000    3.333    0.000    0.000    0.000    0.000 
#
# Total GULP energy -133743.613335 kJ/mol
# GULP energy per Si atom -5572.650556 kJ/mol
# Density = 2.726671 g / cm^3
# Si number density = 27.328912 Si / 1000 Ang^3
#
#
#
# Elastic Constant Matrix: (Units=GPa)
#
#
# Indices 1 2 3 4 5 6 
#
# 1 99.6666 29.6063 -8.1540 0.0000 0.0000 0.0000
# 2 29.6063 74.4338 4.0893 0.0000 0.0000 0.0000
# 3 -8.1540 4.0893 124.1066 0.0000 0.0000 0.0000
# 4 0.0000 0.0000 0.0000 27.3586 0.0000 0.0000
# 5 0.0000 0.0000 0.0000 0.0000 20.8825 0.0000
# 6 0.0000 0.0000 0.0000 0.0000 0.0000 47.0498
#
#
#
# Elastic Compliance Matrix: (Units=1/GPa)
#
#
# Indices 1 2 3 4 5 6 
#
# 1 0.011479 -0.004615 0.000906 0.000000 0.000000 0.000000
# 2 -0.004615 0.015315 -0.000808 0.000000 0.000000 0.000000
# 3 0.000906 -0.000808 0.008144 0.000000 0.000000 0.000000
# 4 0.000000 0.000000 0.000000 0.036552 0.000000 0.000000
# 5 0.000000 0.000000 0.000000 0.000000 0.047887 0.000000
# 6 0.000000 0.000000 0.000000 0.000000 0.000000 0.021254
#
#
# Mechanical properties :
#
#
# Convention : Reuss Voigt Hill
#
# Bulk Modulus (GPa) = 38.60532 38.81004 38.70768
# Shear Modulus (GPa) = 31.58589 37.23587 34.41088
#
# Velocity S-wave (km/s) = 3.40335 3.69522 3.55228
# Velocity P-wave (km/s) = 5.44064 5.69545 5.56950
#
# Compressibility (1/GPa) = 0.02590317
#
# Stress axis : x y z
#
# Youngs Moduli (GPa) = 87.11834 65.29564 122.79357
#
# Poissons Ratio (x) = 0.30137 -0.11128
# Poissons Ratio (y) = 0.40209 0.09920
# Poissons Ratio (z) = -0.07895 0.05275
#
# Static dielectric constant tensor:
#      x y z
#    x 2.377800 0.000000 0.000000 
#    y 0.000000 2.137750 0.000000 
#    z 0.000000 0.000000 2.432610 
# 
# From -- ./inp_files/1102.got.cif
#   From: 2010.05.17/outbox.cif.g08.bks.cpg/sg33_1_cif.got.tgz:1102.got - 2010.06.03 17:15:25.
