data_PCOD9344566
_publ_section_title
;
Structure prediction by ZEFSAII (Michael W. Deem and Ramdas Pophale) SiO2 
 PCOD9344566
Probable space group: P N A 21
;
_chemical_formula_sum "Si O2"
_cell_formula_units_Z 32
_cell_length_a 15.546045
_cell_length_b 16.967350
_cell_length_c 5.305598
_cell_angle_alpha 90.000000
_cell_angle_beta 90.000000
_cell_angle_gamma 90.000000
_cell_volume 1399.485103
_symmetry_space_group_name_H-M "P N A 21"
_symmetry_group_IT_number 33
_symmetry_cell_setting 'orthorhombic'
loop_
_space_group_symop_operation_xyz
x,y,z
-x,-y,1/2+z
1/2-x,1/2+y,1/2+z
1/2+x,1/2-y,z
loop_
_atom_site_type_symbol
_atom_site_label
_atom_site_fract_x
_atom_site_fract_y
_atom_site_fract_z
Si Si1 0.953324 0.924668 0.627000
Si Si2 0.539479 0.968786 0.966952
Si Si3 0.040111 0.686161 0.647495
Si Si4 0.111477 0.236802 0.881109
Si Si5 0.264956 0.041447 0.455795
Si Si6 0.982825 0.183143 0.510413
Si Si7 0.274576 0.148637 0.951948
Si Si8 0.620781 0.570445 0.315998
O O1 0.047095 0.940189 0.522111
O O2 0.916152 0.850131 0.480793
O O3 0.965690 0.892522 0.908721
O O4 0.897919 0.002492 0.609133
O O5 0.534258 0.880633 0.859123
O O6 0.638647 0.989694 0.953853
O O7 0.491905 0.019927 0.751912
O O8 0.122699 0.667253 0.471370
O O9 0.945276 0.698756 0.528835
O O10 0.059204 0.769103 0.783187
O O11 0.213942 0.226594 0.911949
O O12 0.060746 0.236548 0.616642
O O13 0.255442 0.092600 0.711393
O O14 0.207357 0.963055 0.433111
O O15 0.254597 0.101612 0.215362
O O16 0.906390 0.153419 0.691946
#
# Coordination Sequence:
#
# PCOD9344566 Si02
#       8
#     4   4   4   4   4   4   4   4
#     4  10  19  33  56  95 134 181 215 267 340 424
#     4  11  25  50  77  99 127 184 242 306 359 402
#     4  10  25  45  70 100 139 185 245 298 362 440
#     4  10  22  40  65  99 134 190 228 289 352 433
#     4  11  25  42  72 104 137 179 245 297 347 439
#     4  10  22  38  63  94 145 184 230 279 363 426
#     4  11  24  43  70 101 138 189 242 290 361 430
#     4  11  20  33  61  98 142 180 225 282 346 430
#
# _framework density 22.865551
#
# number of rings (size 3 to 8) (size 9 to 14) (size 15 to 20)
#    0.000    1.500    2.500    2.250   10.500    0.000 
#    2.250    2.500    0.000    0.000    0.000    0.000 
#    0.000    0.000    0.000    0.000    0.000    0.000 
#
# Total GULP energy -178356.234997 kJ/mol
# GULP energy per Si atom -5573.632344 kJ/mol
# Density = 2.281351 g / cm^3
# Si number density = 22.865551 Si / 1000 Ang^3
#
#
#
# Elastic Constant Matrix: (Units=GPa)
#
#
# Indices 1 2 3 4 5 6 
#
# 1 119.6378 14.6058 10.4350 0.0000 0.0000 0.0000
# 2 14.6058 42.2996 3.6588 0.0000 0.0000 0.0000
# 3 10.4350 3.6588 82.5074 0.0000 0.0000 0.0000
# 4 0.0000 0.0000 0.0000 32.4863 0.0000 0.0000
# 5 0.0000 0.0000 0.0000 0.0000 26.7235 0.0000
# 6 0.0000 0.0000 0.0000 0.0000 0.0000 31.1897
#
#
#
# Elastic Compliance Matrix: (Units=1/GPa)
#
#
# Indices 1 2 3 4 5 6 
#
# 1 0.008805 -0.002955 -0.000983 0.000000 0.000000 0.000000
# 2 -0.002955 0.024724 -0.000723 0.000000 0.000000 0.000000
# 3 -0.000983 -0.000723 0.012276 0.000000 0.000000 0.000000
# 4 0.000000 0.000000 0.000000 0.030782 0.000000 0.000000
# 5 0.000000 0.000000 0.000000 0.000000 0.037420 0.000000
# 6 0.000000 0.000000 0.000000 0.000000 0.000000 0.032062
#
#
# Mechanical properties :
#
#
# Convention : Reuss Voigt Hill
#
# Bulk Modulus (GPa) = 27.40902 33.53823 30.47363
# Shear Modulus (GPa) = 29.84143 32.46288 31.15216
#
# Velocity S-wave (km/s) = 3.61651 3.77202 3.69508
# Velocity P-wave (km/s) = 5.42696 5.80261 5.61793
#
# Compressibility (1/GPa) = 0.03648434
#
# Stress axis : x y z
#
# Youngs Moduli (GPa) = 113.57108 40.44673 81.45681
#
# Poissons Ratio (x) = 0.11953 0.08004
# Poissons Ratio (y) = 0.33564 0.05886
# Poissons Ratio (z) = 0.11159 0.02923
#
# Static dielectric constant tensor:
#      x y z
#    x 1.923590 0.000000 0.000000 
#    y 0.000000 1.950400 0.000000 
#    z 0.000000 0.000000 2.001640 
# 
# From -- ./inp_files/1548.got.cif
#   From: 2010.05.17/outbox.cif.g08.bks.cpg/sg33_1_cif.got.tgz:1548.got - 2010.06.03 17:15:25.
