data_PCOD9344915
_publ_section_title
;
Structure prediction by ZEFSAII (Michael W. Deem and Ramdas Pophale) SiO2 
 PCOD9344915
Probable space group: P N A 21
;
_chemical_formula_sum "Si O2"
_cell_formula_units_Z 32
_cell_length_a 13.624317
_cell_length_b 12.664928
_cell_length_c 8.959667
_cell_angle_alpha 90.000000
_cell_angle_beta 90.000000
_cell_angle_gamma 90.000000
_cell_volume 1545.999445
_symmetry_space_group_name_H-M "P N A 21"
_symmetry_group_IT_number 33
_symmetry_cell_setting 'orthorhombic'
loop_
_space_group_symop_operation_xyz
x,y,z
-x,-y,1/2+z
1/2-x,1/2+y,1/2+z
1/2+x,1/2-y,z
loop_
_atom_site_type_symbol
_atom_site_label
_atom_site_fract_x
_atom_site_fract_y
_atom_site_fract_z
Si Si1 0.930920 0.445386 0.632650
Si Si2 0.802593 0.754408 0.796009
Si Si3 0.825346 0.634716 0.481185
Si Si4 0.471330 0.751445 0.249015
Si Si5 0.593720 0.630026 0.488972
Si Si6 0.077925 0.753795 0.801182
Si Si7 0.419950 0.919591 0.911851
Si Si8 0.942767 0.887895 0.977451
O O1 0.861342 0.516024 0.526461
O O2 0.039946 0.466421 0.565095
O O3 0.945649 0.321589 0.663395
O O4 0.907309 0.488948 0.794603
O O5 0.830882 0.707876 0.632282
O O6 0.689668 0.780984 0.812911
O O7 0.827412 0.656784 0.907667
O O8 0.868436 0.852275 0.846456
O O9 0.895879 0.680200 0.351000
O O10 0.709384 0.634747 0.448781
O O11 0.528123 0.673157 0.356470
O O12 0.418951 0.683867 0.120970
O O13 0.570554 0.701560 0.633537
O O14 0.566106 0.508896 0.517757
O O15 0.005661 0.657605 0.844458
O O16 0.046907 0.849302 0.911161
#
# Coordination Sequence:
#
# PCOD9344915 Si02
#       8
#     4   4   4   4   4   4   4   4
#     4  11  20  36  63  91 120 155 199 257 299 359
#     4   9  20  39  63  86 121 161 204 246 302 368
#     4  10  24  42  63  92 125 162 207 251 314 367
#     4  12  23  40  64  94 127 162 206 256 311 364
#     4  11  25  42  62  88 127 167 204 254 302 371
#     4  10  21  41  62  84 123 168 196 247 308 364
#     4  10  20  37  62  88 119 155 197 251 307 354
#     4  11  23  39  65  91 122 164 205 254 305 363
#
# _framework density 20.698585000000001
#
# number of rings (size 3 to 8) (size 9 to 14) (size 15 to 20)
#    0.000    1.500    3.750    3.000    1.750    2.000 
#    0.000    1.250    5.500    0.000    0.000    0.000 
#    0.000    0.000    0.000    0.000    0.000    0.000 
#
# Total GULP energy -178343.996195 kJ/mol
# GULP energy per Si atom -5573.249881 kJ/mol
# Density = 2.065147 g / cm^3
# Si number density = 20.698585 Si / 1000 Ang^3
#
#
#
# Elastic Constant Matrix: (Units=GPa)
#
#
# Indices 1 2 3 4 5 6 
#
# 1 66.1273 24.6703 19.6513 0.0000 0.0000 0.0000
# 2 24.6703 82.3297 18.6051 0.0000 0.0000 0.0000
# 3 19.6513 18.6051 74.6554 0.0000 0.0000 0.0000
# 4 0.0000 0.0000 0.0000 30.3836 0.0000 0.0000
# 5 0.0000 0.0000 0.0000 0.0000 9.6559 0.0000
# 6 0.0000 0.0000 0.0000 0.0000 0.0000 23.4796
#
#
#
# Elastic Compliance Matrix: (Units=1/GPa)
#
#
# Indices 1 2 3 4 5 6 
#
# 1 0.017882 -0.004551 -0.003573 0.000000 0.000000 0.000000
# 2 -0.004551 0.014029 -0.002298 0.000000 0.000000 0.000000
# 3 -0.003573 -0.002298 0.014908 0.000000 0.000000 0.000000
# 4 0.000000 0.000000 0.000000 0.032912 0.000000 0.000000
# 5 0.000000 0.000000 0.000000 0.000000 0.103564 0.000000
# 6 0.000000 0.000000 0.000000 0.000000 0.000000 0.042590
#
#
# Mechanical properties :
#
#
# Convention : Reuss Voigt Hill
#
# Bulk Modulus (GPa) = 38.49842 38.77399 38.63621
# Shear Modulus (GPa) = 19.57800 23.38287 21.48043
#
# Velocity S-wave (km/s) = 3.07882 3.36472 3.22494
# Velocity P-wave (km/s) = 5.59274 5.81966 5.70733
#
# Compressibility (1/GPa) = 0.02597509
#
# Stress axis : x y z
#
# Youngs Moduli (GPa) = 55.92234 71.27895 67.07755
#
# Poissons Ratio (x) = 0.32439 0.23966
# Poissons Ratio (y) = 0.25450 0.15417
# Poissons Ratio (z) = 0.19980 0.16383
#
# Static dielectric constant tensor:
#      x y z
#    x 1.749140 0.000000 0.000000 
#    y 0.000000 1.744150 0.000000 
#    z 0.000000 0.000000 1.786580 
# 
# From -- ./inp_files/4429.got.cif
#   From: 2010.05.17/outbox.cif.g08.bks.cpg/sg33_3_cif.got.tgz:4429.got - 2010.06.03 17:15:25.
