data_PCOD9344488
_publ_section_title
;
Structure prediction by ZEFSAII (Michael W. Deem and Ramdas Pophale) SiO2 
 PCOD9344488
Probable space group: P N A 21
;
_chemical_formula_sum "Si O2"
_cell_formula_units_Z 24
_cell_length_a 10.078033
_cell_length_b 16.152939
_cell_length_c 7.720160
_cell_angle_alpha 90.000000
_cell_angle_beta 90.000000
_cell_angle_gamma 90.000000
_cell_volume 1256.763706
_symmetry_space_group_name_H-M "P N A 21"
_symmetry_group_IT_number 33
_symmetry_cell_setting 'orthorhombic'
loop_
_space_group_symop_operation_xyz
x,y,z
-x,-y,1/2+z
1/2-x,1/2+y,1/2+z
1/2+x,1/2-y,z
loop_
_atom_site_type_symbol
_atom_site_label
_atom_site_fract_x
_atom_site_fract_y
_atom_site_fract_z
Si Si1 0.439386 0.990921 0.114140
Si Si2 0.645425 0.653308 0.590859
Si Si3 0.883307 0.852190 0.373075
Si Si4 0.104576 0.329285 0.836743
Si Si5 0.781626 0.501534 0.751141
Si Si6 0.133441 0.665114 0.611782
O O1 0.397044 0.078330 0.206012
O O2 0.399162 0.905965 0.207183
O O3 0.599850 0.993294 0.111054
O O4 0.363228 0.993391 0.931288
O O5 0.520849 0.629424 0.470309
O O6 0.767602 0.664293 0.458672
O O7 0.693527 0.582228 0.718925
O O8 0.619077 0.741900 0.684742
O O9 0.895246 0.765415 0.270189
O O10 0.817885 0.924125 0.259822
O O11 0.778667 0.840110 0.529719
O O12 0.973528 0.335330 0.955431
#
# Coordination Sequence:
#
# PCOD9344488 Si02
#       6
#     4   4   4   4   4   4
#     4  11  19  36  61  88 113 153 208 237 284 353
#     4  10  20  36  59  84 115 156 197 236 302 348
#     4   9  20  34  58  83 117 152 195 235 301 354
#     4  10  18  36  61  84 109 161 199 239 285 365
#     4  11  21  37  61  91 118 158 199 251 289 351
#     4   9  18  35  60  82 110 158 198 232 285 369
#
# _framework density 19.096668000000001
#
# number of rings (size 3 to 8) (size 9 to 14) (size 15 to 20)
#    0.000    2.000    5.000    0.000    0.000    2.667 
#    0.000    3.333    3.667    0.000    0.000    0.000 
#    0.000    0.000    0.000    0.000    0.000    0.000 
#
# Total GULP energy -133620.249519 kJ/mol
# GULP energy per Si atom -5567.510397 kJ/mol
# Density = 1.905320 g / cm^3
# Si number density = 19.096668 Si / 1000 Ang^3
#
#
#
# Elastic Constant Matrix: (Units=GPa)
#
#
# Indices 1 2 3 4 5 6 
#
# 1 91.8724 51.0229 17.5580 0.0000 0.0000 0.0000
# 2 51.0229 217.9461 48.2712 0.0000 0.0000 0.0000
# 3 17.5580 48.2712 25.9173 0.0000 0.0000 0.0000
# 4 0.0000 0.0000 0.0000 23.1084 0.0000 0.0000
# 5 0.0000 0.0000 0.0000 0.0000 24.4468 0.0000
# 6 0.0000 0.0000 0.0000 0.0000 0.0000 20.4858
#
#
#
# Elastic Compliance Matrix: (Units=1/GPa)
#
#
# Indices 1 2 3 4 5 6 
#
# 1 0.012927 -0.001850 -0.005313 0.000000 0.000000 0.000000
# 2 -0.001850 0.008075 -0.013786 0.000000 0.000000 0.000000
# 3 -0.005313 -0.013786 0.067860 0.000000 0.000000 0.000000
# 4 0.000000 0.000000 0.000000 0.043274 0.000000 0.000000
# 5 0.000000 0.000000 0.000000 0.000000 0.040905 0.000000
# 6 0.000000 0.000000 0.000000 0.000000 0.000000 0.048814
#
#
# Mechanical properties :
#
#
# Convention : Reuss Voigt Hill
#
# Bulk Modulus (GPa) = 21.29236 63.27112 42.28174
# Shear Modulus (GPa) = 17.89502 28.20047 23.04775
#
# Velocity S-wave (km/s) = 3.06449 3.84698 3.47781
# Velocity P-wave (km/s) = 4.86780 7.27573 6.18998
#
# Compressibility (1/GPa) = 0.04696519
#
# Stress axis : x y z
#
# Youngs Moduli (GPa) = 77.35608 123.84363 14.73623
#
# Poissons Ratio (x) = 0.22908 0.07829
# Poissons Ratio (y) = 0.14309 0.20315
# Poissons Ratio (z) = 0.41096 1.70732
#
# Static dielectric constant tensor:
#      x y z
#    x 1.648000 0.000000 0.000000 
#    y 0.000000 1.768110 0.000000 
#    z 0.000000 0.000000 1.664980 
# 
# From -- ./inp_files/3174.got.cif
#   From: 2010.05.17/outbox.cif.g08.bks.cpg/sg33_2_cif.got.tgz:3174.got - 2010.06.03 17:15:25.
