data_PCOD9344709
_publ_section_title
;
Structure prediction by ZEFSAII (Michael W. Deem and Ramdas Pophale) SiO2 
 PCOD9344709
Probable space group: P N A 21
;
_chemical_formula_sum "Si O2"
_cell_formula_units_Z 20
_cell_length_a 8.608372
_cell_length_b 11.851368
_cell_length_c 7.610331
_cell_angle_alpha 90.000000
_cell_angle_beta 90.000000
_cell_angle_gamma 90.000000
_cell_volume 776.413461
_symmetry_space_group_name_H-M "P N A 21"
_symmetry_group_IT_number 33
_symmetry_cell_setting 'orthorhombic'
loop_
_space_group_symop_operation_xyz
x,y,z
-x,-y,1/2+z
1/2-x,1/2+y,1/2+z
1/2+x,1/2-y,z
loop_
_atom_site_type_symbol
_atom_site_label
_atom_site_fract_x
_atom_site_fract_y
_atom_site_fract_z
Si Si1 0.569185 0.971662 0.552860
Si Si2 0.580265 0.587951 0.418363
Si Si3 0.780707 0.160802 0.567049
Si Si4 0.375347 0.776004 0.415776
Si Si5 0.202947 0.603118 0.926766
O O1 0.695849 0.057135 0.473136
O O2 0.412701 0.046150 0.566723
O O3 0.519539 0.858855 0.453715
O O4 0.633721 0.939593 0.742655
O O5 0.596395 0.613332 0.208713
O O6 0.423817 0.651163 0.476336
O O7 0.724856 0.661903 0.496572
O O8 0.629673 0.458401 0.442457
O O9 0.661583 0.217886 0.708894
O O10 0.815007 0.263676 0.440648
#
# Coordination Sequence:
#
# PCOD9344709 Si02
#       5
#     4   4   4   4   4
#     4  10  19  38  61  90 125 174 217 263 332 410
#     4   8  18  35  60  84 119 167 206 257 328 387
#     4   9  19  34  61  87 124 164 212 270 325 385
#     4   9  18  36  61  83 125 168 206 265 337 381
#     4  10  20  37  63  92 125 173 225 267 336 395
#
# _framework density 25.75947
#
# number of rings (size 3 to 8) (size 9 to 14) (size 15 to 20)
#    1.200    1.600    2.000    1.200    0.000    0.000 
#    7.200    6.000    0.000    0.000    0.000    0.000 
#    0.000    0.000    0.000    0.000    0.000    0.000 
#
# Total GULP energy -111545.376218 kJ/mol
# GULP energy per Si atom -5577.268811 kJ/mol
# Density = 2.570084 g / cm^3
# Si number density = 25.759470 Si / 1000 Ang^3
#
#
#
# Elastic Constant Matrix: (Units=GPa)
#
#
# Indices 1 2 3 4 5 6 
#
# 1 29.2478 21.0816 21.9166 0.0000 0.0000 0.0000
# 2 21.0816 119.0576 25.2679 0.0000 0.0000 0.0000
# 3 21.9166 25.2679 57.7039 0.0000 0.0000 0.0000
# 4 0.0000 0.0000 0.0000 23.3393 0.0000 0.0000
# 5 0.0000 0.0000 0.0000 0.0000 34.3855 0.0000
# 6 0.0000 0.0000 0.0000 0.0000 0.0000 34.2951
#
#
#
# Elastic Compliance Matrix: (Units=1/GPa)
#
#
# Indices 1 2 3 4 5 6 
#
# 1 0.050755 -0.005398 -0.016914 0.000000 0.000000 0.000000
# 2 -0.005398 0.009834 -0.002256 0.000000 0.000000 0.000000
# 3 -0.016914 -0.002256 0.024742 0.000000 0.000000 0.000000
# 4 0.000000 0.000000 0.000000 0.042846 0.000000 0.000000
# 5 0.000000 0.000000 0.000000 0.000000 0.029082 0.000000
# 6 0.000000 0.000000 0.000000 0.000000 0.000000 0.029159
#
#
# Mechanical properties :
#
#
# Convention : Reuss Voigt Hill
#
# Bulk Modulus (GPa) = 27.62740 38.06015 32.84378
# Shear Modulus (GPa) = 20.19236 27.58687 23.88962
#
# Velocity S-wave (km/s) = 2.80282 3.27607 3.04865
# Velocity P-wave (km/s) = 4.60683 5.39606 5.01699
#
# Compressibility (1/GPa) = 0.03619595
#
# Stress axis : x y z
#
# Youngs Moduli (GPa) = 19.70234 101.68938 40.41737
#
# Poissons Ratio (x) = 0.54888 0.68361
# Poissons Ratio (y) = 0.10635 0.09118
# Poissons Ratio (z) = 0.33324 0.22942
#
# Static dielectric constant tensor:
#      x y z
#    x 2.129800 0.000000 0.000000 
#    y 0.000000 2.041970 0.000000 
#    z 0.000000 0.000000 2.003610 
# 
# From -- ./inp_files/4296.got.cif
#   From: 2010.05.17/outbox.cif.g08.bks.cpg/sg33_3_cif.got.tgz:4296.got - 2010.06.03 17:15:25.
