data_PCOD9344789
_publ_section_title
;
Structure prediction by ZEFSAII (Michael W. Deem and Ramdas Pophale) SiO2 
 PCOD9344789
Probable space group: P N A 21
;
_chemical_formula_sum "Si O2"
_cell_formula_units_Z 32
_cell_length_a 16.018559
_cell_length_b 10.656753
_cell_length_c 8.515441
_cell_angle_alpha 90.000000
_cell_angle_beta 90.000000
_cell_angle_gamma 90.000000
_cell_volume 1453.635395
_symmetry_space_group_name_H-M "P N A 21"
_symmetry_group_IT_number 33
_symmetry_cell_setting 'orthorhombic'
loop_
_space_group_symop_operation_xyz
x,y,z
-x,-y,1/2+z
1/2-x,1/2+y,1/2+z
1/2+x,1/2-y,z
loop_
_atom_site_type_symbol
_atom_site_label
_atom_site_fract_x
_atom_site_fract_y
_atom_site_fract_z
Si Si1 0.516924 0.215417 0.616750
Si Si2 0.201920 0.107219 0.091684
Si Si3 0.338518 0.102917 0.354983
Si Si4 0.323162 0.995365 0.871422
Si Si5 0.818905 0.676437 0.337073
Si Si6 0.338314 0.236544 0.665455
Si Si7 0.027517 0.568206 0.605857
Si Si8 0.582335 0.250930 0.269468
O O1 0.601207 0.206355 0.723293
O O2 0.434657 0.277327 0.693620
O O3 0.538299 0.265938 0.441443
O O4 0.487031 0.069181 0.604954
O O5 0.275246 0.131663 0.215080
O O6 0.120623 0.119918 0.202353
O O7 0.239990 0.999503 0.978692
O O8 0.190296 0.220548 0.969992
O O9 0.333334 0.210431 0.481352
O O10 0.426917 0.086401 0.271700
O O11 0.322521 0.961387 0.411441
O O12 0.315528 0.100688 0.739637
O O13 0.350120 0.858740 0.812504
O O14 0.401139 0.051228 0.975078
O O15 0.733658 0.677449 0.235923
O O16 0.967425 0.686904 0.621712
#
# Coordination Sequence:
#
# PCOD9344789 Si02
#       8
#     4   4   4   4   4   4   4   4
#     4  10  20  32  55  87 115 150 194 246 303 346
#     4  10  22  35  55  84 116 158 188 239 294 351
#     4  10  20  38  55  85 118 148 194 240 295 347
#     4   9  20  32  49  86 118 144 192 232 294 351
#     4  10  23  37  57  88 120 153 194 245 294 351
#     4  11  19  34  58  83 119 154 186 244 294 350
#     4   9  18  30  53  85 116 138 183 251 299 345
#     4  11  18  32  56  84 116 151 187 241 301 347
#
# _framework density 22.013773
#
# number of rings (size 3 to 8) (size 9 to 14) (size 15 to 20)
#    0.000    2.000    2.500    2.250    1.750    0.000 
#    0.000    0.000    0.000    3.000    6.500    0.000 
#    0.000    0.000    0.000    0.000    0.000    0.000 
#
# Total GULP energy -178242.691729 kJ/mol
# GULP energy per Si atom -5570.084117 kJ/mol
# Density = 2.196367 g / cm^3
# Si number density = 22.013773 Si / 1000 Ang^3
#
#
#
# Elastic Constant Matrix: (Units=GPa)
#
#
# Indices 1 2 3 4 5 6 
#
# 1 76.6857 13.9415 8.7913 0.0000 0.0000 0.0000
# 2 13.9415 29.3398 5.0450 0.0000 0.0000 0.0000
# 3 8.7913 5.0450 72.9870 0.0000 0.0000 0.0000
# 4 0.0000 0.0000 0.0000 25.6907 0.0000 0.0000
# 5 0.0000 0.0000 0.0000 0.0000 35.8921 0.0000
# 6 0.0000 0.0000 0.0000 0.0000 0.0000 28.1154
#
#
#
# Elastic Compliance Matrix: (Units=1/GPa)
#
#
# Indices 1 2 3 4 5 6 
#
# 1 0.014390 -0.006618 -0.001276 0.000000 0.000000 0.000000
# 2 -0.006618 0.037537 -0.001797 0.000000 0.000000 0.000000
# 3 -0.001276 -0.001797 0.013979 0.000000 0.000000 0.000000
# 4 0.000000 0.000000 0.000000 0.038925 0.000000 0.000000
# 5 0.000000 0.000000 0.000000 0.000000 0.027861 0.000000
# 6 0.000000 0.000000 0.000000 0.000000 0.000000 0.035568
#
#
# Mechanical properties :
#
#
# Convention : Reuss Voigt Hill
#
# Bulk Modulus (GPa) = 21.49476 26.06312 23.77894
# Shear Modulus (GPa) = 24.61234 28.02196 26.31715
#
# Velocity S-wave (km/s) = 3.34734 3.57168 3.46133
# Velocity P-wave (km/s) = 4.97243 5.37349 5.17684
#
# Compressibility (1/GPa) = 0.04652298
#
# Stress axis : x y z
#
# Youngs Moduli (GPa) = 69.49410 26.64019 71.53599
#
# Poissons Ratio (x) = 0.17631 0.09126
# Poissons Ratio (y) = 0.45993 0.12858
# Poissons Ratio (z) = 0.08866 0.04788
#
# Static dielectric constant tensor:
#      x y z
#    x 1.945070 0.000000 0.000000 
#    y 0.000000 1.829240 0.000000 
#    z 0.000000 0.000000 1.849160 
# 
# From -- ./inp_files/4517.got.cif
#   From: 2010.05.17/outbox.cif.g08.bks.cpg/sg33_3_cif.got.tgz:4517.got - 2010.06.03 17:15:25.
