data_PCOD9344970
_publ_section_title
;
Structure prediction by ZEFSAII (Michael W. Deem and Ramdas Pophale) SiO2 
 PCOD9344970
Probable space group: P N A 21
;
_chemical_formula_sum "Si O2"
_cell_formula_units_Z 24
_cell_length_a 9.368060
_cell_length_b 13.059553
_cell_length_c 7.935978
_cell_angle_alpha 90.000000
_cell_angle_beta 90.000000
_cell_angle_gamma 90.000000
_cell_volume 970.908786
_symmetry_space_group_name_H-M "P N A 21"
_symmetry_group_IT_number 33
_symmetry_cell_setting 'orthorhombic'
loop_
_space_group_symop_operation_xyz
x,y,z
-x,-y,1/2+z
1/2-x,1/2+y,1/2+z
1/2+x,1/2-y,z
loop_
_atom_site_type_symbol
_atom_site_label
_atom_site_fract_x
_atom_site_fract_y
_atom_site_fract_z
Si Si1 0.945005 0.902344 0.931790
Si Si2 0.129084 0.906401 0.618680
Si Si3 0.723559 0.852109 0.685288
Si Si4 0.384301 0.804847 0.132721
Si Si5 0.640151 0.777662 0.361928
Si Si6 0.389710 0.862356 0.773376
O O1 0.809336 0.926043 0.809455
O O2 0.073482 0.883608 0.805301
O O3 0.925919 0.803155 0.046366
O O4 0.958373 0.998705 0.050346
O O5 0.099216 0.811986 0.494131
O O6 0.296250 0.932638 0.648334
O O7 0.726181 0.856326 0.482235
O O8 0.556707 0.857012 0.732482
O O9 0.810005 0.746506 0.730628
O O10 0.506140 0.828025 0.269494
O O11 0.238632 0.779493 0.227224
O O12 0.375223 0.880439 0.973768
#
# Coordination Sequence:
#
# PCOD9344970 Si02
#       6
#     4   4   4   4   4   4
#     4  11  23  41  62  90 125 166 209 259 313 372
#     4  11  23  41  62  90 125 166 209 259 313 372
#     4  10  20  38  62  89 122 160 204 253 302 362
#     4  11  20  35  61  91 118 156 204 252 304 366
#     4  11  20  35  61  91 118 156 204 252 304 366
#     4  10  20  38  62  89 122 160 204 253 302 362
#
# _framework density 24.719111000000002
#
# number of rings (size 3 to 8) (size 9 to 14) (size 15 to 20)
#    0.000    1.333    0.000   11.000    0.000    0.000 
#    0.000    6.667    0.000    0.000    0.000    0.000 
#    0.000    0.000    0.000    0.000    0.000    0.000 
#
# Total GULP energy -134138.132256 kJ/mol
# GULP energy per Si atom -5589.088844 kJ/mol
# Density = 2.466285 g / cm^3
# Si number density = 24.719111 Si / 1000 Ang^3
#
#
#
# Elastic Constant Matrix: (Units=GPa)
#
#
# Indices 1 2 3 4 5 6 
#
# 1 145.1705 -22.7784 21.8372 0.0000 0.0000 0.0000
# 2 -22.7784 28.2246 5.3202 0.0000 0.0000 0.0000
# 3 21.8372 5.3202 92.1626 0.0000 0.0000 0.0000
# 4 0.0000 0.0000 0.0000 32.8666 0.0000 0.0000
# 5 0.0000 0.0000 0.0000 0.0000 69.6390 0.0000
# 6 0.0000 0.0000 0.0000 0.0000 0.0000 14.3416
#
#
#
# Elastic Compliance Matrix: (Units=1/GPa)
#
#
# Indices 1 2 3 4 5 6 
#
# 1 0.008382 0.007218 -0.002403 0.000000 0.000000 0.000000
# 2 0.007218 0.042035 -0.004137 0.000000 0.000000 0.000000
# 3 -0.002403 -0.004137 0.011659 0.000000 0.000000 0.000000
# 4 0.000000 0.000000 0.000000 0.030426 0.000000 0.000000
# 5 0.000000 0.000000 0.000000 0.000000 0.014360 0.000000
# 6 0.000000 0.000000 0.000000 0.000000 0.000000 0.069727
#
#
# Mechanical properties :
#
#
# Convention : Reuss Voigt Hill
#
# Bulk Modulus (GPa) = 15.76478 30.47952 23.12215
# Shear Modulus (GPa) = 25.46132 40.78135 33.12133
#
# Velocity S-wave (km/s) = 3.21288 4.06617 3.66445
# Velocity P-wave (km/s) = 4.48942 5.86533 5.22288
#
# Compressibility (1/GPa) = 0.06343255
#
# Stress axis : x y z
#
# Youngs Moduli (GPa) = 119.29706 23.78973 85.77419
#
# Poissons Ratio (x) = -0.17171 0.20610
# Poissons Ratio (y) = -0.86107 0.35483
# Poissons Ratio (z) = 0.28665 0.09841
#
# Static dielectric constant tensor:
#      x y z
#    x 2.099810 0.000000 0.000000 
#    y 0.000000 2.068650 0.000000 
#    z 0.000000 0.000000 1.965530 
# 
# From -- ./inp_files/3189.got.cif
#   From: 2010.05.17/outbox.cif.g08.bks.cpg/sg33_2_cif.got.tgz:3189.got - 2010.06.03 17:15:25.
