data_PCOD9344405
_publ_section_title
;
Structure prediction by ZEFSAII (Michael W. Deem and Ramdas Pophale) SiO2 
 PCOD9344405
Probable space group: P N A 21
;
_chemical_formula_sum "Si O2"
_cell_formula_units_Z 32
_cell_length_a 17.254516
_cell_length_b 13.679223
_cell_length_c 5.688574
_cell_angle_alpha 90.000000
_cell_angle_beta 90.000000
_cell_angle_gamma 90.000000
_cell_volume 1342.664861
_symmetry_space_group_name_H-M "P N A 21"
_symmetry_group_IT_number 33
_symmetry_cell_setting 'orthorhombic'
loop_
_space_group_symop_operation_xyz
x,y,z
-x,-y,1/2+z
1/2-x,1/2+y,1/2+z
1/2+x,1/2-y,z
loop_
_atom_site_type_symbol
_atom_site_label
_atom_site_fract_x
_atom_site_fract_y
_atom_site_fract_z
Si Si1 0.223141 0.996976 0.063680
Si Si2 0.711768 0.325407 0.332732
Si Si3 0.676922 0.624439 0.466085
Si Si4 0.668658 0.033455 0.196316
Si Si5 0.836522 0.298469 0.696640
Si Si6 0.897799 0.956409 0.167165
Si Si7 0.994717 0.782363 0.113547
Si Si8 0.422200 0.789195 0.613990
O O1 0.256753 0.089006 0.201449
O O2 0.174729 0.918611 0.205627
O O3 0.298078 0.945180 0.955305
O O4 0.158551 0.045346 0.892421
O O5 0.767376 0.273232 0.516772
O O6 0.650194 0.390976 0.480394
O O7 0.662458 0.258324 0.159915
O O8 0.756503 0.573961 0.553770
O O9 0.677279 0.740168 0.442242
O O10 0.606667 0.570996 0.600483
O O11 0.661105 0.916328 0.195656
O O12 0.593743 0.094647 0.128941
O O13 0.918418 0.255732 0.620272
O O14 0.978518 0.898860 0.156606
O O15 0.954079 0.739105 0.355094
O O16 0.965528 0.746934 0.853674
#
# Coordination Sequence:
#
# PCOD9344405 Si02
#       8
#     4   4   4   4   4   4   4   4
#     4  10  17  39  68 102 133 179 241 306 362 425
#     4  10  20  39  73  98 140 183 245 302 354 436
#     4  10  23  41  68 108 136 186 243 314 361 425
#     4  11  25  39  72 104 136 190 249 307 362 444
#     4  12  25  46  68 113 146 185 256 317 364 450
#     4   9  19  43  65  99 137 192 235 285 373 441
#     4  11  27  48  72 107 150 199 241 306 382 459
#     4  11  26  47  74 101 146 206 238 295 392 452
#
# _framework density 23.833199
#
# number of rings (size 3 to 8) (size 9 to 14) (size 15 to 20)
#    0.000    1.500    5.000    0.750    7.000    2.000 
#    6.750    0.000    0.000    0.000    0.000    0.000 
#    0.000    0.000    0.000    0.000    0.000    0.000 
#
# Total GULP energy -178318.407587 kJ/mol
# GULP energy per Si atom -5572.450237 kJ/mol
# Density = 2.377895 g / cm^3
# Si number density = 23.833199 Si / 1000 Ang^3
#
#
#
# Elastic Constant Matrix: (Units=GPa)
#
#
# Indices 1 2 3 4 5 6 
#
# 1 49.0029 6.4412 1.6908 0.0000 0.0000 0.0000
# 2 6.4412 138.3364 31.5248 0.0000 0.0000 0.0000
# 3 1.6908 31.5248 56.8872 0.0000 0.0000 0.0000
# 4 0.0000 0.0000 0.0000 35.2798 0.0000 0.0000
# 5 0.0000 0.0000 0.0000 0.0000 19.9692 0.0000
# 6 0.0000 0.0000 0.0000 0.0000 0.0000 15.7688
#
#
#
# Elastic Compliance Matrix: (Units=1/GPa)
#
#
# Indices 1 2 3 4 5 6 
#
# 1 0.020533 -0.000935 -0.000092 0.000000 0.000000 0.000000
# 2 -0.000935 0.008316 -0.004581 0.000000 0.000000 0.000000
# 3 -0.000092 -0.004581 0.020120 0.000000 0.000000 0.000000
# 4 0.000000 0.000000 0.000000 0.028345 0.000000 0.000000
# 5 0.000000 0.000000 0.000000 0.000000 0.050077 0.000000
# 6 0.000000 0.000000 0.000000 0.000000 0.000000 0.063416
#
#
# Mechanical properties :
#
#
# Convention : Reuss Voigt Hill
#
# Bulk Modulus (GPa) = 26.48778 35.94892 31.21835
# Shear Modulus (GPa) = 23.29833 27.84154 25.56993
#
# Velocity S-wave (km/s) = 3.12998 3.42158 3.27902
# Velocity P-wave (km/s) = 4.91938 5.54309 5.24053
#
# Compressibility (1/GPa) = 0.03775326
#
# Stress axis : x y z
#
# Youngs Moduli (GPa) = 48.70194 120.24755 49.70216
#
# Poissons Ratio (x) = 0.11244 0.00458
# Poissons Ratio (y) = 0.04554 0.22767
# Poissons Ratio (z) = 0.00449 0.55082
#
# Static dielectric constant tensor:
#      x y z
#    x 1.908880 0.000000 0.000000 
#    y 0.000000 2.003210 0.000000 
#    z 0.000000 0.000000 2.102110 
# 
# From -- ./inp_files/1820.got.cif
#   From: 2010.05.17/outbox.cif.g08.bks.cpg/sg33_1_cif.got.tgz:1820.got - 2010.06.03 17:15:25.
