data_PCOD9344674
_publ_section_title
;
Structure prediction by ZEFSAII (Michael W. Deem and Ramdas Pophale) SiO2 
 PCOD9344674
Probable space group: P N A 21
;
_chemical_formula_sum "Si O2"
_cell_formula_units_Z 28
_cell_length_a 5.376363
_cell_length_b 28.811088
_cell_length_c 7.301859
_cell_angle_alpha 90.000000
_cell_angle_beta 90.000000
_cell_angle_gamma 90.000000
_cell_volume 1131.049690
_symmetry_space_group_name_H-M "P N A 21"
_symmetry_group_IT_number 33
_symmetry_cell_setting 'orthorhombic'
loop_
_space_group_symop_operation_xyz
x,y,z
-x,-y,1/2+z
1/2-x,1/2+y,1/2+z
1/2+x,1/2-y,z
loop_
_atom_site_type_symbol
_atom_site_label
_atom_site_fract_x
_atom_site_fract_y
_atom_site_fract_z
Si Si1 0.497378 0.937344 0.211590
Si Si2 0.852431 0.460383 0.108096
Si Si3 0.174924 0.234772 0.386369
Si Si4 0.362592 0.411971 0.234293
Si Si5 0.647468 0.364782 0.538098
Si Si6 0.595829 0.227447 0.800053
Si Si7 0.660512 0.636702 0.372779
O O1 0.661022 0.946879 0.394035
O O2 0.645198 0.903142 0.077830
O O3 0.257122 0.912160 0.295049
O O4 0.421060 0.985688 0.122655
O O5 0.587899 0.448497 0.199960
O O6 0.088391 0.432879 0.197929
O O7 0.409074 0.258517 0.292672
O O8 0.225063 0.180756 0.426844
O O9 0.121429 0.262031 0.580682
O O10 0.421047 0.388760 0.428291
O O11 0.405649 0.372354 0.080799
O O12 0.553088 0.347130 0.735308
O O13 0.342871 0.248188 0.872690
O O14 0.621126 0.173603 0.845637
#
# Coordination Sequence:
#
# PCOD9344674 Si02
#       7
#     4   4   4   4   4   4   4
#     4  11  25  42  72  97 133 184 220 285 337 406
#     4  11  26  47  66 100 140 167 236 277 338 400
#     4  10  20  36  62  96 127 167 220 269 322 400
#     4  11  28  45  65 103 135 175 225 285 326 415
#     4  12  24  42  73  94 135 182 221 273 346 394
#     4  10  19  36  64  93 127 170 217 268 325 398
#     4  11  24  44  68  97 135 177 225 271 344 395
#
# _framework density 24.755763999999999
#
# number of rings (size 3 to 8) (size 9 to 14) (size 15 to 20)
#    0.000    1.143    4.286    2.571    6.000    0.000 
#    0.000    1.429    0.000    0.000    0.000    0.000 
#    0.000    0.000    0.000    0.000    0.000    0.000 
#
# Total GULP energy -156761.864138 kJ/mol
# GULP energy per Si atom -5598.638005 kJ/mol
# Density = 2.469942 g / cm^3
# Si number density = 24.755764 Si / 1000 Ang^3
#
#
#
# Elastic Constant Matrix: (Units=GPa)
#
#
# Indices 1 2 3 4 5 6 
#
# 1 129.8335 25.6506 17.2974 0.0000 0.0000 0.0000
# 2 25.6506 112.0013 15.0385 0.0000 0.0000 0.0000
# 3 17.2974 15.0385 89.4157 0.0000 0.0000 0.0000
# 4 0.0000 0.0000 0.0000 5.1028 0.0000 0.0000
# 5 0.0000 0.0000 0.0000 0.0000 19.0538 0.0000
# 6 0.0000 0.0000 0.0000 0.0000 0.0000 35.2232
#
#
#
# Elastic Compliance Matrix: (Units=1/GPa)
#
#
# Indices 1 2 3 4 5 6 
#
# 1 0.008213 -0.001706 -0.001302 0.000000 0.000000 0.000000
# 2 -0.001706 0.009489 -0.001266 0.000000 0.000000 0.000000
# 3 -0.001302 -0.001266 0.011648 0.000000 0.000000 0.000000
# 4 0.000000 0.000000 0.000000 0.195969 0.000000 0.000000
# 5 0.000000 0.000000 0.000000 0.000000 0.052483 0.000000
# 6 0.000000 0.000000 0.000000 0.000000 0.000000 0.028390
#
#
# Mechanical properties :
#
#
# Convention : Reuss Voigt Hill
#
# Bulk Modulus (GPa) = 48.07062 49.69150 48.88106
# Shear Modulus (GPa) = 15.54367 30.09357 22.81862
#
# Velocity S-wave (km/s) = 2.50847 3.49035 3.03933
# Velocity P-wave (km/s) = 5.27731 6.02990 5.66612
#
# Compressibility (1/GPa) = 0.02080273
#
# Stress axis : x y z
#
# Youngs Moduli (GPa) = 121.76308 105.38331 85.84827
#
# Poissons Ratio (x) = 0.17979 0.11176
# Poissons Ratio (y) = 0.20774 0.10868
# Poissons Ratio (z) = 0.15851 0.13341
#
# Static dielectric constant tensor:
#      x y z
#    x 2.002260 0.000000 0.000000 
#    y 0.000000 1.930350 0.000000 
#    z 0.000000 0.000000 1.977520 
# 
# From -- ./inp_files/2803.got.cif
#   From: 2010.05.17/outbox.cif.g08.bks.cpg/sg33_2_cif.got.tgz:2803.got - 2010.06.03 17:15:25.
