data_PCOD9344501
_publ_section_title
;
Structure prediction by ZEFSAII (Michael W. Deem and Ramdas Pophale) SiO2 
 PCOD9344501
Probable space group: P N A 21
;
_chemical_formula_sum "Si O2"
_cell_formula_units_Z 32
_cell_length_a 15.840032
_cell_length_b 8.400908
_cell_length_c 11.665703
_cell_angle_alpha 90.000000
_cell_angle_beta 90.000000
_cell_angle_gamma 90.000000
_cell_volume 1552.362699
_symmetry_space_group_name_H-M "P N A 21"
_symmetry_group_IT_number 33
_symmetry_cell_setting 'orthorhombic'
loop_
_space_group_symop_operation_xyz
x,y,z
-x,-y,1/2+z
1/2-x,1/2+y,1/2+z
1/2+x,1/2-y,z
loop_
_atom_site_type_symbol
_atom_site_label
_atom_site_fract_x
_atom_site_fract_y
_atom_site_fract_z
Si Si1 0.003698 0.977660 0.167160
Si Si2 0.736232 0.908596 0.707717
Si Si3 0.839942 0.104011 0.279074
Si Si4 0.239306 0.834257 0.022398
Si Si5 0.824453 0.415157 0.706629
Si Si6 0.087665 0.155344 0.462792
Si Si7 0.652633 0.627505 0.337182
Si Si8 0.085414 0.272749 0.213846
O O1 0.923238 0.007016 0.248341
O O2 0.032188 0.157145 0.131497
O O3 0.082037 0.911918 0.239968
O O4 0.978128 0.860311 0.065281
O O5 0.661342 0.785904 0.731174
O O6 0.820217 0.800549 0.711027
O O7 0.736274 0.007658 0.591971
O O8 0.758663 0.041666 0.803927
O O9 0.815991 0.122430 0.412128
O O10 0.763369 0.008241 0.220252
O O11 0.327338 0.751602 0.989041
O O12 0.190055 0.710781 0.104767
O O13 0.836867 0.314744 0.824402
O O14 0.899754 0.542008 0.690485
O O15 0.054689 0.232615 0.343920
O O16 0.117467 0.971379 0.443354
#
# Coordination Sequence:
#
# PCOD9344501 Si02
#       8
#     4   4   4   4   4   4   4   4
#     4  10  21  36  59  85 116 153 201 241 286 357
#     4   8  18  34  56  79 112 149 188 231 297 344
#     4  11  20  37  58  91 111 146 210 250 277 353
#     4  11  19  35  63  86 114 156 194 246 298 344
#     4  10  20  38  60  84 115 158 196 238 304 357
#     4  10  18  37  62  79 114 163 191 230 311 343
#     4   9  20  38  57  80 122 157 188 244 301 361
#     4   9  20  41  55  80 124 152 190 246 300 359
#
# _framework density 20.613738999999999
#
# number of rings (size 3 to 8) (size 9 to 14) (size 15 to 20)
#    0.000    2.500    5.000    0.000    0.000    7.000 
#    2.250    1.250    2.750    0.000    0.000    0.000 
#    0.000    0.000    0.000    0.000    0.000    0.000 
#
# Total GULP energy -178211.722531 kJ/mol
# GULP energy per Si atom -5569.116329 kJ/mol
# Density = 2.056682 g / cm^3
# Si number density = 20.613739 Si / 1000 Ang^3
#
#
#
# Elastic Constant Matrix: (Units=GPa)
#
#
# Indices 1 2 3 4 5 6 
#
# 1 46.2978 4.7582 6.0048 0.0000 0.0000 0.0000
# 2 4.7582 64.2982 12.4401 0.0000 0.0000 0.0000
# 3 6.0048 12.4401 66.7583 0.0000 0.0000 0.0000
# 4 0.0000 0.0000 0.0000 25.7700 0.0000 0.0000
# 5 0.0000 0.0000 0.0000 0.0000 26.2222 0.0000
# 6 0.0000 0.0000 0.0000 0.0000 0.0000 17.8823
#
#
#
# Elastic Compliance Matrix: (Units=1/GPa)
#
#
# Indices 1 2 3 4 5 6 
#
# 1 0.021957 -0.001289 -0.001735 0.000000 0.000000 0.000000
# 2 -0.001289 0.016210 -0.002905 0.000000 0.000000 0.000000
# 3 -0.001735 -0.002905 0.015677 0.000000 0.000000 0.000000
# 4 0.000000 0.000000 0.000000 0.038805 0.000000 0.000000
# 5 0.000000 0.000000 0.000000 0.000000 0.038136 0.000000
# 6 0.000000 0.000000 0.000000 0.000000 0.000000 0.055921
#
#
# Mechanical properties :
#
#
# Convention : Reuss Voigt Hill
#
# Bulk Modulus (GPa) = 23.81737 24.86227 24.33982
# Shear Modulus (GPa) = 23.52302 24.25165 23.88733
#
# Velocity S-wave (km/s) = 3.38173 3.43371 3.40782
# Velocity P-wave (km/s) = 5.17951 5.27330 5.22661
#
# Compressibility (1/GPa) = 0.04198617
#
# Stress axis : x y z
#
# Youngs Moduli (GPa) = 45.54399 61.69060 63.78889
#
# Poissons Ratio (x) = 0.07953 0.11066
# Poissons Ratio (y) = 0.05872 0.18529
# Poissons Ratio (z) = 0.07901 0.17919
#
# Static dielectric constant tensor:
#      x y z
#    x 1.748830 0.000000 0.000000 
#    y 0.000000 1.812120 0.000000 
#    z 0.000000 0.000000 1.794870 
# 
# From -- ./inp_files/7044.got.cif
#   From: 2010.05.17/outbox.cif.g08.bks.cpg/sg33_4_cif.got.tgz:7044.got - 2010.06.03 17:15:25.
