data_PCOD9344818
_publ_section_title
;
Structure prediction by ZEFSAII (Michael W. Deem and Ramdas Pophale) SiO2 
 PCOD9344818
Probable space group: P N A 21
;
_chemical_formula_sum "Si O2"
_cell_formula_units_Z 32
_cell_length_a 9.086745
_cell_length_b 13.049257
_cell_length_c 13.832399
_cell_angle_alpha 90.000000
_cell_angle_beta 90.000000
_cell_angle_gamma 90.000000
_cell_volume 1640.180457
_symmetry_space_group_name_H-M "P N A 21"
_symmetry_group_IT_number 33
_symmetry_cell_setting 'orthorhombic'
loop_
_space_group_symop_operation_xyz
x,y,z
-x,-y,1/2+z
1/2-x,1/2+y,1/2+z
1/2+x,1/2-y,z
loop_
_atom_site_type_symbol
_atom_site_label
_atom_site_fract_x
_atom_site_fract_y
_atom_site_fract_z
Si Si1 0.812552 0.215573 0.729340
Si Si2 0.636624 0.561454 0.397872
Si Si3 0.890880 0.861200 0.154097
Si Si4 0.671043 0.082967 0.563563
Si Si5 0.967117 0.861084 0.780641
Si Si6 0.230184 0.777205 0.883216
Si Si7 0.346999 0.089984 0.495623
Si Si8 0.938031 0.939640 0.584380
O O1 0.836460 0.159679 0.830939
O O2 0.728025 0.324153 0.733749
O O3 0.709878 0.144336 0.661351
O O4 0.968008 0.212242 0.671576
O O5 0.577661 0.469991 0.328794
O O6 0.782191 0.511536 0.445599
O O7 0.522044 0.581605 0.484695
O O8 0.786529 0.862472 0.059883
O O9 0.968465 0.970667 0.139998
O O10 0.727217 0.150359 0.472661
O O11 0.497408 0.066932 0.551122
O O12 0.775469 0.983515 0.565581
O O13 0.867103 0.778042 0.834495
O O14 0.936024 0.854717 0.666863
O O15 0.135415 0.840806 0.807045
O O16 0.130079 0.682508 0.921115
#
# Coordination Sequence:
#
# PCOD9344818 Si02
#       8
#     4   4   4   4   4   4   4   4
#     4  11  21  35  58  91 122 160 197 262 314 367
#     4  10  21  39  59  86 126 158 204 251 320 375
#     4  10  20  34  57  88 118 157 202 250 311 362
#     4  11  19  33  58  94 114 153 200 261 315 357
#     4  11  21  40  60  92 120 162 209 252 316 360
#     4  11  21  33  61  89 121 152 204 260 302 374
#     4  10  21  34  57  91 120 150 200 262 305 359
#     4  10  22  40  62  85 125 168 202 256 315 382
#
# _framework density 19.510047
#
# number of rings (size 3 to 8) (size 9 to 14) (size 15 to 20)
#    0.000    1.500    6.250    0.750    3.500    0.000 
#    0.000   10.000    0.000    0.000    0.000    0.000 
#    0.000    0.000    0.000    0.000    0.000    0.000 
#
# Total GULP energy -178261.760817 kJ/mol
# GULP energy per Si atom -5570.680026 kJ/mol
# Density = 1.946564 g / cm^3
# Si number density = 19.510047 Si / 1000 Ang^3
#
#
#
# Elastic Constant Matrix: (Units=GPa)
#
#
# Indices 1 2 3 4 5 6 
#
# 1 101.8801 13.9825 43.3341 0.0000 0.0000 0.0000
# 2 13.9825 17.3148 9.7039 0.0000 0.0000 0.0000
# 3 43.3341 9.7039 97.4759 0.0000 0.0000 0.0000
# 4 0.0000 0.0000 0.0000 30.9573 0.0000 0.0000
# 5 0.0000 0.0000 0.0000 0.0000 18.1571 0.0000
# 6 0.0000 0.0000 0.0000 0.0000 0.0000 9.6555
#
#
#
# Elastic Compliance Matrix: (Units=1/GPa)
#
#
# Indices 1 2 3 4 5 6 
#
# 1 0.013004 -0.007691 -0.005016 0.000000 0.000000 0.000000
# 2 -0.007691 0.065715 -0.003123 0.000000 0.000000 0.000000
# 3 -0.005016 -0.003123 0.012800 0.000000 0.000000 0.000000
# 4 0.000000 0.000000 0.000000 0.032303 0.000000 0.000000
# 5 0.000000 0.000000 0.000000 0.000000 0.055075 0.000000
# 6 0.000000 0.000000 0.000000 0.000000 0.000000 0.103568
#
#
# Mechanical properties :
#
#
# Convention : Reuss Voigt Hill
#
# Bulk Modulus (GPa) = 16.70562 38.96799 27.83681
# Shear Modulus (GPa) = 14.96663 21.73065 18.34864
#
# Velocity S-wave (km/s) = 2.77271 3.34101 3.07004
# Velocity P-wave (km/s) = 4.33955 5.90761 5.18322
#
# Compressibility (1/GPa) = 0.05986008
#
# Stress axis : x y z
#
# Youngs Moduli (GPa) = 76.89755 15.21728 78.12739
#
# Poissons Ratio (x) = 0.11703 0.39186
# Poissons Ratio (y) = 0.59139 0.24400
# Poissons Ratio (z) = 0.38569 0.04752
#
# Static dielectric constant tensor:
#      x y z
#    x 1.698140 0.000000 0.000000 
#    y 0.000000 1.727470 0.000000 
#    z 0.000000 0.000000 1.708940 
# 
# From -- ./inp_files/5988.got.cif
#   From: 2010.05.17/outbox.cif.g08.bks.cpg/sg33_3_cif.got.tgz:5988.got - 2010.06.03 17:15:25.
