data_PCOD9344077
_publ_section_title
;
Structure prediction by ZEFSAII (Michael W. Deem and Ramdas Pophale) SiO2 
 PCOD9344077
Probable space group: P B A 2
;
_chemical_formula_sum "Si O2"
_cell_formula_units_Z 24
_cell_length_a 12.630972
_cell_length_b 14.562003
_cell_length_c 5.063756
_cell_angle_alpha 90.000000
_cell_angle_beta 90.000000
_cell_angle_gamma 90.000000
_cell_volume 931.388045
_symmetry_space_group_name_H-M "P B A 2"
_symmetry_group_IT_number 32
_symmetry_cell_setting 'orthorhombic'
loop_
_space_group_symop_operation_xyz
x,y,z
-x,-y,z
1/2-x,1/2+y,z
1/2+x,1/2-y,z
loop_
_atom_site_type_symbol
_atom_site_label
_atom_site_fract_x
_atom_site_fract_y
_atom_site_fract_z
Si Si1 0.672330 0.362215 0.247850
Si Si2 0.500000 0.500000 0.802897
Si Si3 0.500000 0.000000 0.356317
Si Si4 0.129072 0.640483 0.626261
Si Si5 0.710130 0.713125 0.991063
Si Si6 0.293006 0.981106 0.000686
Si Si7 0.550711 0.613109 0.325953
O O1 0.777453 0.346768 0.418647
O O2 0.692708 0.283747 0.031541
O O3 0.564641 0.347719 0.407996
O O4 0.693372 0.465282 0.133636
O O5 0.576601 0.543673 0.569038
O O6 0.512088 0.579551 0.029040
O O7 0.523925 0.903652 0.504858
O O8 0.393785 0.978406 0.192909
O O9 0.170465 0.552595 0.785786
O O10 0.127962 0.729415 0.811853
O O11 0.645956 0.679431 0.252295
O O12 0.759831 0.617575 0.897183
#
# Coordination Sequence:
#
# PCOD9344077 Si02
#       7
#     4   2   2   4   4   4   4
#     4  10  25  44  67 107 145 193 248 317 373 458
#     4  10  24  44  72 106 132 200 242 302 384 456
#     4  10  22  44  72 104 146 202 248 322 384 458
#     4  10  24  44  74 107 148 195 260 309 381 470
#     4  11  26  45  71 111 145 202 255 315 380 463
#     4  10  22  45  71 100 148 194 251 309 388 446
#     4  11  25  45  75 103 151 189 254 315 381 451
#
# _framework density 25.767994999999999
#
# number of rings (size 3 to 8) (size 9 to 14) (size 15 to 20)
#    0.000    1.667    0.000    2.500    9.333    8.000 
#    0.000    1.667    0.000    0.000    0.000    0.000 
#    0.000    0.000    0.000    0.000    0.000    0.000 
#
# Total GULP energy -133682.858460 kJ/mol
# GULP energy per Si atom -5570.119103 kJ/mol
# Density = 2.570935 g / cm^3
# Si number density = 25.767995 Si / 1000 Ang^3
#
#
#
# Elastic Constant Matrix: (Units=GPa)
#
#
# Indices 1 2 3 4 5 6 
#
# 1 80.8159 28.6827 -4.7992 0.0000 0.0000 0.0000
# 2 28.6827 185.6713 45.2800 0.0000 0.0000 0.0000
# 3 -4.7992 45.2800 87.6615 0.0000 0.0000 0.0000
# 4 0.0000 0.0000 0.0000 99.0593 0.0000 0.0000
# 5 0.0000 0.0000 0.0000 0.0000 50.4203 0.0000
# 6 0.0000 0.0000 0.0000 0.0000 0.0000 24.0365
#
#
#
# Elastic Compliance Matrix: (Units=1/GPa)
#
#
# Indices 1 2 3 4 5 6 
#
# 1 0.013410 -0.002575 0.002064 0.000000 0.000000 0.000000
# 2 -0.002575 0.006657 -0.003579 0.000000 0.000000 0.000000
# 3 0.002064 -0.003579 0.013369 0.000000 0.000000 0.000000
# 4 0.000000 0.000000 0.000000 0.010095 0.000000 0.000000
# 5 0.000000 0.000000 0.000000 0.000000 0.019833 0.000000
# 6 0.000000 0.000000 0.000000 0.000000 0.000000 0.041603
#
#
# Mechanical properties :
#
#
# Convention : Reuss Voigt Hill
#
# Bulk Modulus (GPa) = 39.59445 54.71950 47.15698
# Shear Modulus (GPa) = 41.12970 53.70225 47.41597
#
# Velocity S-wave (km/s) = 3.99952 4.57011 4.29431
# Velocity P-wave (km/s) = 6.06031 7.00924 6.55198
#
# Compressibility (1/GPa) = 0.02525606
#
# Stress axis : x y z
#
# Youngs Moduli (GPa) = 74.56946 150.22793 74.79791
#
# Poissons Ratio (x) = 0.38685 -0.15440
# Poissons Ratio (y) = 0.19202 0.26772
# Poissons Ratio (z) = -0.15393 0.53771
#
# Static dielectric constant tensor:
#      x y z
#    x 2.193580 0.000000 0.000000 
#    y 0.000000 1.545970 0.000000 
#    z 0.000000 0.000000 2.216860 
# 
# From -- ./inp_files/1198.got.cif
#   From: 2010.05.17/outbox.cif.g08.bks.cpg/sg32_1_cif.got.tgz:1198.got - 2010.06.03 17:12:27.
