data_PCOD9344380
_publ_section_title
;
Structure prediction by ZEFSAII (Michael W. Deem and Ramdas Pophale) SiO2 
 PCOD9344380
Probable space group: P N A 21
;
_chemical_formula_sum "Si O2"
_cell_formula_units_Z 24
_cell_length_a 5.393558
_cell_length_b 24.393260
_cell_length_c 7.065670
_cell_angle_alpha 90.000000
_cell_angle_beta 90.000000
_cell_angle_gamma 90.000000
_cell_volume 929.605208
_symmetry_space_group_name_H-M "P N A 21"
_symmetry_group_IT_number 33
_symmetry_cell_setting 'orthorhombic'
loop_
_space_group_symop_operation_xyz
x,y,z
-x,-y,1/2+z
1/2-x,1/2+y,1/2+z
1/2+x,1/2-y,z
loop_
_atom_site_type_symbol
_atom_site_label
_atom_site_fract_x
_atom_site_fract_y
_atom_site_fract_z
Si Si1 0.548326 0.892161 0.710770
Si Si2 0.547690 0.563350 0.706313
Si Si3 0.811356 0.266598 0.160452
Si Si4 0.223613 0.775818 0.086742
Si Si5 0.045719 0.061895 0.651631
Si Si6 0.952570 0.605707 0.148318
O O1 0.771403 0.927929 0.625906
O O2 0.647121 0.830187 0.704025
O O3 0.502851 0.909599 0.928501
O O4 0.270249 0.898469 0.631948
O O5 0.625603 0.500766 0.676795
O O6 0.502789 0.574734 0.929677
O O7 0.553920 0.255682 0.058993
O O8 0.790408 0.231856 0.357011
O O9 0.438776 0.732856 0.143682
O O10 0.339285 0.833590 0.144037
O O11 0.269989 0.099422 0.727120
O O12 0.768304 0.069071 0.733133
#
# Coordination Sequence:
#
# PCOD9344380 Si02
#       6
#     4   4   4   4   4   4
#     4  10  18  29  46  69  98 136 154 199 249 301
#     4  10  21  34  50  69  98 132 171 208 244 285
#     4  10  17  24  41  66 103 129 150 184 254 315
#     4  10  17  24  41  66 103 129 150 184 254 315
#     4  10  21  34  50  69  98 132 171 208 244 285
#     4  10  18  29  46  69  98 136 154 199 249 301
#
# _framework density 25.817415
#
# number of rings (size 3 to 8) (size 9 to 14) (size 15 to 20)
#    0.000    2.000    3.333    3.000    9.333    0.000 
#    0.000    0.000    0.000    0.000    0.000    0.000 
#    0.000   26.667    0.000    0.000    0.000    0.000 
#
# Total GULP energy -134063.151737 kJ/mol
# GULP energy per Si atom -5585.964656 kJ/mol
# Density = 2.575865 g / cm^3
# Si number density = 25.817415 Si / 1000 Ang^3
#
#
#
# Elastic Constant Matrix: (Units=GPa)
#
#
# Indices 1 2 3 4 5 6 
#
# 1 213.5094 19.4074 -16.0472 0.0000 0.0000 0.0000
# 2 19.4074 80.2404 -38.1685 0.0000 0.0000 0.0000
# 3 -16.0472 -38.1685 96.4707 0.0000 0.0000 0.0000
# 4 0.0000 0.0000 0.0000 0.1726 0.0000 0.0000
# 5 0.0000 0.0000 0.0000 0.0000 -27.2443 0.0000
# 6 0.0000 0.0000 0.0000 0.0000 0.0000 55.2148
#
#
#
# Elastic Compliance Matrix: (Units=1/GPa)
#
#
# Indices 1 2 3 4 5 6 
#
# 1 0.004803 -0.000963 0.000418 0.000000 0.000000 0.000000
# 2 -0.000963 0.015545 0.005990 0.000000 0.000000 0.000000
# 3 0.000418 0.005990 0.012805 0.000000 0.000000 0.000000
# 4 0.000000 0.000000 0.000000 5.793321 0.000000 0.000000
# 5 0.000000 0.000000 0.000000 0.000000 -0.036705 0.000000
# 6 0.000000 0.000000 0.000000 0.000000 0.000000 0.018111
#
#
# Mechanical properties :
#
#
# Convention : Reuss Voigt Hill
#
# Bulk Modulus (GPa) = 22.70493 35.62266 29.16379
# Shear Modulus (GPa) = 0.86034 33.96388 17.41211
#
# Velocity S-wave (km/s) = 0.57790 3.63097 2.59980
# Velocity P-wave (km/s) = 3.04283 5.60415 4.50917
#
# Compressibility (1/GPa) = 0.04404330
#
# Stress axis : x y z
#
# Youngs Moduli (GPa) = 208.22226 64.33032 78.09234
#
# Poissons Ratio (x) = 0.06193 -0.03264
# Poissons Ratio (y) = 0.20047 -0.46778
# Poissons Ratio (z) = -0.08703 -0.38535
#
# Static dielectric constant tensor:
#      x y z
#    x 2.140870 0.000000 0.000000 
#    y 0.000000 1.955510 0.000000 
#    z 0.000000 0.000000 2.072480 
# 
# From -- ./inp_files/5501.got.cif
#   From: 2010.05.17/outbox.cif.g08.bks.cpg/sg33_3_cif.got.tgz:5501.got - 2010.06.03 17:15:25.
