data_PCOD9344172
_publ_section_title
;
Structure prediction by ZEFSAII (Michael W. Deem and Ramdas Pophale) SiO2 
 PCOD9344172
Probable space group: P B A 2
;
_chemical_formula_sum "Si O2"
_cell_formula_units_Z 26
_cell_length_a 22.374044
_cell_length_b 8.910971
_cell_length_c 5.207554
_cell_angle_alpha 90.000000
_cell_angle_beta 90.000000
_cell_angle_gamma 90.000000
_cell_volume 1038.253252
_symmetry_space_group_name_H-M "P B A 2"
_symmetry_group_IT_number 32
_symmetry_cell_setting 'orthorhombic'
loop_
_space_group_symop_operation_xyz
x,y,z
-x,-y,z
1/2-x,1/2+y,z
1/2+x,1/2-y,z
loop_
_atom_site_type_symbol
_atom_site_label
_atom_site_fract_x
_atom_site_fract_y
_atom_site_fract_z
Si Si1 0.550039 0.250239 0.401610
Si Si2 0.235042 0.342879 0.479407
Si Si3 0.185444 0.607959 0.781029
Si Si4 0.444078 0.248291 0.760042
Si Si5 0.405116 0.578642 0.896878
Si Si6 0.500000 0.000000 0.133761
Si Si7 0.215021 0.081446 0.146120
O O1 0.480596 0.261044 0.494252
O O2 0.570234 0.350688 0.161533
O O3 0.583068 0.311416 0.656229
O O4 0.551562 0.076491 0.309268
O O5 0.192503 0.450791 0.637655
O O6 0.268431 0.225677 0.658507
O O7 0.201654 0.241311 0.271541
O O8 0.285327 0.445350 0.344690
O O9 0.120870 0.675304 0.752025
O O10 0.215641 0.585591 0.058549
O O11 0.436114 0.418470 0.854546
O O12 0.479190 0.135520 0.949881
O O13 0.334124 0.552938 0.931211
#
# Coordination Sequence:
#
# PCOD9344172 Si02
#       7
#     4   4   4   4   4   2   4
#     4  12  30  53  79 120 158 217 274 336 406 489
#     4  10  24  45  76 117 155 201 262 331 411 487
#     4  11  25  49  79 115 160 207 266 339 413 498
#     4  12  29  53  82 118 167 218 276 344 414 500
#     4  12  30  51  89 112 162 216 279 338 408 502
#     4  12  30  54  76 120 160 212 272 344 412 480
#     4  11  25  48  74 118 152 207 269 331 416 488
#
# _framework density 25.042059999999999
#
# number of rings (size 3 to 8) (size 9 to 14) (size 15 to 20)
#    0.000    0.615    1.538    3.692   10.769    7.385 
#    0.000    0.000    0.000    0.000    0.000    0.000 
#    0.000    0.000    0.000    0.000    0.000    0.000 
#
# Total GULP energy -145682.719374 kJ/mol
# GULP energy per Si atom -5603.181514 kJ/mol
# Density = 2.498506 g / cm^3
# Si number density = 25.042060 Si / 1000 Ang^3
#
#
#
# Elastic Constant Matrix: (Units=GPa)
#
#
# Indices 1 2 3 4 5 6 
#
# 1 96.6289 21.0029 19.2401 0.0000 0.0000 0.0000
# 2 21.0029 150.5085 47.8805 0.0000 0.0000 0.0000
# 3 19.2401 47.8805 124.9979 0.0000 0.0000 0.0000
# 4 0.0000 0.0000 0.0000 38.4335 0.0000 0.0000
# 5 0.0000 0.0000 0.0000 0.0000 33.3943 0.0000
# 6 0.0000 0.0000 0.0000 0.0000 0.0000 31.6267
#
#
#
# Elastic Compliance Matrix: (Units=1/GPa)
#
#
# Indices 1 2 3 4 5 6 
#
# 1 0.010839 -0.001118 -0.001240 0.000000 0.000000 0.000000
# 2 -0.001118 0.007681 -0.002770 0.000000 0.000000 0.000000
# 3 -0.001240 -0.002770 0.009252 0.000000 0.000000 0.000000
# 4 0.000000 0.000000 0.000000 0.026019 0.000000 0.000000
# 5 0.000000 0.000000 0.000000 0.000000 0.029945 0.000000
# 6 0.000000 0.000000 0.000000 0.000000 0.000000 0.031619
#
#
# Mechanical properties :
#
#
# Convention : Reuss Voigt Hill
#
# Bulk Modulus (GPa) = 57.09186 60.93138 59.01162
# Shear Modulus (GPa) = 38.03705 39.62503 38.83104
#
# Velocity S-wave (km/s) = 3.90157 3.98218 3.94208
# Velocity P-wave (km/s) = 6.56842 6.74745 6.65854
#
# Compressibility (1/GPa) = 0.01751563
#
# Stress axis : x y z
#
# Youngs Moduli (GPa) = 92.26116 130.18369 108.08270
#
# Poissons Ratio (x) = 0.14555 0.13403
# Poissons Ratio (y) = 0.10315 0.29942
# Poissons Ratio (z) = 0.11441 0.36065
#
# Static dielectric constant tensor:
#      x y z
#    x 2.023750 0.000000 0.000000 
#    y 0.000000 1.940270 0.000000 
#    z 0.000000 0.000000 2.027600 
# 
# From -- ./inp_files/525.got.cif
#   From: 2010.05.17/outbox.cif.g08.bks.cpg/sg32_1_cif.got.tgz:525.got - 2010.06.03 17:12:27.
