data_PCOD9344654
_publ_section_title
;
Structure prediction by ZEFSAII (Michael W. Deem and Ramdas Pophale) SiO2 
 PCOD9344654
Probable space group: P N A 21
;
_chemical_formula_sum "Si O2"
_cell_formula_units_Z 32
_cell_length_a 8.974005
_cell_length_b 16.332837
_cell_length_c 11.488122
_cell_angle_alpha 90.000000
_cell_angle_beta 90.000000
_cell_angle_gamma 90.000000
_cell_volume 1683.825081
_symmetry_space_group_name_H-M "P N A 21"
_symmetry_group_IT_number 33
_symmetry_cell_setting 'orthorhombic'
loop_
_space_group_symop_operation_xyz
x,y,z
-x,-y,1/2+z
1/2-x,1/2+y,1/2+z
1/2+x,1/2-y,z
loop_
_atom_site_type_symbol
_atom_site_label
_atom_site_fract_x
_atom_site_fract_y
_atom_site_fract_z
Si Si1 0.745056 0.195002 0.638700
Si Si2 0.766189 0.377540 0.556155
Si Si3 0.743650 0.447528 0.157727
Si Si4 0.363363 0.187712 0.308360
Si Si5 0.794822 0.652135 0.866835
Si Si6 0.505179 0.428403 0.699312
Si Si7 0.749667 0.462412 0.880711
Si Si8 0.487719 0.920043 0.221930
O O1 0.761720 0.291811 0.627880
O O2 0.709915 0.165485 0.506646
O O3 0.890445 0.146717 0.682666
O O4 0.607334 0.163001 0.714519
O O5 0.790429 0.354116 0.423308
O O6 0.615568 0.424353 0.588135
O O7 0.906297 0.425219 0.608473
O O8 0.785807 0.357716 0.201155
O O9 0.590278 0.488468 0.200814
O O10 0.871252 0.506196 0.212305
O O11 0.742226 0.454229 0.018640
O O12 0.321509 0.282986 0.314701
O O13 0.540018 0.172934 0.319869
O O14 0.755009 0.558240 0.846065
O O15 0.610928 0.423479 0.811649
O O16 0.902941 0.425493 0.830671
#
# Coordination Sequence:
#
# PCOD9344654 Si02
#       8
#     4   4   4   4   4   4   4   4
#     4  10  19  36  60  94 119 146 200 272 309 366
#     4  10  20  35  63  93 119 148 202 266 319 361
#     4  11  23  39  61  88 132 159 208 253 319 379
#     4  11  24  37  65  93 122 162 199 272 325 371
#     4  11  22  38  63  93 124 155 207 260 323 368
#     4  10  23  34  59  92 120 162 203 254 312 368
#     4  11  22  40  61  87 129 165 208 257 307 388
#     4  10  19  37  60  86 117 163 199 252 314 377
#
# _framework density 19.004349000000001
#
# number of rings (size 3 to 8) (size 9 to 14) (size 15 to 20)
#    0.000    1.500    5.000    0.750    8.750    0.000 
#    0.000    0.000   11.000    0.000    0.000    0.000 
#    0.000    0.000    0.000    0.000    0.000    0.000 
#
# Total GULP energy -178673.032244 kJ/mol
# GULP energy per Si atom -5583.532258 kJ/mol
# Density = 1.896109 g / cm^3
# Si number density = 19.004349 Si / 1000 Ang^3
#
#
#
# Elastic Constant Matrix: (Units=GPa)
#
#
# Indices 1 2 3 4 5 6 
#
# 1 103.3562 12.2037 19.8777 0.0000 0.0000 0.0000
# 2 12.2037 60.1606 0.7044 0.0000 0.0000 0.0000
# 3 19.8777 0.7044 48.4183 0.0000 0.0000 0.0000
# 4 0.0000 0.0000 0.0000 28.9954 0.0000 0.0000
# 5 0.0000 0.0000 0.0000 0.0000 15.5502 0.0000
# 6 0.0000 0.0000 0.0000 0.0000 0.0000 16.2699
#
#
#
# Elastic Compliance Matrix: (Units=1/GPa)
#
#
# Indices 1 2 3 4 5 6 
#
# 1 0.010772 -0.002134 -0.004391 0.000000 0.000000 0.000000
# 2 -0.002134 0.017048 0.000628 0.000000 0.000000 0.000000
# 3 -0.004391 0.000628 0.022447 0.000000 0.000000 0.000000
# 4 0.000000 0.000000 0.000000 0.034488 0.000000 0.000000
# 5 0.000000 0.000000 0.000000 0.000000 0.064308 0.000000
# 6 0.000000 0.000000 0.000000 0.000000 0.000000 0.061463
#
#
# Mechanical properties :
#
#
# Convention : Reuss Voigt Hill
#
# Bulk Modulus (GPa) = 25.99256 30.83407 28.41332
# Shear Modulus (GPa) = 21.26360 24.10638 22.68499
#
# Velocity S-wave (km/s) = 3.34860 3.56542 3.45871
# Velocity P-wave (km/s) = 5.35328 5.76277 5.56180
#
# Compressibility (1/GPa) = 0.03847255
#
# Stress axis : x y z
#
# Youngs Moduli (GPa) = 92.83554 58.65911 44.54936
#
# Poissons Ratio (x) = 0.12516 0.19563
# Poissons Ratio (y) = 0.19808 -0.02797
# Poissons Ratio (z) = 0.40766 -0.03683
#
# Static dielectric constant tensor:
#      x y z
#    x 1.690140 0.000000 0.000000 
#    y 0.000000 1.669360 0.000000 
#    z 0.000000 0.000000 1.629850 
# 
# From -- ./inp_files/6088.got.cif
#   From: 2010.05.17/outbox.cif.g08.bks.cpg/sg33_4_cif.got.tgz:6088.got - 2010.06.03 17:15:25.
