data_PCOD9344348
_publ_section_title
;
Structure prediction by ZEFSAII (Michael W. Deem and Ramdas Pophale) SiO2 
 PCOD9344348
Probable space group: P N A 21
;
_chemical_formula_sum "Si O2"
_cell_formula_units_Z 32
_cell_length_a 6.928357
_cell_length_b 32.183552
_cell_length_c 5.407850
_cell_angle_alpha 90.000000
_cell_angle_beta 90.000000
_cell_angle_gamma 90.000000
_cell_volume 1205.837730
_symmetry_space_group_name_H-M "P N A 21"
_symmetry_group_IT_number 33
_symmetry_cell_setting 'orthorhombic'
loop_
_space_group_symop_operation_xyz
x,y,z
-x,-y,1/2+z
1/2-x,1/2+y,1/2+z
1/2+x,1/2-y,z
loop_
_atom_site_type_symbol
_atom_site_label
_atom_site_fract_x
_atom_site_fract_y
_atom_site_fract_z
Si Si1 0.021741 0.648557 0.957570
Si Si2 0.587982 0.813227 0.443268
Si Si3 0.234570 0.471561 0.178078
Si Si4 0.416947 0.595639 0.706722
Si Si5 0.600673 0.680875 0.903706
Si Si6 0.137634 0.066581 0.693361
Si Si7 0.149170 0.781835 0.417930
Si Si8 0.173409 0.435037 0.667019
O O1 0.122046 0.658884 0.691005
O O2 0.831665 0.677632 0.926180
O O3 0.143594 0.664322 0.188992
O O4 0.918292 0.607172 0.068228
O O5 0.356157 0.804918 0.432704
O O6 0.674831 0.767373 0.414767
O O7 0.425255 0.442116 0.195732
O O8 0.306146 0.518657 0.167442
O O9 0.132707 0.466458 0.442700
O O10 0.124261 0.453640 0.936909
O O11 0.530931 0.636909 0.786318
O O12 0.309806 0.588614 0.448378
O O13 0.284568 0.587564 0.944416
O O14 0.545497 0.711031 0.680765
O O15 0.548461 0.698198 0.175266
O O16 0.904809 0.071138 0.686939
#
# Coordination Sequence:
#
# PCOD9344348 Si02
#       8
#     4   4   4   4   4   4   4   4
#     4  10  18  29  46  65  85 117 155 204 225 278
#     4  10  21  34  50  69  92 117 155 200 248 291
#     4  10  17  23  34  53  85 118 157 190 216 260
#     4  10  16  24  36  53  79 110 158 189 214 256
#     4  10  18  29  46  65  85 117 155 204 225 278
#     4  10  17  23  34  53  85 118 157 190 216 260
#     4  10  21  34  50  69  92 117 155 200 248 291
#     4  10  16  24  36  53  79 110 158 189 214 256
#
# _framework density 26.537565000000001
#
# number of rings (size 3 to 8) (size 9 to 14) (size 15 to 20)
#    0.000    2.000    2.500    6.000    7.000    0.000 
#    0.000    0.000    0.000    0.000    0.000    0.000 
#    0.000    0.000    0.000    0.000    0.000  112.500 
#
# Total GULP energy -178769.156270 kJ/mol
# GULP energy per Si atom -5586.536133 kJ/mol
# Density = 2.647716 g / cm^3
# Si number density = 26.537565 Si / 1000 Ang^3
#
#
#
# Elastic Constant Matrix: (Units=GPa)
#
#
# Indices 1 2 3 4 5 6 
#
# 1 86.2188 6.1583 24.9205 0.0000 0.0000 0.0000
# 2 6.1583 94.0513 59.6853 0.0000 0.0000 0.0000
# 3 24.9205 59.6853 284.0979 0.0000 0.0000 0.0000
# 4 0.0000 0.0000 0.0000 45.2450 0.0000 0.0000
# 5 0.0000 0.0000 0.0000 0.0000 -37.7955 0.0000
# 6 0.0000 0.0000 0.0000 0.0000 0.0000 22.9411
#
#
#
# Elastic Compliance Matrix: (Units=1/GPa)
#
#
# Indices 1 2 3 4 5 6 
#
# 1 0.011902 -0.000135 -0.001016 0.000000 0.000000 0.000000
# 2 -0.000135 0.012270 -0.002566 0.000000 0.000000 0.000000
# 3 -0.001016 -0.002566 0.004148 0.000000 0.000000 0.000000
# 4 0.000000 0.000000 0.000000 0.022102 0.000000 0.000000
# 5 0.000000 0.000000 0.000000 0.000000 -0.026458 0.000000
# 6 0.000000 0.000000 0.000000 0.000000 0.000000 0.043590
#
#
# Mechanical properties :
#
#
# Convention : Reuss Voigt Hill
#
# Bulk Modulus (GPa) = 47.87734 71.76624 59.82179
# Shear Modulus (GPa) = 61.01447 30.98503 45.99975
#
# Velocity S-wave (km/s) = 4.80017 3.42071 4.16791
# Velocity P-wave (km/s) = 6.98589 6.53480 6.76411
#
# Compressibility (1/GPa) = 0.02088671
#
# Stress axis : x y z
#
# Youngs Moduli (GPa) = 84.02233 81.50204 241.07630
#
# Poissons Ratio (x) = 0.01098 0.24486
# Poissons Ratio (y) = 0.01132 0.61857
# Poissons Ratio (z) = 0.08534 0.20912
#
# Static dielectric constant tensor:
#      x y z
#    x 2.183860 0.000000 0.000000 
#    y 0.000000 2.406870 0.000000 
#    z 0.000000 0.000000 2.166240 
# 
# From -- ./inp_files/1180.got.cif
#   From: 2010.05.17/outbox.cif.g08.bks.cpg/sg33_1_cif.got.tgz:1180.got - 2010.06.03 17:15:25.
