data_PCOD9344318
_publ_section_title
;
Structure prediction by ZEFSAII (Michael W. Deem and Ramdas Pophale) SiO2 
 PCOD9344318
Probable space group: P B A 2
;
_chemical_formula_sum "Si O2"
_cell_formula_units_Z 18
_cell_length_a 8.384671
_cell_length_b 9.664147
_cell_length_c 8.889492
_cell_angle_alpha 90.000000
_cell_angle_beta 90.000000
_cell_angle_gamma 90.000000
_cell_volume 720.321698
_symmetry_space_group_name_H-M "P B A 2"
_symmetry_group_IT_number 32
_symmetry_cell_setting 'orthorhombic'
loop_
_space_group_symop_operation_xyz
x,y,z
-x,-y,z
1/2-x,1/2+y,z
1/2+x,1/2-y,z
loop_
_atom_site_type_symbol
_atom_site_label
_atom_site_fract_x
_atom_site_fract_y
_atom_site_fract_z
Si Si1 0.825961 0.565616 0.549560
Si Si2 0.500000 0.500000 0.681208
Si Si3 0.055273 0.274064 0.838185
Si Si4 0.157734 0.907105 0.247639
Si Si5 0.311636 0.146847 0.054582
O O1 0.668417 0.475719 0.595230
O O2 0.759572 0.630240 0.395560
O O3 0.000000 0.500000 0.517782
O O4 0.862408 0.661453 0.692609
O O5 0.528012 0.634050 0.781498
O O6 0.926656 0.373402 0.913216
O O7 0.166156 0.222902 0.972490
O O8 0.260756 0.008381 0.139690
O O9 0.119343 0.761839 0.168422
O O10 0.000000 0.000000 0.280149
#
# Coordination Sequence:
#
# PCOD9344318 Si02
#       5
#     4   2   4   4   4
#     4  12  30  48  80 119 163 215 278 333 423 492
#     4  12  26  52  78 114 168 204 272 342 408 478
#     4  12  26  49  82 113 158 211 278 340 405 500
#     4  12  29  53  78 117 169 219 269 350 418 501
#     4  12  27  49  82 115 160 213 279 334 418 491
#
# _framework density 24.988835999999999
#
# number of rings (size 3 to 8) (size 9 to 14) (size 15 to 20)
#    0.000    0.000    5.556    2.667    9.333    0.000 
#    0.000    0.000    0.000    0.000    0.000    0.000 
#    0.000    0.000    0.000    0.000    0.000    0.000 
#
# Total GULP energy -100693.471778 kJ/mol
# GULP energy per Si atom -5594.081765 kJ/mol
# Density = 2.493196 g / cm^3
# Si number density = 24.988836 Si / 1000 Ang^3
#
#
#
# Elastic Constant Matrix: (Units=GPa)
#
#
# Indices 1 2 3 4 5 6 
#
# 1 139.0482 30.1661 50.9705 0.0000 0.0000 0.0000
# 2 30.1661 88.5044 40.8792 0.0000 0.0000 0.0000
# 3 50.9705 40.8792 150.3938 0.0000 0.0000 0.0000
# 4 0.0000 0.0000 0.0000 37.6826 0.0000 0.0000
# 5 0.0000 0.0000 0.0000 0.0000 25.3034 0.0000
# 6 0.0000 0.0000 0.0000 0.0000 0.0000 29.7203
#
#
#
# Elastic Compliance Matrix: (Units=1/GPa)
#
#
# Indices 1 2 3 4 5 6 
#
# 1 0.008451 -0.001781 -0.002380 0.000000 0.000000 0.000000
# 2 -0.001781 0.013296 -0.003011 0.000000 0.000000 0.000000
# 3 -0.002380 -0.003011 0.008274 0.000000 0.000000 0.000000
# 4 0.000000 0.000000 0.000000 0.026537 0.000000 0.000000
# 5 0.000000 0.000000 0.000000 0.000000 0.039520 0.000000
# 6 0.000000 0.000000 0.000000 0.000000 0.000000 0.033647
#
#
# Mechanical properties :
#
#
# Convention : Reuss Voigt Hill
#
# Bulk Modulus (GPa) = 63.78315 69.10866 66.44591
# Shear Modulus (GPa) = 33.49076 35.60332 34.54704
#
# Velocity S-wave (km/s) = 3.66489 3.77871 3.72223
# Velocity P-wave (km/s) = 6.59459 6.83769 6.71724
#
# Compressibility (1/GPa) = 0.01567812
#
# Stress axis : x y z
#
# Youngs Moduli (GPa) = 118.33571 75.20791 120.85915
#
# Poissons Ratio (x) = 0.13395 0.28763
# Poissons Ratio (y) = 0.21076 0.36385
# Poissons Ratio (z) = 0.28163 0.22642
#
# Static dielectric constant tensor:
#      x y z
#    x 2.079270 0.000000 0.000000 
#    y 0.000000 1.953560 0.000000 
#    z 0.000000 0.000000 1.980210 
# 
# From -- ./inp_files/2169.got.cif
#   From: 2010.05.17/outbox.cif.g08.bks.cpg/sg32_2_cif.got.tgz:2169.got - 2010.06.03 17:12:27.
