data_PCOD9344621
_publ_section_title
;
Structure prediction by ZEFSAII (Michael W. Deem and Ramdas Pophale) SiO2 
 PCOD9344621
Probable space group: P N A 21
;
_chemical_formula_sum "Si O2"
_cell_formula_units_Z 24
_cell_length_a 5.390182
_cell_length_b 7.575075
_cell_length_c 23.569349
_cell_angle_alpha 90.000000
_cell_angle_beta 90.000000
_cell_angle_gamma 90.000000
_cell_volume 962.360865
_symmetry_space_group_name_H-M "P N A 21"
_symmetry_group_IT_number 33
_symmetry_cell_setting 'orthorhombic'
loop_
_space_group_symop_operation_xyz
x,y,z
-x,-y,1/2+z
1/2-x,1/2+y,1/2+z
1/2+x,1/2-y,z
loop_
_atom_site_type_symbol
_atom_site_label
_atom_site_fract_x
_atom_site_fract_y
_atom_site_fract_z
Si Si1 0.461937 0.307029 0.667610
Si Si2 0.373624 0.869423 0.469269
Si Si3 0.981190 0.344089 0.083500
Si Si4 0.984343 0.788238 0.706266
Si Si5 0.858180 0.358943 0.366180
Si Si6 0.967484 0.329102 0.795240
O O1 0.709350 0.244305 0.636729
O O2 0.472290 0.511752 0.684136
O O3 0.455435 0.199795 0.727444
O O4 0.609644 0.734048 0.464580
O O5 0.416175 0.959383 0.531779
O O6 0.387652 0.013969 0.420750
O O7 0.188408 0.186763 0.074226
O O8 0.006031 0.346954 0.151859
O O9 0.739855 0.732431 0.737936
O O10 0.581418 0.281794 0.366697
O O11 0.914246 0.489970 0.314146
O O12 0.684709 0.305818 0.816005
#
# Coordination Sequence:
#
# PCOD9344621 Si02
#       6
#     4   4   4   4   4   4
#     4  10  21  38  58  83 118 153 190 235 293 347
#     4  10  19  36  62  84 113 157 193 227 285 354
#     4   8  16  30  55  82 108 142 188 226 272 337
#     4  10  19  35  60  87 113 146 195 243 282 338
#     4  12  24  38  59  89 119 149 195 245 284 334
#     4  10  21  41  60  81 115 157 193 230 292 350
#
# _framework density 24.938673000000001
#
# number of rings (size 3 to 8) (size 9 to 14) (size 15 to 20)
#    0.000    2.000    0.000    4.000    0.000    0.000 
#    0.000   20.000    0.000   54.000    0.000    0.000 
#    0.000    0.000    0.000    0.000    0.000    0.000 
#
# Total GULP energy -133896.785250 kJ/mol
# GULP energy per Si atom -5579.032719 kJ/mol
# Density = 2.488191 g / cm^3
# Si number density = 24.938673 Si / 1000 Ang^3
#
#
#
# Elastic Constant Matrix: (Units=GPa)
#
#
# Indices 1 2 3 4 5 6 
#
# 1 211.1107 38.5162 -16.9072 0.0000 0.0000 0.0000
# 2 38.5162 84.2246 25.7909 0.0000 0.0000 0.0000
# 3 -16.9072 25.7909 67.6083 0.0000 0.0000 0.0000
# 4 0.0000 0.0000 0.0000 1.3671 0.0000 0.0000
# 5 0.0000 0.0000 0.0000 0.0000 23.3724 0.0000
# 6 0.0000 0.0000 0.0000 0.0000 0.0000 46.7413
#
#
#
# Elastic Compliance Matrix: (Units=1/GPa)
#
#
# Indices 1 2 3 4 5 6 
#
# 1 0.005565 -0.003364 0.002675 0.000000 0.000000 0.000000
# 2 -0.003364 0.015477 -0.006745 0.000000 0.000000 0.000000
# 3 0.002675 -0.006745 0.018033 0.000000 0.000000 0.000000
# 4 0.000000 0.000000 0.000000 0.731449 0.000000 0.000000
# 5 0.000000 0.000000 0.000000 0.000000 0.042786 0.000000
# 6 0.000000 0.000000 0.000000 0.000000 0.000000 0.021394
#
#
# Mechanical properties :
#
#
# Convention : Reuss Voigt Hill
#
# Bulk Modulus (GPa) = 41.31172 50.86040 46.08606
# Shear Modulus (GPa) = 5.82994 35.33241 20.58117
#
# Velocity S-wave (km/s) = 1.53062 3.76809 2.87587
# Velocity P-wave (km/s) = 4.44128 6.27453 5.43575
#
# Compressibility (1/GPa) = 0.02420620
#
# Stress axis : x y z
#
# Youngs Moduli (GPa) = 179.70103 64.61266 55.45346
#
# Poissons Ratio (x) = 0.21735 -0.14833
# Poissons Ratio (y) = 0.60449 0.37405
# Poissons Ratio (z) = -0.48067 0.43583
#
# Static dielectric constant tensor:
#      x y z
#    x 2.123550 0.000000 0.000000 
#    y 0.000000 2.042540 0.000000 
#    z 0.000000 0.000000 2.068850 
# 
# From -- ./inp_files/9348.got.cif
#   From: 2010.05.17/outbox.cif.g08.bks.cpg/sg33_5_cif.got.tgz:9348.got - 2010.06.03 17:15:25.
