data_PCOD9344892
_publ_section_title
;
Structure prediction by ZEFSAII (Michael W. Deem and Ramdas Pophale) SiO2 
 PCOD9344892
Probable space group: P N A 21
;
_chemical_formula_sum "Si O2"
_cell_formula_units_Z 32
_cell_length_a 16.248888
_cell_length_b 8.567763
_cell_length_c 10.681870
_cell_angle_alpha 90.000000
_cell_angle_beta 90.000000
_cell_angle_gamma 90.000000
_cell_volume 1487.093852
_symmetry_space_group_name_H-M "P N A 21"
_symmetry_group_IT_number 33
_symmetry_cell_setting 'orthorhombic'
loop_
_space_group_symop_operation_xyz
x,y,z
-x,-y,1/2+z
1/2-x,1/2+y,1/2+z
1/2+x,1/2-y,z
loop_
_atom_site_type_symbol
_atom_site_label
_atom_site_fract_x
_atom_site_fract_y
_atom_site_fract_z
Si Si1 0.260854 0.475247 0.343630
Si Si2 0.018224 0.441732 0.118354
Si Si3 0.615608 0.546449 0.065288
Si Si4 0.102034 0.379855 0.450592
Si Si5 0.537128 0.757299 0.260641
Si Si6 0.635602 0.357940 0.663247
Si Si7 0.556038 0.637219 0.533991
Si Si8 0.344591 0.753152 0.705103
O O1 0.330216 0.429975 0.442825
O O2 0.173110 0.501524 0.410694
O O3 0.291427 0.618299 0.260608
O O4 0.238590 0.330299 0.253328
O O5 0.023067 0.559047 0.235834
O O6 0.108867 0.366493 0.106377
O O7 0.980283 0.546004 0.006733
O O8 0.960402 0.288744 0.120778
O O9 0.595517 0.696026 0.149255
O O10 0.660761 0.417538 0.151094
O O11 0.528164 0.465497 0.032844
O O12 0.141565 0.278796 0.562699
O O13 0.096856 0.266116 0.329629
O O14 0.448440 0.676380 0.238825
O O15 0.568380 0.701470 0.394534
O O16 0.622828 0.519591 0.588318
#
# Coordination Sequence:
#
# PCOD9344892 Si02
#       8
#     4   4   4   4   4   4   4   4
#     4  10  22  40  60  92 128 160 200 266 306 376
#     4  10  20  38  58  94 116 158 212 254 310 354
#     4  10  20  39  65  90 121 163 209 243 316 373
#     4   9  21  39  63  85 128 159 202 266 307 368
#     4  10  20  36  65  91 119 163 203 259 296 370
#     4  10  20  39  65  90 121 163 209 243 316 373
#     4  10  20  36  65  91 119 163 203 259 296 370
#     4   9  21  39  63  85 128 159 202 266 307 368
#
# _framework density 21.51848
#
# number of rings (size 3 to 8) (size 9 to 14) (size 15 to 20)
#    0.750    1.500    1.250    1.500    0.000    2.000 
#    4.500    0.000    2.750    0.000    0.000    0.000 
#    0.000    0.000    0.000    0.000    0.000    0.000 
#
# Total GULP energy -178389.194817 kJ/mol
# GULP energy per Si atom -5574.662338 kJ/mol
# Density = 2.146950 g / cm^3
# Si number density = 21.518480 Si / 1000 Ang^3
#
#
#
# Elastic Constant Matrix: (Units=GPa)
#
#
# Indices 1 2 3 4 5 6 
#
# 1 60.0191 22.7208 43.0328 0.0000 0.0000 0.0000
# 2 22.7208 82.3267 38.9800 0.0000 0.0000 0.0000
# 3 43.0328 38.9800 81.8672 0.0000 0.0000 0.0000
# 4 0.0000 0.0000 0.0000 22.3700 0.0000 0.0000
# 5 0.0000 0.0000 0.0000 0.0000 46.2986 0.0000
# 6 0.0000 0.0000 0.0000 0.0000 0.0000 18.8658
#
#
#
# Elastic Compliance Matrix: (Units=1/GPa)
#
#
# Indices 1 2 3 4 5 6 
#
# 1 0.026794 -0.000938 -0.013638 0.000000 0.000000 0.000000
# 2 -0.000938 0.015715 -0.006990 0.000000 0.000000 0.000000
# 3 -0.013638 -0.006990 0.022712 0.000000 0.000000 0.000000
# 4 0.000000 0.000000 0.000000 0.044703 0.000000 0.000000
# 5 0.000000 0.000000 0.000000 0.000000 0.021599 0.000000
# 6 0.000000 0.000000 0.000000 0.000000 0.000000 0.053006
#
#
# Mechanical properties :
#
#
# Convention : Reuss Voigt Hill
#
# Bulk Modulus (GPa) = 45.26771 48.18667 46.72719
# Shear Modulus (GPa) = 21.27459 25.47218 23.37339
#
# Velocity S-wave (km/s) = 3.14772 3.44428 3.29933
# Velocity P-wave (km/s) = 5.85604 6.18540 6.02297
#
# Compressibility (1/GPa) = 0.02209080
#
# Stress axis : x y z
#
# Youngs Moduli (GPa) = 37.32126 63.63370 44.03051
#
# Poissons Ratio (x) = 0.05966 0.60048
# Poissons Ratio (y) = 0.03499 0.30776
# Poissons Ratio (z) = 0.50898 0.44478
#
# Static dielectric constant tensor:
#      x y z
#    x 1.783390 0.000000 0.000000 
#    y 0.000000 1.795120 0.000000 
#    z 0.000000 0.000000 1.817950 
# 
# From -- ./inp_files/7026.got.cif
#   From: 2010.05.17/outbox.cif.g08.bks.cpg/sg33_4_cif.got.tgz:7026.got - 2010.06.03 17:15:25.
