data_PCOD9344690
_publ_section_title
;
Structure prediction by ZEFSAII (Michael W. Deem and Ramdas Pophale) SiO2 
 PCOD9344690
Probable space group: P N A 21
;
_chemical_formula_sum "Si O2"
_cell_formula_units_Z 28
_cell_length_a 5.218440
_cell_length_b 22.022900
_cell_length_c 9.225819
_cell_angle_alpha 90.000000
_cell_angle_beta 90.000000
_cell_angle_gamma 90.000000
_cell_volume 1060.278930
_symmetry_space_group_name_H-M "P N A 21"
_symmetry_group_IT_number 33
_symmetry_cell_setting 'orthorhombic'
loop_
_space_group_symop_operation_xyz
x,y,z
-x,-y,1/2+z
1/2-x,1/2+y,1/2+z
1/2+x,1/2-y,z
loop_
_atom_site_type_symbol
_atom_site_label
_atom_site_fract_x
_atom_site_fract_y
_atom_site_fract_z
Si Si1 0.391964 0.281680 0.096860
Si Si2 0.201673 0.807502 0.923521
Si Si3 0.871467 0.588918 0.532617
Si Si4 0.237879 0.725123 0.196760
Si Si5 0.451352 0.924505 0.858222
Si Si6 0.330342 0.600720 0.093944
Si Si7 0.629068 0.460996 0.885066
O O1 0.189315 0.228566 0.056430
O O2 0.413579 0.284581 0.273544
O O3 0.242113 0.342674 0.048612
O O4 0.428099 0.851846 0.872659
O O5 0.285497 0.757576 0.039514
O O6 0.031263 0.856942 0.009586
O O7 0.984393 0.566487 0.687393
O O8 0.612071 0.555312 0.483126
O O9 0.110850 0.575486 0.428121
O O10 0.512966 0.736340 0.268718
O O11 0.171275 0.655244 0.174842
O O12 0.213886 0.968868 0.892173
O O13 0.661733 0.936248 0.980088
O O14 0.439539 0.559325 0.221427
#
# Coordination Sequence:
#
# PCOD9344690 Si02
#       7
#     4   4   4   4   4   4   4
#     4  11  23  43  76 107 147 192 248 312 375 456
#     4  10  23  38  72 110 141 181 259 317 368 426
#     4  11  29  50  72 114 148 202 248 313 381 460
#     4  10  19  37  62 103 133 166 231 309 353 415
#     4  11  26  45  79 103 144 198 270 304 372 440
#     4  11  25  44  73 108 143 198 244 314 374 455
#     4  12  29  49  72 105 162 199 248 313 387 460
#
# _framework density 26.408142999999999
#
# number of rings (size 3 to 8) (size 9 to 14) (size 15 to 20)
#    0.000    1.143    1.429    3.429   16.000    0.000 
#    0.000    8.571    0.000    0.000    0.000    0.000 
#    0.000    0.000    0.000    0.000    0.000    0.000 
#
# Total GULP energy -156589.123568 kJ/mol
# GULP energy per Si atom -5592.468699 kJ/mol
# Density = 2.634804 g / cm^3
# Si number density = 26.408143 Si / 1000 Ang^3
#
#
#
# Elastic Constant Matrix: (Units=GPa)
#
#
# Indices 1 2 3 4 5 6 
#
# 1 118.7089 24.1087 10.8831 0.0000 0.0000 0.0000
# 2 24.1087 129.5743 32.9306 0.0000 0.0000 0.0000
# 3 10.8831 32.9306 67.9028 0.0000 0.0000 0.0000
# 4 0.0000 0.0000 0.0000 34.5282 0.0000 0.0000
# 5 0.0000 0.0000 0.0000 0.0000 25.0262 0.0000
# 6 0.0000 0.0000 0.0000 0.0000 0.0000 47.5450
#
#
#
# Elastic Compliance Matrix: (Units=1/GPa)
#
#
# Indices 1 2 3 4 5 6 
#
# 1 0.008784 -0.001456 -0.000702 0.000000 0.000000 0.000000
# 2 -0.001456 0.009044 -0.004153 0.000000 0.000000 0.000000
# 3 -0.000702 -0.004153 0.016853 0.000000 0.000000 0.000000
# 4 0.000000 0.000000 0.000000 0.028962 0.000000 0.000000
# 5 0.000000 0.000000 0.000000 0.000000 0.039958 0.000000
# 6 0.000000 0.000000 0.000000 0.000000 0.000000 0.021033
#
#
# Mechanical properties :
#
#
# Convention : Reuss Voigt Hill
#
# Bulk Modulus (GPa) = 45.33001 50.22562 47.77782
# Shear Modulus (GPa) = 34.57622 37.97077 36.27349
#
# Velocity S-wave (km/s) = 3.62235 3.79600 3.71019
# Velocity P-wave (km/s) = 5.89047 6.18653 6.04032
#
# Compressibility (1/GPa) = 0.02206044
#
# Stress axis : x y z
#
# Youngs Moduli (GPa) = 113.84333 110.57239 59.33561
#
# Poissons Ratio (x) = 0.16100 0.04164
# Poissons Ratio (y) = 0.16576 0.24640
# Poissons Ratio (z) = 0.07989 0.45916
#
# Static dielectric constant tensor:
#      x y z
#    x 2.147630 0.000000 0.000000 
#    y 0.000000 2.085090 0.000000 
#    z 0.000000 0.000000 2.106540 
# 
# From -- ./inp_files/2724.got.cif
#   From: 2010.05.17/outbox.cif.g08.bks.cpg/sg33_2_cif.got.tgz:2724.got - 2010.06.03 17:15:25.
