data_PCOD9344637
_publ_section_title
;
Structure prediction by ZEFSAII (Michael W. Deem and Ramdas Pophale) SiO2 
 PCOD9344637
Probable space group: P N A 21
;
_chemical_formula_sum "Si O2"
_cell_formula_units_Z 28
_cell_length_a 13.013455
_cell_length_b 6.874033
_cell_length_c 12.125612
_cell_angle_alpha 90.000000
_cell_angle_beta 90.000000
_cell_angle_gamma 90.000000
_cell_volume 1084.695641
_symmetry_space_group_name_H-M "P N A 21"
_symmetry_group_IT_number 33
_symmetry_cell_setting 'orthorhombic'
loop_
_space_group_symop_operation_xyz
x,y,z
-x,-y,1/2+z
1/2-x,1/2+y,1/2+z
1/2+x,1/2-y,z
loop_
_atom_site_type_symbol
_atom_site_label
_atom_site_fract_x
_atom_site_fract_y
_atom_site_fract_z
Si Si1 0.209281 0.991869 0.825690
Si Si2 0.357622 0.460792 0.787379
Si Si3 0.026758 0.721693 0.738599
Si Si4 0.139663 0.436951 0.870162
Si Si5 0.217201 0.430007 0.099159
Si Si6 0.837377 0.016255 0.552952
Si Si7 0.563887 0.620526 0.514163
O O1 0.162831 0.208827 0.847383
O O2 0.291303 0.985665 0.727110
O O3 0.118602 0.858846 0.780446
O O4 0.231809 0.921345 0.949983
O O5 0.429499 0.647838 0.769819
O O6 0.245013 0.525212 0.823215
O O7 0.343459 0.367657 0.666586
O O8 0.405006 0.335855 0.888116
O O9 0.045348 0.522408 0.802349
O O10 0.040481 0.714068 0.605974
O O11 0.140721 0.490184 0.999926
O O12 0.207792 0.195020 0.087624
O O13 0.333415 0.484630 0.060312
O O14 0.956785 0.996917 0.515277
#
# Coordination Sequence:
#
# PCOD9344637 Si02
#       7
#     4   4   4   4   4   4   4
#     4  10  20  39  62  93 128 167 216 272 327 392
#     4  10  19  36  61  91 125 169 217 260 334 391
#     4  10  20  38  64  86 130 172 210 275 334 389
#     4  10  22  39  64  92 128 171 221 272 328 402
#     4   9  20  38  63  93 135 168 224 276 326 407
#     4  10  19  35  65  92 126 177 214 268 335 392
#     4   9  18  35  61  91 124 170 214 265 328 393
#
# _framework density 25.813690000000001
#
# number of rings (size 3 to 8) (size 9 to 14) (size 15 to 20)
#    0.000    2.286    1.429    1.714    0.000    1.143 
#    0.000    5.714   40.857    0.000    0.000    0.000 
#    0.000    0.000    0.000    0.000    0.000    0.000 
#
# Total GULP energy -156257.723700 kJ/mol
# GULP energy per Si atom -5580.632989 kJ/mol
# Density = 2.575494 g / cm^3
# Si number density = 25.813690 Si / 1000 Ang^3
#
#
#
# Elastic Constant Matrix: (Units=GPa)
#
#
# Indices 1 2 3 4 5 6 
#
# 1 84.0620 19.7953 29.5479 0.0000 0.0000 0.0000
# 2 19.7953 85.2709 38.1542 0.0000 0.0000 0.0000
# 3 29.5479 38.1542 297.3951 0.0000 0.0000 0.0000
# 4 0.0000 0.0000 0.0000 19.6101 0.0000 0.0000
# 5 0.0000 0.0000 0.0000 0.0000 35.7703 0.0000
# 6 0.0000 0.0000 0.0000 0.0000 0.0000 19.7994
#
#
#
# Elastic Compliance Matrix: (Units=1/GPa)
#
#
# Indices 1 2 3 4 5 6 
#
# 1 0.012830 -0.002555 -0.000947 0.000000 0.000000 0.000000
# 2 -0.002555 0.012950 -0.001408 0.000000 0.000000 0.000000
# 3 -0.000947 -0.001408 0.003637 0.000000 0.000000 0.000000
# 4 0.000000 0.000000 0.000000 0.050994 0.000000 0.000000
# 5 0.000000 0.000000 0.000000 0.000000 0.027956 0.000000
# 6 0.000000 0.000000 0.000000 0.000000 0.000000 0.050507
#
#
# Mechanical properties :
#
#
# Convention : Reuss Voigt Hill
#
# Bulk Modulus (GPa) = 51.02282 71.30253 61.16268
# Shear Modulus (GPa) = 28.53448 40.31800 34.42624
#
# Velocity S-wave (km/s) = 3.32836 3.95636 3.65587
# Velocity P-wave (km/s) = 5.88042 6.96795 6.44716
#
# Compressibility (1/GPa) = 0.01959907
#
# Stress axis : x y z
#
# Youngs Moduli (GPa) = 77.93941 77.21859 274.93597
#
# Poissons Ratio (x) = 0.19728 0.26037
# Poissons Ratio (y) = 0.19912 0.38700
# Poissons Ratio (z) = 0.07381 0.10869
#
# Static dielectric constant tensor:
#      x y z
#    x 2.039950 0.000000 0.000000 
#    y 0.000000 2.099350 0.000000 
#    z 0.000000 0.000000 2.127390 
# 
# From -- ./inp_files/6721.got.cif
#   From: 2010.05.17/outbox.cif.g08.bks.cpg/sg33_4_cif.got.tgz:6721.got - 2010.06.03 17:15:25.
