data_PCOD9344875
_publ_section_title
;
Structure prediction by ZEFSAII (Michael W. Deem and Ramdas Pophale) SiO2 
 PCOD9344875
Probable space group: P N A 21
;
_chemical_formula_sum "Si O2"
_cell_formula_units_Z 28
_cell_length_a 19.837077
_cell_length_b 9.066149
_cell_length_c 7.577291
_cell_angle_alpha 90.000000
_cell_angle_beta 90.000000
_cell_angle_gamma 90.000000
_cell_volume 1362.744688
_symmetry_space_group_name_H-M "P N A 21"
_symmetry_group_IT_number 33
_symmetry_cell_setting 'orthorhombic'
loop_
_space_group_symop_operation_xyz
x,y,z
-x,-y,1/2+z
1/2-x,1/2+y,1/2+z
1/2+x,1/2-y,z
loop_
_atom_site_type_symbol
_atom_site_label
_atom_site_fract_x
_atom_site_fract_y
_atom_site_fract_z
Si Si1 0.790495 0.494422 0.802580
Si Si2 0.202404 0.573597 0.924441
Si Si3 0.572826 0.549105 0.394445
Si Si4 0.344457 0.722220 0.974227
Si Si5 0.578014 0.477698 0.003379
Si Si6 0.846977 0.168998 0.209965
Si Si7 0.187083 0.228809 0.887388
O O1 0.818890 0.410919 0.630602
O O2 0.726346 0.592376 0.733836
O O3 0.753499 0.370419 0.919582
O O4 0.838104 0.611159 0.901189
O O5 0.158506 0.667150 0.787873
O O6 0.200083 0.400201 0.899842
O O7 0.278120 0.635428 0.905935
O O8 0.591702 0.376323 0.424853
O O9 0.579840 0.567353 0.185529
O O10 0.497084 0.573937 0.459665
O O11 0.623122 0.643772 0.516217
O O12 0.336788 0.712620 0.184939
O O13 0.605168 0.578018 0.843928
O O14 0.629027 0.338593 0.010107
#
# Coordination Sequence:
#
# PCOD9344875 Si02
#       7
#     4   4   4   4   4   4   4
#     4   9  19  37  57  87 123 155 197 249 309 371
#     4  10  20  36  60  85 129 154 199 256 308 368
#     4  12  20  39  67  88 120 161 212 255 316 364
#     4  10  20  36  59  91 121 157 201 258 304 374
#     4  11  22  38  68  85 116 165 211 260 305 371
#     4  10  21  40  57  91 122 155 209 251 299 377
#     4  10  20  38  58  87 123 161 205 249 309 369
#
# _framework density 20.546769000000001
#
# number of rings (size 3 to 8) (size 9 to 14) (size 15 to 20)
#    0.000    1.714    5.714    0.857    0.000    6.857 
#    2.571    0.000    6.286    0.000    0.000    0.000 
#    0.000    0.000    0.000    0.000    0.000    0.000 
#
# Total GULP energy -156350.347878 kJ/mol
# GULP energy per Si atom -5583.940996 kJ/mol
# Density = 2.050000 g / cm^3
# Si number density = 20.546769 Si / 1000 Ang^3
#
#
#
# Elastic Constant Matrix: (Units=GPa)
#
#
# Indices 1 2 3 4 5 6 
#
# 1 44.0964 30.0836 33.4268 0.0000 0.0000 0.0000
# 2 30.0836 116.2597 18.0050 0.0000 0.0000 0.0000
# 3 33.4268 18.0050 97.4924 0.0000 0.0000 0.0000
# 4 0.0000 0.0000 0.0000 31.5602 0.0000 0.0000
# 5 0.0000 0.0000 0.0000 0.0000 25.0522 0.0000
# 6 0.0000 0.0000 0.0000 0.0000 0.0000 16.3479
#
#
#
# Elastic Compliance Matrix: (Units=1/GPa)
#
#
# Indices 1 2 3 4 5 6 
#
# 1 0.036267 -0.007678 -0.011017 0.000000 0.000000 0.000000
# 2 -0.007678 0.010480 0.000697 0.000000 0.000000 0.000000
# 3 -0.011017 0.000697 0.013906 0.000000 0.000000 0.000000
# 4 0.000000 0.000000 0.000000 0.031685 0.000000 0.000000
# 5 0.000000 0.000000 0.000000 0.000000 0.039917 0.000000
# 6 0.000000 0.000000 0.000000 0.000000 0.000000 0.061170
#
#
# Mechanical properties :
#
#
# Convention : Reuss Voigt Hill
#
# Bulk Modulus (GPa) = 40.55603 46.76435 43.66019
# Shear Modulus (GPa) = 21.04022 26.34760 23.69391
#
# Velocity S-wave (km/s) = 3.20350 3.58484 3.39952
# Velocity P-wave (km/s) = 5.78485 6.32014 6.05841
#
# Compressibility (1/GPa) = 0.02465725
#
# Stress axis : x y z
#
# Youngs Moduli (GPa) = 27.57324 95.41671 71.91298
#
# Poissons Ratio (x) = 0.73265 0.79224
# Poissons Ratio (y) = 0.21172 -0.05013
# Poissons Ratio (z) = 0.30377 -0.06652
#
# Static dielectric constant tensor:
#      x y z
#    x 1.720960 0.000000 0.000000 
#    y 0.000000 1.772110 0.000000 
#    z 0.000000 0.000000 1.823070 
# 
# From -- ./inp_files/4761.got.cif
#   From: 2010.05.17/outbox.cif.g08.bks.cpg/sg33_3_cif.got.tgz:4761.got - 2010.06.03 17:15:25.
