data_PCOD9344912
_publ_section_title
;
Structure prediction by ZEFSAII (Michael W. Deem and Ramdas Pophale) SiO2 
 PCOD9344912
Probable space group: P N A 21
;
_chemical_formula_sum "Si O2"
_cell_formula_units_Z 28
_cell_length_a 4.927884
_cell_length_b 21.031715
_cell_length_c 12.077176
_cell_angle_alpha 90.000000
_cell_angle_beta 90.000000
_cell_angle_gamma 90.000000
_cell_volume 1251.700886
_symmetry_space_group_name_H-M "P N A 21"
_symmetry_group_IT_number 33
_symmetry_cell_setting 'orthorhombic'
loop_
_space_group_symop_operation_xyz
x,y,z
-x,-y,1/2+z
1/2-x,1/2+y,1/2+z
1/2+x,1/2-y,z
loop_
_atom_site_type_symbol
_atom_site_label
_atom_site_fract_x
_atom_site_fract_y
_atom_site_fract_z
Si Si1 0.539943 0.574524 0.608810
Si Si2 0.024437 0.707856 0.346409
Si Si3 0.257297 0.292588 0.200667
Si Si4 0.479247 0.079027 0.969341
Si Si5 0.301394 0.881731 0.159937
Si Si6 0.729094 0.206657 0.462741
Si Si7 0.783845 0.957128 0.239635
O O1 0.640555 0.644523 0.640940
O O2 0.231061 0.574306 0.570047
O O3 0.603037 0.525466 0.706300
O O4 0.729883 0.553310 0.505833
O O5 0.830247 0.768318 0.357086
O O6 0.937185 0.675032 0.231307
O O7 0.980975 0.652434 0.434596
O O8 0.459993 0.234154 0.175587
O O9 0.263037 0.306870 0.332580
O O10 0.344188 0.047291 0.861605
O O11 0.224468 0.853384 0.041288
O O12 0.535605 0.935017 0.160190
O O13 0.034837 0.908607 0.221274
O O14 0.434723 0.235724 0.486288
#
# Coordination Sequence:
#
# PCOD9344912 Si02
#       7
#     4   4   4   4   4   4   4
#     4  12  25  43  67  88 120 168 203 253 320 366
#     4  11  21  36  61  93 127 165 202 250 310 365
#     4  10  23  41  62  91 124 156 206 257 301 368
#     4  11  25  43  62  92 125 157 211 260 301 374
#     4  11  21  39  63  93 129 164 205 254 307 368
#     4  10  20  37  61  92 126 162 202 252 306 362
#     4  11  25  43  62  91 125 160 209 260 303 369
#
# _framework density 22.369561000000001
#
# number of rings (size 3 to 8) (size 9 to 14) (size 15 to 20)
#    0.000    1.143    0.000    7.714    0.000    5.714 
#    0.000    0.000    0.000    0.000    0.000    0.000 
#    0.000    0.000    0.000    0.000    0.000    0.000 
#
# Total GULP energy -156674.786562 kJ/mol
# GULP energy per Si atom -5595.528092 kJ/mol
# Density = 2.231865 g / cm^3
# Si number density = 22.369561 Si / 1000 Ang^3
#
#
#
# Elastic Constant Matrix: (Units=GPa)
#
#
# Indices 1 2 3 4 5 6 
#
# 1 68.9797 -10.2775 -1.6567 0.0000 0.0000 0.0000
# 2 -10.2775 56.2322 21.8105 0.0000 0.0000 0.0000
# 3 -1.6567 21.8105 54.5426 0.0000 0.0000 0.0000
# 4 0.0000 0.0000 0.0000 31.9818 0.0000 0.0000
# 5 0.0000 0.0000 0.0000 0.0000 31.5992 0.0000
# 6 0.0000 0.0000 0.0000 0.0000 0.0000 28.9081
#
#
#
# Elastic Compliance Matrix: (Units=1/GPa)
#
#
# Indices 1 2 3 4 5 6 
#
# 1 0.014929 0.003021 -0.000755 0.000000 0.000000 0.000000
# 2 0.003021 0.021659 -0.008569 0.000000 0.000000 0.000000
# 3 -0.000755 -0.008569 0.021738 0.000000 0.000000 0.000000
# 4 0.000000 0.000000 0.000000 0.031268 0.000000 0.000000
# 5 0.000000 0.000000 0.000000 0.000000 0.031646 0.000000
# 6 0.000000 0.000000 0.000000 0.000000 0.000000 0.034592
#
#
# Mechanical properties :
#
#
# Convention : Reuss Voigt Hill
#
# Bulk Modulus (GPa) = 21.87180 22.16744 22.01962
# Shear Modulus (GPa) = 27.22140 29.82303 28.52221
#
# Velocity S-wave (km/s) = 3.49219 3.65526 3.57465
# Velocity P-wave (km/s) = 5.10482 5.26742 5.18676
#
# Compressibility (1/GPa) = 0.04572097
#
# Stress axis : x y z
#
# Youngs Moduli (GPa) = 66.98347 46.16936 46.00216
#
# Poissons Ratio (x) = -0.13949 0.03472
# Poissons Ratio (y) = -0.20238 0.39421
# Poissons Ratio (z) = 0.05055 0.39564
#
# Static dielectric constant tensor:
#      x y z
#    x 1.785660 0.000000 0.000000 
#    y 0.000000 1.811480 0.000000 
#    z 0.000000 0.000000 1.852800 
# 
# From -- ./inp_files/5480.got.cif
#   From: 2010.05.17/outbox.cif.g08.bks.cpg/sg33_3_cif.got.tgz:5480.got - 2010.06.03 17:15:25.
