data_PCOD9344015
_publ_section_title
;
Structure prediction by ZEFSAII (Michael W. Deem and Ramdas Pophale) SiO2 
 PCOD9344015
Probable space group: P B A 2
;
_chemical_formula_sum "Si O2"
_cell_formula_units_Z 28
_cell_length_a 18.015594
_cell_length_b 10.915258
_cell_length_c 6.111774
_cell_angle_alpha 90.000000
_cell_angle_beta 90.000000
_cell_angle_gamma 90.000000
_cell_volume 1201.848921
_symmetry_space_group_name_H-M "P B A 2"
_symmetry_group_IT_number 32
_symmetry_cell_setting 'orthorhombic'
loop_
_space_group_symop_operation_xyz
x,y,z
-x,-y,z
1/2-x,1/2+y,z
1/2+x,1/2-y,z
loop_
_atom_site_type_symbol
_atom_site_label
_atom_site_fract_x
_atom_site_fract_y
_atom_site_fract_z
Si Si1 0.500000 0.000000 0.682730
Si Si2 0.854923 0.464901 0.414814
Si Si3 0.847119 0.197331 0.500200
Si Si4 0.406255 0.875976 0.043103
Si Si5 0.000000 0.000000 0.886903
Si Si6 0.294108 0.803309 0.704842
Si Si7 0.499989 0.680939 0.265078
Si Si8 0.874896 0.937084 0.534182
O O1 0.433071 0.051378 0.541061
O O2 0.538904 0.096403 0.843380
O O3 0.822434 0.327507 0.397372
O O4 0.872974 0.509588 0.171518
O O5 0.817674 0.575831 0.559065
O O6 0.795464 0.203353 0.718300
O O7 0.934670 0.193641 0.441170
O O8 0.831087 0.054666 0.442338
O O9 0.456789 0.805579 0.216186
O O10 0.336030 0.809199 0.935902
O O11 0.073163 0.029555 0.743399
O O12 0.978658 0.117086 0.036737
O O13 0.326640 0.681479 0.590595
O O14 0.435585 0.595614 0.355831
#
# Coordination Sequence:
#
# PCOD9344015 Si02
#       8
#     2   4   4   4   2   4   4   4
#     4  10  22  38  70 104 136 180 240 306 352 436
#     4  11  24  44  68 102 143 188 240 302 373 449
#     4  12  25  45  70 106 145 189 242 313 382 450
#     4  11  23  44  73 107 144 195 246 307 378 457
#     4  12  22  42  72 112 136 194 254 314 366 454
#     4  11  26  47  69  98 153 195 238 306 396 449
#     4  12  23  43  75 109 139 191 257 315 367 453
#     4  12  24  46  73 105 148 194 250 320 380 445
#
# _framework density 23.297438
#
# number of rings (size 3 to 8) (size 9 to 14) (size 15 to 20)
#    0.000    0.571    5.714    3.000    4.000    0.000 
#    2.571    1.429    0.000    0.000    0.000    0.000 
#    0.000    0.000    0.000    0.000    0.000    0.000 
#
# Total GULP energy -155941.915748 kJ/mol
# GULP energy per Si atom -5569.354134 kJ/mol
# Density = 2.324441 g / cm^3
# Si number density = 23.297438 Si / 1000 Ang^3
#
#
#
# Elastic Constant Matrix: (Units=GPa)
#
#
# Indices 1 2 3 4 5 6 
#
# 1 119.5227 17.0269 35.9962 0.0000 0.0000 0.0000
# 2 17.0269 157.7419 13.7227 0.0000 0.0000 0.0000
# 3 35.9962 13.7227 52.6852 0.0000 0.0000 0.0000
# 4 0.0000 0.0000 0.0000 24.5777 0.0000 0.0000
# 5 0.0000 0.0000 0.0000 0.0000 6.5113 0.0000
# 6 0.0000 0.0000 0.0000 0.0000 0.0000 -38.7531
#
#
#
# Elastic Compliance Matrix: (Units=1/GPa)
#
#
# Indices 1 2 3 4 5 6 
#
# 1 0.010577 -0.000525 -0.007089 0.000000 0.000000 0.000000
# 2 -0.000525 0.006512 -0.001338 0.000000 0.000000 0.000000
# 3 -0.007089 -0.001338 0.024173 0.000000 0.000000 0.000000
# 4 0.000000 0.000000 0.000000 0.040687 0.000000 0.000000
# 5 0.000000 0.000000 0.000000 0.000000 0.153580 0.000000
# 6 0.000000 0.000000 0.000000 0.000000 0.000000 -0.025804
#
#
# Mechanical properties :
#
#
# Convention : Reuss Voigt Hill
#
# Bulk Modulus (GPa) = 42.81232 51.49350 47.15291
# Shear Modulus (GPa) = 21.23910 16.01410 18.62660
#
# Velocity S-wave (km/s) = 3.02263 2.62463 2.83063
# Velocity P-wave (km/s) = 5.53155 5.59782 5.56478
#
# Compressibility (1/GPa) = 0.02335776
#
# Stress axis : x y z
#
# Youngs Moduli (GPa) = 94.54922 153.55095 41.36868
#
# Poissons Ratio (x) = 0.08060 0.29328
# Poissons Ratio (y) = 0.04963 0.05534
# Poissons Ratio (z) = 0.67031 0.20540
#
# Static dielectric constant tensor:
#      x y z
#    x 1.875240 0.000000 0.000000 
#    y 0.000000 1.982640 0.000000 
#    z 0.000000 0.000000 1.850420 
# 
# From -- ./inp_files/1572.got.cif
#   From: 2010.05.17/outbox.cif.g08.bks.cpg/sg32_1_cif.got.tgz:1572.got - 2010.06.03 17:12:27.
