data_PCOD9344511
_publ_section_title
;
Structure prediction by ZEFSAII (Michael W. Deem and Ramdas Pophale) SiO2 
 PCOD9344511
Probable space group: P N A 21
;
_chemical_formula_sum "Si O2"
_cell_formula_units_Z 20
_cell_length_a 8.569946
_cell_length_b 13.088929
_cell_length_c 7.116468
_cell_angle_alpha 90.000000
_cell_angle_beta 90.000000
_cell_angle_gamma 90.000000
_cell_volume 798.264283
_symmetry_space_group_name_H-M "P N A 21"
_symmetry_group_IT_number 33
_symmetry_cell_setting 'orthorhombic'
loop_
_space_group_symop_operation_xyz
x,y,z
-x,-y,1/2+z
1/2-x,1/2+y,1/2+z
1/2+x,1/2-y,z
loop_
_atom_site_type_symbol
_atom_site_label
_atom_site_fract_x
_atom_site_fract_y
_atom_site_fract_z
Si Si1 0.664129 0.902485 0.826640
Si Si2 0.065252 0.119244 0.816071
Si Si3 0.647201 0.766099 0.157627
Si Si4 0.999298 0.593053 0.458170
Si Si5 0.831999 0.056464 0.075976
O O1 0.637464 0.891748 0.607076
O O2 0.521588 0.975606 0.896212
O O3 0.807024 0.968624 0.911900
O O4 0.657943 0.798173 0.941790
O O5 0.193202 0.202140 0.758368
O O6 0.915661 0.153106 0.689252
O O7 0.984840 0.119323 0.019337
O O8 0.139812 0.011281 0.759048
O O9 0.533674 0.843331 0.272145
O O10 0.831778 0.615888 0.558220
#
# Coordination Sequence:
#
# PCOD9344511 Si02
#       5
#     4   4   4   4   4
#     4   9  18  37  63  93 117 168 212 253 320 377
#     4  11  23  44  62  97 128 169 213 269 318 382
#     4  11  23  40  65  93 132 162 216 269 315 377
#     4  10  18  39  65  90 124 169 212 259 323 380
#     4   9  22  40  63  91 127 172 215 254 336 368
#
# _framework density 25.054355999999999
#
# number of rings (size 3 to 8) (size 9 to 14) (size 15 to 20)
#    1.200    0.800    2.000    1.200    2.800    0.000 
#   10.800    2.000    0.000    0.000    0.000    0.000 
#    0.000    0.000    0.000    0.000    0.000    0.000 
#
# Total GULP energy -111504.964977 kJ/mol
# GULP energy per Si atom -5575.248249 kJ/mol
# Density = 2.499733 g / cm^3
# Si number density = 25.054356 Si / 1000 Ang^3
#
#
#
# Elastic Constant Matrix: (Units=GPa)
#
#
# Indices 1 2 3 4 5 6 
#
# 1 102.8029 -5.0239 -5.7896 0.0000 0.0000 0.0000
# 2 -5.0239 25.1641 1.9472 0.0000 0.0000 0.0000
# 3 -5.7896 1.9472 55.6085 0.0000 0.0000 0.0000
# 4 0.0000 0.0000 0.0000 27.2080 0.0000 0.0000
# 5 0.0000 0.0000 0.0000 0.0000 27.5348 0.0000
# 6 0.0000 0.0000 0.0000 0.0000 0.0000 23.9199
#
#
#
# Elastic Compliance Matrix: (Units=1/GPa)
#
#
# Indices 1 2 3 4 5 6 
#
# 1 0.009874 0.001897 0.000962 0.000000 0.000000 0.000000
# 2 0.001897 0.040212 -0.001211 0.000000 0.000000 0.000000
# 3 0.000962 -0.001211 0.018125 0.000000 0.000000 0.000000
# 4 0.000000 0.000000 0.000000 0.036754 0.000000 0.000000
# 5 0.000000 0.000000 0.000000 0.000000 0.036318 0.000000
# 6 0.000000 0.000000 0.000000 0.000000 0.000000 0.041806
#
#
# Mechanical properties :
#
#
# Convention : Reuss Voigt Hill
#
# Bulk Modulus (GPa) = 13.98461 18.42697 16.20579
# Shear Modulus (GPa) = 24.55452 28.56201 26.55826
#
# Velocity S-wave (km/s) = 3.13397 3.38005 3.25934
# Velocity P-wave (km/s) = 4.32314 4.75434 4.54386
#
# Compressibility (1/GPa) = 0.07150719
#
# Stress axis : x y z
#
# Youngs Moduli (GPa) = 101.27392 24.86849 55.17134
#
# Poissons Ratio (x) = -0.04717 -0.05305
# Poissons Ratio (y) = -0.19211 0.06679
# Poissons Ratio (z) = -0.09739 0.03010
#
# Static dielectric constant tensor:
#      x y z
#    x 2.100000 0.000000 0.000000 
#    y 0.000000 2.021610 0.000000 
#    z 0.000000 0.000000 1.978820 
# 
# From -- ./inp_files/3084.got.cif
#   From: 2010.05.17/outbox.cif.g08.bks.cpg/sg33_2_cif.got.tgz:3084.got - 2010.06.03 17:15:25.
