data_PCOD9344768
_publ_section_title
;
Structure prediction by ZEFSAII (Michael W. Deem and Ramdas Pophale) SiO2 
 PCOD9344768
Probable space group: P N A 21
;
_chemical_formula_sum "Si O2"
_cell_formula_units_Z 24
_cell_length_a 12.489549
_cell_length_b 9.347025
_cell_length_c 9.303872
_cell_angle_alpha 90.000000
_cell_angle_beta 90.000000
_cell_angle_gamma 90.000000
_cell_volume 1086.135196
_symmetry_space_group_name_H-M "P N A 21"
_symmetry_group_IT_number 33
_symmetry_cell_setting 'orthorhombic'
loop_
_space_group_symop_operation_xyz
x,y,z
-x,-y,1/2+z
1/2-x,1/2+y,1/2+z
1/2+x,1/2-y,z
loop_
_atom_site_type_symbol
_atom_site_label
_atom_site_fract_x
_atom_site_fract_y
_atom_site_fract_z
Si Si1 0.285839 0.955310 0.872350
Si Si2 0.414598 0.807844 0.091968
Si Si3 0.044701 0.410176 0.133177
Si Si4 0.848066 0.789691 0.410407
Si Si5 0.090636 0.863398 0.670968
Si Si6 0.023630 0.025310 0.428374
O O1 0.392468 0.934584 0.780040
O O2 0.190732 0.889221 0.775419
O O3 0.262880 0.123499 0.899799
O O4 0.306565 0.864262 0.015154
O O5 0.385902 0.758611 0.252656
O O6 0.466978 0.677694 0.004582
O O7 0.495899 0.939559 0.088704
O O8 0.947830 0.298063 0.153566
O O9 0.126445 0.337710 0.019670
O O10 0.924351 0.920760 0.460356
O O11 0.113165 0.935347 0.515720
O O12 0.992755 0.942405 0.759641
#
# Coordination Sequence:
#
# PCOD9344768 Si02
#       6
#     4   4   4   4   4   4
#     4  11  24  43  69 100 144 184 237 282 366 421
#     4  12  23  44  69 103 137 185 240 293 351 423
#     4  11  25  44  74 101 143 183 239 302 351 421
#     4  10  25  46  66 104 140 187 238 288 360 422
#     4  10  22  44  68 100 137 186 229 288 361 422
#     4  10  19  43  68  92 139 181 227 285 353 413
#
# _framework density 22.096696999999999
#
# number of rings (size 3 to 8) (size 9 to 14) (size 15 to 20)
#    0.000    1.333    5.000    1.000    2.333    2.667 
#    0.000    5.000    0.000    0.000    0.000    0.000 
#    0.000    0.000    0.000    0.000    0.000    0.000 
#
# Total GULP energy -133847.434738 kJ/mol
# GULP energy per Si atom -5576.976447 kJ/mol
# Density = 2.204640 g / cm^3
# Si number density = 22.096697 Si / 1000 Ang^3
#
#
#
# Elastic Constant Matrix: (Units=GPa)
#
#
# Indices 1 2 3 4 5 6 
#
# 1 52.7140 43.2835 28.6379 0.0000 0.0000 0.0000
# 2 43.2835 153.0197 34.6084 0.0000 0.0000 0.0000
# 3 28.6379 34.6084 112.2223 0.0000 0.0000 0.0000
# 4 0.0000 0.0000 0.0000 34.1712 0.0000 0.0000
# 5 0.0000 0.0000 0.0000 0.0000 32.0914 0.0000
# 6 0.0000 0.0000 0.0000 0.0000 0.0000 27.9805
#
#
#
# Elastic Compliance Matrix: (Units=1/GPa)
#
#
# Indices 1 2 3 4 5 6 
#
# 1 0.026978 -0.006529 -0.004871 0.000000 0.000000 0.000000
# 2 -0.006529 0.008605 -0.000988 0.000000 0.000000 0.000000
# 3 -0.004871 -0.000988 0.010458 0.000000 0.000000 0.000000
# 4 0.000000 0.000000 0.000000 0.029264 0.000000 0.000000
# 5 0.000000 0.000000 0.000000 0.000000 0.031161 0.000000
# 6 0.000000 0.000000 0.000000 0.000000 0.000000 0.035739
#
#
# Mechanical properties :
#
#
# Convention : Reuss Voigt Hill
#
# Bulk Modulus (GPa) = 47.02348 59.00174 53.01261
# Shear Modulus (GPa) = 28.72402 32.94370 30.83386
#
# Velocity S-wave (km/s) = 3.60936 3.86539 3.73957
# Velocity P-wave (km/s) = 6.22068 6.83237 6.53369
#
# Compressibility (1/GPa) = 0.02126597
#
# Stress axis : x y z
#
# Youngs Moduli (GPa) = 37.06761 116.20631 95.61657
#
# Poissons Ratio (x) = 0.75875 0.46573
# Poissons Ratio (y) = 0.24203 0.09443
# Poissons Ratio (z) = 0.18055 0.11477
#
# Static dielectric constant tensor:
#      x y z
#    x 1.882560 0.000000 0.000000 
#    y 0.000000 1.815700 0.000000 
#    z 0.000000 0.000000 1.848860 
# 
# From -- ./inp_files/4240.got.cif
#   From: 2010.05.17/outbox.cif.g08.bks.cpg/sg33_3_cif.got.tgz:4240.got - 2010.06.03 17:15:25.
