data_PCOD9344926
_publ_section_title
;
Structure prediction by ZEFSAII (Michael W. Deem and Ramdas Pophale) SiO2 
 PCOD9344926
Probable space group: P N A 21
;
_chemical_formula_sum "Si O2"
_cell_formula_units_Z 24
_cell_length_a 9.621221
_cell_length_b 8.484549
_cell_length_c 11.811534
_cell_angle_alpha 90.000000
_cell_angle_beta 90.000000
_cell_angle_gamma 90.000000
_cell_volume 964.195848
_symmetry_space_group_name_H-M "P N A 21"
_symmetry_group_IT_number 33
_symmetry_cell_setting 'orthorhombic'
loop_
_space_group_symop_operation_xyz
x,y,z
-x,-y,1/2+z
1/2-x,1/2+y,1/2+z
1/2+x,1/2-y,z
loop_
_atom_site_type_symbol
_atom_site_label
_atom_site_fract_x
_atom_site_fract_y
_atom_site_fract_z
Si Si1 0.354580 0.749167 0.112980
Si Si2 0.733607 0.913287 0.329121
Si Si3 0.005588 0.925405 0.946328
Si Si4 0.216678 0.521386 0.944707
Si Si5 0.447367 0.104288 0.042927
Si Si6 0.006207 0.648759 0.773689
O O1 0.299950 0.705541 0.237601
O O2 0.372416 0.463345 0.930438
O O3 0.394622 0.930061 0.087142
O O4 0.487647 0.640443 0.074530
O O5 0.857635 0.001791 0.394718
O O6 0.640450 0.857072 0.433614
O O7 0.626084 0.032210 0.265410
O O8 0.968619 0.778770 0.865078
O O9 0.241807 0.676922 0.023832
O O10 0.107377 0.410274 0.005949
O O11 0.139533 0.565981 0.829745
O O12 0.447314 0.213510 0.152658
#
# Coordination Sequence:
#
# PCOD9344926 Si02
#       6
#     4   4   4   4   4   4
#     4  10  21  39  66  91 131 165 222 263 329 390
#     4  11  22  39  67  98 126 176 224 264 331 395
#     4  10  20  37  63  92 126 169 218 261 324 389
#     4   9  18  38  57  88 115 170 211 250 326 376
#     4  11  22  37  67  94 133 169 216 274 323 399
#     4  11  19  36  64  93 125 171 217 260 329 391
#
# _framework density 24.891207000000001
#
# number of rings (size 3 to 8) (size 9 to 14) (size 15 to 20)
#    1.000    0.667    5.000    2.000    0.000    1.333 
#    0.000    1.667   11.000    0.000    0.000    0.000 
#    0.000    0.000    0.000    0.000    0.000    0.000 
#
# Total GULP energy -133986.135367 kJ/mol
# GULP energy per Si atom -5582.755640 kJ/mol
# Density = 2.483455 g / cm^3
# Si number density = 24.891207 Si / 1000 Ang^3
#
#
#
# Elastic Constant Matrix: (Units=GPa)
#
#
# Indices 1 2 3 4 5 6 
#
# 1 109.8017 12.6899 31.5319 0.0000 0.0000 0.0000
# 2 12.6899 80.9098 10.9819 0.0000 0.0000 0.0000
# 3 31.5319 10.9819 154.3862 0.0000 0.0000 0.0000
# 4 0.0000 0.0000 0.0000 16.6230 0.0000 0.0000
# 5 0.0000 0.0000 0.0000 0.0000 24.7941 0.0000
# 6 0.0000 0.0000 0.0000 0.0000 0.0000 -5.9887
#
#
#
# Elastic Compliance Matrix: (Units=1/GPa)
#
#
# Indices 1 2 3 4 5 6 
#
# 1 0.009804 -0.001278 -0.001911 0.000000 0.000000 0.000000
# 2 -0.001278 0.012647 -0.000639 0.000000 0.000000 0.000000
# 3 -0.001911 -0.000639 0.006913 0.000000 0.000000 0.000000
# 4 0.000000 0.000000 0.000000 0.060158 0.000000 0.000000
# 5 0.000000 0.000000 0.000000 0.000000 0.040332 0.000000
# 6 0.000000 0.000000 0.000000 0.000000 0.000000 -0.166982
#
#
# Mechanical properties :
#
#
# Convention : Reuss Voigt Hill
#
# Bulk Modulus (GPa) = 46.06751 50.61166 48.33958
# Shear Modulus (GPa) = -224.86117 26.41194 -99.22461
#
# Velocity S-wave (km/s) = -9.51492 3.26098 -6.32059
# Velocity P-wave (km/s) = 10.10762 5.87843 5.81412
#
# Compressibility (1/GPa) = 0.02170727
#
# Stress axis : x y z
#
# Youngs Moduli (GPa) = 101.99955 79.07274 144.65339
#
# Poissons Ratio (x) = 0.10107 0.27650
# Poissons Ratio (y) = 0.13038 0.09236
# Poissons Ratio (z) = 0.19497 0.05049
#
# Static dielectric constant tensor:
#      x y z
#    x 2.005270 0.000000 0.000000 
#    y 0.000000 2.129910 0.000000 
#    z 0.000000 0.000000 1.942020 
# 
# From -- ./inp_files/6270.got.cif
#   From: 2010.05.17/outbox.cif.g08.bks.cpg/sg33_4_cif.got.tgz:6270.got - 2010.06.03 17:15:25.
