data_PCOD9344135
_publ_section_title
;
Structure prediction by ZEFSAII (Michael W. Deem and Ramdas Pophale) SiO2 
 PCOD9344135
Probable space group: P B A 2
;
_chemical_formula_sum "Si O2"
_cell_formula_units_Z 20
_cell_length_a 13.302683
_cell_length_b 12.318137
_cell_length_c 5.054311
_cell_angle_alpha 90.000000
_cell_angle_beta 90.000000
_cell_angle_gamma 90.000000
_cell_volume 828.220991
_symmetry_space_group_name_H-M "P B A 2"
_symmetry_group_IT_number 32
_symmetry_cell_setting 'orthorhombic'
loop_
_space_group_symop_operation_xyz
x,y,z
-x,-y,z
1/2-x,1/2+y,z
1/2+x,1/2-y,z
loop_
_atom_site_type_symbol
_atom_site_label
_atom_site_fract_x
_atom_site_fract_y
_atom_site_fract_z
Si Si1 0.215212 0.561838 0.691540
Si Si2 0.519406 0.680248 0.189357
Si Si3 0.173096 0.248459 0.414897
Si Si4 0.479446 0.179245 0.670721
Si Si5 0.210133 0.937058 0.190403
O O1 0.264678 0.678827 0.624791
O O2 0.096150 0.579535 0.653323
O O3 0.268342 0.484688 0.479074
O O4 0.237412 0.514037 0.977910
O O5 0.401878 0.666615 0.256357
O O6 0.560542 0.729934 0.464225
O O7 0.593636 0.583273 0.121272
O O8 0.523678 0.770887 0.962227
O O9 0.237237 0.318519 0.210064
O O10 0.094100 0.327249 0.568451
#
# Coordination Sequence:
#
# PCOD9344135 Si02
#       5
#     4   4   4   4   4
#     4  12  27  45  75 108 144 190 249 302 369 448
#     4  10  23  45  72  98 142 194 236 289 380 430
#     4  10  26  48  74  98 156 192 230 320 366 428
#     4  10  23  45  72  98 142 194 236 289 380 430
#     4  12  27  45  75 108 144 190 249 302 369 448
#
# _framework density 24.148146000000001
#
# number of rings (size 3 to 8) (size 9 to 14) (size 15 to 20)
#    1.200    0.000    2.000    2.400    5.600    1.600 
#    0.000    0.000    0.000    0.000    0.000    0.000 
#    0.000    0.000    0.000    0.000    0.000    0.000 
#
# Total GULP energy -111740.327096 kJ/mol
# GULP energy per Si atom -5587.016355 kJ/mol
# Density = 2.409318 g / cm^3
# Si number density = 24.148146 Si / 1000 Ang^3
#
#
#
# Elastic Constant Matrix: (Units=GPa)
#
#
# Indices 1 2 3 4 5 6 
#
# 1 139.0479 42.3969 11.9882 0.0000 0.0000 0.0000
# 2 42.3969 73.0197 7.7225 0.0000 0.0000 0.0000
# 3 11.9882 7.7225 66.9041 0.0000 0.0000 0.0000
# 4 0.0000 0.0000 0.0000 52.6539 0.0000 0.0000
# 5 0.0000 0.0000 0.0000 0.0000 16.2051 0.0000
# 6 0.0000 0.0000 0.0000 0.0000 0.0000 41.8126
#
#
#
# Elastic Compliance Matrix: (Units=1/GPa)
#
#
# Indices 1 2 3 4 5 6 
#
# 1 0.008804 -0.005006 -0.001000 0.000000 0.000000 0.000000
# 2 -0.005006 0.016711 -0.001032 0.000000 0.000000 0.000000
# 3 -0.001000 -0.001032 0.015245 0.000000 0.000000 0.000000
# 4 0.000000 0.000000 0.000000 0.018992 0.000000 0.000000
# 5 0.000000 0.000000 0.000000 0.000000 0.061709 0.000000
# 6 0.000000 0.000000 0.000000 0.000000 0.000000 0.023916
#
#
# Mechanical properties :
#
#
# Convention : Reuss Voigt Hill
#
# Bulk Modulus (GPa) = 37.47494 44.79854 41.13674
# Shear Modulus (GPa) = 29.70036 36.59194 33.14615
#
# Velocity S-wave (km/s) = 3.51083 3.89692 3.70890
# Velocity P-wave (km/s) = 5.65571 6.23216 5.95092
#
# Compressibility (1/GPa) = 0.02668450
#
# Stress axis : x y z
#
# Youngs Moduli (GPa) = 113.57918 59.84139 65.59520
#
# Poissons Ratio (x) = 0.29959 0.06558
# Poissons Ratio (y) = 0.56861 0.06768
# Poissons Ratio (z) = 0.11355 0.06175
#
# Static dielectric constant tensor:
#      x y z
#    x 1.959560 0.000000 0.000000 
#    y 0.000000 1.999970 0.000000 
#    z 0.000000 0.000000 1.828170 
# 
# From -- ./inp_files/1153.got.cif
#   From: 2010.05.17/outbox.cif.g08.bks.cpg/sg32_1_cif.got.tgz:1153.got - 2010.06.03 17:12:27.
