data_PCOD9344849
_publ_section_title
;
Structure prediction by ZEFSAII (Michael W. Deem and Ramdas Pophale) SiO2 
 PCOD9344849
Probable space group: P N A 21
;
_chemical_formula_sum "Si O2"
_cell_formula_units_Z 28
_cell_length_a 12.347165
_cell_length_b 12.479701
_cell_length_c 8.858856
_cell_angle_alpha 90.000000
_cell_angle_beta 90.000000
_cell_angle_gamma 90.000000
_cell_volume 1365.051619
_symmetry_space_group_name_H-M "P N A 21"
_symmetry_group_IT_number 33
_symmetry_cell_setting 'orthorhombic'
loop_
_space_group_symop_operation_xyz
x,y,z
-x,-y,1/2+z
1/2-x,1/2+y,1/2+z
1/2+x,1/2-y,z
loop_
_atom_site_type_symbol
_atom_site_label
_atom_site_fract_x
_atom_site_fract_y
_atom_site_fract_z
Si Si1 0.698359 0.102265 0.795660
Si Si2 0.150605 0.807638 0.038845
Si Si3 0.256369 0.178306 0.969204
Si Si4 0.256159 0.641338 0.812517
Si Si5 0.990327 0.877544 0.468157
Si Si6 0.456004 0.171504 0.797698
Si Si7 0.503476 0.419715 0.302005
O O1 0.763572 0.127658 0.641265
O O2 0.735679 0.200169 0.906531
O O3 0.567979 0.109502 0.776215
O O4 0.725215 0.981957 0.845976
O O5 0.073034 0.739906 0.150004
O O6 0.211456 0.721326 0.936167
O O7 0.079909 0.880577 0.927693
O O8 0.139966 0.120574 0.961361
O O9 0.344379 0.121087 0.860333
O O10 0.286370 0.172373 0.145455
O O11 0.386326 0.647692 0.810022
O O12 0.022046 0.757627 0.429798
O O13 0.034466 0.911710 0.630273
O O14 0.031802 0.958041 0.341209
#
# Coordination Sequence:
#
# PCOD9344849 Si02
#       7
#     4   4   4   4   4   4   4
#     4  10  22  41  62  86 120 158 201 249 297 360
#     4  11  22  37  58  88 119 156 201 249 299 363
#     4   9  20  39  59  85 119 155 200 248 297 359
#     4  11  23  39  60  88 119 155 200 246 301 364
#     4  10  20  35  61  88 115 158 202 248 305 360
#     4  10  20  38  58  82 120 158 196 248 303 353
#     4  11  21  37  60  87 120 156 202 256 304 355
#
# _framework density 20.512045000000001
#
# number of rings (size 3 to 8) (size 9 to 14) (size 15 to 20)
#    0.000    1.714    0.000    6.000    0.000    3.429 
#    0.000    4.286    0.000    0.000    0.000    0.000 
#    0.000    0.000    0.000    0.000    0.000    0.000 
#
# Total GULP energy -156355.980451 kJ/mol
# GULP energy per Si atom -5584.142159 kJ/mol
# Density = 2.046536 g / cm^3
# Si number density = 20.512045 Si / 1000 Ang^3
#
#
#
# Elastic Constant Matrix: (Units=GPa)
#
#
# Indices 1 2 3 4 5 6 
#
# 1 81.5664 5.7105 15.4845 0.0000 0.0000 0.0000
# 2 5.7105 57.0295 15.0832 0.0000 0.0000 0.0000
# 3 15.4845 15.0832 80.0579 0.0000 0.0000 0.0000
# 4 0.0000 0.0000 0.0000 25.7060 0.0000 0.0000
# 5 0.0000 0.0000 0.0000 0.0000 35.5256 0.0000
# 6 0.0000 0.0000 0.0000 0.0000 0.0000 22.2401
#
#
#
# Elastic Compliance Matrix: (Units=1/GPa)
#
#
# Indices 1 2 3 4 5 6 
#
# 1 0.012751 -0.000657 -0.002342 0.000000 0.000000 0.000000
# 2 -0.000657 0.018488 -0.003356 0.000000 0.000000 0.000000
# 3 -0.002342 -0.003356 0.013576 0.000000 0.000000 0.000000
# 4 0.000000 0.000000 0.000000 0.038901 0.000000 0.000000
# 5 0.000000 0.000000 0.000000 0.000000 0.028149 0.000000
# 6 0.000000 0.000000 0.000000 0.000000 0.000000 0.044964
#
#
# Mechanical properties :
#
#
# Convention : Reuss Voigt Hill
#
# Bulk Modulus (GPa) = 31.14904 32.35670 31.75287
# Shear Modulus (GPa) = 27.74050 28.85271 28.29661
#
# Velocity S-wave (km/s) = 3.68149 3.75457 3.71821
# Velocity P-wave (km/s) = 5.76974 5.88255 5.82642
#
# Compressibility (1/GPa) = 0.03210371
#
# Stress axis : x y z
#
# Youngs Moduli (GPa) = 78.42747 54.08846 73.65772
#
# Poissons Ratio (x) = 0.03555 0.17253
# Poissons Ratio (y) = 0.05155 0.24720
# Poissons Ratio (z) = 0.18370 0.18153
#
# Static dielectric constant tensor:
#      x y z
#    x 1.791960 0.000000 0.000000 
#    y 0.000000 1.712520 0.000000 
#    z 0.000000 0.000000 1.724640 
# 
# From -- ./inp_files/3848.got.cif
#   From: 2010.05.17/outbox.cif.g08.bks.cpg/sg33_2_cif.got.tgz:3848.got - 2010.06.03 17:15:25.
