data_PCOD9344669
_publ_section_title
;
Structure prediction by ZEFSAII (Michael W. Deem and Ramdas Pophale) SiO2 
 PCOD9344669
Probable space group: P N A 21
;
_chemical_formula_sum "Si O2"
_cell_formula_units_Z 28
_cell_length_a 8.416613
_cell_length_b 19.419353
_cell_length_c 7.388639
_cell_angle_alpha 90.000000
_cell_angle_beta 90.000000
_cell_angle_gamma 90.000000
_cell_volume 1207.637423
_symmetry_space_group_name_H-M "P N A 21"
_symmetry_group_IT_number 33
_symmetry_cell_setting 'orthorhombic'
loop_
_space_group_symop_operation_xyz
x,y,z
-x,-y,1/2+z
1/2-x,1/2+y,1/2+z
1/2+x,1/2-y,z
loop_
_atom_site_type_symbol
_atom_site_label
_atom_site_fract_x
_atom_site_fract_y
_atom_site_fract_z
Si Si1 0.937477 0.584019 0.345800
Si Si2 0.609613 0.283881 0.599163
Si Si3 0.196855 0.842345 0.187850
Si Si4 0.730729 0.384901 0.888928
Si Si5 0.966354 0.427375 0.418739
Si Si6 0.674233 0.549604 0.877554
Si Si7 0.869947 0.870322 0.765052
O O1 0.086071 0.615309 0.445621
O O2 0.992371 0.583440 0.132286
O O3 0.779886 0.628238 0.363840
O O4 0.913759 0.506538 0.402614
O O5 0.677272 0.208226 0.594104
O O6 0.447660 0.291041 0.709585
O O7 0.577373 0.309444 0.397421
O O8 0.709872 0.341478 0.707006
O O9 0.152878 0.909951 0.070476
O O10 0.638342 0.352324 0.055525
O O11 0.685480 0.466350 0.876634
O O12 0.809510 0.389683 0.337707
O O13 0.144365 0.425209 0.325224
O O14 0.510685 0.572396 0.780481
#
# Coordination Sequence:
#
# PCOD9344669 Si02
#       7
#     4   4   4   4   4   4   4
#     4  10  20  38  63  98 131 172 224 267 340 396
#     4  11  24  43  69  92 131 185 221 278 345 407
#     4  10  22  43  68  94 135 184 219 277 345 416
#     4  11  23  42  65 101 132 170 232 283 337 410
#     4  10  19  36  63  93 132 172 216 279 330 395
#     4   9  23  38  64 103 127 174 233 269 341 408
#     4  11  23  40  66  93 136 175 217 285 332 402
#
# _framework density 23.185765
#
# number of rings (size 3 to 8) (size 9 to 14) (size 15 to 20)
#    0.000    1.714    1.429    3.429    8.000    0.000 
#    2.571    5.714    3.143    0.000    0.000    0.000 
#    0.000    0.000    0.000    0.000    0.000    0.000 
#
# Total GULP energy -155941.271711 kJ/mol
# GULP energy per Si atom -5569.331133 kJ/mol
# Density = 2.313299 g / cm^3
# Si number density = 23.185765 Si / 1000 Ang^3
#
#
#
# Elastic Constant Matrix: (Units=GPa)
#
#
# Indices 1 2 3 4 5 6 
#
# 1 46.8167 -4.5809 10.8482 0.0000 0.0000 0.0000
# 2 -4.5809 86.2948 16.6158 0.0000 0.0000 0.0000
# 3 10.8482 16.6158 73.4710 0.0000 0.0000 0.0000
# 4 0.0000 0.0000 0.0000 5.6209 0.0000 0.0000
# 5 0.0000 0.0000 0.0000 0.0000 22.1474 0.0000
# 6 0.0000 0.0000 0.0000 0.0000 0.0000 29.6883
#
#
#
# Elastic Compliance Matrix: (Units=1/GPa)
#
#
# Indices 1 2 3 4 5 6 
#
# 1 0.022414 0.001910 -0.003741 0.000000 0.000000 0.000000
# 2 0.001910 0.012279 -0.003059 0.000000 0.000000 0.000000
# 3 -0.003741 -0.003059 0.014855 0.000000 0.000000 0.000000
# 4 0.000000 0.000000 0.000000 0.177906 0.000000 0.000000
# 5 0.000000 0.000000 0.000000 0.000000 0.045152 0.000000
# 6 0.000000 0.000000 0.000000 0.000000 0.000000 0.033683
#
#
# Mechanical properties :
#
#
# Convention : Reuss Voigt Hill
#
# Bulk Modulus (GPa) = 25.14642 28.03874 26.59258
# Shear Modulus (GPa) = 15.18256 23.73794 19.46025
#
# Velocity S-wave (km/s) = 2.56173 3.20318 2.90024
# Velocity P-wave (km/s) = 4.42935 5.07935 4.76545
#
# Compressibility (1/GPa) = 0.03976709
#
# Stress axis : x y z
#
# Youngs Moduli (GPa) = 44.61541 81.44271 67.31721
#
# Poissons Ratio (x) = -0.15557 0.25187
# Poissons Ratio (y) = -0.08523 0.20592
# Poissons Ratio (z) = 0.16693 0.24913
#
# Static dielectric constant tensor:
#      x y z
#    x 2.095160 0.000000 0.000000 
#    y 0.000000 1.837230 0.000000 
#    z 0.000000 0.000000 1.898690 
# 
# From -- ./inp_files/3380.got.cif
#   From: 2010.05.17/outbox.cif.g08.bks.cpg/sg33_2_cif.got.tgz:3380.got - 2010.06.03 17:15:25.
