data_PCOD9344150
_publ_section_title
;
Structure prediction by ZEFSAII (Michael W. Deem and Ramdas Pophale) SiO2 
 PCOD9344150
Probable space group: P B A 2
;
_chemical_formula_sum "Si O2"
_cell_formula_units_Z 26
_cell_length_a 16.515366
_cell_length_b 14.597971
_cell_length_c 4.976923
_cell_angle_alpha 90.000000
_cell_angle_beta 90.000000
_cell_angle_gamma 90.000000
_cell_volume 1199.890516
_symmetry_space_group_name_H-M "P B A 2"
_symmetry_group_IT_number 32
_symmetry_cell_setting 'orthorhombic'
loop_
_space_group_symop_operation_xyz
x,y,z
-x,-y,z
1/2-x,1/2+y,z
1/2+x,1/2-y,z
loop_
_atom_site_type_symbol
_atom_site_label
_atom_site_fract_x
_atom_site_fract_y
_atom_site_fract_z
Si Si1 0.327654 0.882870 0.273500
Si Si2 0.600244 0.212818 0.758695
Si Si3 0.234550 0.573914 0.300259
Si Si4 0.331663 0.274218 0.450816
Si Si5 0.500000 0.500000 0.826656
Si Si6 0.061515 0.803479 0.961997
Si Si7 0.162397 0.084934 0.772797
O O1 0.391328 0.851171 0.500093
O O2 0.240362 0.844022 0.373100
O O3 0.323867 0.991250 0.220660
O O4 0.351492 0.832914 0.000867
O O5 0.510296 0.238241 0.857249
O O6 0.644253 0.309803 0.700263
O O7 0.197475 0.673116 0.360733
O O8 0.267659 0.545460 0.590354
O O9 0.307116 0.579800 0.080350
O O10 0.363077 0.289166 0.755545
O O11 0.409033 0.288492 0.262051
O O12 0.474165 0.406297 0.969219
O O13 0.417410 0.529859 0.688295
#
# Coordination Sequence:
#
# PCOD9344150 Si02
#       7
#     4   4   4   4   2   4   4
#     4  12  23  41  66  92 126 170 218 262 324 390
#     4  11  22  42  62  91 129 168 205 265 334 380
#     4  12  24  40  67  93 129 169 227 262 325 385
#     4  12  23  43  64  97 129 170 220 272 322 390
#     4  10  24  40  68 100 132 166 220 264 370 392
#     4  11  25  41  66  94 134 167 212 277 330 393
#     4  11  21  41  62  96 128 169 203 280 325 407
#
# _framework density 21.668645000000001
#
# number of rings (size 3 to 8) (size 9 to 14) (size 15 to 20)
#    0.000    0.615    3.077    5.538    0.000    4.923 
#    0.000    4.615    0.000    0.000    0.000    0.000 
#    0.000    0.000    0.000    0.000    0.000    0.000 
#
# Total GULP energy -145252.606874 kJ/mol
# GULP energy per Si atom -5586.638726 kJ/mol
# Density = 2.161933 g / cm^3
# Si number density = 21.668645 Si / 1000 Ang^3
#
#
#
# Elastic Constant Matrix: (Units=GPa)
#
#
# Indices 1 2 3 4 5 6 
#
# 1 33.8003 8.3531 -12.6961 0.0000 0.0000 0.0000
# 2 8.3531 70.3643 -21.6364 0.0000 0.0000 0.0000
# 3 -12.6961 -21.6364 49.9355 0.0000 0.0000 0.0000
# 4 0.0000 0.0000 0.0000 10.2666 0.0000 0.0000
# 5 0.0000 0.0000 0.0000 0.0000 0.2488 0.0000
# 6 0.0000 0.0000 0.0000 0.0000 0.0000 24.5590
#
#
#
# Elastic Compliance Matrix: (Units=1/GPa)
#
#
# Indices 1 2 3 4 5 6 
#
# 1 0.032853 -0.001536 0.007687 0.000000 0.000000 0.000000
# 2 -0.001536 0.016468 0.006745 0.000000 0.000000 0.000000
# 3 0.007687 0.006745 0.024903 0.000000 0.000000 0.000000
# 4 0.000000 0.000000 0.000000 0.097403 0.000000 0.000000
# 5 0.000000 0.000000 0.000000 0.000000 4.018753 0.000000
# 6 0.000000 0.000000 0.000000 0.000000 0.000000 0.040718
#
#
# Mechanical properties :
#
#
# Convention : Reuss Voigt Hill
#
# Bulk Modulus (GPa) = 9.99851 11.34903 10.67377
# Shear Modulus (GPa) = 1.17962 19.02018 10.09990
#
# Velocity S-wave (km/s) = 0.73863 2.96594 2.16129
# Velocity P-wave (km/s) = 2.31338 4.12043 3.34138
#
# Compressibility (1/GPa) = 0.10001486
#
# Stress axis : x y z
#
# Youngs Moduli (GPa) = 30.43893 60.72348 40.15623
#
# Poissons Ratio (x) = 0.09329 -0.30869
# Poissons Ratio (y) = 0.04676 -0.27085
# Poissons Ratio (z) = -0.23399 -0.40957
#
# Static dielectric constant tensor:
#      x y z
#    x 1.833070 0.000000 0.000000 
#    y 0.000000 1.695400 0.000000 
#    z 0.000000 0.000000 1.772440 
# 
# From -- ./inp_files/1225.got.cif
#   From: 2010.05.17/outbox.cif.g08.bks.cpg/sg32_1_cif.got.tgz:1225.got - 2010.06.03 17:12:27.
