data_PCOD9344966
_publ_section_title
;
Structure prediction by ZEFSAII (Michael W. Deem and Ramdas Pophale) SiO2 
 PCOD9344966
Probable space group: P N A 21
;
_chemical_formula_sum "Si O2"
_cell_formula_units_Z 32
_cell_length_a 5.337594
_cell_length_b 14.903879
_cell_length_c 15.249044
_cell_angle_alpha 90.000000
_cell_angle_beta 90.000000
_cell_angle_gamma 90.000000
_cell_volume 1213.074490
_symmetry_space_group_name_H-M "P N A 21"
_symmetry_group_IT_number 33
_symmetry_cell_setting 'orthorhombic'
loop_
_space_group_symop_operation_xyz
x,y,z
-x,-y,1/2+z
1/2-x,1/2+y,1/2+z
1/2+x,1/2-y,z
loop_
_atom_site_type_symbol
_atom_site_label
_atom_site_fract_x
_atom_site_fract_y
_atom_site_fract_z
Si Si1 0.859130 0.903328 0.021530
Si Si2 0.842517 0.577323 0.122628
Si Si3 0.455018 0.276351 0.213191
Si Si4 0.764704 0.207589 0.762034
Si Si5 0.279889 0.217766 0.957266
Si Si6 0.828660 0.980565 0.399047
Si Si7 0.566189 0.460371 0.235677
Si Si8 0.560125 0.859142 0.865791
O O1 0.621545 0.924847 0.084804
O O2 0.121139 0.872695 0.067019
O O3 0.731710 0.837165 0.950456
O O4 0.945695 0.989449 0.963500
O O5 0.842886 0.617411 0.220956
O O6 0.695984 0.486325 0.144991
O O7 0.228547 0.223661 0.172045
O O8 0.374217 0.379445 0.219096
O O9 0.513013 0.227153 0.307587
O O10 0.545710 0.274683 0.729544
O O11 0.773018 0.222506 0.865998
O O12 0.525403 0.253690 0.002435
O O13 0.285630 0.112754 0.932137
O O14 0.650056 0.069035 0.397619
O O15 0.923723 0.969584 0.298938
O O16 0.771358 0.417282 0.299483
#
# Coordination Sequence:
#
# PCOD9344966 Si02
#       8
#     4   4   4   4   4   4   4   4
#     4  11  26  44  68  98 141 192 223 273 345 431
#     4  12  25  43  67 100 144 182 226 280 353 421
#     4  10  20  38  61  99 133 159 227 286 340 388
#     4  10  21  39  59  92 137 172 220 277 339 404
#     4  10  23  37  65 101 131 163 220 293 335 387
#     4  11  22  44  73  99 134 181 239 276 346 407
#     4  10  23  37  71 102 129 182 227 295 336 402
#     4  10  22  42  70 101 131 179 232 288 338 406
#
# _framework density 26.379255000000001
#
# number of rings (size 3 to 8) (size 9 to 14) (size 15 to 20)
#    0.000    1.500    2.500    2.250    8.750    0.000 
#    0.000   11.250    0.000    9.000    0.000    0.000 
#    0.000    0.000    0.000    0.000    0.000    0.000 
#
# Total GULP energy -178553.680319 kJ/mol
# GULP energy per Si atom -5579.802510 kJ/mol
# Density = 2.631921 g / cm^3
# Si number density = 26.379255 Si / 1000 Ang^3
#
#
#
# Elastic Constant Matrix: (Units=GPa)
#
#
# Indices 1 2 3 4 5 6 
#
# 1 145.3050 17.7337 21.9675 0.0000 0.0000 0.0000
# 2 17.7337 74.0595 17.8002 0.0000 0.0000 0.0000
# 3 21.9675 17.8002 80.0637 0.0000 0.0000 0.0000
# 4 0.0000 0.0000 0.0000 14.1204 0.0000 0.0000
# 5 0.0000 0.0000 0.0000 0.0000 51.6129 0.0000
# 6 0.0000 0.0000 0.0000 0.0000 0.0000 26.3923
#
#
#
# Elastic Compliance Matrix: (Units=1/GPa)
#
#
# Indices 1 2 3 4 5 6 
#
# 1 0.007303 -0.001339 -0.001706 0.000000 0.000000 0.000000
# 2 -0.001339 0.014510 -0.002859 0.000000 0.000000 0.000000
# 3 -0.001706 -0.002859 0.013594 0.000000 0.000000 0.000000
# 4 0.000000 0.000000 0.000000 0.070819 0.000000 0.000000
# 5 0.000000 0.000000 0.000000 0.000000 0.019375 0.000000
# 6 0.000000 0.000000 0.000000 0.000000 0.000000 0.037890
#
#
# Mechanical properties :
#
#
# Convention : Reuss Voigt Hill
#
# Bulk Modulus (GPa) = 42.37260 46.04788 44.21024
# Shear Modulus (GPa) = 27.29769 34.55358 30.92563
#
# Velocity S-wave (km/s) = 3.22035 3.62315 3.42767
# Velocity P-wave (km/s) = 5.47040 5.91582 5.69746
#
# Compressibility (1/GPa) = 0.02360016
#
# Stress axis : x y z
#
# Youngs Moduli (GPa) = 136.92225 68.91659 73.56309
#
# Poissons Ratio (x) = 0.09226 0.12552
# Poissons Ratio (y) = 0.18330 0.21029
# Poissons Ratio (z) = 0.23362 0.19701
#
# Static dielectric constant tensor:
#      x y z
#    x 2.180980 0.000000 0.000000 
#    y 0.000000 2.184820 0.000000 
#    z 0.000000 0.000000 2.140870 
# 
# From -- ./inp_files/8367.got.cif
#   From: 2010.05.17/outbox.cif.g08.bks.cpg/sg33_5_cif.got.tgz:8367.got - 2010.06.03 17:15:25.
