data_PCOD9344468
_publ_section_title
;
Structure prediction by ZEFSAII (Michael W. Deem and Ramdas Pophale) SiO2 
 PCOD9344468
Probable space group: P N A 21
;
_chemical_formula_sum "Si O2"
_cell_formula_units_Z 32
_cell_length_a 16.284797
_cell_length_b 7.192208
_cell_length_c 11.129183
_cell_angle_alpha 90.000000
_cell_angle_beta 90.000000
_cell_angle_gamma 90.000000
_cell_volume 1303.490504
_symmetry_space_group_name_H-M "P N A 21"
_symmetry_group_IT_number 33
_symmetry_cell_setting 'orthorhombic'
loop_
_space_group_symop_operation_xyz
x,y,z
-x,-y,1/2+z
1/2-x,1/2+y,1/2+z
1/2+x,1/2-y,z
loop_
_atom_site_type_symbol
_atom_site_label
_atom_site_fract_x
_atom_site_fract_y
_atom_site_fract_z
Si Si1 0.697755 0.500403 0.326310
Si Si2 0.942978 0.750935 0.130823
Si Si3 0.068762 0.699064 0.633235
Si Si4 0.739460 0.341584 0.097102
Si Si5 0.957458 0.253309 0.871403
Si Si6 0.505545 0.842529 0.882941
Si Si7 0.238613 0.255605 0.631875
Si Si8 0.669982 0.990269 0.996844
O O1 0.687032 0.353826 0.220156
O O2 0.620910 0.621195 0.359964
O O3 0.759670 0.646248 0.262794
O O4 0.748950 0.408853 0.431591
O O5 0.937939 0.525628 0.135001
O O6 0.851381 0.829667 0.125729
O O7 0.986986 0.798597 0.256101
O O8 0.981226 0.781763 0.997898
O O9 0.167475 0.730130 0.622461
O O10 0.021713 0.767470 0.513919
O O11 0.027282 0.758411 0.758396
O O12 0.748225 0.554545 0.054172
O O13 0.690159 0.203624 0.013981
O O14 0.945457 0.479677 0.862784
O O15 0.589945 0.941535 0.925442
O O16 0.317602 0.122472 0.620272
#
# Coordination Sequence:
#
# PCOD9344468 Si02
#       8
#     4   4   4   4   4   4   4   4
#     4  10  20  38  62  91 131 172 224 288 325 414
#     4   9  18  36  60  91 131 172 219 281 341 411
#     4   9  16  34  59  90 123 172 217 277 332 407
#     4   9  20  39  59  93 131 161 233 283 327 404
#     4  10  18  34  65  88 129 182 213 274 354 395
#     4  10  20  34  65  99 132 174 233 282 349 418
#     4   9  22  41  64  95 129 171 228 286 339 410
#     4  12  20  40  68  91 128 186 227 281 351 411
#
# _framework density 24.549468999999998
#
# number of rings (size 3 to 8) (size 9 to 14) (size 15 to 20)
#    0.750    1.500    2.500    1.500    0.000    0.000 
#    2.250    6.250    2.750    0.000    0.000    0.000 
#    0.000    0.000    0.000    0.000    0.000    0.000 
#
# Total GULP energy -178364.528978 kJ/mol
# GULP energy per Si atom -5573.891531 kJ/mol
# Density = 2.449359 g / cm^3
# Si number density = 24.549469 Si / 1000 Ang^3
#
#
#
# Elastic Constant Matrix: (Units=GPa)
#
#
# Indices 1 2 3 4 5 6 
#
# 1 64.7259 27.0987 48.1141 0.0000 0.0000 0.0000
# 2 27.0987 93.7739 20.8856 0.0000 0.0000 0.0000
# 3 48.1141 20.8856 148.3873 0.0000 0.0000 0.0000
# 4 0.0000 0.0000 0.0000 6.5164 0.0000 0.0000
# 5 0.0000 0.0000 0.0000 0.0000 25.1365 0.0000
# 6 0.0000 0.0000 0.0000 0.0000 0.0000 8.1779
#
#
#
# Elastic Compliance Matrix: (Units=1/GPa)
#
#
# Indices 1 2 3 4 5 6 
#
# 1 0.022433 -0.005020 -0.006567 0.000000 0.000000 0.000000
# 2 -0.005020 0.012132 -0.000080 0.000000 0.000000 0.000000
# 3 -0.006567 -0.000080 0.008880 0.000000 0.000000 0.000000
# 4 0.000000 0.000000 0.000000 0.153459 0.000000 0.000000
# 5 0.000000 0.000000 0.000000 0.000000 0.039783 0.000000
# 6 0.000000 0.000000 0.000000 0.000000 0.000000 0.122281
#
#
# Mechanical properties :
#
#
# Convention : Reuss Voigt Hill
#
# Bulk Modulus (GPa) = 49.72420 55.45378 52.58899
# Shear Modulus (GPa) = 12.85324 22.01873 17.43598
#
# Velocity S-wave (km/s) = 2.29064 2.99810 2.66792
# Velocity P-wave (km/s) = 5.22443 5.88408 5.56404
#
# Compressibility (1/GPa) = 0.02011093
#
# Stress axis : x y z
#
# Youngs Moduli (GPa) = 44.57635 82.42361 112.61486
#
# Poissons Ratio (x) = 0.41377 0.73959
# Poissons Ratio (y) = 0.22378 0.00900
# Poissons Ratio (z) = 0.29275 0.00659
#
# Static dielectric constant tensor:
#      x y z
#    x 1.939660 0.000000 0.000000 
#    y 0.000000 1.942540 0.000000 
#    z 0.000000 0.000000 2.019670 
# 
# From -- ./inp_files/7085.got.cif
#   From: 2010.05.17/outbox.cif.g08.bks.cpg/sg33_4_cif.got.tgz:7085.got - 2010.06.03 17:15:25.
