data_PCOD9344817
_publ_section_title
;
Structure prediction by ZEFSAII (Michael W. Deem and Ramdas Pophale) SiO2 
 PCOD9344817
Probable space group: P N A 21
;
_chemical_formula_sum "Si O2"
_cell_formula_units_Z 24
_cell_length_a 8.560025
_cell_length_b 14.048240
_cell_length_c 8.809919
_cell_angle_alpha 90.000000
_cell_angle_beta 90.000000
_cell_angle_gamma 90.000000
_cell_volume 1059.421706
_symmetry_space_group_name_H-M "P N A 21"
_symmetry_group_IT_number 33
_symmetry_cell_setting 'orthorhombic'
loop_
_space_group_symop_operation_xyz
x,y,z
-x,-y,1/2+z
1/2-x,1/2+y,1/2+z
1/2+x,1/2-y,z
loop_
_atom_site_type_symbol
_atom_site_label
_atom_site_fract_x
_atom_site_fract_y
_atom_site_fract_z
Si Si1 0.453773 0.883787 0.870400
Si Si2 0.866306 0.864346 0.681565
Si Si3 0.142595 0.784464 0.500821
Si Si4 0.731953 0.279319 0.475313
Si Si5 0.105727 0.312336 0.776071
Si Si6 0.904939 0.489526 0.118144
O O1 0.298125 0.824798 0.902024
O O2 0.595799 0.821266 0.943042
O O3 0.494411 0.906930 0.697086
O O4 0.442746 0.987499 0.945731
O O5 0.751275 0.786219 0.600137
O O6 0.869277 0.845817 0.861936
O O7 0.032724 0.847914 0.606470
O O8 0.774550 0.961021 0.645703
O O9 0.257942 0.840796 0.391727
O O10 0.030602 0.729862 0.380517
O O11 0.673792 0.263267 0.648712
O O12 0.061446 0.407262 0.687986
#
# Coordination Sequence:
#
# PCOD9344817 Si02
#       6
#     4   4   4   4   4   4
#     4  10  21  38  59  84 112 148 188 232 281 336
#     4  10  20  37  57  82 111 147 187 230 277 333
#     4  10  21  36  57  80 112 150 186 222 277 340
#     4  10  20  36  60  82 110 150 192 224 276 346
#     4  10  20  37  57  82 111 147 187 230 277 333
#     4  10  20  34  56  84 112 140 184 238 282 320
#
# _framework density 22.653867999999999
#
# number of rings (size 3 to 8) (size 9 to 14) (size 15 to 20)
#    0.000    2.000    0.000    5.000    0.000    2.667 
#    0.000   13.333    0.000    6.000    0.000    0.000 
#    0.000    0.000    0.000    0.000    0.000    0.000 
#
# Total GULP energy -133843.879124 kJ/mol
# GULP energy per Si atom -5576.828297 kJ/mol
# Density = 2.260231 g / cm^3
# Si number density = 22.653868 Si / 1000 Ang^3
#
#
#
# Elastic Constant Matrix: (Units=GPa)
#
#
# Indices 1 2 3 4 5 6 
#
# 1 72.4719 10.0834 32.9665 0.0000 0.0000 0.0000
# 2 10.0834 42.6062 16.2759 0.0000 0.0000 0.0000
# 3 32.9665 16.2759 98.6677 0.0000 0.0000 0.0000
# 4 0.0000 0.0000 0.0000 37.6233 0.0000 0.0000
# 5 0.0000 0.0000 0.0000 0.0000 48.7050 0.0000
# 6 0.0000 0.0000 0.0000 0.0000 0.0000 21.3238
#
#
#
# Elastic Compliance Matrix: (Units=1/GPa)
#
#
# Indices 1 2 3 4 5 6 
#
# 1 0.016416 -0.001910 -0.005170 0.000000 0.000000 0.000000
# 2 -0.001910 0.025271 -0.003530 0.000000 0.000000 0.000000
# 3 -0.005170 -0.003530 0.012445 0.000000 0.000000 0.000000
# 4 0.000000 0.000000 0.000000 0.026579 0.000000 0.000000
# 5 0.000000 0.000000 0.000000 0.000000 0.020532 0.000000
# 6 0.000000 0.000000 0.000000 0.000000 0.000000 0.046896
#
#
# Mechanical properties :
#
#
# Convention : Reuss Voigt Hill
#
# Bulk Modulus (GPa) = 30.38471 36.93303 33.65887
# Shear Modulus (GPa) = 27.72693 31.82510 29.77602
#
# Velocity S-wave (km/s) = 3.50228 3.75219 3.62938
# Velocity P-wave (km/s) = 5.45860 5.92541 5.69679
#
# Compressibility (1/GPa) = 0.03291129
#
# Stress axis : x y z
#
# Youngs Moduli (GPa) = 60.91672 39.57030 80.35558
#
# Poissons Ratio (x) = 0.07559 0.41541
# Poissons Ratio (y) = 0.11636 0.28369
# Poissons Ratio (z) = 0.31492 0.13970
#
# Static dielectric constant tensor:
#      x y z
#    x 1.850890 0.000000 0.000000 
#    y 0.000000 1.846200 0.000000 
#    z 0.000000 0.000000 1.928320 
# 
# From -- ./inp_files/3162.got.cif
#   From: 2010.05.17/outbox.cif.g08.bks.cpg/sg33_2_cif.got.tgz:3162.got - 2010.06.03 17:15:25.
