data_PCOD9344481
_publ_section_title
;
Structure prediction by ZEFSAII (Michael W. Deem and Ramdas Pophale) SiO2 
 PCOD9344481
Probable space group: P N A 21
;
_chemical_formula_sum "Si O2"
_cell_formula_units_Z 20
_cell_length_a 5.142191
_cell_length_b 10.892550
_cell_length_c 13.326148
_cell_angle_alpha 90.000000
_cell_angle_beta 90.000000
_cell_angle_gamma 90.000000
_cell_volume 746.418506
_symmetry_space_group_name_H-M "P N A 21"
_symmetry_group_IT_number 33
_symmetry_cell_setting 'orthorhombic'
loop_
_space_group_symop_operation_xyz
x,y,z
-x,-y,1/2+z
1/2-x,1/2+y,1/2+z
1/2+x,1/2-y,z
loop_
_atom_site_type_symbol
_atom_site_label
_atom_site_fract_x
_atom_site_fract_y
_atom_site_fract_z
Si Si1 0.908346 0.202917 0.479710
Si Si2 0.089140 0.084553 0.962102
Si Si3 0.110589 0.396230 0.089123
Si Si4 0.668939 0.477077 0.763073
Si Si5 0.357109 0.131239 0.285119
O O1 0.633727 0.221360 0.533769
O O2 0.979690 0.061884 0.462974
O O3 0.831749 0.272007 0.374427
O O4 0.359254 0.087843 0.021053
O O5 0.423938 0.966292 0.819582
O O6 0.852339 0.146403 0.022208
O O7 0.219956 0.517078 0.150094
O O8 0.595340 0.375005 0.845283
O O9 0.407048 0.560607 0.756571
O O10 0.506502 0.180407 0.185832
#
# Coordination Sequence:
#
# PCOD9344481 Si02
#       5
#     4   4   4   4   4
#     4  12  20  32  52  83 115 149 184 238 302 345
#     4  12  20  32  57  81 110 159 193 237 292 364
#     4  10  21  34  48  79 115 158 193 229 297 364
#     4  10  19  34  52  71 117 157 179 241 290 356
#     4  10  18  36  47  72 119 159 175 235 303 351
#
# _framework density 26.794620999999999
#
# number of rings (size 3 to 8) (size 9 to 14) (size 15 to 20)
#    1.200    0.000    6.000    2.400    0.000    0.000 
#    0.000    0.000    0.000    0.000    0.000    0.000 
#    0.000   64.000    0.000    0.000    0.000    0.000 
#
# Total GULP energy -111488.392370 kJ/mol
# GULP energy per Si atom -5574.419619 kJ/mol
# Density = 2.673363 g / cm^3
# Si number density = 26.794621 Si / 1000 Ang^3
#
#
#
# Elastic Constant Matrix: (Units=GPa)
#
#
# Indices 1 2 3 4 5 6 
#
# 1 202.6208 3.1412 38.6975 0.0000 0.0000 0.0000
# 2 3.1412 55.1573 10.1488 0.0000 0.0000 0.0000
# 3 38.6975 10.1488 147.4388 0.0000 0.0000 0.0000
# 4 0.0000 0.0000 0.0000 34.7754 0.0000 0.0000
# 5 0.0000 0.0000 0.0000 0.0000 47.2505 0.0000
# 6 0.0000 0.0000 0.0000 0.0000 0.0000 24.9596
#
#
#
# Elastic Compliance Matrix: (Units=1/GPa)
#
#
# Indices 1 2 3 4 5 6 
#
# 1 0.005196 -0.000046 -0.001361 0.000000 0.000000 0.000000
# 2 -0.000046 0.018363 -0.001252 0.000000 0.000000 0.000000
# 3 -0.001361 -0.001252 0.007226 0.000000 0.000000 0.000000
# 4 0.000000 0.000000 0.000000 0.028756 0.000000 0.000000
# 5 0.000000 0.000000 0.000000 0.000000 0.021164 0.000000
# 6 0.000000 0.000000 0.000000 0.000000 0.000000 0.040065
#
#
# Mechanical properties :
#
#
# Convention : Reuss Voigt Hill
#
# Bulk Modulus (GPa) = 39.26466 56.57686 47.92076
# Shear Modulus (GPa) = 37.15405 44.94573 41.04989
#
# Velocity S-wave (km/s) = 3.72778 4.10007 3.91835
# Velocity P-wave (km/s) = 5.76318 6.60113 6.19634
#
# Compressibility (1/GPa) = 0.02546819
#
# Stress axis : x y z
#
# Youngs Moduli (GPa) = 192.45986 54.45756 138.39359
#
# Poissons Ratio (x) = 0.00248 0.18830
# Poissons Ratio (y) = 0.00877 0.17327
# Poissons Ratio (z) = 0.26186 0.06818
#
# Static dielectric constant tensor:
#      x y z
#    x 2.265690 0.000000 0.000000 
#    y 0.000000 2.138910 0.000000 
#    z 0.000000 0.000000 2.226990 
# 
# From -- ./inp_files/2642.got.cif
#   From: 2010.05.17/outbox.cif.g08.bks.cpg/sg33_2_cif.got.tgz:2642.got - 2010.06.03 17:15:25.
