data_PCOD9344156
_publ_section_title
;
Structure prediction by ZEFSAII (Michael W. Deem and Ramdas Pophale) SiO2 
 PCOD9344156
Probable space group: P B A 2
;
_chemical_formula_sum "Si O2"
_cell_formula_units_Z 26
_cell_length_a 8.800935
_cell_length_b 26.459190
_cell_length_c 5.226956
_cell_angle_alpha 90.000000
_cell_angle_beta 90.000000
_cell_angle_gamma 90.000000
_cell_volume 1217.178304
_symmetry_space_group_name_H-M "P B A 2"
_symmetry_group_IT_number 32
_symmetry_cell_setting 'orthorhombic'
loop_
_space_group_symop_operation_xyz
x,y,z
-x,-y,z
1/2-x,1/2+y,z
1/2+x,1/2-y,z
loop_
_atom_site_type_symbol
_atom_site_label
_atom_site_fract_x
_atom_site_fract_y
_atom_site_fract_z
Si Si1 0.295888 0.324457 0.521460
Si Si2 0.119271 0.165846 0.373108
Si Si3 0.570335 0.226027 0.120370
Si Si4 0.114144 0.595451 0.236114
Si Si5 0.289951 0.230572 0.784039
Si Si6 0.500000 0.000000 0.991810
Si Si7 0.077501 0.401197 0.753836
O O1 0.447310 0.351855 0.414427
O O2 0.161743 0.307627 0.323803
O O3 0.375764 0.269685 0.594793
O O4 0.223530 0.367628 0.701274
O O5 0.097713 0.215363 0.197454
O O6 0.225251 0.122944 0.251413
O O7 0.211738 0.186012 0.625810
O O8 0.398512 0.219422 0.024212
O O9 0.666359 0.226852 0.859541
O O10 0.029265 0.602037 0.505263
O O11 0.107602 0.536142 0.161297
O O12 0.012784 0.618118 0.004133
O O13 0.404296 0.960449 0.821684
#
# Coordination Sequence:
#
# PCOD9344156 Si02
#       7
#     4   4   4   4   4   2   4
#     4  11  25  41  63 107 141 187 237 290 346 419
#     4  11  25  41  63 107 141 187 237 290 346 419
#     4  11  24  40  62  92 152 194 235 278 338 412
#     4  10  24  42  75 104 135 175 242 293 361 428
#     4  11  24  40  62  92 152 194 235 278 338 412
#     4   8  22  48  74 110 126 176 244 304 366 440
#     4  10  24  42  75 104 135 175 242 293 361 428
#
# _framework density 21.360883000000001
#
# number of rings (size 3 to 8) (size 9 to 14) (size 15 to 20)
#    0.923    0.615    3.077    0.462    8.615    0.000 
#    0.000    0.000    0.000    5.538    0.000    0.000 
#    0.000    0.000    0.000    0.000    0.000    0.000 
#
# Total GULP energy -144761.422469 kJ/mol
# GULP energy per Si atom -5567.747018 kJ/mol
# Density = 2.131226 g / cm^3
# Si number density = 21.360883 Si / 1000 Ang^3
#
#
#
# Elastic Constant Matrix: (Units=GPa)
#
#
# Indices 1 2 3 4 5 6 
#
# 1 118.3792 61.2457 21.7417 0.0000 0.0000 0.0000
# 2 61.2457 132.2282 31.4833 0.0000 0.0000 0.0000
# 3 21.7417 31.4833 78.3911 0.0000 0.0000 0.0000
# 4 0.0000 0.0000 0.0000 32.1527 0.0000 0.0000
# 5 0.0000 0.0000 0.0000 0.0000 9.6906 0.0000
# 6 0.0000 0.0000 0.0000 0.0000 0.0000 21.9363
#
#
#
# Elastic Compliance Matrix: (Units=1/GPa)
#
#
# Indices 1 2 3 4 5 6 
#
# 1 0.011200 -0.004918 -0.001131 0.000000 0.000000 0.000000
# 2 -0.004918 0.010522 -0.002862 0.000000 0.000000 0.000000
# 3 -0.001131 -0.002862 0.014220 0.000000 0.000000 0.000000
# 4 0.000000 0.000000 0.000000 0.031102 0.000000 0.000000
# 5 0.000000 0.000000 0.000000 0.000000 0.103192 0.000000
# 6 0.000000 0.000000 0.000000 0.000000 0.000000 0.045587
#
#
# Mechanical properties :
#
#
# Convention : Reuss Voigt Hill
#
# Bulk Modulus (GPa) = 55.18955 61.99331 58.59143
# Shear Modulus (GPa) = 20.86083 27.05777 23.95930
#
# Velocity S-wave (km/s) = 3.12844 3.56293 3.35273
# Velocity P-wave (km/s) = 6.24038 6.78313 6.51741
#
# Compressibility (1/GPa) = 0.01811937
#
# Stress axis : x y z
#
# Youngs Moduli (GPa) = 89.28841 95.03812 70.32560
#
# Poissons Ratio (x) = 0.46742 0.07954
# Poissons Ratio (y) = 0.43914 0.20126
# Poissons Ratio (z) = 0.10098 0.27198
#
# Static dielectric constant tensor:
#      x y z
#    x 1.960580 0.000000 0.000000 
#    y 0.000000 1.853210 0.000000 
#    z 0.000000 0.000000 2.087960 
# 
# From -- ./inp_files/602.got.cif
#   From: 2010.05.17/outbox.cif.g08.bks.cpg/sg32_1_cif.got.tgz:602.got - 2010.06.03 17:12:27.
