data_PCOD9344577
_publ_section_title
;
Structure prediction by ZEFSAII (Michael W. Deem and Ramdas Pophale) SiO2 
 PCOD9344577
Probable space group: P N A 21
;
_chemical_formula_sum "Si O2"
_cell_formula_units_Z 28
_cell_length_a 9.226190
_cell_length_b 26.116082
_cell_length_c 5.308537
_cell_angle_alpha 90.000000
_cell_angle_beta 90.000000
_cell_angle_gamma 90.000000
_cell_volume 1279.102260
_symmetry_space_group_name_H-M "P N A 21"
_symmetry_group_IT_number 33
_symmetry_cell_setting 'orthorhombic'
loop_
_space_group_symop_operation_xyz
x,y,z
-x,-y,1/2+z
1/2-x,1/2+y,1/2+z
1/2+x,1/2-y,z
loop_
_atom_site_type_symbol
_atom_site_label
_atom_site_fract_x
_atom_site_fract_y
_atom_site_fract_z
Si Si1 0.608785 0.891653 0.545810
Si Si2 0.099738 0.500576 0.541575
Si Si3 0.261844 0.710573 0.681135
Si Si4 0.689970 0.101590 0.321071
Si Si5 0.808139 0.180295 0.018411
Si Si6 0.468111 0.827622 0.194973
Si Si7 0.457477 0.714131 0.174961
O O1 0.666438 0.841199 0.686284
O O2 0.448923 0.907430 0.641574
O O3 0.586938 0.869587 0.265507
O O4 0.688003 0.945886 0.562149
O O5 0.197286 0.450495 0.480821
O O6 0.992094 0.507485 0.298677
O O7 0.176798 0.765301 0.665265
O O8 0.349145 0.709765 0.415381
O O9 0.369229 0.706743 0.918629
O O10 0.822650 0.127432 0.172572
O O11 0.633555 0.148620 0.487697
O O12 0.641186 0.180498 0.929156
O O13 0.909788 0.180207 0.773435
O O14 0.523992 0.771303 0.147126
#
# Coordination Sequence:
#
# PCOD9344577 Si02
#       7
#     4   4   4   4   4   4   4
#     4  10  21  36  56  88 124 151 192 255 306 372
#     4  10  20  34  57  88 118 147 189 246 310 369
#     4  11  24  36  57  85 120 163 194 244 309 356
#     4  10  20  35  59  87 118 157 194 248 312 358
#     4  10  22  36  55  83 120 159 201 247 293 367
#     4  10  19  34  57  81 120 155 193 243 306 358
#     4  11  24  37  55  86 118 162 207 237 294 372
#
# _framework density 21.890355
#
# number of rings (size 3 to 8) (size 9 to 14) (size 15 to 20)
#    0.000    1.714    4.286    0.000    4.000    0.000 
#    0.000    0.000    0.000    0.000    3.714    0.000 
#    0.000    0.000    0.000    0.000    0.000    0.000 
#
# Total GULP energy -156007.909046 kJ/mol
# GULP energy per Si atom -5571.711037 kJ/mol
# Density = 2.184053 g / cm^3
# Si number density = 21.890355 Si / 1000 Ang^3
#
#
#
# Elastic Constant Matrix: (Units=GPa)
#
#
# Indices 1 2 3 4 5 6 
#
# 1 37.4691 12.7512 20.1043 0.0000 0.0000 0.0000
# 2 12.7512 100.5937 32.4205 0.0000 0.0000 0.0000
# 3 20.1043 32.4205 116.4215 0.0000 0.0000 0.0000
# 4 0.0000 0.0000 0.0000 33.7183 0.0000 0.0000
# 5 0.0000 0.0000 0.0000 0.0000 36.2807 0.0000
# 6 0.0000 0.0000 0.0000 0.0000 0.0000 15.5752
#
#
#
# Elastic Compliance Matrix: (Units=1/GPa)
#
#
# Indices 1 2 3 4 5 6 
#
# 1 0.029906 -0.002336 -0.004514 0.000000 0.000000 0.000000
# 2 -0.002336 0.011104 -0.002689 0.000000 0.000000 0.000000
# 3 -0.004514 -0.002689 0.010118 0.000000 0.000000 0.000000
# 4 0.000000 0.000000 0.000000 0.029657 0.000000 0.000000
# 5 0.000000 0.000000 0.000000 0.000000 0.027563 0.000000
# 6 0.000000 0.000000 0.000000 0.000000 0.000000 0.064205
#
#
# Mechanical properties :
#
#
# Convention : Reuss Voigt Hill
#
# Bulk Modulus (GPa) = 31.20134 42.78179 36.99157
# Shear Modulus (GPa) = 24.71427 29.72872 27.22149
#
# Velocity S-wave (km/s) = 3.36371 3.68920 3.53021
# Velocity P-wave (km/s) = 5.41945 6.14272 5.79239
#
# Compressibility (1/GPa) = 0.03204990
#
# Stress axis : x y z
#
# Youngs Moduli (GPa) = 33.43862 90.06053 98.83708
#
# Poissons Ratio (x) = 0.21039 0.44612
# Poissons Ratio (y) = 0.07812 0.26574
# Poissons Ratio (z) = 0.15093 0.24214
#
# Static dielectric constant tensor:
#      x y z
#    x 1.851680 0.000000 0.000000 
#    y 0.000000 1.926700 0.000000 
#    z 0.000000 0.000000 1.911950 
# 
# From -- ./inp_files/559.got.cif
#   From: 2010.05.17/outbox.cif.g08.bks.cpg/sg33_1_cif.got.tgz:559.got - 2010.06.03 17:15:25.
