data_PCOD9344372
_publ_section_title
;
Structure prediction by ZEFSAII (Michael W. Deem and Ramdas Pophale) SiO2 
 PCOD9344372
Probable space group: P N A 21
;
_chemical_formula_sum "Si O2"
_cell_formula_units_Z 20
_cell_length_a 15.922070
_cell_length_b 10.452334
_cell_length_c 5.125530
_cell_angle_alpha 90.000000
_cell_angle_beta 90.000000
_cell_angle_gamma 90.000000
_cell_volume 853.005021
_symmetry_space_group_name_H-M "P N A 21"
_symmetry_group_IT_number 33
_symmetry_cell_setting 'orthorhombic'
loop_
_space_group_symop_operation_xyz
x,y,z
-x,-y,1/2+z
1/2-x,1/2+y,1/2+z
1/2+x,1/2-y,z
loop_
_atom_site_type_symbol
_atom_site_label
_atom_site_fract_x
_atom_site_fract_y
_atom_site_fract_z
Si Si1 0.311165 0.996955 0.890110
Si Si2 0.056262 0.996396 0.494163
Si Si3 0.016097 0.417382 0.454169
Si Si4 0.371480 0.235366 0.198316
Si Si5 0.773952 0.912621 0.874183
O O1 0.385279 0.893894 0.904658
O O2 0.272682 0.014440 0.608311
O O3 0.359813 0.128989 0.972394
O O4 0.240309 0.001618 0.113983
O O5 0.106635 0.870337 0.581145
O O6 0.128546 0.098754 0.432643
O O7 0.002521 0.969064 0.236683
O O8 0.008732 0.471353 0.745708
O O9 0.948788 0.308375 0.382985
O O10 0.280990 0.216664 0.337283
#
# Coordination Sequence:
#
# PCOD9344372 Si02
#       5
#     4   4   4   4   4
#     4   9  18  37  67  97 130 167 229 279 324 390
#     4  12  28  47  67  98 144 177 222 282 345 407
#     4  10  16  32  61 103 133 165 216 287 328 385
#     4   9  23  40  71  92 141 175 223 277 337 401
#     4  10  21  42  66  92 134 178 226 273 322 407
#
# _framework density 23.44652
#
# number of rings (size 3 to 8) (size 9 to 14) (size 15 to 20)
#    1.200    0.800    2.000    1.200    2.800    0.000 
#    3.600    0.000    0.000    0.000    0.000    0.000 
#    0.000    0.000    0.000    0.000    0.000    0.000 
#
# Total GULP energy -111625.285749 kJ/mol
# GULP energy per Si atom -5581.264287 kJ/mol
# Density = 2.339315 g / cm^3
# Si number density = 23.446520 Si / 1000 Ang^3
#
#
#
# Elastic Constant Matrix: (Units=GPa)
#
#
# Indices 1 2 3 4 5 6 
#
# 1 166.6068 44.2720 35.9555 0.0000 0.0000 0.0000
# 2 44.2720 82.9624 10.8235 0.0000 0.0000 0.0000
# 3 35.9555 10.8235 91.5912 0.0000 0.0000 0.0000
# 4 0.0000 0.0000 0.0000 18.2544 0.0000 0.0000
# 5 0.0000 0.0000 0.0000 0.0000 39.6489 0.0000
# 6 0.0000 0.0000 0.0000 0.0000 0.0000 16.7204
#
#
#
# Elastic Compliance Matrix: (Units=1/GPa)
#
#
# Indices 1 2 3 4 5 6 
#
# 1 0.007526 -0.003687 -0.002519 0.000000 0.000000 0.000000
# 2 -0.003687 0.014049 -0.000213 0.000000 0.000000 0.000000
# 3 -0.002519 -0.000213 0.011932 0.000000 0.000000 0.000000
# 4 0.000000 0.000000 0.000000 0.054781 0.000000 0.000000
# 5 0.000000 0.000000 0.000000 0.000000 0.025221 0.000000
# 6 0.000000 0.000000 0.000000 0.000000 0.000000 0.059807
#
#
# Mechanical properties :
#
#
# Convention : Reuss Voigt Hill
#
# Bulk Modulus (GPa) = 48.38060 58.14025 53.26042
# Shear Modulus (GPa) = 25.90096 31.59871 28.74984
#
# Velocity S-wave (km/s) = 3.32728 3.67508 3.50550
# Velocity P-wave (km/s) = 5.95318 6.54668 6.25697
#
# Compressibility (1/GPa) = 0.02066944
#
# Stress axis : x y z
#
# Youngs Moduli (GPa) = 132.88151 71.17891 83.80902
#
# Poissons Ratio (x) = 0.26246 0.21107
# Poissons Ratio (y) = 0.48998 0.01782
# Poissons Ratio (z) = 0.33466 0.01514
#
# Static dielectric constant tensor:
#      x y z
#    x 1.945550 0.000000 0.000000 
#    y 0.000000 1.913910 0.000000 
#    z 0.000000 0.000000 1.838670 
# 
# From -- ./inp_files/1250.got.cif
#   From: 2010.05.17/outbox.cif.g08.bks.cpg/sg33_1_cif.got.tgz:1250.got - 2010.06.03 17:15:25.
