data_PCOD9344202
_publ_section_title
;
Structure prediction by ZEFSAII (Michael W. Deem and Ramdas Pophale) SiO2 
 PCOD9344202
Probable space group: P B A 2
;
_chemical_formula_sum "Si O2"
_cell_formula_units_Z 18
_cell_length_a 8.673231
_cell_length_b 9.017835
_cell_length_c 8.220968
_cell_angle_alpha 90.000000
_cell_angle_beta 90.000000
_cell_angle_gamma 90.000000
_cell_volume 642.992868
_symmetry_space_group_name_H-M "P B A 2"
_symmetry_group_IT_number 32
_symmetry_cell_setting 'orthorhombic'
loop_
_space_group_symop_operation_xyz
x,y,z
-x,-y,z
1/2-x,1/2+y,z
1/2+x,1/2-y,z
loop_
_atom_site_type_symbol
_atom_site_label
_atom_site_fract_x
_atom_site_fract_y
_atom_site_fract_z
Si Si1 0.248753 0.622706 0.206900
Si Si2 0.186722 0.868667 0.435221
Si Si3 0.062411 0.266376 0.652705
Si Si4 0.000000 0.000000 0.834241
Si Si5 0.690354 0.128600 0.974858
O O1 0.154397 0.751641 0.293192
O O2 0.332416 0.530135 0.352861
O O3 0.337470 0.717770 0.070844
O O4 0.161237 0.500845 0.103184
O O5 0.359979 0.849325 0.501183
O O6 0.099829 0.793734 0.587018
O O7 0.092232 0.365379 0.810625
O O8 0.112751 0.104134 0.722961
O O9 0.127679 0.900206 0.928678
#
# Coordination Sequence:
#
# PCOD9344202 Si02
#       5
#     4   4   4   2   4
#     4  10  25  50  75 119 157 215 266 353 415 503
#     4  11  26  49  75 115 165 210 273 343 428 490
#     4  12  25  49  79 115 158 220 272 339 409 506
#     4  12  24  48  82 114 164 210 284 350 406 478
#     4  11  24  50  82 117 159 222 283 337 415 503
#
# _framework density 27.99409
#
# number of rings (size 3 to 8) (size 9 to 14) (size 15 to 20)
#    0.000    0.889    4.444    1.333    0.000    4.444 
#    8.000    0.000    0.000    0.000    0.000    0.000 
#    0.000    0.000    0.000    0.000    0.000    0.000 
#
# Total GULP energy -100492.014843 kJ/mol
# GULP energy per Si atom -5582.889713 kJ/mol
# Density = 2.793037 g / cm^3
# Si number density = 27.994090 Si / 1000 Ang^3
#
#
#
# Elastic Constant Matrix: (Units=GPa)
#
#
# Indices 1 2 3 4 5 6 
#
# 1 66.7785 31.5159 31.3534 0.0000 0.0000 0.0000
# 2 31.5159 169.3340 57.2832 0.0000 0.0000 0.0000
# 3 31.3534 57.2832 175.3990 0.0000 0.0000 0.0000
# 4 0.0000 0.0000 0.0000 38.2295 0.0000 0.0000
# 5 0.0000 0.0000 0.0000 0.0000 36.7006 0.0000
# 6 0.0000 0.0000 0.0000 0.0000 0.0000 18.8021
#
#
#
# Elastic Compliance Matrix: (Units=1/GPa)
#
#
# Indices 1 2 3 4 5 6 
#
# 1 0.017191 -0.002428 -0.002280 0.000000 0.000000 0.000000
# 2 -0.002428 0.006982 -0.001846 0.000000 0.000000 0.000000
# 3 -0.002280 -0.001846 0.006712 0.000000 0.000000 0.000000
# 4 0.000000 0.000000 0.000000 0.026158 0.000000 0.000000
# 5 0.000000 0.000000 0.000000 0.000000 0.027247 0.000000
# 6 0.000000 0.000000 0.000000 0.000000 0.000000 0.053185
#
#
# Mechanical properties :
#
#
# Convention : Reuss Voigt Hill
#
# Bulk Modulus (GPa) = 56.25492 72.42405 64.33949
# Shear Modulus (GPa) = 31.94681 38.17040 35.05860
#
# Velocity S-wave (km/s) = 3.38183 3.69659 3.54271
# Velocity P-wave (km/s) = 5.94877 6.64432 6.30615
#
# Compressibility (1/GPa) = 0.01777622
#
# Stress axis : x y z
#
# Youngs Moduli (GPa) = 58.16864 143.22618 148.99192
#
# Poissons Ratio (x) = 0.34780 0.33970
# Poissons Ratio (y) = 0.14125 0.27506
# Poissons Ratio (z) = 0.13262 0.26442
#
# Static dielectric constant tensor:
#      x y z
#    x 2.236940 0.000000 0.000000 
#    y 0.000000 2.194930 0.000000 
#    z 0.000000 0.000000 2.289510 
# 
# From -- ./inp_files/2674.got.cif
#   From: 2010.05.17/outbox.cif.g08.bks.cpg/sg32_2_cif.got.tgz:2674.got - 2010.06.03 17:12:27.
