data_PCOD9344023
_publ_section_title
;
Structure prediction by ZEFSAII (Michael W. Deem and Ramdas Pophale) SiO2 
 PCOD9344023
Probable space group: P B A 2
;
_chemical_formula_sum "Si O2"
_cell_formula_units_Z 28
_cell_length_a 15.564876
_cell_length_b 15.463233
_cell_length_c 5.282355
_cell_angle_alpha 90.000000
_cell_angle_beta 90.000000
_cell_angle_gamma 90.000000
_cell_volume 1271.374655
_symmetry_space_group_name_H-M "P B A 2"
_symmetry_group_IT_number 32
_symmetry_cell_setting 'orthorhombic'
loop_
_space_group_symop_operation_xyz
x,y,z
-x,-y,z
1/2-x,1/2+y,z
1/2+x,1/2-y,z
loop_
_atom_site_type_symbol
_atom_site_label
_atom_site_fract_x
_atom_site_fract_y
_atom_site_fract_z
Si Si1 0.317218 0.497163 0.216060
Si Si2 0.507649 0.783155 0.247851
Si Si3 0.500000 0.000000 0.881106
Si Si4 0.892671 0.597827 0.530032
Si Si5 0.144013 0.573880 0.248545
Si Si6 0.537673 0.682912 0.739876
Si Si7 0.000000 0.000000 0.978763
Si Si8 0.714438 0.614759 0.719138
O O1 0.246030 0.573263 0.201980
O O2 0.415154 0.517284 0.146065
O O3 0.312488 0.449841 0.488151
O O4 0.286608 0.432112 0.991486
O O5 0.430946 0.851332 0.292887
O O6 0.596997 0.835563 0.289314
O O7 0.500816 0.714165 0.474198
O O8 0.506731 0.738750 0.977361
O O9 0.471457 0.917774 0.716942
O O10 0.583293 0.969764 0.035489
O O11 0.866669 0.498971 0.465800
O O12 0.810476 0.642854 0.649912
O O13 0.641376 0.686992 0.727339
O O14 0.516507 0.583968 0.807814
#
# Coordination Sequence:
#
# PCOD9344023 Si02
#       8
#     4   4   2   4   4   4   2   4
#     4  10  22  39  72  94 124 172 236 284 317 413
#     4  12  24  41  64 103 142 166 222 283 353 389
#     4  12  16  36  66  98 134 176 212 250 326 410
#     4  11  22  37  68  97 139 180 213 263 340 437
#     4  11  22  37  64 104 137 178 213 266 343 424
#     4  11  26  44  67  92 131 182 225 300 327 394
#     4  10  24  52  70  92 126 186 252 274 344 392
#     4  10  22  42  64  96 125 179 225 267 347 396
#
# _framework density 22.023403999999999
#
# number of rings (size 3 to 8) (size 9 to 14) (size 15 to 20)
#    0.000    1.143    4.286    2.571    0.000    5.143 
#    5.143    0.000    0.000    0.000    0.000    0.000 
#    0.000    0.000    0.000    0.000    0.000    0.000 
#
# Total GULP energy -156387.881377 kJ/mol
# GULP energy per Si atom -5585.281478 kJ/mol
# Density = 2.197328 g / cm^3
# Si number density = 22.023404 Si / 1000 Ang^3
#
#
#
# Elastic Constant Matrix: (Units=GPa)
#
#
# Indices 1 2 3 4 5 6 
#
# 1 132.8792 14.4019 6.8371 0.0000 0.0000 0.0000
# 2 14.4019 73.6809 22.9287 0.0000 0.0000 0.0000
# 3 6.8371 22.9287 80.0706 0.0000 0.0000 0.0000
# 4 0.0000 0.0000 0.0000 29.9801 0.0000 0.0000
# 5 0.0000 0.0000 0.0000 0.0000 25.5658 0.0000
# 6 0.0000 0.0000 0.0000 0.0000 0.0000 25.1549
#
#
#
# Elastic Compliance Matrix: (Units=1/GPa)
#
#
# Indices 1 2 3 4 5 6 
#
# 1 0.007693 -0.001426 -0.000248 0.000000 0.000000 0.000000
# 2 -0.001426 0.015164 -0.004221 0.000000 0.000000 0.000000
# 3 -0.000248 -0.004221 0.013719 0.000000 0.000000 0.000000
# 4 0.000000 0.000000 0.000000 0.033356 0.000000 0.000000
# 5 0.000000 0.000000 0.000000 0.000000 0.039115 0.000000
# 6 0.000000 0.000000 0.000000 0.000000 0.000000 0.039754
#
#
# Mechanical properties :
#
#
# Convention : Reuss Voigt Hill
#
# Bulk Modulus (GPa) = 40.34662 41.66290 41.00476
# Shear Modulus (GPa) = 29.61164 32.30436 30.95800
#
# Velocity S-wave (km/s) = 3.67079 3.83406 3.75332
# Velocity P-wave (km/s) = 6.02710 6.20956 6.11901
#
# Compressibility (1/GPa) = 0.02478523
#
# Stress axis : x y z
#
# Youngs Moduli (GPa) = 129.98806 65.94459 72.89282
#
# Poissons Ratio (x) = 0.09406 0.01811
# Poissons Ratio (y) = 0.18541 0.30765
# Poissons Ratio (z) = 0.03229 0.27832
#
# Static dielectric constant tensor:
#      x y z
#    x 1.861260 0.000000 0.000000 
#    y 0.000000 1.837310 0.000000 
#    z 0.000000 0.000000 1.837990 
# 
# From -- ./inp_files/1265.got.cif
#   From: 2010.05.17/outbox.cif.g08.bks.cpg/sg32_1_cif.got.tgz:1265.got - 2010.06.03 17:12:27.
