data_PCOD9344634
_publ_section_title
;
Structure prediction by ZEFSAII (Michael W. Deem and Ramdas Pophale) SiO2 
 PCOD9344634
Probable space group: P N A 21
;
_chemical_formula_sum "Si O2"
_cell_formula_units_Z 32
_cell_length_a 5.569509
_cell_length_b 29.701313
_cell_length_c 8.389877
_cell_angle_alpha 90.000000
_cell_angle_beta 90.000000
_cell_angle_gamma 90.000000
_cell_volume 1387.867968
_symmetry_space_group_name_H-M "P N A 21"
_symmetry_group_IT_number 33
_symmetry_cell_setting 'orthorhombic'
loop_
_space_group_symop_operation_xyz
x,y,z
-x,-y,1/2+z
1/2-x,1/2+y,1/2+z
1/2+x,1/2-y,z
loop_
_atom_site_type_symbol
_atom_site_label
_atom_site_fract_x
_atom_site_fract_y
_atom_site_fract_z
Si Si1 0.207547 0.459162 0.892810
Si Si2 0.524564 0.523674 0.092285
Si Si3 0.544336 0.626842 0.503717
Si Si4 0.892542 0.259645 0.494131
Si Si5 0.930509 0.365366 0.468792
Si Si6 0.127691 0.773957 0.633122
Si Si7 0.576661 0.595285 0.846210
Si Si8 0.183872 0.590536 0.285434
O O1 0.270413 0.483841 0.724919
O O2 0.926466 0.449560 0.893948
O O3 0.338616 0.486527 0.030383
O O4 0.283743 0.406147 0.903272
O O5 0.375843 0.561980 0.185085
O O6 0.616122 0.547523 0.931374
O O7 0.625502 0.675699 0.562644
O O8 0.512334 0.597746 0.662469
O O9 0.304049 0.627371 0.399077
O O10 0.139088 0.246962 0.580532
O O11 0.913754 0.311981 0.455820
O O12 0.880357 0.230638 0.328517
O O13 0.166638 0.380375 0.371938
O O14 0.666010 0.382493 0.417960
O O15 0.966681 0.384678 0.647361
O O16 0.876298 0.750262 0.584561
#
# Coordination Sequence:
#
# PCOD9344634 Si02
#       8
#     4   4   4   4   4   4   4   4
#     4  11  23  45  67  95 144 181 233 292 354 430
#     4  10  23  42  66 100 134 180 236 283 352 418
#     4  11  25  41  67 104 136 186 238 291 368 421
#     4  10  19  35  61  95 124 170 223 289 335 413
#     4  11  22  43  69  95 138 180 233 284 359 415
#     4  10  21  38  63  96 135 173 231 295 344 415
#     4  11  22  40  68 102 131 183 229 289 341 424
#     4  10  25  44  65  99 142 189 229 303 353 438
#
# _framework density 23.056946
#
# number of rings (size 3 to 8) (size 9 to 14) (size 15 to 20)
#    0.000    1.500    1.250    4.500    3.500    3.000 
#    2.250    1.250    0.000    0.000    0.000    0.000 
#    0.000    0.000    0.000    0.000    0.000    0.000 
#
# Total GULP energy -178296.646450 kJ/mol
# GULP energy per Si atom -5571.770202 kJ/mol
# Density = 2.300447 g / cm^3
# Si number density = 23.056946 Si / 1000 Ang^3
#
#
#
# Elastic Constant Matrix: (Units=GPa)
#
#
# Indices 1 2 3 4 5 6 
#
# 1 88.2089 8.8557 -13.5944 0.0000 0.0000 0.0000
# 2 8.8557 65.9270 29.4620 0.0000 0.0000 0.0000
# 3 -13.5944 29.4620 26.4979 0.0000 0.0000 0.0000
# 4 0.0000 0.0000 0.0000 22.1316 0.0000 0.0000
# 5 0.0000 0.0000 0.0000 0.0000 12.8304 0.0000
# 6 0.0000 0.0000 0.0000 0.0000 0.0000 19.1033
#
#
#
# Elastic Compliance Matrix: (Units=1/GPa)
#
#
# Indices 1 2 3 4 5 6 
#
# 1 0.015647 -0.011308 0.020600 0.000000 0.000000 0.000000
# 2 -0.011308 0.038320 -0.048408 0.000000 0.000000 0.000000
# 3 0.020600 -0.048408 0.102130 0.000000 0.000000 0.000000
# 4 0.000000 0.000000 0.000000 0.045184 0.000000 0.000000
# 5 0.000000 0.000000 0.000000 0.000000 0.077940 0.000000
# 6 0.000000 0.000000 0.000000 0.000000 0.000000 0.052347
#
#
# Mechanical properties :
#
#
# Convention : Reuss Voigt Hill
#
# Bulk Modulus (GPa) = 12.84261 25.56450 19.20355
# Shear Modulus (GPa) = 11.47433 21.20710 16.34072
#
# Velocity S-wave (km/s) = 2.23323 3.03606 2.66505
# Velocity P-wave (km/s) = 3.49740 4.83755 4.22100
#
# Compressibility (1/GPa) = 0.07786580
#
# Stress axis : x y z
#
# Youngs Moduli (GPa) = 63.91124 26.09592 9.79140
#
# Poissons Ratio (x) = 0.29508 -0.20170
# Poissons Ratio (y) = 0.72268 0.47398
# Poissons Ratio (z) = -1.31656 1.26325
#
# Static dielectric constant tensor:
#      x y z
#    x 2.133130 0.000000 0.000000 
#    y 0.000000 1.869230 0.000000 
#    z 0.000000 0.000000 1.934550 
# 
# From -- ./inp_files/2858.got.cif
#   From: 2010.05.17/outbox.cif.g08.bks.cpg/sg33_2_cif.got.tgz:2858.got - 2010.06.03 17:15:25.
