data_PCOD9344022
_publ_section_title
;
Structure prediction by ZEFSAII (Michael W. Deem and Ramdas Pophale) SiO2 
 PCOD9344022
Probable space group: P B A 2
;
_chemical_formula_sum "Si O2"
_cell_formula_units_Z 28
_cell_length_a 22.984951
_cell_length_b 9.327121
_cell_length_c 5.320256
_cell_angle_alpha 90.000000
_cell_angle_beta 90.000000
_cell_angle_gamma 90.000000
_cell_volume 1140.574672
_symmetry_space_group_name_H-M "P B A 2"
_symmetry_group_IT_number 32
_symmetry_cell_setting 'orthorhombic'
loop_
_space_group_symop_operation_xyz
x,y,z
-x,-y,z
1/2-x,1/2+y,z
1/2+x,1/2-y,z
loop_
_atom_site_type_symbol
_atom_site_label
_atom_site_fract_x
_atom_site_fract_y
_atom_site_fract_z
Si Si1 0.648224 0.213887 0.605270
Si Si2 0.947299 0.104736 0.884217
Si Si3 0.984798 0.666025 0.680789
Si Si4 0.260119 0.916817 0.920040
Si Si5 0.789833 0.970005 0.418762
Si Si6 0.329003 0.073937 0.279009
Si Si7 0.077749 0.813359 0.381530
O O1 0.582878 0.198849 0.706848
O O2 0.696984 0.210960 0.828513
O O3 0.658929 0.356494 0.444351
O O4 0.657950 0.075426 0.424652
O O5 0.976451 0.263288 0.900625
O O6 0.905492 0.115297 0.646868
O O7 0.921742 0.076563 0.154264
O O8 0.000000 0.000000 0.824814
O O9 0.000000 0.500000 0.657724
O O10 0.013528 0.752910 0.448335
O O11 0.221374 0.949519 0.679525
O O12 0.219881 0.929301 0.171235
O O13 0.310068 0.035681 0.994209
O O14 0.731335 0.871663 0.395127
O O15 0.380399 0.183131 0.315635
#
# Coordination Sequence:
#
# PCOD9344022 Si02
#       7
#     4   4   4   4   4   4   4
#     4  11  20  42  67  90 140 168 214 298 329 406
#     4  10  23  43  64  91 138 181 214 273 329 413
#     4  10  23  39  68 107 131 174 226 278 350 400
#     4   9  22  37  61  87 123 163 222 262 336 385
#     4   9  22  37  59  87 121 171 212 255 340 387
#     4   9  21  38  64  95 122 167 217 278 329 397
#     4  10  22  39  69  92 133 166 231 261 338 407
#
# _framework density 24.549026999999999
#
# number of rings (size 3 to 8) (size 9 to 14) (size 15 to 20)
#    1.714    0.571    1.429    0.429    8.000    1.714 
#    0.000    2.857    3.143    0.000    0.000    0.000 
#    0.000    0.000    0.000    0.000    0.000    0.000 
#
# Total GULP energy -156049.643208 kJ/mol
# GULP energy per Si atom -5573.201543 kJ/mol
# Density = 2.449315 g / cm^3
# Si number density = 24.549027 Si / 1000 Ang^3
#
#
#
# Elastic Constant Matrix: (Units=GPa)
#
#
# Indices 1 2 3 4 5 6 
#
# 1 108.2356 43.4468 22.2061 0.0000 0.0000 0.0000
# 2 43.4468 71.7250 39.8122 0.0000 0.0000 0.0000
# 3 22.2061 39.8122 160.1777 0.0000 0.0000 0.0000
# 4 0.0000 0.0000 0.0000 24.0625 0.0000 0.0000
# 5 0.0000 0.0000 0.0000 0.0000 8.5868 0.0000
# 6 0.0000 0.0000 0.0000 0.0000 0.0000 37.7364
#
#
#
# Elastic Compliance Matrix: (Units=1/GPa)
#
#
# Indices 1 2 3 4 5 6 
#
# 1 0.012211 -0.007491 0.000169 0.000000 0.000000 0.000000
# 2 -0.007491 0.020768 -0.004124 0.000000 0.000000 0.000000
# 3 0.000169 -0.004124 0.007245 0.000000 0.000000 0.000000
# 4 0.000000 0.000000 0.000000 0.041558 0.000000 0.000000
# 5 0.000000 0.000000 0.000000 0.000000 0.116458 0.000000
# 6 0.000000 0.000000 0.000000 0.000000 0.000000 0.026500
#
#
# Mechanical properties :
#
#
# Convention : Reuss Voigt Hill
#
# Bulk Modulus (GPa) = 57.69116 61.22984 59.46050
# Shear Modulus (GPa) = 19.73094 29.72200 24.72647
#
# Velocity S-wave (km/s) = 2.83810 3.48332 3.17713
# Velocity P-wave (km/s) = 5.85586 6.41670 6.14268
#
# Compressibility (1/GPa) = 0.01733368
#
# Stress axis : x y z
#
# Youngs Moduli (GPa) = 81.89164 48.15014 138.03466
#
# Poissons Ratio (x) = 0.36067 -0.02331
# Poissons Ratio (y) = 0.61342 0.56919
# Poissons Ratio (z) = -0.01383 0.19855
#
# Static dielectric constant tensor:
#      x y z
#    x 1.965450 0.000000 0.000000 
#    y 0.000000 1.945470 0.000000 
#    z 0.000000 0.000000 2.023100 
# 
# From -- ./inp_files/1560.got.cif
#   From: 2010.05.17/outbox.cif.g08.bks.cpg/sg32_1_cif.got.tgz:1560.got - 2010.06.03 17:12:27.
