data_PCOD9344061
_publ_section_title
;
Structure prediction by ZEFSAII (Michael W. Deem and Ramdas Pophale) SiO2 
 PCOD9344061
Probable space group: P B A 2
;
_chemical_formula_sum "Si O2"
_cell_formula_units_Z 24
_cell_length_a 8.457022
_cell_length_b 22.214500
_cell_length_c 4.899088
_cell_angle_alpha 90.000000
_cell_angle_beta 90.000000
_cell_angle_gamma 90.000000
_cell_volume 920.384388
_symmetry_space_group_name_H-M "P B A 2"
_symmetry_group_IT_number 32
_symmetry_cell_setting 'orthorhombic'
loop_
_space_group_symop_operation_xyz
x,y,z
-x,-y,z
1/2-x,1/2+y,z
1/2+x,1/2-y,z
loop_
_atom_site_type_symbol
_atom_site_label
_atom_site_fract_x
_atom_site_fract_y
_atom_site_fract_z
Si Si1 0.830469 0.484314 0.056490
Si Si2 0.502603 0.319234 0.469371
Si Si3 0.323012 0.216729 0.638932
Si Si4 0.453716 0.560045 0.676072
Si Si5 0.431443 0.144662 0.141927
Si Si6 0.776726 0.112002 0.067275
O O1 0.775323 0.546546 0.199555
O O2 0.000000 0.500000 0.912070
O O3 0.876567 0.423267 0.211863
O O4 0.685689 0.462116 0.870537
O O5 0.394073 0.282974 0.684182
O O6 0.657308 0.277663 0.480437
O O7 0.593632 0.382393 0.509922
O O8 0.379349 0.341298 0.242393
O O9 0.430432 0.182443 0.417356
O O10 0.321789 0.178398 0.917482
O O11 0.500000 0.500000 0.515129
O O12 0.606678 0.587811 0.831056
O O13 0.606326 0.140724 0.009294
#
# Coordination Sequence:
#
# PCOD9344061 Si02
#       6
#     4   4   4   4   4   4
#     4   9  19  45  73 107 144 198 251 321 386 458
#     4  12  27  45  71 108 147 205 252 319 377 472
#     4  12  29  46  77 102 158 199 262 304 392 452
#     4  10  22  42  71 104 143 190 248 314 382 448
#     4  11  25  49  74 111 147 200 249 320 374 475
#     4  10  24  43  74 104 153 187 260 308 399 444
#
# _framework density 26.076063999999999
#
# number of rings (size 3 to 8) (size 9 to 14) (size 15 to 20)
#    0.000    1.333    1.667    2.000    7.000    3.333 
#    0.000    2.500    0.000    0.000    0.000    0.000 
#    0.000    0.000    0.000    0.000    0.000    0.000 
#
# Total GULP energy -133779.959065 kJ/mol
# GULP energy per Si atom -5574.164961 kJ/mol
# Density = 2.601671 g / cm^3
# Si number density = 26.076064 Si / 1000 Ang^3
#
#
#
# Elastic Constant Matrix: (Units=GPa)
#
#
# Indices 1 2 3 4 5 6 
#
# 1 122.4675 24.5665 8.7589 0.0000 0.0000 0.0000
# 2 24.5665 129.3113 20.4529 0.0000 0.0000 0.0000
# 3 8.7589 20.4529 58.6769 0.0000 0.0000 0.0000
# 4 0.0000 0.0000 0.0000 28.6943 0.0000 0.0000
# 5 0.0000 0.0000 0.0000 0.0000 20.2981 0.0000
# 6 0.0000 0.0000 0.0000 0.0000 0.0000 73.2507
#
#
#
# Elastic Compliance Matrix: (Units=1/GPa)
#
#
# Indices 1 2 3 4 5 6 
#
# 1 0.008520 -0.001500 -0.000749 0.000000 0.000000 0.000000
# 2 -0.001500 0.008449 -0.002721 0.000000 0.000000 0.000000
# 3 -0.000749 -0.002721 0.018103 0.000000 0.000000 0.000000
# 4 0.000000 0.000000 0.000000 0.034850 0.000000 0.000000
# 5 0.000000 0.000000 0.000000 0.000000 0.049266 0.000000
# 6 0.000000 0.000000 0.000000 0.000000 0.000000 0.013652
#
#
# Mechanical properties :
#
#
# Convention : Reuss Voigt Hill
#
# Bulk Modulus (GPa) = 39.79118 46.44584 43.11851
# Shear Modulus (GPa) = 33.07840 41.56044 37.31942
#
# Velocity S-wave (km/s) = 3.56551 3.99659 3.78719
# Velocity P-wave (km/s) = 5.67832 6.25678 5.97456
#
# Compressibility (1/GPa) = 0.02513120
#
# Stress axis : x y z
#
# Youngs Moduli (GPa) = 117.37205 118.36208 55.24027
#
# Poissons Ratio (x) = 0.17756 0.04137
# Poissons Ratio (y) = 0.17608 0.15031
# Poissons Ratio (z) = 0.08790 0.32206
#
# Static dielectric constant tensor:
#      x y z
#    x 2.371490 0.000000 0.000000 
#    y 0.000000 2.175780 0.000000 
#    z 0.000000 0.000000 2.094010 
# 
# From -- ./inp_files/500.got.cif
#   From: 2010.05.17/outbox.cif.g08.bks.cpg/sg32_1_cif.got.tgz:500.got - 2010.06.03 17:12:27.
