data_PCOD9344797
_publ_section_title
;
Structure prediction by ZEFSAII (Michael W. Deem and Ramdas Pophale) SiO2 
 PCOD9344797
Probable space group: P N A 21
;
_chemical_formula_sum "Si O2"
_cell_formula_units_Z 32
_cell_length_a 15.968725
_cell_length_b 7.485864
_cell_length_c 9.662030
_cell_angle_alpha 90.000000
_cell_angle_beta 90.000000
_cell_angle_gamma 90.000000
_cell_volume 1154.996202
_symmetry_space_group_name_H-M "P N A 21"
_symmetry_group_IT_number 33
_symmetry_cell_setting 'orthorhombic'
loop_
_space_group_symop_operation_xyz
x,y,z
-x,-y,1/2+z
1/2-x,1/2+y,1/2+z
1/2+x,1/2-y,z
loop_
_atom_site_type_symbol
_atom_site_label
_atom_site_fract_x
_atom_site_fract_y
_atom_site_fract_z
Si Si1 0.095248 0.280424 0.898290
Si Si2 0.243158 0.215449 0.222718
Si Si3 0.513654 0.204024 0.157668
Si Si4 0.404749 0.219573 0.398290
Si Si5 0.355224 0.292289 0.975971
Si Si6 0.756840 0.215458 0.722718
Si Si7 0.513656 0.795973 0.157667
Si Si8 0.644773 0.292301 0.475971
O O1 0.093655 0.499999 0.901178
O O2 0.177593 0.227148 0.817306
O O3 0.018976 0.216190 0.800362
O O4 0.081897 0.214313 0.054190
O O5 0.322404 0.272846 0.317306
O O6 0.270948 0.280249 0.071569
O O7 0.166194 0.273223 0.321046
O O8 0.241463 0.999995 0.218052
O O9 0.481021 0.283810 0.300361
O O10 0.429313 0.199697 0.060700
O O11 0.536179 1.000000 0.183841
O O12 0.418099 0.285684 0.554191
O O13 0.376463 0.499993 0.969012
O O14 0.333803 0.226764 0.821046
O O15 0.729049 0.280258 0.571569
O O16 0.429316 0.800291 0.060699
#
# Coordination Sequence:
#
# PCOD9344797 Si02
#       8
#     4   4   4   4   4   4   4   4
#     4   8  15  29  49  69  89 121 163 200 233 276
#     4   9  19  35  52  72  99 130 167 205 239 287
#     4   9  17  31  50  70  95 126 162 203 241 282
#     4   8  15  29  49  69  89 121 163 200 233 276
#     4  10  20  33  51  75 101 129 162 202 249 295
#     4   9  19  35  52  72  99 130 167 205 239 287
#     4   9  17  31  50  70  95 126 162 203 241 282
#     4  10  20  33  51  75 101 129 162 202 249 295
#
# _framework density 27.705717
#
# number of rings (size 3 to 8) (size 9 to 14) (size 15 to 20)
#    0.000    3.000    0.000    2.250    0.000    4.000 
#    0.000   10.000    0.000    0.000    0.000    0.000 
#    0.000    0.000    0.000    0.000    0.000    0.000 
#
# Total GULP energy -179033.293881 kJ/mol
# GULP energy per Si atom -5594.790434 kJ/mol
# Density = 2.764266 g / cm^3
# Si number density = 27.705717 Si / 1000 Ang^3
#
#
#
# Elastic Constant Matrix: (Units=GPa)
#
#
# Indices 1 2 3 4 5 6 
#
# 1 71.8713 22.2545 0.5316 0.0000 0.0000 0.0000
# 2 22.2545 120.3725 14.0856 0.0000 0.0000 0.0000
# 3 0.5316 14.0856 195.5626 0.0000 0.0000 0.0000
# 4 0.0000 0.0000 0.0000 17.4195 0.0000 0.0000
# 5 0.0000 0.0000 0.0000 0.0000 67.9776 0.0000
# 6 0.0000 0.0000 0.0000 0.0000 0.0000 24.8753
#
#
#
# Elastic Compliance Matrix: (Units=1/GPa)
#
#
# Indices 1 2 3 4 5 6 
#
# 1 0.014763 -0.002748 0.000158 0.000000 0.000000 0.000000
# 2 -0.002748 0.008890 -0.000633 0.000000 0.000000 0.000000
# 3 0.000158 -0.000633 0.005159 0.000000 0.000000 0.000000
# 4 0.000000 0.000000 0.000000 0.057407 0.000000 0.000000
# 5 0.000000 0.000000 0.000000 0.000000 0.014711 0.000000
# 6 0.000000 0.000000 0.000000 0.000000 0.000000 0.040200
#
#
# Mechanical properties :
#
#
# Convention : Reuss Voigt Hill
#
# Bulk Modulus (GPa) = 44.71116 51.28333 47.99724
# Shear Modulus (GPa) = 32.25160 45.45014 38.85087
#
# Velocity S-wave (km/s) = 3.41556 4.05465 3.74875
# Velocity P-wave (km/s) = 5.63273 6.36164 6.00825
#
# Compressibility (1/GPa) = 0.02236578
#
# Stress axis : x y z
#
# Youngs Moduli (GPa) = 67.73472 112.49052 193.85098
#
# Poissons Ratio (x) = 0.30912 -0.03059
# Poissons Ratio (y) = 0.18613 0.12267
# Poissons Ratio (z) = -0.01069 0.07119
#
# Static dielectric constant tensor:
#      x y z
#    x 2.326370 0.000000 0.000000 
#    y 0.000000 1.973070 0.000000 
#    z 0.000000 0.000000 2.145650 
# 
# From -- ./inp_files/5047.got.cif
#   From: 2010.05.17/outbox.cif.g08.bks.cpg/sg33_3_cif.got.tgz:5047.got - 2010.06.03 17:15:25.
