data_PCOD9344922
_publ_section_title
;
Structure prediction by ZEFSAII (Michael W. Deem and Ramdas Pophale) SiO2 
 PCOD9344922
Probable space group: P N A 21
;
_chemical_formula_sum "Si O2"
_cell_formula_units_Z 32
_cell_length_a 7.816062
_cell_length_b 14.573643
_cell_length_c 10.913742
_cell_angle_alpha 90.000000
_cell_angle_beta 90.000000
_cell_angle_gamma 90.000000
_cell_volume 1243.167951
_symmetry_space_group_name_H-M "P N A 21"
_symmetry_group_IT_number 33
_symmetry_cell_setting 'orthorhombic'
loop_
_space_group_symop_operation_xyz
x,y,z
-x,-y,1/2+z
1/2-x,1/2+y,1/2+z
1/2+x,1/2-y,z
loop_
_atom_site_type_symbol
_atom_site_label
_atom_site_fract_x
_atom_site_fract_y
_atom_site_fract_z
Si Si1 0.489488 0.281110 0.088030
Si Si2 0.025975 0.860650 0.351028
Si Si3 0.920421 0.263439 0.643309
Si Si4 0.656369 0.897308 0.607486
Si Si5 0.674306 0.262595 0.461417
Si Si6 0.727304 0.607475 0.766278
Si Si7 0.633091 0.920614 0.328340
Si Si8 0.843941 0.955717 0.832811
O O1 0.478845 0.180952 0.147209
O O2 0.666124 0.336574 0.097173
O O3 0.337691 0.339316 0.147266
O O4 0.450399 0.276418 0.944069
O O5 0.076648 0.830691 0.217062
O O6 0.826909 0.883583 0.343466
O O7 0.140712 0.945729 0.396744
O O8 0.717125 0.267313 0.607166
O O9 0.956375 0.349648 0.733156
O O10 0.973012 0.258483 0.498629
O O11 0.591566 0.933354 0.474891
O O12 0.720903 0.963972 0.714626
O O13 0.718413 0.181181 0.368625
O O14 0.701205 0.363364 0.405122
O O15 0.852328 0.520535 0.765493
O O16 0.542503 0.563097 0.802101
#
# Coordination Sequence:
#
# PCOD9344922 Si02
#       8
#     4   4   4   4   4   4   4   4
#     4  10  20  37  63  86 118 157 206 254 306 369
#     4  10  22  39  65  95 122 167 217 259 313 389
#     4  12  24  40  65  94 132 168 212 265 326 388
#     4  10  20  37  63  86 118 157 206 254 306 369
#     4  12  24  40  65  94 132 168 212 265 326 388
#     4  10  22  41  65  92 126 168 212 264 321 378
#     4  10  22  41  65  92 126 168 212 264 321 378
#     4  10  22  39  65  95 122 167 217 259 313 389
#
# _framework density 25.740689
#
# number of rings (size 3 to 8) (size 9 to 14) (size 15 to 20)
#    0.000    1.500    5.000    0.000    3.500    1.000 
#    0.000    2.500    0.000    0.000    0.000    0.000 
#    0.000    0.000    0.000    0.000    0.000    0.000 
#
# Total GULP energy -178362.601678 kJ/mol
# GULP energy per Si atom -5573.831302 kJ/mol
# Density = 2.568210 g / cm^3
# Si number density = 25.740689 Si / 1000 Ang^3
#
#
#
# Elastic Constant Matrix: (Units=GPa)
#
#
# Indices 1 2 3 4 5 6 
#
# 1 8.4587 10.3381 7.3194 0.0000 0.0000 0.0000
# 2 10.3381 78.2066 20.9932 0.0000 0.0000 0.0000
# 3 7.3194 20.9932 86.3149 0.0000 0.0000 0.0000
# 4 0.0000 0.0000 0.0000 29.8489 0.0000 0.0000
# 5 0.0000 0.0000 0.0000 0.0000 26.6112 0.0000
# 6 0.0000 0.0000 0.0000 0.0000 0.0000 25.8471
#
#
#
# Elastic Compliance Matrix: (Units=1/GPa)
#
#
# Indices 1 2 3 4 5 6 
#
# 1 0.146280 -0.017125 -0.008239 0.000000 0.000000 0.000000
# 2 -0.017125 0.015685 -0.002363 0.000000 0.000000 0.000000
# 3 -0.008239 -0.002363 0.012859 0.000000 0.000000 0.000000
# 4 0.000000 0.000000 0.000000 0.033502 0.000000 0.000000
# 5 0.000000 0.000000 0.000000 0.000000 0.037578 0.000000
# 6 0.000000 0.000000 0.000000 0.000000 0.000000 0.038689
#
#
# Mechanical properties :
#
#
# Convention : Reuss Voigt Hill
#
# Bulk Modulus (GPa) = 8.37733 27.80908 18.09320
# Shear Modulus (GPa) = 13.16355 25.41675 19.29015
#
# Velocity S-wave (km/s) = 2.26385 3.14573 2.74049
# Velocity P-wave (km/s) = 3.17725 4.90113 4.13014
#
# Compressibility (1/GPa) = 0.11936980
#
# Stress axis : x y z
#
# Youngs Moduli (GPa) = 6.83619 63.75672 77.76790
#
# Poissons Ratio (x) = 1.09184 0.64075
# Poissons Ratio (y) = 0.11707 0.18373
# Poissons Ratio (z) = 0.05632 0.15063
#
# Static dielectric constant tensor:
#      x y z
#    x 2.232070 0.000000 0.000000 
#    y 0.000000 1.819300 0.000000 
#    z 0.000000 0.000000 1.992520 
# 
# From -- ./inp_files/5992.got.cif
#   From: 2010.05.17/outbox.cif.g08.bks.cpg/sg33_3_cif.got.tgz:5992.got - 2010.06.03 17:15:25.
