data_PCOD9344146
_publ_section_title
;
Structure prediction by ZEFSAII (Michael W. Deem and Ramdas Pophale) SiO2 
 PCOD9344146
Probable space group: P B A 2
;
_chemical_formula_sum "Si O2"
_cell_formula_units_Z 26
_cell_length_a 18.886545
_cell_length_b 9.554960
_cell_length_c 6.016631
_cell_angle_alpha 90.000000
_cell_angle_beta 90.000000
_cell_angle_gamma 90.000000
_cell_volume 1085.762325
_symmetry_space_group_name_H-M "P B A 2"
_symmetry_group_IT_number 32
_symmetry_cell_setting 'orthorhombic'
loop_
_space_group_symop_operation_xyz
x,y,z
-x,-y,z
1/2-x,1/2+y,z
1/2+x,1/2-y,z
loop_
_atom_site_type_symbol
_atom_site_label
_atom_site_fract_x
_atom_site_fract_y
_atom_site_fract_z
Si Si1 0.397507 0.610205 0.728210
Si Si2 0.000000 0.500000 0.342629
Si Si3 0.849215 0.187857 0.849351
Si Si4 0.396228 0.861302 0.002532
Si Si5 0.755491 0.532875 0.174762
Si Si6 0.983053 0.304475 0.705102
Si Si7 0.738789 0.278029 0.485568
O O1 0.310216 0.390285 0.052958
O O2 0.475199 0.659854 0.657188
O O3 0.336525 0.676373 0.578801
O O4 0.387474 0.693063 0.966580
O O5 0.941997 0.587577 0.208531
O O6 0.959190 0.382354 0.485740
O O7 0.881474 0.052308 0.725564
O O8 0.919703 0.281775 0.879671
O O9 0.795208 0.270824 0.687715
O O10 0.321580 0.937714 0.012110
O O11 0.449358 0.891227 0.799109
O O12 0.753572 0.376355 0.270483
O O13 0.767732 0.621809 0.396543
#
# Coordination Sequence:
#
# PCOD9344146 Si02
#       7
#     4   2   4   4   4   4   4
#     4  10  23  49  66 101 150 192 231 315 373 423
#     4  12  22  46  72 110 138 192 258 288 386 448
#     4  12  24  47  72 105 146 192 253 302 376 456
#     4  10  24  44  68 105 147 189 239 306 373 435
#     4  12  26  43  77 104 148 193 248 307 376 455
#     4  10  25  42  75 102 148 191 237 311 368 444
#     4  12  25  46  72 110 141 193 253 307 375 442
#
# _framework density 23.94631
#
# number of rings (size 3 to 8) (size 9 to 14) (size 15 to 20)
#    0.923    0.000    3.077    3.692    0.000    3.692 
#    0.000    0.000    3.385    0.000    0.000    0.000 
#    0.000    0.000    0.000    0.000    0.000    0.000 
#
# Total GULP energy -144999.178905 kJ/mol
# GULP energy per Si atom -5576.891496 kJ/mol
# Density = 2.389181 g / cm^3
# Si number density = 23.946310 Si / 1000 Ang^3
#
#
#
# Elastic Constant Matrix: (Units=GPa)
#
#
# Indices 1 2 3 4 5 6 
#
# 1 115.0879 16.7361 20.3141 0.0000 0.0000 0.0000
# 2 16.7361 63.1082 13.9712 0.0000 0.0000 0.0000
# 3 20.3141 13.9712 41.0481 0.0000 0.0000 0.0000
# 4 0.0000 0.0000 0.0000 46.4159 0.0000 0.0000
# 5 0.0000 0.0000 0.0000 0.0000 39.1233 0.0000
# 6 0.0000 0.0000 0.0000 0.0000 0.0000 24.6166
#
#
#
# Elastic Compliance Matrix: (Units=1/GPa)
#
#
# Indices 1 2 3 4 5 6 
#
# 1 0.009673 -0.001628 -0.004233 0.000000 0.000000 0.000000
# 2 -0.001628 0.017411 -0.005120 0.000000 0.000000 0.000000
# 3 -0.004233 -0.005120 0.028199 0.000000 0.000000 0.000000
# 4 0.000000 0.000000 0.000000 0.021544 0.000000 0.000000
# 5 0.000000 0.000000 0.000000 0.000000 0.025560 0.000000
# 6 0.000000 0.000000 0.000000 0.000000 0.000000 0.040623
#
#
# Mechanical properties :
#
#
# Convention : Reuss Voigt Hill
#
# Bulk Modulus (GPa) = 30.01144 35.69856 32.85500
# Shear Modulus (GPa) = 28.39615 33.24603 30.82109
#
# Velocity S-wave (km/s) = 3.44732 3.73011 3.59150
# Velocity P-wave (km/s) = 5.32967 5.78720 5.56314
#
# Compressibility (1/GPa) = 0.03332062
#
# Stress axis : x y z
#
# Youngs Moduli (GPa) = 103.38150 57.43446 35.46202
#
# Poissons Ratio (x) = 0.09351 0.15010
# Poissons Ratio (y) = 0.16832 0.18158
# Poissons Ratio (z) = 0.43760 0.29408
#
# Static dielectric constant tensor:
#      x y z
#    x 1.924000 0.000000 0.000000 
#    y 0.000000 2.016530 0.000000 
#    z 0.000000 0.000000 1.973890 
# 
# From -- ./inp_files/1552.got.cif
#   From: 2010.05.17/outbox.cif.g08.bks.cpg/sg32_1_cif.got.tgz:1552.got - 2010.06.03 17:12:27.
