data_PCOD9344881
_publ_section_title
;
Structure prediction by ZEFSAII (Michael W. Deem and Ramdas Pophale) SiO2 
 PCOD9344881
Probable space group: P N A 21
;
_chemical_formula_sum "Si O2"
_cell_formula_units_Z 32
_cell_length_a 9.091068
_cell_length_b 8.532581
_cell_length_c 18.072163
_cell_angle_alpha 90.000000
_cell_angle_beta 90.000000
_cell_angle_gamma 90.000000
_cell_volume 1401.862637
_symmetry_space_group_name_H-M "P N A 21"
_symmetry_group_IT_number 33
_symmetry_cell_setting 'orthorhombic'
loop_
_space_group_symop_operation_xyz
x,y,z
-x,-y,1/2+z
1/2-x,1/2+y,1/2+z
1/2+x,1/2-y,z
loop_
_atom_site_type_symbol
_atom_site_label
_atom_site_fract_x
_atom_site_fract_y
_atom_site_fract_z
Si Si1 0.361674 0.567269 0.354890
Si Si2 0.636503 0.896844 0.484530
Si Si3 0.808137 0.582387 0.523625
Si Si4 0.769591 0.468469 0.134124
Si Si5 0.638262 0.131575 0.307679
Si Si6 0.652027 0.414281 0.407107
Si Si7 0.449973 0.766913 0.656272
Si Si8 0.361448 0.909708 0.288477
O O1 0.222419 0.571967 0.409836
O O2 0.303726 0.433001 0.300037
O O3 0.501563 0.510931 0.400151
O O4 0.379371 0.731628 0.314726
O O5 0.699614 0.727039 0.507855
O O6 0.461328 0.892044 0.479130
O O7 0.678611 0.014579 0.551675
O O8 0.728533 0.434755 0.486708
O O9 0.862911 0.600044 0.607979
O O10 0.605549 0.398409 0.124068
O O11 0.794894 0.578161 0.205105
O O12 0.883188 0.324072 0.152230
O O13 0.623279 0.237654 0.380738
O O14 0.604514 0.244209 0.239357
O O15 0.518158 0.996461 0.293673
O O16 0.757555 0.496784 0.345986
#
# Coordination Sequence:
#
# PCOD9344881 Si02
#       8
#     4   4   4   4   4   4   4   4
#     4  12  25  39  63  97 127 175 217 274 339 397
#     4  10  20  37  61  94 128 169 221 262 322 387
#     4  10  20  36  61  94 128 169 219 270 310 388
#     4   9  19  36  62  90 125 168 216 267 312 383
#     4  11  24  42  63  93 128 171 219 274 335 402
#     4  12  23  38  63  94 130 170 218 276 331 387
#     4   9  19  36  61  90 125 167 214 263 319 381
#     4  11  22  40  62  92 131 167 216 276 326 393
#
# _framework density 22.826774
#
# number of rings (size 3 to 8) (size 9 to 14) (size 15 to 20)
#    0.000    1.500    2.500    3.000    1.750    1.000 
#    0.000    1.250    0.000    3.000    0.000    0.000 
#    0.000    0.000    0.000    0.000    0.000    0.000 
#
# Total GULP energy -178611.997310 kJ/mol
# GULP energy per Si atom -5581.624916 kJ/mol
# Density = 2.277482 g / cm^3
# Si number density = 22.826774 Si / 1000 Ang^3
#
#
#
# Elastic Constant Matrix: (Units=GPa)
#
#
# Indices 1 2 3 4 5 6 
#
# 1 89.8327 10.0295 2.4680 0.0000 0.0000 0.0000
# 2 10.0295 77.5458 14.4655 0.0000 0.0000 0.0000
# 3 2.4680 14.4655 64.7889 0.0000 0.0000 0.0000
# 4 0.0000 0.0000 0.0000 23.3237 0.0000 0.0000
# 5 0.0000 0.0000 0.0000 0.0000 28.9011 0.0000
# 6 0.0000 0.0000 0.0000 0.0000 0.0000 25.7876
#
#
#
# Elastic Compliance Matrix: (Units=1/GPa)
#
#
# Indices 1 2 3 4 5 6 
#
# 1 0.011296 -0.001441 -0.000109 0.000000 0.000000 0.000000
# 2 -0.001441 0.013640 -0.002991 0.000000 0.000000 0.000000
# 3 -0.000109 -0.002991 0.016107 0.000000 0.000000 0.000000
# 4 0.000000 0.000000 0.000000 0.042875 0.000000 0.000000
# 5 0.000000 0.000000 0.000000 0.000000 0.034601 0.000000
# 6 0.000000 0.000000 0.000000 0.000000 0.000000 0.038778
#
#
# Mechanical properties :
#
#
# Convention : Reuss Voigt Hill
#
# Bulk Modulus (GPa) = 31.28674 31.78815 31.53744
# Shear Modulus (GPa) = 28.24387 29.28279 28.76333
#
# Velocity S-wave (km/s) = 3.52136 3.58554 3.55360
# Velocity P-wave (km/s) = 5.50175 5.57652 5.53926
#
# Compressibility (1/GPa) = 0.03196242
#
# Stress axis : x y z
#
# Youngs Moduli (GPa) = 88.52979 73.31495 62.08642
#
# Poissons Ratio (x) = 0.10562 0.00674
# Poissons Ratio (y) = 0.12754 0.18567
# Poissons Ratio (z) = 0.00962 0.21925
#
# Static dielectric constant tensor:
#      x y z
#    x 1.851670 0.000000 0.000000 
#    y 0.000000 1.857720 0.000000 
#    z 0.000000 0.000000 1.965600 
# 
# From -- ./inp_files/8973.got.cif
#   From: 2010.05.17/outbox.cif.g08.bks.cpg/sg33_5_cif.got.tgz:8973.got - 2010.06.03 17:15:25.
