data_PCOD9344458
_publ_section_title
;
Structure prediction by ZEFSAII (Michael W. Deem and Ramdas Pophale) SiO2 
 PCOD9344458
Probable space group: P N A 21
;
_chemical_formula_sum "Si O2"
_cell_formula_units_Z 32
_cell_length_a 12.754946
_cell_length_b 7.682246
_cell_length_c 15.809224
_cell_angle_alpha 90.000000
_cell_angle_beta 90.000000
_cell_angle_gamma 90.000000
_cell_volume 1549.092628
_symmetry_space_group_name_H-M "P N A 21"
_symmetry_group_IT_number 33
_symmetry_cell_setting 'orthorhombic'
loop_
_space_group_symop_operation_xyz
x,y,z
-x,-y,1/2+z
1/2-x,1/2+y,1/2+z
1/2+x,1/2-y,z
loop_
_atom_site_type_symbol
_atom_site_label
_atom_site_fract_x
_atom_site_fract_y
_atom_site_fract_z
Si Si1 0.804123 0.711975 0.570880
Si Si2 0.698171 0.059077 0.594076
Si Si3 0.928169 0.861092 0.156612
Si Si4 0.698238 0.653933 0.416126
Si Si5 0.281776 0.973476 0.736339
Si Si6 0.858848 0.151340 0.739382
Si Si7 0.516028 0.447726 0.992801
Si Si8 0.279259 0.445287 0.414789
O O1 0.763625 0.582754 0.496809
O O2 0.830365 0.636825 0.661451
O O3 0.905432 0.810890 0.536273
O O4 0.708094 0.850128 0.586334
O O5 0.601364 0.159889 0.635663
O O6 0.795629 0.106136 0.654705
O O7 0.720162 0.124141 0.498244
O O8 0.825476 0.950426 0.195663
O O9 0.021253 0.892044 0.222714
O O10 0.963530 0.942532 0.067662
O O11 0.698982 0.574867 0.322087
O O12 0.576277 0.644442 0.441188
O O13 0.746572 0.848823 0.409421
O O14 0.353632 0.140960 0.752036
O O15 0.255467 0.876781 0.823732
O O16 0.596664 0.558535 0.934586
#
# Coordination Sequence:
#
# PCOD9344458 Si02
#       8
#     4   4   4   4   4   4   4   4
#     4  10  20  38  57  82 111 143 184 235 275 329
#     4   9  20  36  56  76 114 145 176 230 281 322
#     4  11  19  35  59  80 107 150 187 223 279 333
#     4   9  18  33  58  80 108 145 186 219 274 331
#     4  10  21  35  59  83 111 147 185 225 279 335
#     4  10  19  36  56  83 109 145 184 227 272 334
#     4  10  18  34  59  79 107 150 186 225 277 330
#     4   9  19  37  54  79 117 145 174 234 277 324
#
# _framework density 20.657254999999999
#
# number of rings (size 3 to 8) (size 9 to 14) (size 15 to 20)
#    0.000    2.500    3.750    0.750    0.000    3.000 
#    2.250    0.000    5.500    0.000    0.000    0.000 
#    0.000    0.000    0.000    0.000    0.000    0.000 
#
# Total GULP energy -178159.264705 kJ/mol
# GULP energy per Si atom -5567.477022 kJ/mol
# Density = 2.061024 g / cm^3
# Si number density = 20.657255 Si / 1000 Ang^3
#
#
#
# Elastic Constant Matrix: (Units=GPa)
#
#
# Indices 1 2 3 4 5 6 
#
# 1 40.0010 -8.6656 -10.9296 0.0000 0.0000 0.0000
# 2 -8.6656 16.8134 -1.2703 0.0000 0.0000 0.0000
# 3 -10.9296 -1.2703 106.6200 0.0000 0.0000 0.0000
# 4 0.0000 0.0000 0.0000 21.2606 0.0000 0.0000
# 5 0.0000 0.0000 0.0000 0.0000 2.7624 0.0000
# 6 0.0000 0.0000 0.0000 0.0000 0.0000 17.9470
#
#
#
# Elastic Compliance Matrix: (Units=1/GPa)
#
#
# Indices 1 2 3 4 5 6 
#
# 1 0.029176 0.015277 0.003173 0.000000 0.000000 0.000000
# 2 0.015277 0.067529 0.002371 0.000000 0.000000 0.000000
# 3 0.003173 0.002371 0.009733 0.000000 0.000000 0.000000
# 4 0.000000 0.000000 0.000000 0.047035 0.000000 0.000000
# 5 0.000000 0.000000 0.000000 0.000000 0.362009 0.000000
# 6 0.000000 0.000000 0.000000 0.000000 0.000000 0.055720
#
#
# Mechanical properties :
#
#
# Convention : Reuss Voigt Hill
#
# Bulk Modulus (GPa) = 6.75317 13.52258 10.13788
# Shear Modulus (GPa) = 8.63677 20.68067 14.65872
#
# Velocity S-wave (km/s) = 2.04696 3.16750 2.66675
# Velocity P-wave (km/s) = 2.97708 4.46518 3.79479
#
# Compressibility (1/GPa) = 0.14807860
#
# Stress axis : x y z
#
# Youngs Moduli (GPa) = 34.27498 14.80838 102.74752
#
# Poissons Ratio (x) = -0.22623 -0.32600
# Poissons Ratio (y) = -0.52362 -0.24358
# Poissons Ratio (z) = -0.10875 -0.03511
#
# Static dielectric constant tensor:
#      x y z
#    x 1.708290 0.000000 0.000000 
#    y 0.000000 1.807540 0.000000 
#    z 0.000000 0.000000 1.838140 
# 
# From -- ./inp_files/8729.got.cif
#   From: 2010.05.17/outbox.cif.g08.bks.cpg/sg33_5_cif.got.tgz:8729.got - 2010.06.03 17:15:25.
