data_PCOD9344934
_publ_section_title
;
Structure prediction by ZEFSAII (Michael W. Deem and Ramdas Pophale) SiO2 
 PCOD9344934
Probable space group: P N A 21
;
_chemical_formula_sum "Si O2"
_cell_formula_units_Z 20
_cell_length_a 9.079212
_cell_length_b 8.276002
_cell_length_c 11.539720
_cell_angle_alpha 90.000000
_cell_angle_beta 90.000000
_cell_angle_gamma 90.000000
_cell_volume 867.089676
_symmetry_space_group_name_H-M "P N A 21"
_symmetry_group_IT_number 33
_symmetry_cell_setting 'orthorhombic'
loop_
_space_group_symop_operation_xyz
x,y,z
-x,-y,1/2+z
1/2-x,1/2+y,1/2+z
1/2+x,1/2-y,z
loop_
_atom_site_type_symbol
_atom_site_label
_atom_site_fract_x
_atom_site_fract_y
_atom_site_fract_z
Si Si1 0.768023 0.276988 0.256040
Si Si2 0.625653 0.778190 0.235032
Si Si3 0.499599 0.770998 0.597070
Si Si4 0.864998 0.574801 0.375522
Si Si5 0.620259 0.467961 0.653483
O O1 0.604502 0.262551 0.207907
O O2 0.802987 0.393820 0.361200
O O3 0.857250 0.359497 0.147658
O O4 0.832668 0.095224 0.256246
O O5 0.741114 0.692085 0.321306
O O6 0.516683 0.899426 0.302684
O O7 0.515531 0.645919 0.182942
O O8 0.732159 0.863859 0.141982
O O9 0.410130 0.864507 0.501803
O O10 0.564026 0.596422 0.557860
#
# Coordination Sequence:
#
# PCOD9344934 Si02
#       5
#     4   4   4   4   4
#     4  10  20  39  64  95 137 183 227 299 346 414
#     4  10  20  37  65  92 130 189 220 284 349 422
#     4  10  21  37  63 101 136 180 230 294 350 422
#     4  11  20  37  67  93 135 189 231 276 376 409
#     4   9  21  38  65  95 136 177 232 283 355 407
#
# _framework density 23.065664999999999
#
# number of rings (size 3 to 8) (size 9 to 14) (size 15 to 20)
#    1.200    0.800    2.000    2.400    0.000    0.000 
#    0.000    0.000   26.400    2.400    0.000    0.000 
#    0.000    0.000    0.000    0.000    0.000    0.000 
#
# Total GULP energy -111444.826349 kJ/mol
# GULP energy per Si atom -5572.241317 kJ/mol
# Density = 2.301317 g / cm^3
# Si number density = 23.065665 Si / 1000 Ang^3
#
#
#
# Elastic Constant Matrix: (Units=GPa)
#
#
# Indices 1 2 3 4 5 6 
#
# 1 133.2522 25.2137 8.5285 0.0000 0.0000 0.0000
# 2 25.2137 107.3517 21.3270 0.0000 0.0000 0.0000
# 3 8.5285 21.3270 41.9415 0.0000 0.0000 0.0000
# 4 0.0000 0.0000 0.0000 28.5044 0.0000 0.0000
# 5 0.0000 0.0000 0.0000 0.0000 19.2340 0.0000
# 6 0.0000 0.0000 0.0000 0.0000 0.0000 48.4895
#
#
#
# Elastic Compliance Matrix: (Units=1/GPa)
#
#
# Indices 1 2 3 4 5 6 
#
# 1 0.007874 -0.001703 -0.000735 0.000000 0.000000 0.000000
# 2 -0.001703 0.010730 -0.005110 0.000000 0.000000 0.000000
# 3 -0.000735 -0.005110 0.026591 0.000000 0.000000 0.000000
# 4 0.000000 0.000000 0.000000 0.035082 0.000000 0.000000
# 5 0.000000 0.000000 0.000000 0.000000 0.051991 0.000000
# 6 0.000000 0.000000 0.000000 0.000000 0.000000 0.020623
#
#
# Mechanical properties :
#
#
# Convention : Reuss Voigt Hill
#
# Bulk Modulus (GPa) = 33.22442 43.63153 38.42798
# Shear Modulus (GPa) = 28.08660 34.41067 31.24864
#
# Velocity S-wave (km/s) = 3.49331 3.86665 3.68471
# Velocity P-wave (km/s) = 5.54135 6.23634 5.89909
#
# Compressibility (1/GPa) = 0.03009834
#
# Stress axis : x y z
#
# Youngs Moduli (GPa) = 127.00173 93.19308 37.60729
#
# Poissons Ratio (x) = 0.15874 0.02764
# Poissons Ratio (y) = 0.21633 0.19217
# Poissons Ratio (z) = 0.09334 0.47621
#
# Static dielectric constant tensor:
#      x y z
#    x 1.854010 0.000000 0.000000 
#    y 0.000000 1.926990 0.000000 
#    z 0.000000 0.000000 1.920820 
# 
# From -- ./inp_files/5705.got.cif
#   From: 2010.05.17/outbox.cif.g08.bks.cpg/sg33_3_cif.got.tgz:5705.got - 2010.06.03 17:15:25.
