data_PCOD9344753
_publ_section_title
;
Structure prediction by ZEFSAII (Michael W. Deem and Ramdas Pophale) SiO2 
 PCOD9344753
Probable space group: P N A 21
;
_chemical_formula_sum "Si O2"
_cell_formula_units_Z 24
_cell_length_a 9.268677
_cell_length_b 11.880057
_cell_length_c 8.234807
_cell_angle_alpha 90.000000
_cell_angle_beta 90.000000
_cell_angle_gamma 90.000000
_cell_volume 906.754454
_symmetry_space_group_name_H-M "P N A 21"
_symmetry_group_IT_number 33
_symmetry_cell_setting 'orthorhombic'
loop_
_space_group_symop_operation_xyz
x,y,z
-x,-y,1/2+z
1/2-x,1/2+y,1/2+z
1/2+x,1/2-y,z
loop_
_atom_site_type_symbol
_atom_site_label
_atom_site_fract_x
_atom_site_fract_y
_atom_site_fract_z
Si Si1 0.783884 0.692888 0.855370
Si Si2 0.633837 0.303180 0.672154
Si Si3 0.383364 0.217335 0.901356
Si Si4 0.952198 0.044527 0.469389
Si Si5 0.354335 0.898000 0.527547
Si Si6 0.204407 0.046259 0.261226
O O1 0.622267 0.654848 0.895415
O O2 0.837077 0.601526 0.724062
O O3 0.790436 0.819467 0.784287
O O4 0.853186 0.705680 0.035269
O O5 0.519121 0.269597 0.806089
O O6 0.581533 0.412151 0.580958
O O7 0.784152 0.328578 0.757351
O O8 0.475869 0.135272 0.014235
O O9 0.274563 0.305690 0.986893
O O10 0.828526 0.979598 0.569709
O O11 0.053564 0.995796 0.331500
O O12 0.322619 0.987272 0.380019
#
# Coordination Sequence:
#
# PCOD9344753 Si02
#       6
#     4   4   4   4   4   4
#     4  11  25  42  75 110 152 187 255 323 371 453
#     4  10  19  40  68  98 143 194 237 302 375 437
#     4  10  21  39  72 100 147 193 241 308 376 434
#     4  11  22  43  73 108 149 197 259 311 384 462
#     4  11  24  43  70 112 147 194 253 313 380 459
#     4  11  25  45  78 106 148 205 259 303 394 465
#
# _framework density 26.468024
#
# number of rings (size 3 to 8) (size 9 to 14) (size 15 to 20)
#    0.000    1.333    3.333    2.000    7.000    0.000 
#    0.000    5.000    7.333    0.000    0.000    0.000 
#    0.000    0.000    0.000    0.000    0.000    0.000 
#
# Total GULP energy -133742.571457 kJ/mol
# GULP energy per Si atom -5572.607144 kJ/mol
# Density = 2.640778 g / cm^3
# Si number density = 26.468024 Si / 1000 Ang^3
#
#
#
# Elastic Constant Matrix: (Units=GPa)
#
#
# Indices 1 2 3 4 5 6 
#
# 1 133.2974 7.7201 6.3139 0.0000 0.0000 0.0000
# 2 7.7201 47.2492 -1.4457 0.0000 0.0000 0.0000
# 3 6.3139 -1.4457 68.6221 0.0000 0.0000 0.0000
# 4 0.0000 0.0000 0.0000 28.0189 0.0000 0.0000
# 5 0.0000 0.0000 0.0000 0.0000 15.5025 0.0000
# 6 0.0000 0.0000 0.0000 0.0000 0.0000 28.1247
#
#
#
# Elastic Compliance Matrix: (Units=1/GPa)
#
#
# Indices 1 2 3 4 5 6 
#
# 1 0.007610 -0.001266 -0.000727 0.000000 0.000000 0.000000
# 2 -0.001266 0.021388 0.000567 0.000000 0.000000 0.000000
# 3 -0.000727 0.000567 0.014651 0.000000 0.000000 0.000000
# 4 0.000000 0.000000 0.000000 0.035690 0.000000 0.000000
# 5 0.000000 0.000000 0.000000 0.000000 0.064506 0.000000
# 6 0.000000 0.000000 0.000000 0.000000 0.000000 0.035556
#
#
# Mechanical properties :
#
#
# Convention : Reuss Voigt Hill
#
# Bulk Modulus (GPa) = 24.51050 30.48283 27.49667
# Shear Modulus (GPa) = 25.52950 30.10126 27.81538
#
# Velocity S-wave (km/s) = 3.10908 3.37600 3.24528
# Velocity P-wave (km/s) = 4.70840 5.17091 4.94507
#
# Compressibility (1/GPa) = 0.04079884
#
# Stress axis : x y z
#
# Youngs Moduli (GPa) = 131.41043 46.75410 68.25296
#
# Poissons Ratio (x) = 0.05917 0.04961
# Poissons Ratio (y) = 0.16631 -0.03870
# Poissons Ratio (z) = 0.09551 -0.02651
#
# Static dielectric constant tensor:
#      x y z
#    x 1.980330 0.000000 0.000000 
#    y 0.000000 2.187400 0.000000 
#    z 0.000000 0.000000 2.417030 
# 
# From -- ./inp_files/3176.got.cif
#   From: 2010.05.17/outbox.cif.g08.bks.cpg/sg33_2_cif.got.tgz:3176.got - 2010.06.03 17:15:25.
