data_PCOD9344174
_publ_section_title
;
Structure prediction by ZEFSAII (Michael W. Deem and Ramdas Pophale) SiO2 
 PCOD9344174
Probable space group: P B A 2
;
_chemical_formula_sum "Si O2"
_cell_formula_units_Z 26
_cell_length_a 19.847963
_cell_length_b 8.744007
_cell_length_c 6.624040
_cell_angle_alpha 90.000000
_cell_angle_beta 90.000000
_cell_angle_gamma 90.000000
_cell_volume 1149.606960
_symmetry_space_group_name_H-M "P B A 2"
_symmetry_group_IT_number 32
_symmetry_cell_setting 'orthorhombic'
loop_
_space_group_symop_operation_xyz
x,y,z
-x,-y,z
1/2-x,1/2+y,z
1/2+x,1/2-y,z
loop_
_atom_site_type_symbol
_atom_site_label
_atom_site_fract_x
_atom_site_fract_y
_atom_site_fract_z
Si Si1 0.415003 0.342772 0.516370
Si Si2 0.277962 0.758747 0.440881
Si Si3 0.832811 0.925888 0.788372
Si Si4 0.535227 0.234272 0.764752
Si Si5 0.896921 0.508415 0.449160
Si Si6 0.500000 0.000000 0.090095
Si Si7 0.169955 0.958777 0.220349
O O1 0.363157 0.446652 0.639967
O O2 0.486139 0.339018 0.630799
O O3 0.405890 0.411229 0.289941
O O4 0.394530 0.165619 0.516863
O O5 0.279529 0.680292 0.665067
O O6 0.325807 0.907294 0.444757
O O7 0.213878 0.823104 0.321411
O O8 0.312415 0.624352 0.312290
O O9 0.897786 0.820621 0.838448
O O10 0.812567 0.016922 0.987447
O O11 0.560589 0.105789 0.609022
O O12 0.498528 0.148902 0.947855
O O13 0.935472 0.512002 0.235712
#
# Coordination Sequence:
#
# PCOD9344174 Si02
#       7
#     4   4   4   4   4   2   4
#     4  11  22  41  62  96 134 175 221 283 336 415
#     4  10  24  46  66  95 132 169 228 294 332 424
#     4  10  25  43  66  94 135 180 223 285 355 407
#     4  11  22  42  60  97 138 175 227 279 347 413
#     4  11  22  41  67  96 135 174 222 283 340 411
#     4  12  20  36  66  96 126 174 228 262 342 416
#     4  11  24  45  67  99 128 182 234 278 362 409
#
# _framework density 22.616426000000001
#
# number of rings (size 3 to 8) (size 9 to 14) (size 15 to 20)
#    0.000    1.231    3.077    2.308    2.154    2.462 
#    5.538    0.000    0.000    0.000    0.000    0.000 
#    0.000    0.000    0.000    0.000    0.000    0.000 
#
# Total GULP energy -145178.982507 kJ/mol
# GULP energy per Si atom -5583.807019 kJ/mol
# Density = 2.256495 g / cm^3
# Si number density = 22.616426 Si / 1000 Ang^3
#
#
#
# Elastic Constant Matrix: (Units=GPa)
#
#
# Indices 1 2 3 4 5 6 
#
# 1 56.9997 15.6824 25.5092 0.0000 0.0000 0.0000
# 2 15.6824 120.2344 19.7813 0.0000 0.0000 0.0000
# 3 25.5092 19.7813 105.4259 0.0000 0.0000 0.0000
# 4 0.0000 0.0000 0.0000 29.3235 0.0000 0.0000
# 5 0.0000 0.0000 0.0000 0.0000 10.6397 0.0000
# 6 0.0000 0.0000 0.0000 0.0000 0.0000 35.1791
#
#
#
# Elastic Compliance Matrix: (Units=1/GPa)
#
#
# Indices 1 2 3 4 5 6 
#
# 1 0.020077 -0.001877 -0.004506 0.000000 0.000000 0.000000
# 2 -0.001877 0.008758 -0.001189 0.000000 0.000000 0.000000
# 3 -0.004506 -0.001189 0.010799 0.000000 0.000000 0.000000
# 4 0.000000 0.000000 0.000000 0.034102 0.000000 0.000000
# 5 0.000000 0.000000 0.000000 0.000000 0.093988 0.000000
# 6 0.000000 0.000000 0.000000 0.000000 0.000000 0.028426
#
#
# Mechanical properties :
#
#
# Convention : Reuss Voigt Hill
#
# Bulk Modulus (GPa) = 40.83435 44.95620 42.89528
# Shear Modulus (GPa) = 22.78362 29.80759 26.29560
#
# Velocity S-wave (km/s) = 3.17739 3.63431 3.41350
# Velocity P-wave (km/s) = 5.61742 6.12632 5.87738
#
# Compressibility (1/GPa) = 0.02448918
#
# Stress axis : x y z
#
# Youngs Moduli (GPa) = 49.80849 114.18701 92.60444
#
# Poissons Ratio (x) = 0.21437 0.41724
# Poissons Ratio (y) = 0.09351 0.11010
# Poissons Ratio (z) = 0.22442 0.13576
#
# Static dielectric constant tensor:
#      x y z
#    x 2.095080 0.000000 0.000000 
#    y 0.000000 1.799690 0.000000 
#    z 0.000000 0.000000 1.883870 
# 
# From -- ./inp_files/1656.got.cif
#   From: 2010.05.17/outbox.cif.g08.bks.cpg/sg32_1_cif.got.tgz:1656.got - 2010.06.03 17:12:27.
