data_PCOD9344741
_publ_section_title
;
Structure prediction by ZEFSAII (Michael W. Deem and Ramdas Pophale) SiO2 
 PCOD9344741
Probable space group: P N A 21
;
_chemical_formula_sum "Si O2"
_cell_formula_units_Z 32
_cell_length_a 14.261113
_cell_length_b 18.034312
_cell_length_c 5.639946
_cell_angle_alpha 90.000000
_cell_angle_beta 90.000000
_cell_angle_gamma 90.000000
_cell_volume 1450.534110
_symmetry_space_group_name_H-M "P N A 21"
_symmetry_group_IT_number 33
_symmetry_cell_setting 'orthorhombic'
loop_
_space_group_symop_operation_xyz
x,y,z
-x,-y,1/2+z
1/2-x,1/2+y,1/2+z
1/2+x,1/2-y,z
loop_
_atom_site_type_symbol
_atom_site_label
_atom_site_fract_x
_atom_site_fract_y
_atom_site_fract_z
Si Si1 0.948807 0.199266 0.027300
Si Si2 0.330730 0.209524 0.412491
Si Si3 0.530320 0.537092 0.582173
Si Si4 0.860841 0.557581 0.412252
Si Si5 0.207190 0.583283 0.614279
Si Si6 0.961070 0.349223 0.811275
Si Si7 0.712753 0.657094 0.177284
Si Si8 0.723807 0.529260 0.791398
O O1 0.881080 0.234122 0.228943
O O2 0.998376 0.123925 0.108745
O O3 0.999742 0.271871 0.921892
O O4 0.883893 0.169140 0.814005
O O5 0.266113 0.146945 0.296852
O O6 0.415771 0.169326 0.555639
O O7 0.268099 0.261441 0.577869
O O8 0.500480 0.504208 0.326617
O O9 0.644106 0.531456 0.593430
O O10 0.835818 0.486142 0.255941
O O11 0.792357 0.625412 0.345647
O O12 0.827662 0.536573 0.677612
O O13 0.962566 0.587056 0.344640
O O14 0.127571 0.624025 0.462993
O O15 0.281362 0.546423 0.439618
O O16 0.705588 0.597121 0.968134
#
# Coordination Sequence:
#
# PCOD9344741 Si02
#       8
#     4   4   4   4   4   4   4   4
#     4  10  21  43  68  91 132 177 232 275 361 412
#     4  10  20  41  67  90 132 179 229 281 356 412
#     4  12  26  44  77 105 138 188 238 301 351 420
#     4  11  23  39  68  97 136 179 232 277 353 425
#     4  10  24  37  65  99 135 179 226 286 351 419
#     4  10  24  40  66  99 134 180 228 294 346 419
#     4  10  19  39  71  91 126 184 227 277 345 431
#     4  11  23  43  68  96 139 182 232 283 357 430
#
# _framework density 22.060841
#
# number of rings (size 3 to 8) (size 9 to 14) (size 15 to 20)
#    0.000    1.500    2.500    1.500    7.000    3.000 
#    0.000    7.500    5.500    0.000    0.000    0.000 
#    0.000    0.000    0.000    0.000    0.000    0.000 
#
# Total GULP energy -178568.695809 kJ/mol
# GULP energy per Si atom -5580.271744 kJ/mol
# Density = 2.201063 g / cm^3
# Si number density = 22.060841 Si / 1000 Ang^3
#
#
#
# Elastic Constant Matrix: (Units=GPa)
#
#
# Indices 1 2 3 4 5 6 
#
# 1 22.7240 12.1910 6.0892 0.0000 0.0000 0.0000
# 2 12.1910 130.3716 43.3379 0.0000 0.0000 0.0000
# 3 6.0892 43.3379 89.0060 0.0000 0.0000 0.0000
# 4 0.0000 0.0000 0.0000 51.7120 0.0000 0.0000
# 5 0.0000 0.0000 0.0000 0.0000 14.6118 0.0000
# 6 0.0000 0.0000 0.0000 0.0000 0.0000 28.7787
#
#
#
# Elastic Compliance Matrix: (Units=1/GPa)
#
#
# Indices 1 2 3 4 5 6 
#
# 1 0.046450 -0.003922 -0.001268 0.000000 0.000000 0.000000
# 2 -0.003922 0.009483 -0.004349 0.000000 0.000000 0.000000
# 3 -0.001268 -0.004349 0.013440 0.000000 0.000000 0.000000
# 4 0.000000 0.000000 0.000000 0.019338 0.000000 0.000000
# 5 0.000000 0.000000 0.000000 0.000000 0.068438 0.000000
# 6 0.000000 0.000000 0.000000 0.000000 0.000000 0.034748
#
#
# Mechanical properties :
#
#
# Convention : Reuss Voigt Hill
#
# Bulk Modulus (GPa) = 19.88294 40.59306 30.23800
# Shear Modulus (GPa) = 21.95494 31.05274 26.50384
#
# Velocity S-wave (km/s) = 3.15810 3.75586 3.46988
# Velocity P-wave (km/s) = 4.72551 6.10321 5.45800
#
# Compressibility (1/GPa) = 0.05029436
#
# Stress axis : x y z
#
# Youngs Moduli (GPa) = 21.52842 105.45416 74.40752
#
# Poissons Ratio (x) = 0.41359 0.09436
# Poissons Ratio (y) = 0.08443 0.32359
# Poissons Ratio (z) = 0.02730 0.45861
#
# Static dielectric constant tensor:
#      x y z
#    x 1.806360 0.000000 0.000000 
#    y 0.000000 1.834970 0.000000 
#    z 0.000000 0.000000 1.886510 
# 
# From -- ./inp_files/1522.got.cif
#   From: 2010.05.17/outbox.cif.g08.bks.cpg/sg33_1_cif.got.tgz:1522.got - 2010.06.03 17:15:25.
