data_PCOD9344643
_publ_section_title
;
Structure prediction by ZEFSAII (Michael W. Deem and Ramdas Pophale) SiO2 
 PCOD9344643
Probable space group: P N A 21
;
_chemical_formula_sum "Si O2"
_cell_formula_units_Z 32
_cell_length_a 8.137554
_cell_length_b 10.067361
_cell_length_c 19.118191
_cell_angle_alpha 90.000000
_cell_angle_beta 90.000000
_cell_angle_gamma 90.000000
_cell_volume 1566.232825
_symmetry_space_group_name_H-M "P N A 21"
_symmetry_group_IT_number 33
_symmetry_cell_setting 'orthorhombic'
loop_
_space_group_symop_operation_xyz
x,y,z
-x,-y,1/2+z
1/2-x,1/2+y,1/2+z
1/2+x,1/2-y,z
loop_
_atom_site_type_symbol
_atom_site_label
_atom_site_fract_x
_atom_site_fract_y
_atom_site_fract_z
Si Si1 0.554007 0.835963 0.555290
Si Si2 0.891086 0.103993 0.828812
Si Si3 0.945993 0.664037 0.395906
Si Si4 0.295698 0.665150 0.780122
Si Si5 0.576800 0.940088 0.152293
Si Si6 0.204304 0.834849 0.171074
Si Si7 0.423201 0.940087 0.798903
Si Si8 0.391086 0.603992 0.622384
O O1 0.500000 0.830004 0.475598
O O2 0.534854 0.692678 0.591705
O O3 0.740166 0.880087 0.568654
O O4 0.440696 0.943547 0.595896
O O5 0.034854 0.192679 0.859491
O O6 0.740167 0.119913 0.882543
O O7 0.840229 0.165229 0.753361
O O8 0.910803 0.947924 0.814616
O O9 0.059303 0.556451 0.355301
O O10 0.319715 0.808423 0.814035
O O11 0.340231 0.665228 0.697835
O O12 0.109661 0.613247 0.786301
O O13 0.390341 0.886753 0.164895
O O14 0.680287 0.808424 0.137162
O O15 0.637139 0.000000 0.225598
O O16 0.089199 0.947923 0.136579
#
# Coordination Sequence:
#
# PCOD9344643 Si02
#       8
#     4   4   4   4   4   4   4   4
#     4  11  22  37  57  84 117 152 183 226 285 338
#     4  10  19  36  56  81 113 141 188 237 271 331
#     4  11  22  37  57  84 117 152 183 226 285 338
#     4  10  19  36  58  84 109 141 191 238 275 315
#     4  11  20  38  57  84 116 145 188 235 275 331
#     4  10  19  36  58  84 109 141 191 238 275 315
#     4  11  20  38  57  84 116 145 188 235 275 331
#     4  10  19  36  56  81 113 141 188 237 271 331
#
# _framework density 20.431190000000001
#
# number of rings (size 3 to 8) (size 9 to 14) (size 15 to 20)
#    0.000    1.500    7.500    0.750    0.000    2.000 
#    4.500    6.250    0.000    0.000    0.000    0.000 
#    0.000    0.000    0.000    0.000    0.000    0.000 
#
# Total GULP energy -178769.117695 kJ/mol
# GULP energy per Si atom -5586.534928 kJ/mol
# Density = 2.038469 g / cm^3
# Si number density = 20.431190 Si / 1000 Ang^3
#
#
#
# Elastic Constant Matrix: (Units=GPa)
#
#
# Indices 1 2 3 4 5 6 
#
# 1 12.1469 17.0733 8.7773 0.0000 0.0000 0.0000
# 2 17.0733 110.5458 18.5648 0.0000 0.0000 0.0000
# 3 8.7773 18.5648 79.3966 0.0000 0.0000 0.0000
# 4 0.0000 0.0000 0.0000 21.3524 0.0000 0.0000
# 5 0.0000 0.0000 0.0000 0.0000 8.8367 0.0000
# 6 0.0000 0.0000 0.0000 0.0000 0.0000 32.0942
#
#
#
# Elastic Compliance Matrix: (Units=1/GPa)
#
#
# Indices 1 2 3 4 5 6 
#
# 1 0.110472 -0.015624 -0.008559 0.000000 0.000000 0.000000
# 2 -0.015624 0.011626 -0.000991 0.000000 0.000000 0.000000
# 3 -0.008559 -0.000991 0.013773 0.000000 0.000000 0.000000
# 4 0.000000 0.000000 0.000000 0.046833 0.000000 0.000000
# 5 0.000000 0.000000 0.000000 0.000000 0.113164 0.000000
# 6 0.000000 0.000000 0.000000 0.000000 0.000000 0.031158
#
#
# Mechanical properties :
#
#
# Convention : Reuss Voigt Hill
#
# Bulk Modulus (GPa) = 11.69310 32.32447 22.00879
# Shear Modulus (GPa) = 12.31885 22.96826 17.64355
#
# Velocity S-wave (km/s) = 2.45815 3.35651 2.94183
# Velocity P-wave (km/s) = 3.71380 5.55671 4.72596
#
# Compressibility (1/GPa) = 0.08552051
#
# Stress axis : x y z
#
# Youngs Moduli (GPa) = 9.05211 86.01710 72.60603
#
# Poissons Ratio (x) = 1.34397 0.62146
# Poissons Ratio (y) = 0.14143 0.07196
# Poissons Ratio (z) = 0.07748 0.08525
#
# Static dielectric constant tensor:
#      x y z
#    x 1.775960 0.000000 0.000000 
#    y 0.000000 1.757150 0.000000 
#    z 0.000000 0.000000 1.686910 
# 
# From -- ./inp_files/8708.got.cif
#   From: 2010.05.17/outbox.cif.g08.bks.cpg/sg33_5_cif.got.tgz:8708.got - 2010.06.03 17:15:25.
