data_PCOD9344714
_publ_section_title
;
Structure prediction by ZEFSAII (Michael W. Deem and Ramdas Pophale) SiO2 
 PCOD9344714
Probable space group: P N A 21
;
_chemical_formula_sum "Si O2"
_cell_formula_units_Z 20
_cell_length_a 11.072769
_cell_length_b 13.332297
_cell_length_c 5.454461
_cell_angle_alpha 90.000000
_cell_angle_beta 90.000000
_cell_angle_gamma 90.000000
_cell_volume 805.217232
_symmetry_space_group_name_H-M "P N A 21"
_symmetry_group_IT_number 33
_symmetry_cell_setting 'orthorhombic'
loop_
_space_group_symop_operation_xyz
x,y,z
-x,-y,1/2+z
1/2-x,1/2+y,1/2+z
1/2+x,1/2-y,z
loop_
_atom_site_type_symbol
_atom_site_label
_atom_site_fract_x
_atom_site_fract_y
_atom_site_fract_z
Si Si1 0.556181 0.896564 0.492120
Si Si2 0.787958 0.601290 0.987674
Si Si3 0.526314 0.781399 0.994915
Si Si4 0.731418 0.048929 0.991466
Si Si5 0.539964 0.445933 0.553282
O O1 0.572974 0.832651 0.741733
O O2 0.416605 0.941929 0.489839
O O3 0.645627 0.991534 0.485806
O O4 0.575391 0.831731 0.246184
O O5 0.724818 0.600580 0.245070
O O6 0.728063 0.610966 0.727120
O O7 0.887471 0.684951 0.998266
O O8 0.514807 0.662991 0.007697
O O9 0.813451 0.949702 0.014683
O O10 0.486784 0.515584 0.331504
#
# Coordination Sequence:
#
# PCOD9344714 Si02
#       5
#     4   4   4   4   4
#     4  10  19  38  63  94 120 141 187 255 307 346
#     4  10  19  38  66  93 119 141 187 256 308 345
#     4  10  20  37  60  87 120 156 192 241 289 343
#     4  10  20  37  59  83 115 157 192 237 294 337
#     4  12  26  44  58  79 124 169 202 233 274 347
#
# _framework density 24.838017000000001
#
# number of rings (size 3 to 8) (size 9 to 14) (size 15 to 20)
#    0.000    1.600    0.000    8.400    0.000    0.000 
#    0.000   32.000    0.000    0.000    0.000    0.000 
#    0.000    0.000    0.000    0.000    0.000    0.000 
#
# Total GULP energy -111596.297031 kJ/mol
# GULP energy per Si atom -5579.814852 kJ/mol
# Density = 2.478149 g / cm^3
# Si number density = 24.838017 Si / 1000 Ang^3
#
#
#
# Elastic Constant Matrix: (Units=GPa)
#
#
# Indices 1 2 3 4 5 6 
#
# 1 84.3773 23.9410 22.0669 0.0000 0.0000 0.0000
# 2 23.9410 141.3847 59.2188 0.0000 0.0000 0.0000
# 3 22.0669 59.2188 245.1390 0.0000 0.0000 0.0000
# 4 0.0000 0.0000 0.0000 21.7531 0.0000 0.0000
# 5 0.0000 0.0000 0.0000 0.0000 10.0594 0.0000
# 6 0.0000 0.0000 0.0000 0.0000 0.0000 2.8578
#
#
#
# Elastic Compliance Matrix: (Units=1/GPa)
#
#
# Indices 1 2 3 4 5 6 
#
# 1 0.012552 -0.001838 -0.000686 0.000000 0.000000 0.000000
# 2 -0.001838 0.008138 -0.001801 0.000000 0.000000 0.000000
# 3 -0.000686 -0.001801 0.004576 0.000000 0.000000 0.000000
# 4 0.000000 0.000000 0.000000 0.045970 0.000000 0.000000
# 5 0.000000 0.000000 0.000000 0.000000 0.099410 0.000000
# 6 0.000000 0.000000 0.000000 0.000000 0.000000 0.349925
#
#
# Mechanical properties :
#
#
# Convention : Reuss Voigt Hill
#
# Bulk Modulus (GPa) = 60.17748 75.70605 67.94176
# Shear Modulus (GPa) = 9.34998 31.31233 20.33116
#
# Velocity S-wave (km/s) = 1.94231 3.55443 2.86413
# Velocity P-wave (km/s) = 5.41393 6.88414 6.19282
#
# Compressibility (1/GPa) = 0.01661751
#
# Stress axis : x y z
#
# Youngs Moduli (GPa) = 79.66545 122.87542 218.53076
#
# Poissons Ratio (x) = 0.22588 0.14988
# Poissons Ratio (y) = 0.14645 0.39347
# Poissons Ratio (z) = 0.05464 0.22124
#
# Static dielectric constant tensor:
#      x y z
#    x 2.049720 0.000000 0.000000 
#    y 0.000000 1.921970 0.000000 
#    z 0.000000 0.000000 2.029300 
# 
# From -- ./inp_files/678.got.cif
#   From: 2010.05.17/outbox.cif.g08.bks.cpg/sg33_1_cif.got.tgz:678.got - 2010.06.03 17:15:25.
