data_PCOD9344746
_publ_section_title
;
Structure prediction by ZEFSAII (Michael W. Deem and Ramdas Pophale) SiO2 
 PCOD9344746
Probable space group: P N A 21
;
_chemical_formula_sum "Si O2"
_cell_formula_units_Z 24
_cell_length_a 13.309961
_cell_length_b 6.161663
_cell_length_c 12.347378
_cell_angle_alpha 90.000000
_cell_angle_beta 90.000000
_cell_angle_gamma 90.000000
_cell_volume 1012.626920
_symmetry_space_group_name_H-M "P N A 21"
_symmetry_group_IT_number 33
_symmetry_cell_setting 'orthorhombic'
loop_
_space_group_symop_operation_xyz
x,y,z
-x,-y,1/2+z
1/2-x,1/2+y,1/2+z
1/2+x,1/2-y,z
loop_
_atom_site_type_symbol
_atom_site_label
_atom_site_fract_x
_atom_site_fract_y
_atom_site_fract_z
Si Si1 0.965585 0.874988 0.371650
Si Si2 0.238114 0.414821 0.730105
Si Si3 0.615702 0.978492 0.284777
Si Si4 0.397921 0.605882 0.155650
Si Si5 0.903136 0.841988 0.607783
Si Si6 0.168146 0.130668 0.424047
O O1 0.024137 0.663262 0.329267
O O2 0.893261 0.977089 0.279987
O O3 0.908902 0.810505 0.480247
O O4 0.058319 0.038403 0.390018
O O5 0.131579 0.355739 0.679405
O O6 0.298037 0.563664 0.647281
O O7 0.247786 0.521932 0.848152
O O8 0.302209 0.192340 0.741063
O O9 0.582961 0.136574 0.186569
O O10 0.660511 0.121214 0.384188
O O11 0.509163 0.522617 0.127132
O O12 0.328799 0.565132 0.050310
#
# Coordination Sequence:
#
# PCOD9344746 Si02
#       6
#     4   4   4   4   4   4
#     4  10  21  37  64  90 122 169 212 258 328 384
#     4  10  22  41  61  91 133 162 213 271 323 385
#     4  10  19  40  62  86 126 168 206 272 317 367
#     4  11  21  41  66  91 127 175 210 260 338 384
#     4  10  22  42  60  96 135 160 217 277 312 397
#     4   9  21  41  59  90 133 156 214 278 302 391
#
# _framework density 23.700731000000001
#
# number of rings (size 3 to 8) (size 9 to 14) (size 15 to 20)
#    0.000    2.000    5.000    0.000    2.333    2.667 
#    6.000    0.000    0.000    0.000    0.000    0.000 
#    0.000    0.000    0.000    0.000    0.000    0.000 
#
# Total GULP energy -133720.575585 kJ/mol
# GULP energy per Si atom -5571.690649 kJ/mol
# Density = 2.364679 g / cm^3
# Si number density = 23.700731 Si / 1000 Ang^3
#
#
#
# Elastic Constant Matrix: (Units=GPa)
#
#
# Indices 1 2 3 4 5 6 
#
# 1 37.4278 18.2878 17.3328 0.0000 0.0000 0.0000
# 2 18.2878 79.6849 25.3693 0.0000 0.0000 0.0000
# 3 17.3328 25.3693 162.5829 0.0000 0.0000 0.0000
# 4 0.0000 0.0000 0.0000 18.0706 0.0000 0.0000
# 5 0.0000 0.0000 0.0000 0.0000 21.2373 0.0000
# 6 0.0000 0.0000 0.0000 0.0000 0.0000 24.6019
#
#
#
# Elastic Compliance Matrix: (Units=1/GPa)
#
#
# Indices 1 2 3 4 5 6 
#
# 1 0.030890 -0.006357 -0.002301 0.000000 0.000000 0.000000
# 2 -0.006357 0.014514 -0.001587 0.000000 0.000000 0.000000
# 3 -0.002301 -0.001587 0.006644 0.000000 0.000000 0.000000
# 4 0.000000 0.000000 0.000000 0.055338 0.000000 0.000000
# 5 0.000000 0.000000 0.000000 0.000000 0.047087 0.000000
# 6 0.000000 0.000000 0.000000 0.000000 0.000000 0.040647
#
#
# Mechanical properties :
#
#
# Convention : Reuss Voigt Hill
#
# Bulk Modulus (GPa) = 31.68845 44.63059 38.15952
# Shear Modulus (GPa) = 22.11134 27.36235 24.73684
#
# Velocity S-wave (km/s) = 3.05772 3.40147 3.23416
# Velocity P-wave (km/s) = 5.08581 5.85649 5.48470
#
# Compressibility (1/GPa) = 0.03155724
#
# Stress axis : x y z
#
# Youngs Moduli (GPa) = 32.37325 68.90127 150.51906
#
# Poissons Ratio (x) = 0.43798 0.34638
# Poissons Ratio (y) = 0.20578 0.23887
# Poissons Ratio (z) = 0.07450 0.10935
#
# Static dielectric constant tensor:
#      x y z
#    x 1.956490 0.000000 0.000000 
#    y 0.000000 1.933590 0.000000 
#    z 0.000000 0.000000 1.981410 
# 
# From -- ./inp_files/6664.got.cif
#   From: 2010.05.17/outbox.cif.g08.bks.cpg/sg33_4_cif.got.tgz:6664.got - 2010.06.03 17:15:25.
