data_PCOD9344362
_publ_section_title
;
Structure prediction by ZEFSAII (Michael W. Deem and Ramdas Pophale) SiO2 
 PCOD9344362
Probable space group: P N A 21
;
_chemical_formula_sum "Si O2"
_cell_formula_units_Z 32
_cell_length_a 6.956212
_cell_length_b 37.164489
_cell_length_c 5.329089
_cell_angle_alpha 90.000000
_cell_angle_beta 90.000000
_cell_angle_gamma 90.000000
_cell_volume 1377.697748
_symmetry_space_group_name_H-M "P N A 21"
_symmetry_group_IT_number 33
_symmetry_cell_setting 'orthorhombic'
loop_
_space_group_symop_operation_xyz
x,y,z
-x,-y,1/2+z
1/2-x,1/2+y,1/2+z
1/2+x,1/2-y,z
loop_
_atom_site_type_symbol
_atom_site_label
_atom_site_fract_x
_atom_site_fract_y
_atom_site_fract_z
Si Si1 0.230194 0.428096 0.430500
Si Si2 0.271237 0.897652 0.429336
Si Si3 0.870470 0.997127 0.533997
Si Si4 0.167404 0.317415 0.079002
Si Si5 0.605328 0.419218 0.122857
Si Si6 0.835255 0.802900 0.082879
Si Si7 0.721408 0.340184 0.086365
Si Si8 0.891745 0.719720 0.082345
O O1 0.147576 0.402997 0.651547
O O2 0.224363 0.469597 0.512822
O O3 0.136160 0.419357 0.161188
O O4 0.456903 0.420348 0.360413
O O5 0.250606 0.856980 0.524496
O O6 0.058671 0.914830 0.409084
O O7 0.792094 0.957129 0.586237
O O8 0.013685 0.003475 0.770098
O O9 0.206231 0.291830 0.842226
O O10 0.938163 0.325391 0.084435
O O11 0.209844 0.297292 0.338912
O O12 0.725003 0.383059 0.108554
O O13 0.881009 0.824737 0.832479
O O14 0.912893 0.762478 0.071673
O O15 0.604675 0.796831 0.084719
O O16 0.876020 0.825206 0.334040
#
# Coordination Sequence:
#
# PCOD9344362 Si02
#       8
#     4   4   4   4   4   4   4   4
#     4   9  18  31  50  79 106 133 173 220 258 295
#     4  10  19  31  52  76 104 131 175 211 254 301
#     4  10  16  30  49  76 105 139 166 219 261 303
#     4  10  21  37  54  75 105 142 165 207 263 319
#     4   9  21  30  55  78 105 133 180 215 256 304
#     4  10  22  37  55  76 102 135 166 217 254 314
#     4  10  22  36  53  77 108 133 169 210 267 304
#     4  10  21  38  56  75 101 134 174 205 263 310
#
# _framework density 23.227153000000001
#
# number of rings (size 3 to 8) (size 9 to 14) (size 15 to 20)
#    0.750    1.500    1.250    1.500    1.750    2.000 
#    0.000    0.000    0.000    1.500    0.000    0.000 
#    0.000    0.000    0.000    0.000    0.000    0.000 
#
# Total GULP energy -178568.483963 kJ/mol
# GULP energy per Si atom -5580.265124 kJ/mol
# Density = 2.317429 g / cm^3
# Si number density = 23.227153 Si / 1000 Ang^3
#
#
#
# Elastic Constant Matrix: (Units=GPa)
#
#
# Indices 1 2 3 4 5 6 
#
# 1 44.3328 10.2255 19.5990 0.0000 0.0000 0.0000
# 2 10.2255 179.5642 65.1892 0.0000 0.0000 0.0000
# 3 19.5990 65.1892 169.0385 0.0000 0.0000 0.0000
# 4 0.0000 0.0000 0.0000 22.9418 0.0000 0.0000
# 5 0.0000 0.0000 0.0000 0.0000 -15.1069 0.0000
# 6 0.0000 0.0000 0.0000 0.0000 0.0000 10.8167
#
#
#
# Elastic Compliance Matrix: (Units=1/GPa)
#
#
# Indices 1 2 3 4 5 6 
#
# 1 0.023801 -0.000411 -0.002601 0.000000 0.000000 0.000000
# 2 -0.000411 0.006483 -0.002452 0.000000 0.000000 0.000000
# 3 -0.002601 -0.002452 0.007163 0.000000 0.000000 0.000000
# 4 0.000000 0.000000 0.000000 0.043589 0.000000 0.000000
# 5 0.000000 0.000000 0.000000 0.000000 -0.066195 0.000000
# 6 0.000000 0.000000 0.000000 0.000000 0.000000 0.092449
#
#
# Mechanical properties :
#
#
# Convention : Reuss Voigt Hill
#
# Bulk Modulus (GPa) = 37.71002 64.77364 51.24183
# Shear Modulus (GPa) = 39.35191 23.59179 31.47185
#
# Velocity S-wave (km/s) = 4.12056 3.19046 3.68497
# Velocity P-wave (km/s) = 6.23772 6.44357 6.34148
#
# Compressibility (1/GPa) = 0.02651815
#
# Stress axis : x y z
#
# Youngs Moduli (GPa) = 42.01436 154.25506 139.60330
#
# Poissons Ratio (x) = 0.06341 0.36312
# Poissons Ratio (y) = 0.01727 0.34236
# Poissons Ratio (z) = 0.10928 0.37829
#
# Static dielectric constant tensor:
#      x y z
#    x 1.924690 0.000000 0.000000 
#    y 0.000000 1.858020 0.000000 
#    z 0.000000 0.000000 1.901650 
# 
# From -- ./inp_files/620.got.cif
#   From: 2010.05.17/outbox.cif.g08.bks.cpg/sg33_1_cif.got.tgz:620.got - 2010.06.03 17:15:25.
