data_PCOD9344006
_publ_section_title
;
Structure prediction by ZEFSAII (Michael W. Deem and Ramdas Pophale) SiO2 
 PCOD9344006
Probable space group: P B A 2
;
_chemical_formula_sum "Si O2"
_cell_formula_units_Z 28
_cell_length_a 18.203258
_cell_length_b 13.046504
_cell_length_c 5.598138
_cell_angle_alpha 90.000000
_cell_angle_beta 90.000000
_cell_angle_gamma 90.000000
_cell_volume 1329.495514
_symmetry_space_group_name_H-M "P B A 2"
_symmetry_group_IT_number 32
_symmetry_cell_setting 'orthorhombic'
loop_
_space_group_symop_operation_xyz
x,y,z
-x,-y,z
1/2-x,1/2+y,z
1/2+x,1/2-y,z
loop_
_atom_site_type_symbol
_atom_site_label
_atom_site_fract_x
_atom_site_fract_y
_atom_site_fract_z
Si Si1 0.128733 0.868862 0.934150
Si Si2 0.757754 0.524224 0.718020
Si Si3 0.404611 0.860008 0.655777
Si Si4 0.203629 0.029893 0.208842
Si Si5 0.423540 0.667179 0.372091
Si Si6 0.500000 0.500000 0.709629
Si Si7 0.527273 0.803814 0.044024
Si Si8 0.500000 0.000000 0.313827
O O1 0.191134 0.893485 0.740232
O O2 0.098835 0.754582 0.951242
O O3 0.058797 0.938962 0.866726
O O4 0.165324 0.917781 0.170856
O O5 0.833838 0.582749 0.751941
O O6 0.747847 0.471629 0.458468
O O7 0.745857 0.456059 0.957044
O O8 0.383668 0.756290 0.520138
O O9 0.466204 0.826858 0.844651
O O10 0.443180 0.937718 0.473528
O O11 0.137581 0.110926 0.216587
O O12 0.458475 0.582521 0.545393
O O13 0.487811 0.725106 0.227819
O O14 0.541408 0.913789 0.160880
#
# Coordination Sequence:
#
# PCOD9344006 Si02
#       8
#     4   4   4   4   4   2   4   2
#     4  10  22  37  72 100 148 169 222 289 358 428
#     4  10  25  43  69  96 150 183 225 290 351 432
#     4  11  25  47  69  97 140 191 242 295 345 427
#     4  10  22  43  66 105 144 182 218 288 369 431
#     4  11  22  36  73 103 141 173 234 284 367 422
#     4  12  18  40  66 116 136 176 214 292 368 432
#     4  11  23  42  70 102 130 191 236 301 342 427
#     4  10  26  44  72  92 138 188 260 292 350 408
#
# _framework density 21.060621000000001
#
# number of rings (size 3 to 8) (size 9 to 14) (size 15 to 20)
#    0.857    0.571    2.857    2.143    6.000    0.000 
#    0.000    5.714    0.000    0.000    0.000    0.000 
#    0.000    0.000    0.000    0.000    0.000    0.000 
#
# Total GULP energy -156269.332185 kJ/mol
# GULP energy per Si atom -5581.047578 kJ/mol
# Density = 2.101269 g / cm^3
# Si number density = 21.060621 Si / 1000 Ang^3
#
#
#
# Elastic Constant Matrix: (Units=GPa)
#
#
# Indices 1 2 3 4 5 6 
#
# 1 25.9334 5.6298 1.0474 0.0000 0.0000 0.0000
# 2 5.6298 87.2210 24.7574 0.0000 0.0000 0.0000
# 3 1.0474 24.7574 98.3715 0.0000 0.0000 0.0000
# 4 0.0000 0.0000 0.0000 19.4300 0.0000 0.0000
# 5 0.0000 0.0000 0.0000 0.0000 -3.4410 0.0000
# 6 0.0000 0.0000 0.0000 0.0000 0.0000 12.4729
#
#
#
# Elastic Compliance Matrix: (Units=1/GPa)
#
#
# Indices 1 2 3 4 5 6 
#
# 1 0.039113 -0.002592 0.000236 0.000000 0.000000 0.000000
# 2 -0.002592 0.012519 -0.003123 0.000000 0.000000 0.000000
# 3 0.000236 -0.003123 0.010949 0.000000 0.000000 0.000000
# 4 0.000000 0.000000 0.000000 0.051467 0.000000 0.000000
# 5 0.000000 0.000000 0.000000 0.000000 -0.290610 0.000000
# 6 0.000000 0.000000 0.000000 0.000000 0.000000 0.080174
#
#
# Mechanical properties :
#
#
# Convention : Reuss Voigt Hill
#
# Bulk Modulus (GPa) = 19.37098 30.48835 24.92966
# Shear Modulus (GPa) = -73.28974 17.69845 -27.79565
#
# Velocity S-wave (km/s) = -5.90550 2.90204 -3.63684
# Velocity P-wave (km/s) = 6.10592 5.07316 2.40263
#
# Compressibility (1/GPa) = 0.05162361
#
# Stress axis : x y z
#
# Youngs Moduli (GPa) = 25.56667 79.87933 91.33227
#
# Poissons Ratio (x) = 0.20701 -0.02153
# Poissons Ratio (y) = 0.06626 0.28524
# Poissons Ratio (z) = -0.00603 0.24947
#
# Static dielectric constant tensor:
#      x y z
#    x 1.759930 0.000000 0.000000 
#    y 0.000000 1.747120 0.000000 
#    z 0.000000 0.000000 1.817990 
# 
# From -- ./inp_files/1004.got.cif
#   From: 2010.05.17/outbox.cif.g08.bks.cpg/sg32_1_cif.got.tgz:1004.got - 2010.06.03 17:12:27.
