data_PCOD9344620
_publ_section_title
;
Structure prediction by ZEFSAII (Michael W. Deem and Ramdas Pophale) SiO2 
 PCOD9344620
Probable space group: P N A 21
;
_chemical_formula_sum "Si O2"
_cell_formula_units_Z 32
_cell_length_a 27.170940
_cell_length_b 8.710322
_cell_length_c 5.600349
_cell_angle_alpha 90.000000
_cell_angle_beta 90.000000
_cell_angle_gamma 90.000000
_cell_volume 1325.421361
_symmetry_space_group_name_H-M "P N A 21"
_symmetry_group_IT_number 33
_symmetry_cell_setting 'orthorhombic'
loop_
_space_group_symop_operation_xyz
x,y,z
-x,-y,1/2+z
1/2-x,1/2+y,1/2+z
1/2+x,1/2-y,z
loop_
_atom_site_type_symbol
_atom_site_label
_atom_site_fract_x
_atom_site_fract_y
_atom_site_fract_z
Si Si1 0.159192 0.305625 0.506350
Si Si2 0.668465 0.274925 0.013621
Si Si3 0.773335 0.429937 0.025905
Si Si4 0.578224 0.726141 0.935181
Si Si5 0.474688 0.543477 0.521549
Si Si6 0.994474 0.653363 0.272172
Si Si7 0.420506 0.051224 0.052164
Si Si8 0.678121 0.900628 0.031153
O O1 0.144912 0.207803 0.275181
O O2 0.213633 0.385634 0.517163
O O3 0.128423 0.464060 0.493791
O O4 0.147990 0.212442 0.746191
O O5 0.716622 0.381123 0.028119
O O6 0.676467 0.087535 0.021941
O O7 0.797036 0.364422 0.273207
O O8 0.793349 0.361947 0.774504
O O9 0.524834 0.769601 0.052684
O O10 0.624548 0.818634 0.043081
O O11 0.577072 0.544897 0.982916
O O12 0.581803 0.778869 0.659406
O O13 0.493587 0.515630 0.789819
O O14 0.478253 0.722189 0.465871
O O15 0.037982 0.543519 0.356120
O O16 0.945929 0.554299 0.248717
#
# Coordination Sequence:
#
# PCOD9344620 Si02
#       8
#     4   4   4   4   4   4   4   4
#     4  10  22  36  59  90 115 159 194 254 304 372
#     4  10  19  36  59  84 112 145 196 250 303 361
#     4  10  19  35  60  84 114 146 196 245 304 380
#     4  11  21  39  61  88 126 170 208 256 308 378
#     4  10  22  38  60  86 124 165 212 251 301 360
#     4  11  23  36  61  97 124 173 214 265 305 377
#     4  12  21  37  62  91 131 163 218 253 315 369
#     4  10  21  35  60  90 112 155 202 244 306 373
#
# _framework density 24.143266000000001
#
# number of rings (size 3 to 8) (size 9 to 14) (size 15 to 20)
#    0.000    1.500    5.000    2.250    0.000    0.000 
#    0.000    0.000   16.500    0.000    0.000    0.000 
#    0.000    0.000    0.000    0.000    0.000    0.000 
#
# Total GULP energy -178164.008066 kJ/mol
# GULP energy per Si atom -5567.625252 kJ/mol
# Density = 2.408831 g / cm^3
# Si number density = 24.143266 Si / 1000 Ang^3
#
#
#
# Elastic Constant Matrix: (Units=GPa)
#
#
# Indices 1 2 3 4 5 6 
#
# 1 7.1914 1.4537 7.7308 0.0000 0.0000 0.0000
# 2 1.4537 36.6404 17.3741 0.0000 0.0000 0.0000
# 3 7.7308 17.3741 145.8615 0.0000 0.0000 0.0000
# 4 0.0000 0.0000 0.0000 0.6861 0.0000 0.0000
# 5 0.0000 0.0000 0.0000 0.0000 34.4724 0.0000
# 6 0.0000 0.0000 0.0000 0.0000 0.0000 34.1097
#
#
#
# Elastic Compliance Matrix: (Units=1/GPa)
#
#
# Indices 1 2 3 4 5 6 
#
# 1 0.147635 -0.002276 -0.007554 0.000000 0.000000 0.000000
# 2 -0.002276 0.028961 -0.003329 0.000000 0.000000 0.000000
# 3 -0.007554 -0.003329 0.007653 0.000000 0.000000 0.000000
# 4 0.000000 0.000000 0.000000 1.457521 0.000000 0.000000
# 5 0.000000 0.000000 0.000000 0.000000 0.029009 0.000000
# 6 0.000000 0.000000 0.000000 0.000000 0.000000 0.029317
#
#
# Mechanical properties :
#
#
# Convention : Reuss Voigt Hill
#
# Bulk Modulus (GPa) = 6.33183 26.97897 16.65540
# Shear Modulus (GPa) = 2.81048 24.72930 13.76989
#
# Velocity S-wave (km/s) = 1.08010 3.20390 2.39077
# Velocity P-wave (km/s) = 2.04543 4.98853 3.81243
#
# Compressibility (1/GPa) = 0.15793216
#
# Stress axis : x y z
#
# Youngs Moduli (GPa) = 6.77344 34.52903 130.67270
#
# Poissons Ratio (x) = 0.07858 0.98707
# Poissons Ratio (y) = 0.01541 0.43502
# Poissons Ratio (z) = 0.05116 0.11495
#
# Static dielectric constant tensor:
#      x y z
#    x 2.037510 0.000000 0.000000 
#    y 0.000000 2.382920 0.000000 
#    z 0.000000 0.000000 2.110320 
# 
# From -- ./inp_files/2558.got.cif
#   From: 2010.05.17/outbox.cif.g08.bks.cpg/sg33_2_cif.got.tgz:2558.got - 2010.06.03 17:15:25.
