data_PCOD9344938
_publ_section_title
;
Structure prediction by ZEFSAII (Michael W. Deem and Ramdas Pophale) SiO2 
 PCOD9344938
Probable space group: P N A 21
;
_chemical_formula_sum "Si O2"
_cell_formula_units_Z 32
_cell_length_a 12.685832
_cell_length_b 11.396984
_cell_length_c 11.035770
_cell_angle_alpha 90.000000
_cell_angle_beta 90.000000
_cell_angle_gamma 90.000000
_cell_volume 1595.554102
_symmetry_space_group_name_H-M "P N A 21"
_symmetry_group_IT_number 33
_symmetry_cell_setting 'orthorhombic'
loop_
_space_group_symop_operation_xyz
x,y,z
-x,-y,1/2+z
1/2-x,1/2+y,1/2+z
1/2+x,1/2-y,z
loop_
_atom_site_type_symbol
_atom_site_label
_atom_site_fract_x
_atom_site_fract_y
_atom_site_fract_z
Si Si1 0.460351 0.052825 0.501120
Si Si2 0.777700 0.598068 0.448961
Si Si3 0.405086 0.029453 0.773205
Si Si4 0.615480 0.695841 0.274509
Si Si5 0.923149 0.036815 0.089575
Si Si6 0.043131 0.826580 0.005838
Si Si7 0.319457 0.469556 0.336158
Si Si8 0.419573 0.677365 0.462759
O O1 0.464626 0.011925 0.643412
O O2 0.487302 0.190813 0.497089
O O3 0.339958 0.023556 0.462393
O O4 0.528173 0.991128 0.395445
O O5 0.717944 0.629335 0.324829
O O6 0.681693 0.599350 0.542033
O O7 0.863461 0.698672 0.474320
O O8 0.366861 0.164461 0.768669
O O9 0.298845 0.954431 0.789481
O O10 0.590075 0.655273 0.139824
O O11 0.514119 0.681565 0.363035
O O12 0.894817 0.000952 0.223838
O O13 0.951236 0.925018 0.004699
O O14 0.020364 0.126184 0.079328
O O15 0.129724 0.860785 0.906600
O O16 0.332739 0.581451 0.424174
#
# Coordination Sequence:
#
# PCOD9344938 Si02
#       8
#     4   4   4   4   4   4   4   4
#     4  11  25  42  64  98 137 178 218 284 335 404
#     4  11  21  38  67  95 121 170 226 269 326 396
#     4  11  23  42  64  94 133 174 224 277 334 394
#     4  10  20  39  66  93 124 171 221 264 329 402
#     4  10  22  40  65  89 129 174 212 272 334 396
#     4  10  24  42  63  97 133 173 218 277 335 400
#     4  11  21  42  63  90 126 171 218 271 329 393
#     4  10  20  37  66  92 119 159 223 266 312 389
#
# _framework density 20.055730000000001
#
# number of rings (size 3 to 8) (size 9 to 14) (size 15 to 20)
#    0.000    1.500    5.000    0.000    0.000    3.000 
#    0.000    2.500    0.000    0.000    0.000    0.000 
#    0.000    0.000    0.000    0.000    0.000    0.000 
#
# Total GULP energy -178356.387478 kJ/mol
# GULP energy per Si atom -5573.637109 kJ/mol
# Density = 2.001008 g / cm^3
# Si number density = 20.055730 Si / 1000 Ang^3
#
#
#
# Elastic Constant Matrix: (Units=GPa)
#
#
# Indices 1 2 3 4 5 6 
#
# 1 84.9439 21.2402 36.0265 0.0000 0.0000 0.0000
# 2 21.2402 42.5056 10.2614 0.0000 0.0000 0.0000
# 3 36.0265 10.2614 80.0986 0.0000 0.0000 0.0000
# 4 0.0000 0.0000 0.0000 24.8542 0.0000 0.0000
# 5 0.0000 0.0000 0.0000 0.0000 29.2732 0.0000
# 6 0.0000 0.0000 0.0000 0.0000 0.0000 26.9817
#
#
#
# Elastic Compliance Matrix: (Units=1/GPa)
#
#
# Indices 1 2 3 4 5 6 
#
# 1 0.016121 -0.006507 -0.006417 0.000000 0.000000 0.000000
# 2 -0.006507 0.026903 -0.000520 0.000000 0.000000 0.000000
# 3 -0.006417 -0.000520 0.015438 0.000000 0.000000 0.000000
# 4 0.000000 0.000000 0.000000 0.040235 0.000000 0.000000
# 5 0.000000 0.000000 0.000000 0.000000 0.034161 0.000000
# 6 0.000000 0.000000 0.000000 0.000000 0.000000 0.037062
#
#
# Mechanical properties :
#
#
# Convention : Reuss Voigt Hill
#
# Bulk Modulus (GPa) = 31.67165 38.06716 34.86941
# Shear Modulus (GPa) = 24.11586 25.55648 24.83617
#
# Velocity S-wave (km/s) = 3.47139 3.57357 3.52285
# Velocity P-wave (km/s) = 5.64743 6.00409 5.82849
#
# Compressibility (1/GPa) = 0.03157398
#
# Stress axis : x y z
#
# Youngs Moduli (GPa) = 62.03014 37.17031 64.77679
#
# Poissons Ratio (x) = 0.24185 0.41570
# Poissons Ratio (y) = 0.40360 0.03369
# Poissons Ratio (z) = 0.39807 0.01933
#
# Static dielectric constant tensor:
#      x y z
#    x 1.715330 0.000000 0.000000 
#    y 0.000000 1.750000 0.000000 
#    z 0.000000 0.000000 1.730500 
# 
# From -- ./inp_files/6470.got.cif
#   From: 2010.05.17/outbox.cif.g08.bks.cpg/sg33_4_cif.got.tgz:6470.got - 2010.06.03 17:15:25.
