data_PCOD9344868
_publ_section_title
;
Structure prediction by ZEFSAII (Michael W. Deem and Ramdas Pophale) SiO2 
 PCOD9344868
Probable space group: P N A 21
;
_chemical_formula_sum "Si O2"
_cell_formula_units_Z 28
_cell_length_a 24.790809
_cell_length_b 8.948552
_cell_length_c 4.919408
_cell_angle_alpha 90.000000
_cell_angle_beta 90.000000
_cell_angle_gamma 90.000000
_cell_volume 1091.330539
_symmetry_space_group_name_H-M "P N A 21"
_symmetry_group_IT_number 33
_symmetry_cell_setting 'orthorhombic'
loop_
_space_group_symop_operation_xyz
x,y,z
-x,-y,1/2+z
1/2-x,1/2+y,1/2+z
1/2+x,1/2-y,z
loop_
_atom_site_type_symbol
_atom_site_label
_atom_site_fract_x
_atom_site_fract_y
_atom_site_fract_z
Si Si1 0.351398 0.835679 0.289400
Si Si2 0.063045 0.429621 0.413843
Si Si3 0.189134 0.628725 0.684194
Si Si4 0.133728 0.928104 0.562977
Si Si5 0.421253 0.564688 0.536202
Si Si6 0.996699 0.696946 0.419157
Si Si7 0.761456 0.868582 0.190616
O O1 0.348204 0.011081 0.350362
O O2 0.379824 0.857777 0.992616
O O3 0.384036 0.705739 0.440415
O O4 0.290381 0.780421 0.301025
O O5 0.043084 0.398950 0.113015
O O6 0.052131 0.606123 0.460611
O O7 0.023322 0.334473 0.613156
O O8 0.224597 0.565889 0.431693
O O9 0.156282 0.762176 0.548407
O O10 0.229634 0.676866 0.921267
O O11 0.099904 0.999975 0.317918
O O12 0.188065 0.026203 0.610815
O O13 0.094102 0.939389 0.819851
O O14 0.481183 0.634603 0.504429
#
# Coordination Sequence:
#
# PCOD9344868 Si02
#       7
#     4   4   4   4   4   4   4
#     4  10  22  38  58  81 108 142 183 228 271 317
#     4   9  18  30  53  83 109 131 172 226 267 305
#     4  12  24  37  55  78 109 141 183 229 270 316
#     4  11  22  37  54  78 107 143 180 219 271 328
#     4  10  20  36  58  79 109 143 178 216 267 333
#     4   9  16  31  53  82 108 135 170 217 267 315
#     4  11  22  37  55  77 104 143 184 225 269 320
#
# _framework density 25.656755
#
# number of rings (size 3 to 8) (size 9 to 14) (size 15 to 20)
#    0.000    1.714    0.000    6.857    0.000    5.714 
#    0.000    0.000    0.000    1.714    0.000    0.000 
#    0.000    0.000    0.000    0.000    0.000    0.000 
#
# Total GULP energy -156204.662524 kJ/mol
# GULP energy per Si atom -5578.737947 kJ/mol
# Density = 2.559836 g / cm^3
# Si number density = 25.656755 Si / 1000 Ang^3
#
#
#
# Elastic Constant Matrix: (Units=GPa)
#
#
# Indices 1 2 3 4 5 6 
#
# 1 73.3268 29.3714 18.2664 0.0000 0.0000 0.0000
# 2 29.3714 67.5039 0.0794 0.0000 0.0000 0.0000
# 3 18.2664 0.0794 72.6710 0.0000 0.0000 0.0000
# 4 0.0000 0.0000 0.0000 23.3526 0.0000 0.0000
# 5 0.0000 0.0000 0.0000 0.0000 23.0266 0.0000
# 6 0.0000 0.0000 0.0000 0.0000 0.0000 37.1736
#
#
#
# Elastic Compliance Matrix: (Units=1/GPa)
#
#
# Indices 1 2 3 4 5 6 
#
# 1 0.017866 -0.007768 -0.004482 0.000000 0.000000 0.000000
# 2 -0.007768 0.018192 0.001933 0.000000 0.000000 0.000000
# 3 -0.004482 0.001933 0.014885 0.000000 0.000000 0.000000
# 4 0.000000 0.000000 0.000000 0.042822 0.000000 0.000000
# 5 0.000000 0.000000 0.000000 0.000000 0.043428 0.000000
# 6 0.000000 0.000000 0.000000 0.000000 0.000000 0.026901
#
#
# Mechanical properties :
#
#
# Convention : Reuss Voigt Hill
#
# Bulk Modulus (GPa) = 32.99549 34.32626 33.66087
# Shear Modulus (GPa) = 25.66326 27.76285 26.71306
#
# Velocity S-wave (km/s) = 3.16611 3.29308 3.23022
# Velocity P-wave (km/s) = 5.12386 5.27894 5.20198
#
# Compressibility (1/GPa) = 0.03030718
#
# Stress axis : x y z
#
# Youngs Moduli (GPa) = 55.97301 54.97016 67.18096
#
# Poissons Ratio (x) = 0.42702 0.30112
# Poissons Ratio (y) = 0.43481 -0.12984
# Poissons Ratio (z) = 0.25088 -0.10624
#
# Static dielectric constant tensor:
#      x y z
#    x 2.153520 0.000000 0.000000 
#    y 0.000000 2.089410 0.000000 
#    z 0.000000 0.000000 2.012750 
# 
# From -- ./inp_files/2444.got.cif
#   From: 2010.05.17/outbox.cif.g08.bks.cpg/sg33_2_cif.got.tgz:2444.got - 2010.06.03 17:15:25.
