data_PCOD9344002
_publ_section_title
;
Structure prediction by ZEFSAII (Michael W. Deem and Ramdas Pophale) SiO2 
 PCOD9344002
Probable space group: P B A 2
;
_chemical_formula_sum "Si O2"
_cell_formula_units_Z 30
_cell_length_a 19.110830
_cell_length_b 12.941448
_cell_length_c 6.871416
_cell_angle_alpha 90.000000
_cell_angle_beta 90.000000
_cell_angle_gamma 90.000000
_cell_volume 1699.451061
_symmetry_space_group_name_H-M "P B A 2"
_symmetry_group_IT_number 32
_symmetry_cell_setting 'orthorhombic'
loop_
_space_group_symop_operation_xyz
x,y,z
-x,-y,z
1/2-x,1/2+y,z
1/2+x,1/2-y,z
loop_
_atom_site_type_symbol
_atom_site_label
_atom_site_fract_x
_atom_site_fract_y
_atom_site_fract_z
Si Si1 0.000000 0.500000 0.621220
Si Si2 0.342289 0.721206 0.876247
Si Si3 0.756791 0.975315 0.859763
Si Si4 0.270492 0.333118 0.134228
Si Si5 0.216571 0.364415 0.536619
Si Si6 0.396898 0.994340 0.305305
Si Si7 0.865830 0.341231 0.008365
Si Si8 0.032241 0.357124 0.959661
O O1 0.945449 0.453346 0.469149
O O2 0.958705 0.575140 0.764641
O O3 0.322208 0.601947 0.859693
O O4 0.314798 0.777706 0.679923
O O5 0.420716 0.756130 0.927824
O O6 0.295342 0.769198 0.049663
O O7 0.751248 0.050327 0.675818
O O8 0.686641 0.903217 0.864168
O O9 0.762078 0.052466 0.044839
O O10 0.268836 0.328341 0.366957
O O11 0.336404 0.272475 0.045268
O O12 0.154493 0.417527 0.415173
O O13 0.358460 0.087096 0.198304
O O14 0.438443 0.925968 0.140813
O O15 0.948788 0.340551 0.968794
#
# Coordination Sequence:
#
# PCOD9344002 Si02
#       8
#     2   4   4   4   4   4   4   4
#     4  12  20  32  54  84 122 138 168 236 294 340
#     4  10  22  36  58  84 114 149 188 235 290 341
#     4  10  22  40  56  84 115 151 193 239 285 337
#     4  10  22  38  56  83 115 149 194 235 278 344
#     4  11  20  35  58  85 113 145 191 236 286 342
#     4  12  20  33  56  86 117 143 180 232 294 341
#     4  11  21  37  57  84 115 152 186 235 293 346
#     4  12  21  37  54  88 117 146 189 230 293 357
#
# _framework density 17.652760000000001
#
# number of rings (size 3 to 8) (size 9 to 14) (size 15 to 20)
#    0.000    1.067    6.667    1.600    1.867    0.000 
#    2.400    0.667    0.000    0.000    0.000    0.000 
#    0.000    0.000    0.000    0.000    0.000    0.000 
#
# Total GULP energy -167192.694553 kJ/mol
# GULP energy per Si atom -5573.089818 kJ/mol
# Density = 1.761258 g / cm^3
# Si number density = 17.652760 Si / 1000 Ang^3
#
#
#
# Elastic Constant Matrix: (Units=GPa)
#
#
# Indices 1 2 3 4 5 6 
#
# 1 64.0090 30.0327 9.6392 0.0000 0.0000 0.0000
# 2 30.0327 69.5840 20.0458 0.0000 0.0000 0.0000
# 3 9.6392 20.0458 91.8733 0.0000 0.0000 0.0000
# 4 0.0000 0.0000 0.0000 7.6277 0.0000 0.0000
# 5 0.0000 0.0000 0.0000 0.0000 22.4540 0.0000
# 6 0.0000 0.0000 0.0000 0.0000 0.0000 31.3691
#
#
#
# Elastic Compliance Matrix: (Units=1/GPa)
#
#
# Indices 1 2 3 4 5 6 
#
# 1 0.019594 -0.008392 -0.000225 0.000000 0.000000 0.000000
# 2 -0.008392 0.018929 -0.003250 0.000000 0.000000 0.000000
# 3 -0.000225 -0.003250 0.011617 0.000000 0.000000 0.000000
# 4 0.000000 0.000000 0.000000 0.131102 0.000000 0.000000
# 5 0.000000 0.000000 0.000000 0.000000 0.044536 0.000000
# 6 0.000000 0.000000 0.000000 0.000000 0.000000 0.031878
#
#
# Mechanical properties :
#
#
# Convention : Reuss Voigt Hill
#
# Bulk Modulus (GPa) = 37.86792 38.32243 38.09518
# Shear Modulus (GPa) = 17.22995 23.34005 20.28500
#
# Velocity S-wave (km/s) = 3.12757 3.64012 3.39353
# Velocity P-wave (km/s) = 5.87710 6.27881 6.08127
#
# Compressibility (1/GPa) = 0.02640757
#
# Stress axis : x y z
#
# Youngs Moduli (GPa) = 51.03541 52.82785 86.07937
#
# Poissons Ratio (x) = 0.44334 0.01934
# Poissons Ratio (y) = 0.42830 0.27973
# Poissons Ratio (z) = 0.01147 0.17167
#
# Static dielectric constant tensor:
#      x y z
#    x 1.657600 0.000000 0.000000 
#    y 0.000000 1.597050 0.000000 
#    z 0.000000 0.000000 1.627430 
# 
# From -- ./inp_files/1022.got.cif
#   From: 2010.05.17/outbox.cif.g08.bks.cpg/sg32_1_cif.got.tgz:1022.got - 2010.06.03 17:12:27.
