data_PCOD9344981
_publ_section_title
;
Structure prediction by ZEFSAII (Michael W. Deem and Ramdas Pophale) SiO2 
 PCOD9344981
Probable space group: P N A 21
;
_chemical_formula_sum "Si O2"
_cell_formula_units_Z 28
_cell_length_a 5.534020
_cell_length_b 23.722156
_cell_length_c 9.640346
_cell_angle_alpha 90.000000
_cell_angle_beta 90.000000
_cell_angle_gamma 90.000000
_cell_volume 1265.573881
_symmetry_space_group_name_H-M "P N A 21"
_symmetry_group_IT_number 33
_symmetry_cell_setting 'orthorhombic'
loop_
_space_group_symop_operation_xyz
x,y,z
-x,-y,1/2+z
1/2-x,1/2+y,1/2+z
1/2+x,1/2-y,z
loop_
_atom_site_type_symbol
_atom_site_label
_atom_site_fract_x
_atom_site_fract_y
_atom_site_fract_z
Si Si1 0.891330 0.053676 0.837120
Si Si2 0.169388 0.889786 0.852300
Si Si3 0.826367 0.273837 0.601092
Si Si4 0.381426 0.547563 0.639632
Si Si5 0.162398 0.108980 0.607437
Si Si6 0.991804 0.488366 0.474871
Si Si7 0.265267 0.768897 0.784874
O O1 0.004686 0.103300 0.747255
O O2 0.972901 0.002948 0.737018
O O3 0.616392 0.034588 0.868297
O O4 0.995674 0.054112 0.990964
O O5 0.330270 0.943925 0.897676
O O6 0.315401 0.835580 0.801479
O O7 0.961105 0.901727 0.737769
O O8 0.029091 0.873215 0.990951
O O9 0.565792 0.255299 0.660167
O O10 0.853158 0.340843 0.618303
O O11 0.789313 0.257693 0.438042
O O12 0.117926 0.526049 0.593442
O O13 0.293736 0.053368 0.544070
O O14 0.500832 0.740644 0.717576
#
# Coordination Sequence:
#
# PCOD9344981 Si02
#       7
#     4   4   4   4   4   4   4
#     4  12  25  42  59  94 135 176 227 277 334 420
#     4  12  24  39  67 100 133 176 231 283 355 412
#     4  10  20  38  64 101 131 167 226 300 347 407
#     4  12  25  42  59  94 135 176 227 277 334 420
#     4  12  24  39  67 100 133 176 231 283 355 412
#     4  12  24  40  66  90 138 188 220 282 344 422
#     4  10  20  38  64 101 131 167 226 300 347 407
#
# _framework density 22.12435
#
# number of rings (size 3 to 8) (size 9 to 14) (size 15 to 20)
#    0.000    0.571    8.571    1.714    4.000    0.000 
#    0.000    0.000    0.000    1.714    0.000    0.000 
#    0.000    0.000    0.000    0.000    0.000    0.000 
#
# Total GULP energy -155953.828952 kJ/mol
# GULP energy per Si atom -5569.779605 kJ/mol
# Density = 2.207399 g / cm^3
# Si number density = 22.124350 Si / 1000 Ang^3
#
#
#
# Elastic Constant Matrix: (Units=GPa)
#
#
# Indices 1 2 3 4 5 6 
#
# 1 103.0083 15.8787 8.8000 0.0000 0.0000 0.0000
# 2 15.8787 51.0143 12.8114 0.0000 0.0000 0.0000
# 3 8.8000 12.8114 94.3550 0.0000 0.0000 0.0000
# 4 0.0000 0.0000 0.0000 8.3679 0.0000 0.0000
# 5 0.0000 0.0000 0.0000 0.0000 41.4595 0.0000
# 6 0.0000 0.0000 0.0000 0.0000 0.0000 44.4940
#
#
#
# Elastic Compliance Matrix: (Units=1/GPa)
#
#
# Indices 1 2 3 4 5 6 
#
# 1 0.010224 -0.003047 -0.000540 0.000000 0.000000 0.000000
# 2 -0.003047 0.021202 -0.002595 0.000000 0.000000 0.000000
# 3 -0.000540 -0.002595 0.011001 0.000000 0.000000 0.000000
# 4 0.000000 0.000000 0.000000 0.119504 0.000000 0.000000
# 5 0.000000 0.000000 0.000000 0.000000 0.024120 0.000000
# 6 0.000000 0.000000 0.000000 0.000000 0.000000 0.022475
#
#
# Mechanical properties :
#
#
# Convention : Reuss Voigt Hill
#
# Bulk Modulus (GPa) = 33.26177 35.92864 34.59521
# Shear Modulus (GPa) = 21.65350 32.92344 27.28847
#
# Velocity S-wave (km/s) = 3.13184 3.86179 3.51581
# Velocity P-wave (km/s) = 5.30514 6.01325 5.67026
#
# Compressibility (1/GPa) = 0.03006455
#
# Stress axis : x y z
#
# Youngs Moduli (GPa) = 97.81178 47.16481 90.90144
#
# Poissons Ratio (x) = 0.14370 0.04907
# Poissons Ratio (y) = 0.29800 0.23586
# Poissons Ratio (z) = 0.05280 0.12238
#
# Static dielectric constant tensor:
#      x y z
#    x 2.005430 0.000000 0.000000 
#    y 0.000000 1.862540 0.000000 
#    z 0.000000 0.000000 1.806430 
# 
# From -- ./inp_files/2748.got.cif
#   From: 2010.05.17/outbox.cif.g08.bks.cpg/sg33_2_cif.got.tgz:2748.got - 2010.06.03 17:15:25.
