data_PCOD9344421
_publ_section_title
;
Structure prediction by ZEFSAII (Michael W. Deem and Ramdas Pophale) SiO2 
 PCOD9344421
Probable space group: P N A 21
;
_chemical_formula_sum "Si O2"
_cell_formula_units_Z 32
_cell_length_a 5.583079
_cell_length_b 18.505679
_cell_length_c 12.673081
_cell_angle_alpha 90.000000
_cell_angle_beta 90.000000
_cell_angle_gamma 90.000000
_cell_volume 1309.365846
_symmetry_space_group_name_H-M "P N A 21"
_symmetry_group_IT_number 33
_symmetry_cell_setting 'orthorhombic'
loop_
_space_group_symop_operation_xyz
x,y,z
-x,-y,1/2+z
1/2-x,1/2+y,1/2+z
1/2+x,1/2-y,z
loop_
_atom_site_type_symbol
_atom_site_label
_atom_site_fract_x
_atom_site_fract_y
_atom_site_fract_z
Si Si1 0.355939 0.576879 0.054250
Si Si2 0.974368 0.220848 0.647688
Si Si3 0.318848 0.663600 0.832790
Si Si4 0.318766 0.834260 0.833811
Si Si5 0.644135 0.042562 0.506254
Si Si6 0.549670 0.892597 0.417638
Si Si7 0.051656 0.824837 0.369608
Si Si8 0.556605 0.771941 0.582780
O O1 0.454719 0.638339 0.130718
O O2 0.086596 0.552143 0.082873
O O3 0.586609 0.524268 0.046680
O O4 0.321720 0.616103 0.939963
O O5 0.708626 0.237490 0.605520
O O6 0.951966 0.230577 0.772815
O O7 0.319927 0.749012 0.862139
O O8 0.067889 0.649452 0.775898
O O9 0.569972 0.646625 0.778368
O O10 0.324153 0.884101 0.938358
O O11 0.560437 0.977847 0.431777
O O12 0.297463 0.870387 0.364747
O O13 0.548675 0.851273 0.531489
O O14 0.802789 0.868428 0.367846
O O15 0.057943 0.780109 0.478395
O O16 0.307747 0.748922 0.637406
#
# Coordination Sequence:
#
# PCOD9344421 Si02
#       8
#     4   4   4   4   4   4   4   4
#     4  10  21  30  43  64  97 123 171 192 235 282
#     4  12  23  32  50  72  99 135 174 213 236 277
#     4   8  14  23  36  49  73 112 140 175 210 247
#     4   8  14  22  36  49  74 100 147 175 207 255
#     4  10  19  31  42  64  87 124 165 197 234 304
#     4  10  18  30  50  61  88 123 160 199 253 277
#     4  10  19  33  47  69  91 118 171 207 237 277
#     4   8  14  25  42  60  81 105 144 188 230 263
#
# _framework density 24.439311
#
# number of rings (size 3 to 8) (size 9 to 14) (size 15 to 20)
#    0.000    2.500    0.000    4.500    7.000    0.000 
#    0.000    0.000    0.000    0.000    0.000    0.000 
#    0.000    0.000    0.000    0.000  570.000    0.750 
#
# Total GULP energy -178532.933927 kJ/mol
# GULP energy per Si atom -5579.154185 kJ/mol
# Density = 2.438369 g / cm^3
# Si number density = 24.439311 Si / 1000 Ang^3
#
#
#
# Elastic Constant Matrix: (Units=GPa)
#
#
# Indices 1 2 3 4 5 6 
#
# 1 256.5409 14.1960 26.8663 0.0000 0.0000 0.0000
# 2 14.1960 52.0869 -2.0827 0.0000 0.0000 0.0000
# 3 26.8663 -2.0827 53.9780 0.0000 0.0000 0.0000
# 4 0.0000 0.0000 0.0000 17.6135 0.0000 0.0000
# 5 0.0000 0.0000 0.0000 0.0000 -3.4631 0.0000
# 6 0.0000 0.0000 0.0000 0.0000 0.0000 31.7866
#
#
#
# Elastic Compliance Matrix: (Units=1/GPa)
#
#
# Indices 1 2 3 4 5 6 
#
# 1 0.004189 -0.001227 -0.002132 0.000000 0.000000 0.000000
# 2 -0.001227 0.019588 0.001366 0.000000 0.000000 0.000000
# 3 -0.002132 0.001366 0.019640 0.000000 0.000000 0.000000
# 4 0.000000 0.000000 0.000000 0.056775 0.000000 0.000000
# 5 0.000000 0.000000 0.000000 0.000000 -0.288757 0.000000
# 6 0.000000 0.000000 0.000000 0.000000 0.000000 0.031460
#
#
# Mechanical properties :
#
#
# Convention : Reuss Voigt Hill
#
# Bulk Modulus (GPa) = 25.36062 48.95169 37.15616
# Shear Modulus (GPa) = -35.72056 30.76247 -2.47905
#
# Velocity S-wave (km/s) = -3.82724 3.55171 -1.00825
# Velocity P-wave (km/s) = 3.02173 6.07395 3.72572
#
# Compressibility (1/GPa) = 0.03943121
#
# Stress axis : x y z
#
# Youngs Moduli (GPa) = 238.70720 51.05235 50.91605
#
# Poissons Ratio (x) = 0.06264 0.10858
# Poissons Ratio (y) = 0.29290 -0.06958
# Poissons Ratio (z) = 0.50903 -0.06976
#
# Static dielectric constant tensor:
#      x y z
#    x 2.115110 0.000000 0.000000 
#    y 0.000000 1.915200 0.000000 
#    z 0.000000 0.000000 1.962300 
# 
# From -- ./inp_files/7457.got.cif
#   From: 2010.05.17/outbox.cif.g08.bks.cpg/sg33_4_cif.got.tgz:7457.got - 2010.06.03 17:15:25.
