data_PCOD9344298
_publ_section_title
;
Structure prediction by ZEFSAII (Michael W. Deem and Ramdas Pophale) SiO2 
 PCOD9344298
Probable space group: P B A 2
;
_chemical_formula_sum "Si O2"
_cell_formula_units_Z 20
_cell_length_a 14.927497
_cell_length_b 9.086616
_cell_length_c 6.441406
_cell_angle_alpha 90.000000
_cell_angle_beta 90.000000
_cell_angle_gamma 90.000000
_cell_volume 873.715099
_symmetry_space_group_name_H-M "P B A 2"
_symmetry_group_IT_number 32
_symmetry_cell_setting 'orthorhombic'
loop_
_space_group_symop_operation_xyz
x,y,z
-x,-y,z
1/2-x,1/2+y,z
1/2+x,1/2-y,z
loop_
_atom_site_type_symbol
_atom_site_label
_atom_site_fract_x
_atom_site_fract_y
_atom_site_fract_z
Si Si1 0.467519 0.199712 0.513540
Si Si2 0.835124 0.818238 0.217904
Si Si3 0.697307 0.015487 0.471037
Si Si4 0.000000 0.500000 0.127642
Si Si5 0.633878 0.141543 0.831726
Si Si6 0.000000 0.000000 0.380163
O O1 0.490208 0.138037 0.281562
O O2 0.550494 0.180975 0.674500
O O3 0.449462 0.372603 0.507584
O O4 0.382506 0.095074 0.545927
O O5 0.825937 0.661950 0.338683
O O6 0.925522 0.910465 0.256208
O O7 0.760744 0.919863 0.326397
O O8 0.833962 0.775000 0.976513
O O9 0.717370 0.084614 0.696628
O O10 0.086343 0.475406 0.985038
#
# Coordination Sequence:
#
# PCOD9344298 Si02
#       6
#     4   4   4   2   4   2
#     4  12  22  44  76 106 152 195 269 330 392 493
#     4  12  28  47  75 112 163 202 278 340 417 488
#     4  12  25  49  72 113 158 206 268 348 402 494
#     4  12  18  44  76 106 138 196 258 338 374 494
#     4  12  22  45  83 109 144 218 264 322 428 483
#     4  12  24  46  70 110 154 196 256 342 386 490
#
# _framework density 22.890757000000001
#
# number of rings (size 3 to 8) (size 9 to 14) (size 15 to 20)
#    0.000    0.000   10.000    1.200    0.000    2.400 
#    0.000    0.000    0.000    0.000    0.000    0.000 
#    0.000    0.000    0.000    0.000    0.000    0.000 
#
# Total GULP energy -111386.637834 kJ/mol
# GULP energy per Si atom -5569.331892 kJ/mol
# Density = 2.283866 g / cm^3
# Si number density = 22.890757 Si / 1000 Ang^3
#
#
#
# Elastic Constant Matrix: (Units=GPa)
#
#
# Indices 1 2 3 4 5 6 
#
# 1 75.9325 46.8950 60.7600 0.0000 0.0000 0.0000
# 2 46.8950 186.2512 64.2172 0.0000 0.0000 0.0000
# 3 60.7600 64.2172 151.9450 0.0000 0.0000 0.0000
# 4 0.0000 0.0000 0.0000 39.4641 0.0000 0.0000
# 5 0.0000 0.0000 0.0000 0.0000 21.6545 0.0000
# 6 0.0000 0.0000 0.0000 0.0000 0.0000 21.9972
#
#
#
# Elastic Compliance Matrix: (Units=1/GPa)
#
#
# Indices 1 2 3 4 5 6 
#
# 1 0.020489 -0.002732 -0.007039 0.000000 0.000000 0.000000
# 2 -0.002732 0.006649 -0.001718 0.000000 0.000000 0.000000
# 3 -0.007039 -0.001718 0.010122 0.000000 0.000000 0.000000
# 4 0.000000 0.000000 0.000000 0.025339 0.000000 0.000000
# 5 0.000000 0.000000 0.000000 0.000000 0.046180 0.000000
# 6 0.000000 0.000000 0.000000 0.000000 0.000000 0.045460
#
#
# Mechanical properties :
#
#
# Convention : Reuss Voigt Hill
#
# Bulk Modulus (GPa) = 70.01044 84.20811 77.10927
# Shear Modulus (GPa) = 27.47595 32.77358 30.12477
#
# Velocity S-wave (km/s) = 3.46830 3.78794 3.63164
# Velocity P-wave (km/s) = 6.83300 7.48319 7.16547
#
# Compressibility (1/GPa) = 0.01428358
#
# Stress axis : x y z
#
# Youngs Moduli (GPa) = 48.80684 150.39383 98.79603
#
# Poissons Ratio (x) = 0.41087 0.69538
# Poissons Ratio (y) = 0.13334 0.16970
# Poissons Ratio (z) = 0.34353 0.25833
#
# Static dielectric constant tensor:
#      x y z
#    x 2.001280 0.000000 0.000000 
#    y 0.000000 1.939700 0.000000 
#    z 0.000000 0.000000 1.929850 
# 
# From -- ./inp_files/1402.got.cif
#   From: 2010.05.17/outbox.cif.g08.bks.cpg/sg32_1_cif.got.tgz:1402.got - 2010.06.03 17:12:27.
