data_PCOD9344645
_publ_section_title
;
Structure prediction by ZEFSAII (Michael W. Deem and Ramdas Pophale) SiO2 
 PCOD9344645
Probable space group: P N A 21
;
_chemical_formula_sum "Si O2"
_cell_formula_units_Z 32
_cell_length_a 15.617907
_cell_length_b 8.092291
_cell_length_c 13.033017
_cell_angle_alpha 90.000000
_cell_angle_beta 90.000000
_cell_angle_gamma 90.000000
_cell_volume 1647.173269
_symmetry_space_group_name_H-M "P N A 21"
_symmetry_group_IT_number 33
_symmetry_cell_setting 'orthorhombic'
loop_
_space_group_symop_operation_xyz
x,y,z
-x,-y,1/2+z
1/2-x,1/2+y,1/2+z
1/2+x,1/2-y,z
loop_
_atom_site_type_symbol
_atom_site_label
_atom_site_fract_x
_atom_site_fract_y
_atom_site_fract_z
Si Si1 0.672532 0.613594 0.657190
Si Si2 0.877712 0.584096 0.100211
Si Si3 0.377712 0.584096 0.964856
Si Si4 0.500527 0.311292 0.919337
Si Si5 0.999474 0.688708 0.645730
Si Si6 0.327468 0.113595 0.907877
Si Si7 0.169728 0.222333 0.788481
Si Si8 0.669728 0.222332 0.276586
O O1 0.668545 0.548234 0.539784
O O2 0.584144 0.709259 0.677177
O O3 0.674123 0.447733 0.724601
O O4 0.753958 0.717746 0.694354
O O5 0.827304 0.634983 0.202601
O O6 0.966772 0.498948 0.133999
O O7 0.891325 0.750000 0.032534
O O8 0.831455 0.451766 0.025284
O O9 0.466773 0.498949 0.931068
O O10 0.327304 0.634984 0.862466
O O11 0.415856 0.209260 0.887891
O O12 0.578409 0.279730 0.844186
O O13 0.525593 0.250000 0.032534
O O14 0.921591 0.720270 0.720882
O O15 0.246042 0.217746 0.870713
O O16 0.325877 0.947733 0.840466
#
# Coordination Sequence:
#
# PCOD9344645 Si02
#       8
#     4   4   4   4   4   4   4   4
#     4   9  20  36  54  81 111 139 183 232 270 327
#     4   9  19  36  54  77 111 143 178 231 275 318
#     4   9  19  36  54  77 111 143 178 231 275 318
#     4  10  20  34  54  80 109 141 181 226 271 329
#     4  10  20  34  54  80 109 141 181 226 271 329
#     4   9  20  36  54  81 111 139 183 232 270 327
#     4  10  19  36  58  78 107 148 182 219 281 336
#     4  10  19  36  58  78 107 148 182 219 281 336
#
# _framework density 19.427223000000001
#
# number of rings (size 3 to 8) (size 9 to 14) (size 15 to 20)
#    0.000    2.500    0.000    1.500    0.000    4.000 
#    0.000   13.750    0.000    0.000    0.000    0.000 
#    0.000    0.000    0.000    0.000    0.000    0.000 
#
# Total GULP energy -178485.219311 kJ/mol
# GULP energy per Si atom -5577.663103 kJ/mol
# Density = 1.938301 g / cm^3
# Si number density = 19.427223 Si / 1000 Ang^3
#
#
#
# Elastic Constant Matrix: (Units=GPa)
#
#
# Indices 1 2 3 4 5 6 
#
# 1 136.8257 40.2045 90.8571 0.0000 0.0000 0.0000
# 2 40.2045 61.3175 34.7121 0.0000 0.0000 0.0000
# 3 90.8571 34.7121 110.5267 0.0000 0.0000 0.0000
# 4 0.0000 0.0000 0.0000 21.5918 0.0000 0.0000
# 5 0.0000 0.0000 0.0000 0.0000 23.6255 0.0000
# 6 0.0000 0.0000 0.0000 0.0000 0.0000 15.6360
#
#
#
# Elastic Compliance Matrix: (Units=1/GPa)
#
#
# Indices 1 2 3 4 5 6 
#
# 1 0.016825 -0.003894 -0.012607 0.000000 0.000000 0.000000
# 2 -0.003894 0.020737 -0.003311 0.000000 0.000000 0.000000
# 3 -0.012607 -0.003311 0.020451 0.000000 0.000000 0.000000
# 4 0.000000 0.000000 0.000000 0.046314 0.000000 0.000000
# 5 0.000000 0.000000 0.000000 0.000000 0.042327 0.000000
# 6 0.000000 0.000000 0.000000 0.000000 0.000000 0.063955
#
#
# Mechanical properties :
#
#
# Convention : Reuss Voigt Hill
#
# Bulk Modulus (GPa) = 54.38793 71.13525 62.76159
# Shear Modulus (GPa) = 19.50358 21.69707 20.60032
#
# Velocity S-wave (km/s) = 3.17192 3.34554 3.25989
# Velocity P-wave (km/s) = 6.43982 7.18466 6.82241
#
# Compressibility (1/GPa) = 0.01838643
#
# Stress axis : x y z
#
# Youngs Moduli (GPa) = 59.43652 48.22410 48.89673
#
# Poissons Ratio (x) = 0.18781 0.61646
# Poissons Ratio (y) = 0.23147 0.16190
# Poissons Ratio (z) = 0.74934 0.15968
#
# Static dielectric constant tensor:
#      x y z
#    x 1.631810 0.000000 0.000000 
#    y 0.000000 1.714670 0.000000 
#    z 0.000000 0.000000 1.699870 
# 
# From -- ./inp_files/4516.got.cif
#   From: 2010.05.17/outbox.cif.g08.bks.cpg/sg33_3_cif.got.tgz:4516.got - 2010.06.03 17:15:25.
