data_PCOD9344254
_publ_section_title
;
Structure prediction by ZEFSAII (Michael W. Deem and Ramdas Pophale) SiO2 
 PCOD9344254
Probable space group: P B A 2
;
_chemical_formula_sum "Si O2"
_cell_formula_units_Z 32
_cell_length_a 14.988119
_cell_length_b 9.274013
_cell_length_c 9.461515
_cell_angle_alpha 90.000000
_cell_angle_beta 90.000000
_cell_angle_gamma 90.000000
_cell_volume 1315.150684
_symmetry_space_group_name_H-M "P B A 2"
_symmetry_group_IT_number 32
_symmetry_cell_setting 'orthorhombic'
loop_
_space_group_symop_operation_xyz
x,y,z
-x,-y,z
1/2-x,1/2+y,z
1/2+x,1/2-y,z
loop_
_atom_site_type_symbol
_atom_site_label
_atom_site_fract_x
_atom_site_fract_y
_atom_site_fract_z
Si Si1 0.830988 0.702839 0.129450
Si Si2 0.425458 0.585058 0.936939
Si Si3 0.089326 0.588127 0.232071
Si Si4 0.043765 0.867749 0.651774
Si Si5 0.910505 0.419880 0.736546
Si Si6 0.638967 0.716814 0.997152
Si Si7 0.737041 0.522715 0.592326
Si Si8 0.247998 0.221951 0.400265
O O1 0.856211 0.538223 0.152569
O O2 0.827830 0.784304 0.280493
O O3 0.731642 0.725287 0.076112
O O4 0.888681 0.776959 0.010166
O O5 0.500000 0.500000 0.026990
O O6 0.477996 0.629779 0.792475
O O7 0.359268 0.449452 0.941986
O O8 0.157815 0.657277 0.345488
O O9 0.000000 0.500000 0.279986
O O10 0.072299 0.714555 0.116344
O O11 0.053902 0.698634 0.621050
O O12 0.147140 0.917102 0.660584
O O13 0.000000 0.000000 0.563507
O O14 0.871852 0.322432 0.863604
O O15 0.829895 0.518423 0.678220
O O16 0.000000 0.500000 0.783239
O O17 0.744441 0.612464 0.446743
O O18 0.721935 0.358920 0.543788
#
# Coordination Sequence:
#
# PCOD9344254 Si02
#       8
#     4   4   4   4   4   4   4   4
#     4  11  25  45  76 106 151 201 250 328 395 479
#     4  11  23  43  69 107 156 187 252 312 392 470
#     4  11  24  44  73 108 150 194 253 329 396 469
#     4  11  26  49  70 109 155 199 254 319 382 476
#     4  12  28  46  76 112 149 201 258 317 391 470
#     4  11  23  42  71 110 145 197 248 315 396 470
#     4  12  27  52  77 105 156 209 262 318 382 473
#     4  11  25  51  75 107 146 201 270 313 394 466
#
# _framework density 24.331813
#
# number of rings (size 3 to 8) (size 9 to 14) (size 15 to 20)
#    0.000    0.750    5.000    2.625    8.750    1.500 
#    2.250    0.000    0.000    0.000    0.000    0.000 
#    0.000    0.000    0.000    0.000    0.000    0.000 
#
# Total GULP energy -178200.649201 kJ/mol
# GULP energy per Si atom -5568.770288 kJ/mol
# Density = 2.427643 g / cm^3
# Si number density = 24.331813 Si / 1000 Ang^3
#
#
#
# Elastic Constant Matrix: (Units=GPa)
#
#
# Indices 1 2 3 4 5 6 
#
# 1 76.2188 22.4190 3.5090 0.0000 0.0000 0.0000
# 2 22.4190 82.3129 8.1567 0.0000 0.0000 0.0000
# 3 3.5090 8.1567 56.2619 0.0000 0.0000 0.0000
# 4 0.0000 0.0000 0.0000 40.4105 0.0000 0.0000
# 5 0.0000 0.0000 0.0000 0.0000 25.5626 0.0000
# 6 0.0000 0.0000 0.0000 0.0000 0.0000 40.7383
#
#
#
# Elastic Compliance Matrix: (Units=1/GPa)
#
#
# Indices 1 2 3 4 5 6 
#
# 1 0.014269 -0.003853 -0.000331 0.000000 0.000000 0.000000
# 2 -0.003853 0.013367 -0.001697 0.000000 0.000000 0.000000
# 3 -0.000331 -0.001697 0.018041 0.000000 0.000000 0.000000
# 4 0.000000 0.000000 0.000000 0.024746 0.000000 0.000000
# 5 0.000000 0.000000 0.000000 0.000000 0.039120 0.000000
# 6 0.000000 0.000000 0.000000 0.000000 0.000000 0.024547
#
#
# Mechanical properties :
#
#
# Convention : Reuss Voigt Hill
#
# Bulk Modulus (GPa) = 29.48838 31.44032 30.46435
# Shear Modulus (GPa) = 31.81530 33.38955 32.60242
#
# Velocity S-wave (km/s) = 3.61994 3.70842 3.66445
# Velocity P-wave (km/s) = 5.44220 5.59339 5.51832
#
# Compressibility (1/GPa) = 0.03391166
#
# Stress axis : x y z
#
# Youngs Moduli (GPa) = 70.08278 74.81377 55.42995
#
# Poissons Ratio (x) = 0.28829 0.01836
# Poissons Ratio (y) = 0.27006 0.09409
# Poissons Ratio (z) = 0.02322 0.12700
#
# Static dielectric constant tensor:
#      x y z
#    x 2.127970 0.000000 0.000000 
#    y 0.000000 2.149960 0.000000 
#    z 0.000000 0.000000 2.093720 
# 
# From -- ./inp_files/3960.got.cif
#   From: 2010.05.17/outbox.cif.g08.bks.cpg/sg32_2_cif.got.tgz:3960.got - 2010.06.03 17:12:27.
