data_PCOD9344149
_publ_section_title
;
Structure prediction by ZEFSAII (Michael W. Deem and Ramdas Pophale) SiO2 
 PCOD9344149
Probable space group: P B A 2
;
_chemical_formula_sum "Si O2"
_cell_formula_units_Z 30
_cell_length_a 27.771881
_cell_length_b 6.868653
_cell_length_c 5.588108
_cell_angle_alpha 90.000000
_cell_angle_beta 90.000000
_cell_angle_gamma 90.000000
_cell_volume 1065.961854
_symmetry_space_group_name_H-M "P B A 2"
_symmetry_group_IT_number 32
_symmetry_cell_setting 'orthorhombic'
loop_
_space_group_symop_operation_xyz
x,y,z
-x,-y,z
1/2-x,1/2+y,z
1/2+x,1/2-y,z
loop_
_atom_site_type_symbol
_atom_site_label
_atom_site_fract_x
_atom_site_fract_y
_atom_site_fract_z
Si Si1 0.676682 0.402054 0.290830
Si Si2 0.443656 0.356940 0.936207
Si Si3 0.138996 0.561573 0.985144
Si Si4 0.247988 0.595987 0.903166
Si Si5 0.000000 0.500000 0.715682
Si Si6 0.576623 0.545595 0.439184
Si Si7 0.249430 0.845473 0.543232
Si Si8 0.597695 0.008354 0.482598
O O1 0.623048 0.417055 0.383668
O O2 0.703028 0.214793 0.403047
O O3 0.701708 0.596208 0.401489
O O4 0.698433 0.399435 0.024626
O O5 0.452117 0.456252 0.190693
O O6 0.444846 0.493145 0.702044
O O7 0.389355 0.267300 0.964142
O O8 0.477140 0.170319 0.878779
O O9 0.195522 0.589682 0.024733
O O10 0.128196 0.459661 0.728137
O O11 0.115797 0.452630 0.212536
O O12 0.238761 0.594815 0.601676
O O13 0.251349 0.345829 0.843794
O O14 0.043444 0.423506 0.546902
O O15 0.591547 0.772350 0.469506
#
# Coordination Sequence:
#
# PCOD9344149 Si02
#       8
#     4   4   4   4   2   4   4   4
#     4  11  23  37  56  77 113 155 210 246 294 340
#     4   9  18  30  52  76 110 149 173 233 283 371
#     4   9  19  30  48  73 104 147 182 222 286 334
#     4  11  23  37  56  77 113 155 210 246 294 340
#     4   8  16  32  48  82 112 148 180 214 310 368
#     4   9  19  30  48  73 104 147 182 222 286 334
#     4  10  24  37  54  80 102 162 200 264 279 344
#     4   9  18  30  52  76 110 149 173 233 283 371
#
# _framework density 28.143598999999998
#
# number of rings (size 3 to 8) (size 9 to 14) (size 15 to 20)
#    0.000    2.667    0.000    2.400   14.933    8.533 
#    0.000    0.000    0.000    0.000    0.000    0.000 
#    0.000   17.067   17.067    0.000    0.000    0.000 
#
# Total GULP energy -167577.761539 kJ/mol
# GULP energy per Si atom -5585.925385 kJ/mol
# Density = 2.807954 g / cm^3
# Si number density = 28.143599 Si / 1000 Ang^3
#
#
#
# Elastic Constant Matrix: (Units=GPa)
#
#
# Indices 1 2 3 4 5 6 
#
# 1 147.5126 27.3109 53.2561 0.0000 0.0000 0.0000
# 2 27.3109 154.8053 38.7294 0.0000 0.0000 0.0000
# 3 53.2561 38.7294 226.5438 0.0000 0.0000 0.0000
# 4 0.0000 0.0000 0.0000 752.9950 0.0000 0.0000
# 5 0.0000 0.0000 0.0000 0.0000 -4.0910 0.0000
# 6 0.0000 0.0000 0.0000 0.0000 0.0000 45.9580
#
#
#
# Elastic Compliance Matrix: (Units=1/GPa)
#
#
# Indices 1 2 3 4 5 6 
#
# 1 0.007533 -0.000925 -0.001613 0.000000 0.000000 0.000000
# 2 -0.000925 0.006862 -0.000956 0.000000 0.000000 0.000000
# 3 -0.001613 -0.000956 0.004957 0.000000 0.000000 0.000000
# 4 0.000000 0.000000 0.000000 0.001328 0.000000 0.000000
# 5 0.000000 0.000000 0.000000 0.000000 -0.244440 0.000000
# 6 0.000000 0.000000 0.000000 0.000000 0.000000 0.021759
#
#
# Mechanical properties :
#
#
# Convention : Reuss Voigt Hill
#
# Bulk Modulus (GPa) = 80.87941 85.27270 83.07606
# Shear Modulus (GPa) = -26.19265 186.27677 80.04206
#
# Velocity S-wave (km/s) = -3.05401 8.14442 5.33876
# Velocity P-wave (km/s) = 4.04531 10.89987 8.22106
#
# Compressibility (1/GPa) = 0.01236409
#
# Stress axis : x y z
#
# Youngs Moduli (GPa) = 132.75626 145.72873 201.75132
#
# Poissons Ratio (x) = 0.13487 0.32533
# Poissons Ratio (y) = 0.12286 0.19279
# Poissons Ratio (z) = 0.21408 0.13925
#
# Static dielectric constant tensor:
#      x y z
#    x 2.168630 0.000000 0.000000 
#    y 0.000000 1.854820 0.000000 
#    z 0.000000 0.000000 2.268500 
# 
# From -- ./inp_files/1802.got.cif
#   From: 2010.05.17/outbox.cif.g08.bks.cpg/sg32_1_cif.got.tgz:1802.got - 2010.06.03 17:12:27.
