data_PCOD9344732
_publ_section_title
;
Structure prediction by ZEFSAII (Michael W. Deem and Ramdas Pophale) SiO2 
 PCOD9344732
Probable space group: P N A 21
;
_chemical_formula_sum "Si O2"
_cell_formula_units_Z 32
_cell_length_a 14.689532
_cell_length_b 11.212907
_cell_length_c 9.395081
_cell_angle_alpha 90.000000
_cell_angle_beta 90.000000
_cell_angle_gamma 90.000000
_cell_volume 1547.485928
_symmetry_space_group_name_H-M "P N A 21"
_symmetry_group_IT_number 33
_symmetry_cell_setting 'orthorhombic'
loop_
_space_group_symop_operation_xyz
x,y,z
-x,-y,1/2+z
1/2-x,1/2+y,1/2+z
1/2+x,1/2-y,z
loop_
_atom_site_type_symbol
_atom_site_label
_atom_site_fract_x
_atom_site_fract_y
_atom_site_fract_z
Si Si1 0.971933 0.858728 0.335090
Si Si2 0.819053 0.609921 0.287462
Si Si3 0.487976 0.103067 0.884121
Si Si4 0.349244 0.677336 0.608423
Si Si5 0.644070 0.855720 0.648838
Si Si6 0.354217 0.499050 0.858957
Si Si7 0.118348 0.191729 0.570375
Si Si8 0.526135 0.170300 0.314682
O O1 0.893357 0.843952 0.453800
O O2 0.932866 0.893934 0.182331
O O3 0.017773 0.728853 0.301036
O O4 0.048013 0.945877 0.394328
O O5 0.830507 0.488225 0.199540
O O6 0.721350 0.602606 0.358226
O O7 0.829957 0.717724 0.176234
O O8 0.902002 0.599661 0.399652
O O9 0.464368 0.973732 0.820398
O O10 0.424521 0.126384 0.018009
O O11 0.240812 0.703412 0.611694
O O12 0.361999 0.558011 0.703277
O O13 0.407011 0.774550 0.696358
O O14 0.578095 0.800119 0.769717
O O15 0.326393 0.605835 0.964949
O O16 0.055319 0.270362 0.464456
#
# Coordination Sequence:
#
# PCOD9344732 Si02
#       8
#     4   4   4   4   4   4   4   4
#     4  11  22  39  63  93 129 166 215 271 323 400
#     4   9  20  39  62  93 128 162 219 274 317 395
#     4  10  20  36  65  87 125 161 208 274 317 380
#     4  10  22  40  65  90 132 168 216 275 326 399
#     4  10  19  39  64  93 127 168 211 274 330 385
#     4  10  22  42  64  90 131 174 210 269 332 393
#     4  10  21  40  66  90 128 174 217 268 327 399
#     4  10  20  41  63  94 126 169 218 261 340 389
#
# _framework density 20.678701
#
# number of rings (size 3 to 8) (size 9 to 14) (size 15 to 20)
#    0.000    2.000    2.500    0.750    0.000    2.000 
#    9.000    5.000    0.000    0.000    0.000    0.000 
#    0.000    0.000    0.000    0.000    0.000    0.000 
#
# Total GULP energy -178189.883223 kJ/mol
# GULP energy per Si atom -5568.433851 kJ/mol
# Density = 2.063164 g / cm^3
# Si number density = 20.678701 Si / 1000 Ang^3
#
#
#
# Elastic Constant Matrix: (Units=GPa)
#
#
# Indices 1 2 3 4 5 6 
#
# 1 126.0311 41.6749 53.4625 0.0000 0.0000 0.0000
# 2 41.6749 49.5449 21.7450 0.0000 0.0000 0.0000
# 3 53.4625 21.7450 108.0666 0.0000 0.0000 0.0000
# 4 0.0000 0.0000 0.0000 23.6875 0.0000 0.0000
# 5 0.0000 0.0000 0.0000 0.0000 20.5096 0.0000
# 6 0.0000 0.0000 0.0000 0.0000 0.0000 19.2983
#
#
#
# Elastic Compliance Matrix: (Units=1/GPa)
#
#
# Indices 1 2 3 4 5 6 
#
# 1 0.012752 -0.008728 -0.004552 0.000000 0.000000 0.000000
# 2 -0.008728 0.028113 -0.001339 0.000000 0.000000 0.000000
# 3 -0.004552 -0.001339 0.011775 0.000000 0.000000 0.000000
# 4 0.000000 0.000000 0.000000 0.042216 0.000000 0.000000
# 5 0.000000 0.000000 0.000000 0.000000 0.048758 0.000000
# 6 0.000000 0.000000 0.000000 0.000000 0.000000 0.051818
#
#
# Mechanical properties :
#
#
# Convention : Reuss Voigt Hill
#
# Bulk Modulus (GPa) = 42.73276 57.48970 50.11123
# Shear Modulus (GPa) = 21.50804 23.81643 22.66224
#
# Velocity S-wave (km/s) = 3.22857 3.39741 3.31406
# Velocity P-wave (km/s) = 5.88287 6.57659 6.23938
#
# Compressibility (1/GPa) = 0.02340125
#
# Stress axis : x y z
#
# Youngs Moduli (GPa) = 78.42016 35.57052 84.92541
#
# Poissons Ratio (x) = 0.31047 0.38660
# Poissons Ratio (y) = 0.68447 0.11370
# Poissons Ratio (z) = 0.35699 0.04762
#
# Static dielectric constant tensor:
#      x y z
#    x 1.809370 0.000000 0.000000 
#    y 0.000000 1.783300 0.000000 
#    z 0.000000 0.000000 1.770160 
# 
# From -- ./inp_files/4416.got.cif
#   From: 2010.05.17/outbox.cif.g08.bks.cpg/sg33_3_cif.got.tgz:4416.got - 2010.06.03 17:15:25.
