data_PCOD9344591
_publ_section_title
;
Structure prediction by ZEFSAII (Michael W. Deem and Ramdas Pophale) SiO2 
 PCOD9344591
Probable space group: P N A 21
;
_chemical_formula_sum "Si O2"
_cell_formula_units_Z 24
_cell_length_a 10.187577
_cell_length_b 8.307540
_cell_length_c 10.304961
_cell_angle_alpha 90.000000
_cell_angle_beta 90.000000
_cell_angle_gamma 90.000000
_cell_volume 872.147013
_symmetry_space_group_name_H-M "P N A 21"
_symmetry_group_IT_number 33
_symmetry_cell_setting 'orthorhombic'
loop_
_space_group_symop_operation_xyz
x,y,z
-x,-y,1/2+z
1/2-x,1/2+y,1/2+z
1/2+x,1/2-y,z
loop_
_atom_site_type_symbol
_atom_site_label
_atom_site_fract_x
_atom_site_fract_y
_atom_site_fract_z
Si Si1 0.879417 0.743112 0.412920
Si Si2 0.041662 0.471732 0.135948
Si Si3 0.259322 0.572936 0.968536
Si Si4 0.947798 0.044208 0.774919
Si Si5 0.765068 0.478841 0.072756
Si Si6 0.886351 0.249657 0.272723
O O1 0.796007 0.584315 0.387834
O O2 0.789013 0.897280 0.442637
O O3 0.954509 0.686653 0.541896
O O4 0.987754 0.786808 0.308912
O O5 0.909082 0.560161 0.082447
O O6 0.790720 0.318117 0.162046
O O7 0.181610 0.551852 0.104097
O O8 0.404402 0.545638 0.912424
O O9 0.196371 0.731021 0.903964
O O10 0.847364 0.061625 0.657084
O O11 0.060499 0.921021 0.733161
O O12 0.503503 0.114162 0.270615
#
# Coordination Sequence:
#
# PCOD9344591 Si02
#       6
#     4   4   4   4   4   4
#     4  10  19  34  62  86 113 153 199 231 295 345
#     4   8  18  35  58  77 112 161 181 225 302 346
#     4   9  20  35  57  85 114 148 195 244 280 351
#     4  11  19  35  63  87 109 152 199 244 279 354
#     4   9  17  37  56  82 113 155 187 231 285 363
#     4   9  19  36  58  81 115 151 195 231 291 339
#
# _framework density 27.518295999999999
#
# number of rings (size 3 to 8) (size 9 to 14) (size 15 to 20)
#    2.000    0.667    1.667    1.000    0.000    0.000 
#    6.000    1.667    0.000    2.000    0.000    0.000 
#    0.000    0.000    0.000    0.000    0.000    0.000 
#
# Total GULP energy -133624.523833 kJ/mol
# GULP energy per Si atom -5567.688493 kJ/mol
# Density = 2.745566 g / cm^3
# Si number density = 27.518296 Si / 1000 Ang^3
#
#
#
# Elastic Constant Matrix: (Units=GPa)
#
#
# Indices 1 2 3 4 5 6 
#
# 1 79.5416 -2.1865 23.0573 0.0000 0.0000 0.0000
# 2 -2.1865 55.4886 -3.5767 0.0000 0.0000 0.0000
# 3 23.0573 -3.5767 48.8541 0.0000 0.0000 0.0000
# 4 0.0000 0.0000 0.0000 31.5972 0.0000 0.0000
# 5 0.0000 0.0000 0.0000 0.0000 37.5113 0.0000
# 6 0.0000 0.0000 0.0000 0.0000 0.0000 24.3729
#
#
#
# Elastic Compliance Matrix: (Units=1/GPa)
#
#
# Indices 1 2 3 4 5 6 
#
# 1 0.014566 0.000131 -0.006865 0.000000 0.000000 0.000000
# 2 0.000131 0.018108 0.001264 0.000000 0.000000 0.000000
# 3 -0.006865 0.001264 0.023802 0.000000 0.000000 0.000000
# 4 0.000000 0.000000 0.000000 0.031648 0.000000 0.000000
# 5 0.000000 0.000000 0.000000 0.000000 0.026659 0.000000
# 6 0.000000 0.000000 0.000000 0.000000 0.000000 0.041029
#
#
# Mechanical properties :
#
#
# Convention : Reuss Voigt Hill
#
# Bulk Modulus (GPa) = 21.96054 24.27473 23.11763
# Shear Modulus (GPa) = 27.48313 29.80228 28.64270
#
# Velocity S-wave (km/s) = 3.16368 3.29446 3.22974
# Velocity P-wave (km/s) = 4.61983 4.82823 4.72518
#
# Compressibility (1/GPa) = 0.04553623
#
# Stress axis : x y z
#
# Youngs Moduli (GPa) = 68.65487 55.22311 42.01405
#
# Poissons Ratio (x) = -0.00726 0.28842
# Poissons Ratio (y) = -0.00903 -0.05309
# Poissons Ratio (z) = 0.47130 -0.06978
#
# Static dielectric constant tensor:
#      x y z
#    x 2.351300 0.000000 0.000000 
#    y 0.000000 2.165010 0.000000 
#    z 0.000000 0.000000 2.224290 
# 
# From -- ./inp_files/5802.got.cif
#   From: 2010.05.17/outbox.cif.g08.bks.cpg/sg33_3_cif.got.tgz:5802.got - 2010.06.03 17:15:25.
