data_PCOD9344670
_publ_section_title
;
Structure prediction by ZEFSAII (Michael W. Deem and Ramdas Pophale) SiO2 
 PCOD9344670
Probable space group: P N A 21
;
_chemical_formula_sum "Si O2"
_cell_formula_units_Z 32
_cell_length_a 13.766152
_cell_length_b 8.948515
_cell_length_c 10.209654
_cell_angle_alpha 90.000000
_cell_angle_beta 90.000000
_cell_angle_gamma 90.000000
_cell_volume 1257.692744
_symmetry_space_group_name_H-M "P N A 21"
_symmetry_group_IT_number 33
_symmetry_cell_setting 'orthorhombic'
loop_
_space_group_symop_operation_xyz
x,y,z
-x,-y,1/2+z
1/2-x,1/2+y,1/2+z
1/2+x,1/2-y,z
loop_
_atom_site_type_symbol
_atom_site_label
_atom_site_fract_x
_atom_site_fract_y
_atom_site_fract_z
Si Si1 0.317866 0.200310 0.433690
Si Si2 0.746177 0.814393 0.302530
Si Si3 0.916936 0.044651 0.257585
Si Si4 0.501828 0.174926 0.560453
Si Si5 0.503867 0.518998 0.506045
Si Si6 0.188846 0.197052 0.078212
Si Si7 0.322941 0.967176 0.211398
Si Si8 0.359629 0.883231 0.837681
O O1 0.376947 0.324030 0.349585
O O2 0.385168 0.158112 0.557835
O O3 0.212803 0.281385 0.429863
O O4 0.317731 0.051080 0.349131
O O5 0.776046 0.739484 0.440932
O O6 0.747767 0.671021 0.210435
O O7 0.836384 0.916938 0.256627
O O8 0.667005 0.942341 0.326852
O O9 0.008919 0.987822 0.347802
O O10 0.929179 0.105246 0.110305
O O11 0.515690 0.353248 0.564788
O O12 0.570940 0.090009 0.663811
O O13 0.540400 0.126907 0.416305
O O14 0.399587 0.587896 0.539740
O O15 0.153700 0.305156 0.195463
O O16 0.278070 0.093926 0.120496
#
# Coordination Sequence:
#
# PCOD9344670 Si02
#       8
#     4   4   4   4   4   4   4   4
#     4   9  22  41  60  92 130 170 212 271 336 394
#     4  10  20  40  61  91 124 166 217 270 328 398
#     4   9  18  36  60  85 122 161 210 265 322 390
#     4  11  21  40  66  93 130 174 221 277 340 401
#     4  10  19  36  63  94 122 166 222 266 331 405
#     4  10  21  40  63  91 129 169 216 279 332 402
#     4  11  22  42  62  89 134 169 221 277 333 403
#     4  10  21  43  67  93 131 177 219 277 338 399
#
# _framework density 25.443418000000001
#
# number of rings (size 3 to 8) (size 9 to 14) (size 15 to 20)
#    0.000    2.000    2.500    2.250    0.000    0.000 
#   13.500    2.500    0.000    0.000    0.000    0.000 
#    0.000    0.000    0.000    0.000    0.000    0.000 
#
# Total GULP energy -178517.579315 kJ/mol
# GULP energy per Si atom -5578.674354 kJ/mol
# Density = 2.538551 g / cm^3
# Si number density = 25.443418 Si / 1000 Ang^3
#
#
#
# Elastic Constant Matrix: (Units=GPa)
#
#
# Indices 1 2 3 4 5 6 
#
# 1 45.8174 -5.0280 6.3927 0.0000 0.0000 0.0000
# 2 -5.0280 89.3503 27.0357 0.0000 0.0000 0.0000
# 3 6.3927 27.0357 56.3492 0.0000 0.0000 0.0000
# 4 0.0000 0.0000 0.0000 27.1056 0.0000 0.0000
# 5 0.0000 0.0000 0.0000 0.0000 27.4762 0.0000
# 6 0.0000 0.0000 0.0000 0.0000 0.0000 13.3869
#
#
#
# Elastic Compliance Matrix: (Units=1/GPa)
#
#
# Indices 1 2 3 4 5 6 
#
# 1 0.022607 0.002396 -0.003714 0.000000 0.000000 0.000000
# 2 0.002396 0.013347 -0.006675 0.000000 0.000000 0.000000
# 3 -0.003714 -0.006675 0.021371 0.000000 0.000000 0.000000
# 4 0.000000 0.000000 0.000000 0.036893 0.000000 0.000000
# 5 0.000000 0.000000 0.000000 0.000000 0.036395 0.000000
# 6 0.000000 0.000000 0.000000 0.000000 0.000000 0.074700
#
#
# Mechanical properties :
#
#
# Convention : Reuss Voigt Hill
#
# Bulk Modulus (GPa) = 24.19147 27.59086 25.89116
# Shear Modulus (GPa) = 21.26953 24.46817 22.86885
#
# Velocity S-wave (km/s) = 2.89442 3.10444 3.00127
# Velocity P-wave (km/s) = 4.54960 4.87008 4.71256
#
# Compressibility (1/GPa) = 0.04133689
#
# Stress axis : x y z
#
# Youngs Moduli (GPa) = 44.23420 74.92556 46.79325
#
# Poissons Ratio (x) = -0.17952 0.17380
# Poissons Ratio (y) = -0.10599 0.31236
# Poissons Ratio (z) = 0.16430 0.50016
#
# Static dielectric constant tensor:
#      x y z
#    x 2.105940 0.000000 0.000000 
#    y 0.000000 2.021940 0.000000 
#    z 0.000000 0.000000 2.192420 
# 
# From -- ./inp_files/7084.got.cif
#   From: 2010.05.17/outbox.cif.g08.bks.cpg/sg33_4_cif.got.tgz:7084.got - 2010.06.03 17:15:25.
