data_PCOD9344540
_publ_section_title
;
Structure prediction by ZEFSAII (Michael W. Deem and Ramdas Pophale) SiO2 
 PCOD9344540
Probable space group: P N A 21
;
_chemical_formula_sum "Si O2"
_cell_formula_units_Z 28
_cell_length_a 5.207669
_cell_length_b 21.004595
_cell_length_c 15.216952
_cell_angle_alpha 90.000000
_cell_angle_beta 90.000000
_cell_angle_gamma 90.000000
_cell_volume 1664.505963
_symmetry_space_group_name_H-M "P N A 21"
_symmetry_group_IT_number 33
_symmetry_cell_setting 'orthorhombic'
loop_
_space_group_symop_operation_xyz
x,y,z
-x,-y,1/2+z
1/2-x,1/2+y,1/2+z
1/2+x,1/2-y,z
loop_
_atom_site_type_symbol
_atom_site_label
_atom_site_fract_x
_atom_site_fract_y
_atom_site_fract_z
Si Si1 0.278337 0.933214 0.146830
Si Si2 0.075612 0.025046 0.010398
Si Si3 0.575292 0.209590 0.609654
Si Si4 0.086794 0.414208 0.287582
Si Si5 0.066709 0.444940 0.101870
Si Si6 0.549753 0.211415 0.398969
Si Si7 0.588326 0.496476 0.314405
O O1 0.364625 0.860636 0.145745
O O2 0.516088 0.983070 0.139295
O O3 0.132049 0.952859 0.236137
O O4 0.117268 0.956277 0.060054
O O5 0.344246 0.060163 0.029204
O O6 0.999177 0.020770 0.909527
O O7 0.846376 0.058917 0.062140
O O8 0.304221 0.241631 0.633729
O O9 0.569743 0.201656 0.503784
O O10 0.021254 0.400685 0.185706
O O11 0.102367 0.353007 0.347867
O O12 0.360547 0.449222 0.286105
O O13 0.858339 0.459170 0.323377
O O14 0.268212 0.237273 0.376910
#
# Coordination Sequence:
#
# PCOD9344540 Si02
#       7
#     4   4   4   4   4   4   4
#     4   9  21  34  51  74 109 131 173 216 257 319
#     4  10  19  32  49  76 107 131 163 213 272 312
#     4  10  22  33  49  71 102 143 175 205 255 309
#     4  11  19  35  51  77 104 140 175 218 255 325
#     4   9  19  33  50  74 105 132 166 210 276 303
#     4  10  21  34  49  77 107 141 180 209 253 322
#     4  11  21  31  55  79 102 140 176 215 280 310
#
# _framework density 16.821807
#
# number of rings (size 3 to 8) (size 9 to 14) (size 15 to 20)
#    0.857    1.143    1.429    2.571    4.000    1.143 
#    0.000    0.000    0.000    0.000    0.000    6.000 
#    0.000    0.000    0.000    0.000    0.000    0.000 
#
# Total GULP energy -155940.701062 kJ/mol
# GULP energy per Si atom -5569.310752 kJ/mol
# Density = 1.678352 g / cm^3
# Si number density = 16.821807 Si / 1000 Ang^3
#
#
#
# Elastic Constant Matrix: (Units=GPa)
#
#
# Indices 1 2 3 4 5 6 
#
# 1 32.2956 -1.8277 -10.9971 0.0000 0.0000 0.0000
# 2 -1.8277 37.0027 9.4112 0.0000 0.0000 0.0000
# 3 -10.9971 9.4112 47.7624 0.0000 0.0000 0.0000
# 4 0.0000 0.0000 0.0000 25.8727 0.0000 0.0000
# 5 0.0000 0.0000 0.0000 0.0000 22.8620 0.0000
# 6 0.0000 0.0000 0.0000 0.0000 0.0000 15.9211
#
#
#
# Elastic Compliance Matrix: (Units=1/GPa)
#
#
# Indices 1 2 3 4 5 6 
#
# 1 0.033602 -0.000324 0.007801 0.000000 0.000000 0.000000
# 2 -0.000324 0.028454 -0.005681 0.000000 0.000000 0.000000
# 3 0.007801 -0.005681 0.023852 0.000000 0.000000 0.000000
# 4 0.000000 0.000000 0.000000 0.038651 0.000000 0.000000
# 5 0.000000 0.000000 0.000000 0.000000 0.043741 0.000000
# 6 0.000000 0.000000 0.000000 0.000000 0.000000 0.062810
#
#
# Mechanical properties :
#
#
# Convention : Reuss Voigt Hill
#
# Bulk Modulus (GPa) = 11.17339 12.24816 11.71078
# Shear Modulus (GPa) = 19.42862 20.96278 20.19570
#
# Velocity S-wave (km/s) = 3.40217 3.53394 3.46868
# Velocity P-wave (km/s) = 4.69996 4.89373 4.79782
#
# Compressibility (1/GPa) = 0.08949838
#
# Stress axis : x y z
#
# Youngs Moduli (GPa) = 29.76026 35.14438 41.92438
#
# Poissons Ratio (x) = 0.01140 -0.32703
# Poissons Ratio (y) = 0.00965 0.23819
# Poissons Ratio (z) = -0.23215 0.19967
#
# Static dielectric constant tensor:
#      x y z
#    x 1.593290 0.000000 0.000000 
#    y 0.000000 1.538830 0.000000 
#    z 0.000000 0.000000 1.591490 
# 
# From -- ./inp_files/7464.got.cif
#   From: 2010.05.17/outbox.cif.g08.bks.cpg/sg33_4_cif.got.tgz:7464.got - 2010.06.03 17:15:25.
