data_PCOD9344886
_publ_section_title
;
Structure prediction by ZEFSAII (Michael W. Deem and Ramdas Pophale) SiO2 
 PCOD9344886
Probable space group: P N A 21
;
_chemical_formula_sum "Si O2"
_cell_formula_units_Z 24
_cell_length_a 17.738119
_cell_length_b 11.804144
_cell_length_c 4.921817
_cell_angle_alpha 90.000000
_cell_angle_beta 90.000000
_cell_angle_gamma 90.000000
_cell_volume 1030.546339
_symmetry_space_group_name_H-M "P N A 21"
_symmetry_group_IT_number 33
_symmetry_cell_setting 'orthorhombic'
loop_
_space_group_symop_operation_xyz
x,y,z
-x,-y,1/2+z
1/2-x,1/2+y,1/2+z
1/2+x,1/2-y,z
loop_
_atom_site_type_symbol
_atom_site_label
_atom_site_fract_x
_atom_site_fract_y
_atom_site_fract_z
Si Si1 0.459968 0.957312 0.753100
Si Si2 0.854554 0.353484 0.592712
Si Si3 0.763549 0.279008 0.105947
Si Si4 0.481186 0.283253 0.308501
Si Si5 0.872540 0.918828 0.753556
Si Si6 0.651506 0.569045 0.732870
O O1 0.383989 0.023524 0.680980
O O2 0.522776 0.020508 0.568627
O O3 0.475516 0.826114 0.689648
O O4 0.814133 0.357875 0.302728
O O5 0.927958 0.272300 0.542599
O O6 0.798381 0.297270 0.808850
O O7 0.678409 0.318644 0.133152
O O8 0.778601 0.154347 0.225174
O O9 0.546910 0.373653 0.354299
O O10 0.418714 0.352029 0.137764
O O11 0.871753 0.014323 0.519044
O O12 0.834547 0.971456 0.018412
#
# Coordination Sequence:
#
# PCOD9344886 Si02
#       6
#     4   4   4   4   4   4
#     4  10  20  36  62  93 119 158 210 260 311 374
#     4  10  21  42  67  93 131 175 218 271 335 393
#     4  11  24  44  65  92 131 177 220 274 339 401
#     4  10  23  41  66  96 132 170 218 272 329 395
#     4  12  26  41  66  97 126 169 224 270 325 400
#     4  11  24  44  64  91 131 171 210 269 339 397
#
# _framework density 23.288618
#
# number of rings (size 3 to 8) (size 9 to 14) (size 15 to 20)
#    0.000    1.333    0.000    7.000    0.000    9.333 
#    0.000    0.000    0.000    0.000    0.000    0.000 
#    0.000    0.000    0.000    0.000    0.000    0.000 
#
# Total GULP energy -133986.950679 kJ/mol
# GULP energy per Si atom -5582.789612 kJ/mol
# Density = 2.323561 g / cm^3
# Si number density = 23.288618 Si / 1000 Ang^3
#
#
#
# Elastic Constant Matrix: (Units=GPa)
#
#
# Indices 1 2 3 4 5 6 
#
# 1 81.9985 31.5036 8.8127 0.0000 0.0000 0.0000
# 2 31.5036 82.9399 -0.2087 0.0000 0.0000 0.0000
# 3 8.8127 -0.2087 76.1156 0.0000 0.0000 0.0000
# 4 0.0000 0.0000 0.0000 26.7285 0.0000 0.0000
# 5 0.0000 0.0000 0.0000 0.0000 21.7618 0.0000
# 6 0.0000 0.0000 0.0000 0.0000 0.0000 30.8574
#
#
#
# Elastic Compliance Matrix: (Units=1/GPa)
#
#
# Indices 1 2 3 4 5 6 
#
# 1 0.014494 -0.005510 -0.001693 0.000000 0.000000 0.000000
# 2 -0.005510 0.014151 0.000677 0.000000 0.000000 0.000000
# 3 -0.001693 0.000677 0.013336 0.000000 0.000000 0.000000
# 4 0.000000 0.000000 0.000000 0.037413 0.000000 0.000000
# 5 0.000000 0.000000 0.000000 0.000000 0.045952 0.000000
# 6 0.000000 0.000000 0.000000 0.000000 0.000000 0.032407
#
#
# Mechanical properties :
#
#
# Convention : Reuss Voigt Hill
#
# Bulk Modulus (GPa) = 34.56744 35.69658 35.13201
# Shear Modulus (GPa) = 27.70864 29.26597 28.48730
#
# Velocity S-wave (km/s) = 3.45308 3.54879 3.50126
# Velocity P-wave (km/s) = 5.54740 5.67037 5.60922
#
# Compressibility (1/GPa) = 0.02892896
#
# Stress axis : x y z
#
# Youngs Moduli (GPa) = 68.99354 70.66444 74.98602
#
# Poissons Ratio (x) = 0.38934 0.12697
# Poissons Ratio (y) = 0.38013 -0.05074
# Poissons Ratio (z) = 0.11682 -0.04782
#
# Static dielectric constant tensor:
#      x y z
#    x 1.890680 0.000000 0.000000 
#    y 0.000000 1.913480 0.000000 
#    z 0.000000 0.000000 1.851920 
# 
# From -- ./inp_files/1699.got.cif
#   From: 2010.05.17/outbox.cif.g08.bks.cpg/sg33_1_cif.got.tgz:1699.got - 2010.06.03 17:15:25.
