data_PCOD9344558
_publ_section_title
;
Structure prediction by ZEFSAII (Michael W. Deem and Ramdas Pophale) SiO2 
 PCOD9344558
Probable space group: P N A 21
;
_chemical_formula_sum "Si O2"
_cell_formula_units_Z 32
_cell_length_a 8.261027
_cell_length_b 17.792817
_cell_length_c 11.800043
_cell_angle_alpha 90.000000
_cell_angle_beta 90.000000
_cell_angle_gamma 90.000000
_cell_volume 1734.452232
_symmetry_space_group_name_H-M "P N A 21"
_symmetry_group_IT_number 33
_symmetry_cell_setting 'orthorhombic'
loop_
_space_group_symop_operation_xyz
x,y,z
-x,-y,1/2+z
1/2-x,1/2+y,1/2+z
1/2+x,1/2-y,z
loop_
_atom_site_type_symbol
_atom_site_label
_atom_site_fract_x
_atom_site_fract_y
_atom_site_fract_z
Si Si1 0.702971 0.972667 0.810970
Si Si2 0.297885 0.539686 0.208206
Si Si3 0.199029 0.550915 0.547473
Si Si4 0.543341 0.643269 0.102244
Si Si5 0.945456 0.421082 0.522215
Si Si6 0.028732 0.617943 0.351033
Si Si7 0.438963 0.466895 0.404067
Si Si8 0.892127 0.706536 0.163123
O O1 0.710175 0.944076 0.682236
O O2 0.880484 0.982989 0.862458
O O3 0.597030 0.049553 0.822513
O O4 0.615081 0.914123 0.894844
O O5 0.469442 0.574771 0.174176
O O6 0.191169 0.534132 0.094811
O O7 0.328056 0.469613 0.290901
O O8 0.191736 0.596985 0.283017
O O9 0.369091 0.533173 0.485595
O O10 0.102516 0.473316 0.524791
O O11 0.089831 0.612287 0.480617
O O12 0.711746 0.675317 0.147766
O O13 0.413632 0.709454 0.119071
O O14 0.562480 0.609568 0.976587
O O15 0.992489 0.344985 0.584475
O O16 0.952425 0.691156 0.291958
#
# Coordination Sequence:
#
# PCOD9344558 Si02
#       8
#     4   4   4   4   4   4   4   4
#     4  11  19  31  55  82 119 153 196 244 297 344
#     4  10  19  35  51  83 114 145 194 242 299 349
#     4  10  19  34  52  85 116 155 193 244 298 349
#     4  12  23  36  58  91 116 161 192 251 302 358
#     4  10  19  33  55  81 115 153 194 239 299 348
#     4   9  19  34  55  81 114 155 185 247 294 354
#     4  11  21  32  54  83 119 147 197 246 300 345
#     4  11  21  37  56  84 121 147 203 237 307 359
#
# _framework density 18.449629999999999
#
# number of rings (size 3 to 8) (size 9 to 14) (size 15 to 20)
#    0.000    1.500    5.000    3.000    0.000    0.000 
#    0.000    0.000    0.000    0.000   13.000    1.750 
#    0.000    0.000    0.000    0.000    0.000    0.000 
#
# Total GULP energy -178269.503374 kJ/mol
# GULP energy per Si atom -5570.921980 kJ/mol
# Density = 1.840764 g / cm^3
# Si number density = 18.449630 Si / 1000 Ang^3
#
#
#
# Elastic Constant Matrix: (Units=GPa)
#
#
# Indices 1 2 3 4 5 6 
#
# 1 93.3686 11.9017 47.8077 0.0000 0.0000 0.0000
# 2 11.9017 40.4147 16.0811 0.0000 0.0000 0.0000
# 3 47.8077 16.0811 130.5582 0.0000 0.0000 0.0000
# 4 0.0000 0.0000 0.0000 21.5774 0.0000 0.0000
# 5 0.0000 0.0000 0.0000 0.0000 32.4898 0.0000
# 6 0.0000 0.0000 0.0000 0.0000 0.0000 18.5168
#
#
#
# Elastic Compliance Matrix: (Units=1/GPa)
#
#
# Indices 1 2 3 4 5 6 
#
# 1 0.013347 -0.002088 -0.004630 0.000000 0.000000 0.000000
# 2 -0.002088 0.026345 -0.002480 0.000000 0.000000 0.000000
# 3 -0.004630 -0.002480 0.009660 0.000000 0.000000 0.000000
# 4 0.000000 0.000000 0.000000 0.046345 0.000000 0.000000
# 5 0.000000 0.000000 0.000000 0.000000 0.030779 0.000000
# 6 0.000000 0.000000 0.000000 0.000000 0.000000 0.054005
#
#
# Mechanical properties :
#
#
# Convention : Reuss Voigt Hill
#
# Bulk Modulus (GPa) = 32.30458 46.21361 39.25910
# Shear Modulus (GPa) = 23.90081 27.08686 25.49384
#
# Velocity S-wave (km/s) = 3.60316 3.83580 3.72130
# Velocity P-wave (km/s) = 5.90406 6.68736 6.30788
#
# Compressibility (1/GPa) = 0.03095536
#
# Stress axis : x y z
#
# Youngs Moduli (GPa) = 74.92161 37.95737 103.51493
#
# Poissons Ratio (x) = 0.07926 0.47930
# Poissons Ratio (y) = 0.15645 0.25675
# Poissons Ratio (z) = 0.34691 0.09415
#
# Static dielectric constant tensor:
#      x y z
#    x 1.702710 0.000000 0.000000 
#    y 0.000000 1.637380 0.000000 
#    z 0.000000 0.000000 1.695140 
# 
# From -- ./inp_files/6122.got.cif
#   From: 2010.05.17/outbox.cif.g08.bks.cpg/sg33_4_cif.got.tgz:6122.got - 2010.06.03 17:15:25.
