data_PCOD9344661
_publ_section_title
;
Structure prediction by ZEFSAII (Michael W. Deem and Ramdas Pophale) SiO2 
 PCOD9344661
Probable space group: P N A 21
;
_chemical_formula_sum "Si O2"
_cell_formula_units_Z 28
_cell_length_a 11.733382
_cell_length_b 12.840648
_cell_length_c 8.528448
_cell_angle_alpha 90.000000
_cell_angle_beta 90.000000
_cell_angle_gamma 90.000000
_cell_volume 1284.932035
_symmetry_space_group_name_H-M "P N A 21"
_symmetry_group_IT_number 33
_symmetry_cell_setting 'orthorhombic'
loop_
_space_group_symop_operation_xyz
x,y,z
-x,-y,1/2+z
1/2-x,1/2+y,1/2+z
1/2+x,1/2-y,z
loop_
_atom_site_type_symbol
_atom_site_label
_atom_site_fract_x
_atom_site_fract_y
_atom_site_fract_z
Si Si1 0.246568 0.021001 0.439160
Si Si2 0.950218 0.025939 0.158800
Si Si3 0.918675 0.580138 0.649562
Si Si4 0.643643 0.641523 0.220924
Si Si5 0.735266 0.579636 0.916226
Si Si6 0.675239 0.899776 0.640883
Si Si7 0.966071 0.239115 0.987871
O O1 0.256527 0.103474 0.301258
O O2 0.138016 0.035141 0.548198
O O3 0.354619 0.008374 0.551397
O O4 0.229329 0.910539 0.347018
O O5 0.876380 0.060962 0.309338
O O6 0.989037 0.126970 0.061504
O O7 0.054179 0.952087 0.195378
O O8 0.840196 0.603714 0.799904
O O9 0.050039 0.552651 0.686025
O O10 0.936302 0.680990 0.538014
O O11 0.570742 0.729934 0.307452
O O12 0.704944 0.660221 0.055743
O O13 0.769234 0.474242 0.011122
O O14 0.645027 0.787697 0.573327
#
# Coordination Sequence:
#
# PCOD9344661 Si02
#       7
#     4   4   4   4   4   4   4
#     4   9  18  36  61  88 118 163 190 242 311 372
#     4  10  20  39  59  86 126 161 205 239 309 371
#     4   9  19  36  63  87 124 154 202 255 311 355
#     4  10  20  39  59  85 126 158 203 243 303 370
#     4  10  19  36  62  88 123 168 194 254 312 375
#     4   9  19  36  63  89 121 153 202 252 308 361
#     4   9  21  38  61  85 124 155 204 259 290 362
#
# _framework density 21.791035999999998
#
# number of rings (size 3 to 8) (size 9 to 14) (size 15 to 20)
#    0.857    1.714    0.000    2.571    0.000    0.000 
#   23.143    5.714    6.286    0.000    0.000    0.000 
#    0.000    0.000    0.000    0.000    0.000    0.000 
#
# Total GULP energy -156127.722868 kJ/mol
# GULP energy per Si atom -5575.990102 kJ/mol
# Density = 2.174144 g / cm^3
# Si number density = 21.791036 Si / 1000 Ang^3
#
#
#
# Elastic Constant Matrix: (Units=GPa)
#
#
# Indices 1 2 3 4 5 6 
#
# 1 53.2340 -0.8708 25.5825 0.0000 0.0000 0.0000
# 2 -0.8708 37.6069 12.2053 0.0000 0.0000 0.0000
# 3 25.5825 12.2053 127.7266 0.0000 0.0000 0.0000
# 4 0.0000 0.0000 0.0000 24.6173 0.0000 0.0000
# 5 0.0000 0.0000 0.0000 0.0000 32.3136 0.0000
# 6 0.0000 0.0000 0.0000 0.0000 0.0000 14.2400
#
#
#
# Elastic Compliance Matrix: (Units=1/GPa)
#
#
# Indices 1 2 3 4 5 6 
#
# 1 0.020917 0.001903 -0.004371 0.000000 0.000000 0.000000
# 2 0.001903 0.027615 -0.003020 0.000000 0.000000 0.000000
# 3 -0.004371 -0.003020 0.008993 0.000000 0.000000 0.000000
# 4 0.000000 0.000000 0.000000 0.040622 0.000000 0.000000
# 5 0.000000 0.000000 0.000000 0.000000 0.030947 0.000000
# 6 0.000000 0.000000 0.000000 0.000000 0.000000 0.070225
#
#
# Mechanical properties :
#
#
# Convention : Reuss Voigt Hill
#
# Bulk Modulus (GPa) = 21.48285 32.48905 26.98595
# Shear Modulus (GPa) = 22.14239 26.34422 24.24330
#
# Velocity S-wave (km/s) = 3.19113 3.48076 3.33909
# Velocity P-wave (km/s) = 4.84332 5.57638 5.22273
#
# Compressibility (1/GPa) = 0.04654875
#
# Stress axis : x y z
#
# Youngs Moduli (GPa) = 47.80842 36.21205 111.19335
#
# Poissons Ratio (x) = -0.06891 0.48606
# Poissons Ratio (y) = -0.09098 0.33581
# Poissons Ratio (z) = 0.20899 0.10936
#
# Static dielectric constant tensor:
#      x y z
#    x 1.811070 0.000000 0.000000 
#    y 0.000000 1.795450 0.000000 
#    z 0.000000 0.000000 1.818060 
# 
# From -- ./inp_files/3910.got.cif
#   From: 2010.05.17/outbox.cif.g08.bks.cpg/sg33_2_cif.got.tgz:3910.got - 2010.06.03 17:15:25.
