data_PCOD9344025
_publ_section_title
;
Structure prediction by ZEFSAII (Michael W. Deem and Ramdas Pophale) SiO2 
 PCOD9344025
Probable space group: P B A 2
;
_chemical_formula_sum "Si O2"
_cell_formula_units_Z 32
_cell_length_a 14.627918
_cell_length_b 12.361808
_cell_length_c 9.277810
_cell_angle_alpha 90.000000
_cell_angle_beta 90.000000
_cell_angle_gamma 90.000000
_cell_volume 1677.683315
_symmetry_space_group_name_H-M "P B A 2"
_symmetry_group_IT_number 32
_symmetry_cell_setting 'orthorhombic'
loop_
_space_group_symop_operation_xyz
x,y,z
-x,-y,z
1/2-x,1/2+y,z
1/2+x,1/2-y,z
loop_
_atom_site_type_symbol
_atom_site_label
_atom_site_fract_x
_atom_site_fract_y
_atom_site_fract_z
Si Si1 0.900215 0.550023 0.247530
Si Si2 0.409534 0.727221 0.087942
Si Si3 0.590466 0.272779 0.745480
Si Si4 0.900215 0.550023 0.585893
Si Si5 0.061179 0.890167 0.253732
Si Si6 0.712553 0.449510 0.588038
Si Si7 0.561179 0.609833 0.579690
Si Si8 0.212553 0.050490 0.245383
O O1 0.889732 0.654752 0.149463
O O2 0.890839 0.581088 0.416711
O O3 0.819263 0.465204 0.217383
O O4 0.000000 0.500000 0.226934
O O5 0.508887 0.689413 0.147681
O O6 0.336599 0.643208 0.155010
O O7 0.407634 0.723183 0.916711
O O8 0.610268 0.154752 0.683960
O O9 0.663400 0.356792 0.678411
O O10 0.491113 0.310587 0.685741
O O11 0.819263 0.465204 0.616039
O O12 0.000000 0.500000 0.606490
O O13 0.062501 0.845279 0.416711
O O14 0.160665 0.936300 0.215103
O O15 0.000000 0.000000 0.256568
O O16 0.660665 0.563700 0.618319
O O17 0.801738 0.928341 0.416711
O O18 0.500000 0.500000 0.576854
#
# Coordination Sequence:
#
# PCOD9344025 Si02
#       8
#     4   4   4   4   4   4   4   4
#     4  10  22  40  60  81 108 145 188 230 270 319
#     4  11  22  35  55  83 116 148 177 222 281 334
#     4  11  22  35  55  83 116 148 177 222 281 334
#     4  10  22  40  60  81 108 145 188 230 270 319
#     4   8  15  31  55  80 106 138 181 228 266 311
#     4   9  19  37  60  83 107 142 190 234 269 318
#     4   8  15  31  55  80 106 138 181 228 266 311
#     4   9  19  37  60  83 107 142 190 234 269 318
#
# _framework density 19.073920000000001
#
# number of rings (size 3 to 8) (size 9 to 14) (size 15 to 20)
#    0.000    2.500    0.000    3.750    0.000    8.000 
#    0.000   10.000    0.000    0.000    0.000    0.000 
#    0.000    0.000    0.000    0.000    0.000    0.000 
#
# Total GULP energy -178589.234747 kJ/mol
# GULP energy per Si atom -5580.913586 kJ/mol
# Density = 1.903051 g / cm^3
# Si number density = 19.073920 Si / 1000 Ang^3
#
#
#
# Elastic Constant Matrix: (Units=GPa)
#
#
# Indices 1 2 3 4 5 6 
#
# 1 116.9392 19.5857 52.4796 0.0000 0.0000 0.0000
# 2 19.5857 59.8782 70.4274 0.0000 0.0000 0.0000
# 3 52.4796 70.4274 119.1542 0.0000 0.0000 0.0000
# 4 0.0000 0.0000 0.0000 74.8215 0.0000 0.0000
# 5 0.0000 0.0000 0.0000 0.0000 6.6560 0.0000
# 6 0.0000 0.0000 0.0000 0.0000 0.0000 14.1902
#
#
#
# Elastic Compliance Matrix: (Units=1/GPa)
#
#
# Indices 1 2 3 4 5 6 
#
# 1 0.011539 0.007228 -0.009354 0.000000 0.000000 0.000000
# 2 0.007228 0.059319 -0.038244 0.000000 0.000000 0.000000
# 3 -0.009354 -0.038244 0.035117 0.000000 0.000000 0.000000
# 4 0.000000 0.000000 0.000000 0.013365 0.000000 0.000000
# 5 0.000000 0.000000 0.000000 0.000000 0.150241 0.000000
# 6 0.000000 0.000000 0.000000 0.000000 0.000000 0.070471
#
#
# Mechanical properties :
#
#
# Convention : Reuss Voigt Hill
#
# Bulk Modulus (GPa) = 39.63003 64.55078 52.09040
# Shear Modulus (GPa) = 11.64945 29.36545 20.50745
#
# Velocity S-wave (km/s) = 2.47402 3.92798 3.28252
# Velocity P-wave (km/s) = 5.38361 7.38159 6.46031
#
# Compressibility (1/GPa) = 0.02523339
#
# Stress axis : x y z
#
# Youngs Moduli (GPa) = 86.66364 16.85810 28.47598
#
# Poissons Ratio (x) = -0.12185 0.26638
# Poissons Ratio (y) = -0.62642 1.08905
# Poissons Ratio (z) = 0.81069 0.64473
#
# Static dielectric constant tensor:
#      x y z
#    x 1.709160 0.000000 0.000000 
#    y 0.000000 1.665690 0.000000 
#    z 0.000000 0.000000 1.630300 
# 
# From -- ./inp_files/2873.got.cif
#   From: 2010.05.17/outbox.cif.g08.bks.cpg/sg32_2_cif.got.tgz:2873.got - 2010.06.03 17:12:27.
