data_PCOD9344387
_publ_section_title
;
Structure prediction by ZEFSAII (Michael W. Deem and Ramdas Pophale) SiO2 
 PCOD9344387
Probable space group: P N A 21
;
_chemical_formula_sum "Si O2"
_cell_formula_units_Z 20
_cell_length_a 8.649032
_cell_length_b 13.846971
_cell_length_c 5.996052
_cell_angle_alpha 90.000000
_cell_angle_beta 90.000000
_cell_angle_gamma 90.000000
_cell_volume 718.104548
_symmetry_space_group_name_H-M "P N A 21"
_symmetry_group_IT_number 33
_symmetry_cell_setting 'orthorhombic'
loop_
_space_group_symop_operation_xyz
x,y,z
-x,-y,1/2+z
1/2-x,1/2+y,1/2+z
1/2+x,1/2-y,z
loop_
_atom_site_type_symbol
_atom_site_label
_atom_site_fract_x
_atom_site_fract_y
_atom_site_fract_z
Si Si1 0.617691 0.246511 0.138510
Si Si2 0.951369 0.960670 0.926261
Si Si3 0.150716 0.439739 0.862253
Si Si4 0.145952 0.655082 0.405700
Si Si5 0.814054 0.193367 0.525081
O O1 0.693007 0.247613 0.374800
O O2 0.692424 0.147459 0.030563
O O3 0.443760 0.212185 0.102507
O O4 0.676832 0.336630 0.986004
O O5 0.763682 0.971730 0.915239
O O6 0.043487 0.860817 0.912496
O O7 0.007189 0.008346 0.686332
O O8 0.962304 0.439374 0.868868
O O9 0.211891 0.392508 0.635163
O O10 0.126944 0.726850 0.199079
#
# Coordination Sequence:
#
# PCOD9344387 Si02
#       5
#     4   4   4   4   4
#     4   9  18  31  47  74 102 134 171 213 269 317
#     4  10  17  31  51  76 107 135 175 226 271 316
#     4   8  18  31  45  77 100 132 170 218 266 315
#     4   9  19  31  47  76 103 131 174 216 264 320
#     4  10  18  30  52  75 106 138 174 227 274 318
#
# _framework density 27.851096999999999
#
# number of rings (size 3 to 8) (size 9 to 14) (size 15 to 20)
#    1.200    1.600    2.000    0.000    2.800    0.000 
#    0.000    0.000    0.000    0.000    5.200    0.000 
#    0.000    0.000    0.000    0.000    0.000    0.000 
#
# Total GULP energy -111425.926641 kJ/mol
# GULP energy per Si atom -5571.296332 kJ/mol
# Density = 2.778771 g / cm^3
# Si number density = 27.851097 Si / 1000 Ang^3
#
#
#
# Elastic Constant Matrix: (Units=GPa)
#
#
# Indices 1 2 3 4 5 6 
#
# 1 96.8742 17.4061 26.0038 0.0000 0.0000 0.0000
# 2 17.4061 72.0506 32.5067 0.0000 0.0000 0.0000
# 3 26.0038 32.5067 72.2334 0.0000 0.0000 0.0000
# 4 0.0000 0.0000 0.0000 34.5945 0.0000 0.0000
# 5 0.0000 0.0000 0.0000 0.0000 25.2570 0.0000
# 6 0.0000 0.0000 0.0000 0.0000 0.0000 50.5964
#
#
#
# Elastic Compliance Matrix: (Units=1/GPa)
#
#
# Indices 1 2 3 4 5 6 
#
# 1 0.011501 -0.001142 -0.003626 0.000000 0.000000 0.000000
# 2 -0.001142 0.017528 -0.007477 0.000000 0.000000 0.000000
# 3 -0.003626 -0.007477 0.018514 0.000000 0.000000 0.000000
# 4 0.000000 0.000000 0.000000 0.028906 0.000000 0.000000
# 5 0.000000 0.000000 0.000000 0.000000 0.039593 0.000000
# 6 0.000000 0.000000 0.000000 0.000000 0.000000 0.019764
#
#
# Mechanical properties :
#
#
# Convention : Reuss Voigt Hill
#
# Bulk Modulus (GPa) = 43.37891 43.66570 43.52231
# Shear Modulus (GPa) = 29.76489 33.10570 31.43529
#
# Velocity S-wave (km/s) = 3.27267 3.45145 3.36324
# Velocity P-wave (km/s) = 5.46714 5.62100 5.54460
#
# Compressibility (1/GPa) = 0.02305267
#
# Stress axis : x y z
#
# Youngs Moduli (GPa) = 86.94639 57.05013 54.01240
#
# Poissons Ratio (x) = 0.06518 0.19587
# Poissons Ratio (y) = 0.09933 0.40385
# Poissons Ratio (z) = 0.31530 0.42656
#
# Static dielectric constant tensor:
#      x y z
#    x 2.218080 0.000000 0.000000 
#    y 0.000000 2.114310 0.000000 
#    z 0.000000 0.000000 2.262890 
# 
# From -- ./inp_files/427.got.cif
#   From: 2010.05.17/outbox.cif.g08.bks.cpg/sg33_1_cif.got.tgz:427.got - 2010.06.03 17:15:25.
