data_PCOD9344524
_publ_section_title
;
Structure prediction by ZEFSAII (Michael W. Deem and Ramdas Pophale) SiO2 
 PCOD9344524
Probable space group: P N A 21
;
_chemical_formula_sum "Si O2"
_cell_formula_units_Z 28
_cell_length_a 12.806600
_cell_length_b 12.292169
_cell_length_c 9.256452
_cell_angle_alpha 90.000000
_cell_angle_beta 90.000000
_cell_angle_gamma 90.000000
_cell_volume 1457.158926
_symmetry_space_group_name_H-M "P N A 21"
_symmetry_group_IT_number 33
_symmetry_cell_setting 'orthorhombic'
loop_
_space_group_symop_operation_xyz
x,y,z
-x,-y,1/2+z
1/2-x,1/2+y,1/2+z
1/2+x,1/2-y,z
loop_
_atom_site_type_symbol
_atom_site_label
_atom_site_fract_x
_atom_site_fract_y
_atom_site_fract_z
Si Si1 0.879752 0.727329 0.822930
Si Si2 0.985724 0.082518 0.279201
Si Si3 0.381736 0.578963 0.483517
Si Si4 0.184900 0.428934 0.578111
Si Si5 0.980306 0.384649 0.078087
Si Si6 0.189892 0.792164 0.629934
Si Si7 0.833444 0.672730 0.388190
O O1 0.948650 0.829801 0.871102
O O2 0.781492 0.762993 0.724097
O O3 0.951483 0.652625 0.717177
O O4 0.838428 0.658684 0.955220
O O5 0.874661 0.133127 0.237280
O O6 0.050295 0.080150 0.130260
O O7 0.958112 0.974922 0.364984
O O8 0.281223 0.504526 0.524259
O O9 0.348646 0.697407 0.420587
O O10 0.082363 0.504474 0.594802
O O11 0.198964 0.366400 0.730165
O O12 0.891190 0.292963 0.064041
O O13 0.058883 0.381427 0.943110
O O14 0.244207 0.859206 0.502929
#
# Coordination Sequence:
#
# PCOD9344524 Si02
#       7
#     4   4   4   4   4   4   4
#     4  10  21  41  62  90 130 170 211 268 323 383
#     4  11  24  42  66  91 130 173 213 267 335 382
#     4  12  25  43  67  96 132 172 218 275 324 399
#     4  12  24  40  65 101 128 166 230 266 322 389
#     4  10  20  42  66  85 128 175 209 263 328 383
#     4  10  18  43  64  85 128 172 208 261 332 386
#     4  11  24  41  66  96 128 176 215 270 328 392
#
# _framework density 19.215475000000001
#
# number of rings (size 3 to 8) (size 9 to 14) (size 15 to 20)
#    0.000    1.143    7.143    0.857    4.000    0.000 
#    0.000    0.000    0.000    0.000    0.000    0.000 
#    0.000    0.000    0.000    0.000    0.000    0.000 
#
# Total GULP energy -156186.603270 kJ/mol
# GULP energy per Si atom -5578.092974 kJ/mol
# Density = 1.917174 g / cm^3
# Si number density = 19.215475 Si / 1000 Ang^3
#
#
#
# Elastic Constant Matrix: (Units=GPa)
#
#
# Indices 1 2 3 4 5 6 
#
# 1 95.1206 14.6527 26.0535 0.0000 0.0000 0.0000
# 2 14.6527 59.2587 16.8161 0.0000 0.0000 0.0000
# 3 26.0535 16.8161 48.1275 0.0000 0.0000 0.0000
# 4 0.0000 0.0000 0.0000 26.5406 0.0000 0.0000
# 5 0.0000 0.0000 0.0000 0.0000 15.3876 0.0000
# 6 0.0000 0.0000 0.0000 0.0000 0.0000 17.2589
#
#
#
# Elastic Compliance Matrix: (Units=1/GPa)
#
#
# Indices 1 2 3 4 5 6 
#
# 1 0.012432 -0.001292 -0.006278 0.000000 0.000000 0.000000
# 2 -0.001292 0.018867 -0.005893 0.000000 0.000000 0.000000
# 3 -0.006278 -0.005893 0.026236 0.000000 0.000000 0.000000
# 4 0.000000 0.000000 0.000000 0.037678 0.000000 0.000000
# 5 0.000000 0.000000 0.000000 0.000000 0.064987 0.000000
# 6 0.000000 0.000000 0.000000 0.000000 0.000000 0.057941
#
#
# Mechanical properties :
#
#
# Convention : Reuss Voigt Hill
#
# Bulk Modulus (GPa) = 32.67131 35.28348 33.97740
# Shear Modulus (GPa) = 19.58711 21.50305 20.54508
#
# Velocity S-wave (km/s) = 3.19618 3.34885 3.27340
# Velocity P-wave (km/s) = 5.53717 5.77537 5.65752
#
# Compressibility (1/GPa) = 0.03060789
#
# Stress axis : x y z
#
# Youngs Moduli (GPa) = 80.43985 53.00291 38.11595
#
# Poissons Ratio (x) = 0.06850 0.23930
# Poissons Ratio (y) = 0.10396 0.22460
# Poissons Ratio (z) = 0.50502 0.31233
#
# Static dielectric constant tensor:
#      x y z
#    x 1.692030 0.000000 0.000000 
#    y 0.000000 1.705940 0.000000 
#    z 0.000000 0.000000 1.660990 
# 
# From -- ./inp_files/3856.got.cif
#   From: 2010.05.17/outbox.cif.g08.bks.cpg/sg33_2_cif.got.tgz:3856.got - 2010.06.03 17:15:25.
