data_PCOD9344485
_publ_section_title
;
Structure prediction by ZEFSAII (Michael W. Deem and Ramdas Pophale) SiO2 
 PCOD9344485
Probable space group: P N A 21
;
_chemical_formula_sum "Si O2"
_cell_formula_units_Z 32
_cell_length_a 7.899634
_cell_length_b 12.449653
_cell_length_c 13.193996
_cell_angle_alpha 90.000000
_cell_angle_beta 90.000000
_cell_angle_gamma 90.000000
_cell_volume 1297.599188
_symmetry_space_group_name_H-M "P N A 21"
_symmetry_group_IT_number 33
_symmetry_cell_setting 'orthorhombic'
loop_
_space_group_symop_operation_xyz
x,y,z
-x,-y,1/2+z
1/2-x,1/2+y,1/2+z
1/2+x,1/2-y,z
loop_
_atom_site_type_symbol
_atom_site_label
_atom_site_fract_x
_atom_site_fract_y
_atom_site_fract_z
Si Si1 0.984821 0.913798 0.712240
Si Si2 0.728846 0.416884 0.755208
Si Si3 0.395390 0.879816 0.869938
Si Si4 0.169441 0.145241 0.961290
Si Si5 0.370362 0.513387 0.934710
Si Si6 0.932520 0.622508 0.496700
Si Si7 0.192161 0.708921 0.747054
Si Si8 0.101327 0.592668 0.068048
O O1 0.083837 0.022512 0.689480
O O2 0.100249 0.808898 0.693146
O O3 0.802791 0.870415 0.677495
O O4 0.941229 0.934880 0.832204
O O5 0.649189 0.339475 0.838596
O O6 0.863688 0.363134 0.679459
O O7 0.804313 0.515448 0.823420
O O8 0.291811 0.776312 0.833449
O O9 0.564447 0.866089 0.805760
O O10 0.450921 0.881084 0.988481
O O11 0.122244 0.257278 0.011116
O O12 0.369323 0.124159 0.972318
O O13 0.027750 0.053289 0.983595
O O14 0.209812 0.430697 0.921367
O O15 0.276144 0.601414 0.004093
O O16 0.915088 0.536687 0.587183
#
# Coordination Sequence:
#
# PCOD9344485 Si02
#       8
#     4   4   4   4   4   4   4   4
#     4   9  17  32  55  81 110 149 192 243 308 358
#     4  10  21  36  61  88 120 162 205 254 310 376
#     4  10  18  36  60  80 122 157 195 253 310 367
#     4  11  19  37  62  87 116 165 201 251 313 371
#     4   9  19  33  59  81 117 154 200 242 308 362
#     4  10  19  35  61  84 117 161 204 248 304 367
#     4   9  17  31  59  83 106 154 198 242 309 364
#     4  10  20  38  59  88 122 162 205 257 304 375
#
# _framework density 24.660928999999999
#
# number of rings (size 3 to 8) (size 9 to 14) (size 15 to 20)
#    0.750    1.500    3.750    0.000    0.000    0.000 
#    0.000   12.500    0.000    0.000    0.000    0.000 
#    0.000    0.000    0.000    0.000    0.000    0.000 
#
# Total GULP energy -178137.486349 kJ/mol
# GULP energy per Si atom -5566.796448 kJ/mol
# Density = 2.460480 g / cm^3
# Si number density = 24.660929 Si / 1000 Ang^3
#
#
#
# Elastic Constant Matrix: (Units=GPa)
#
#
# Indices 1 2 3 4 5 6 
#
# 1 138.8967 16.9060 21.6372 0.0000 0.0000 0.0000
# 2 16.9060 38.5884 9.3249 0.0000 0.0000 0.0000
# 3 21.6372 9.3249 77.3496 0.0000 0.0000 0.0000
# 4 0.0000 0.0000 0.0000 10.5196 0.0000 0.0000
# 5 0.0000 0.0000 0.0000 0.0000 41.0301 0.0000
# 6 0.0000 0.0000 0.0000 0.0000 0.0000 33.4640
#
#
#
# Elastic Compliance Matrix: (Units=1/GPa)
#
#
# Indices 1 2 3 4 5 6 
#
# 1 0.007850 -0.002996 -0.001835 0.000000 0.000000 0.000000
# 2 -0.002996 0.027835 -0.002518 0.000000 0.000000 0.000000
# 3 -0.001835 -0.002518 0.013745 0.000000 0.000000 0.000000
# 4 0.000000 0.000000 0.000000 0.095061 0.000000 0.000000
# 5 0.000000 0.000000 0.000000 0.000000 0.024372 0.000000
# 6 0.000000 0.000000 0.000000 0.000000 0.000000 0.029883
#
#
# Mechanical properties :
#
#
# Convention : Reuss Voigt Hill
#
# Bulk Modulus (GPa) = 28.79020 38.95231 33.87126
# Shear Modulus (GPa) = 22.22015 30.80053 26.51034
#
# Velocity S-wave (km/s) = 3.00497 3.53790 3.28227
# Velocity P-wave (km/s) = 4.87232 5.70249 5.30367
#
# Compressibility (1/GPa) = 0.03473404
#
# Stress axis : x y z
#
# Youngs Moduli (GPa) = 127.38771 35.92549 72.75339
#
# Poissons Ratio (x) = 0.10763 0.13348
# Poissons Ratio (y) = 0.38163 0.18317
# Poissons Ratio (z) = 0.23372 0.09045
#
# Static dielectric constant tensor:
#      x y z
#    x 2.083100 0.000000 0.000000 
#    y 0.000000 1.964820 0.000000 
#    z 0.000000 0.000000 2.074200 
# 
# From -- ./inp_files/7759.got.cif
#   From: 2010.05.17/outbox.cif.g08.bks.cpg/sg33_4_cif.got.tgz:7759.got - 2010.06.03 17:15:25.
