data_PCOD9344897
_publ_section_title
;
Structure prediction by ZEFSAII (Michael W. Deem and Ramdas Pophale) SiO2 
 PCOD9344897
Probable space group: P N A 21
;
_chemical_formula_sum "Si O2"
_cell_formula_units_Z 24
_cell_length_a 12.869325
_cell_length_b 13.444741
_cell_length_c 5.376492
_cell_angle_alpha 90.000000
_cell_angle_beta 90.000000
_cell_angle_gamma 90.000000
_cell_volume 930.266138
_symmetry_space_group_name_H-M "P N A 21"
_symmetry_group_IT_number 33
_symmetry_cell_setting 'orthorhombic'
loop_
_space_group_symop_operation_xyz
x,y,z
-x,-y,1/2+z
1/2-x,1/2+y,1/2+z
1/2+x,1/2-y,z
loop_
_atom_site_type_symbol
_atom_site_label
_atom_site_fract_x
_atom_site_fract_y
_atom_site_fract_z
Si Si1 0.507887 0.696925 0.107050
Si Si2 0.730528 0.531841 0.242661
Si Si3 0.664125 0.196224 0.916524
Si Si4 0.423521 0.614096 0.592152
Si Si5 0.628938 0.883027 0.022820
Si Si6 0.408916 0.952857 0.845709
O O1 0.415771 0.775640 0.190459
O O2 0.499102 0.629989 0.356786
O O3 0.474248 0.641289 0.855714
O O4 0.607207 0.766080 0.038011
O O5 0.727658 0.638551 0.377247
O O6 0.631691 0.491941 0.098837
O O7 0.769653 0.439489 0.415953
O O8 0.823661 0.559765 0.057820
O O9 0.667826 0.303979 0.043984
O O10 0.614172 0.119599 0.113465
O O11 0.529192 0.931820 0.888923
O O12 0.611490 0.930645 0.291747
#
# Coordination Sequence:
#
# PCOD9344897 Si02
#       6
#     4   4   4   4   4   4
#     4  10  20  37  50  71 112 152 178 220 275 330
#     4  11  22  30  53  83 115 146 189 222 287 353
#     4   9  19  32  53  70 115 148 176 219 280 332
#     4  10  22  36  48  75 116 145 183 226 266 342
#     4  11  18  28  52  76 110 148 170 220 277 345
#     4  11  17  29  48  85 110 137 170 215 281 348
#
# _framework density 25.799067000000001
#
# number of rings (size 3 to 8) (size 9 to 14) (size 15 to 20)
#    1.000    0.667    5.000    1.000    7.000    0.000 
#    0.000    0.000    0.000    0.000    0.000    0.000 
#   15.000    0.000    0.000    0.000    0.000    0.000 
#
# Total GULP energy -133698.981714 kJ/mol
# GULP energy per Si atom -5570.790905 kJ/mol
# Density = 2.574035 g / cm^3
# Si number density = 25.799067 Si / 1000 Ang^3
#
#
#
# Elastic Constant Matrix: (Units=GPa)
#
#
# Indices 1 2 3 4 5 6 
#
# 1 66.2384 53.0995 18.7536 0.0000 0.0000 0.0000
# 2 53.0995 73.2436 17.4081 0.0000 0.0000 0.0000
# 3 18.7536 17.4081 90.1009 0.0000 0.0000 0.0000
# 4 0.0000 0.0000 0.0000 43.2882 0.0000 0.0000
# 5 0.0000 0.0000 0.0000 0.0000 27.1774 0.0000
# 6 0.0000 0.0000 0.0000 0.0000 0.0000 53.1020
#
#
#
# Elastic Compliance Matrix: (Units=1/GPa)
#
#
# Indices 1 2 3 4 5 6 
#
# 1 0.036623 -0.025930 -0.002613 0.000000 0.000000 0.000000
# 2 -0.025930 0.032669 -0.000915 0.000000 0.000000 0.000000
# 3 -0.002613 -0.000915 0.011819 0.000000 0.000000 0.000000
# 4 0.000000 0.000000 0.000000 0.023101 0.000000 0.000000
# 5 0.000000 0.000000 0.000000 0.000000 0.036795 0.000000
# 6 0.000000 0.000000 0.000000 0.000000 0.000000 0.018832
#
#
# Mechanical properties :
#
#
# Convention : Reuss Voigt Hill
#
# Bulk Modulus (GPa) = 45.05262 45.34503 45.19883
# Shear Modulus (GPa) = 22.10896 34.06830 28.08863
#
# Velocity S-wave (km/s) = 2.93058 3.63784 3.30319
# Velocity P-wave (km/s) = 5.38069 5.93798 5.66619
#
# Compressibility (1/GPa) = 0.02219627
#
# Stress axis : x y z
#
# Youngs Moduli (GPa) = 27.30518 30.61031 84.60757
#
# Poissons Ratio (x) = 0.79371 0.22108
# Poissons Ratio (y) = 0.70801 0.07740
# Poissons Ratio (z) = 0.07135 0.02800
#
# Static dielectric constant tensor:
#      x y z
#    x 2.023850 0.000000 0.000000 
#    y 0.000000 2.118470 0.000000 
#    z 0.000000 0.000000 2.198850 
# 
# From -- ./inp_files/1347.got.cif
#   From: 2010.05.17/outbox.cif.g08.bks.cpg/sg33_1_cif.got.tgz:1347.got - 2010.06.03 17:15:25.
