data_PCOD9344341
_publ_section_title
;
Structure prediction by ZEFSAII (Michael W. Deem and Ramdas Pophale) SiO2 
 PCOD9344341
Probable space group: P N A 21
;
_chemical_formula_sum "Si O2"
_cell_formula_units_Z 24
_cell_length_a 5.256925
_cell_length_b 28.283146
_cell_length_c 7.383154
_cell_angle_alpha 90.000000
_cell_angle_beta 90.000000
_cell_angle_gamma 90.000000
_cell_volume 1097.744889
_symmetry_space_group_name_H-M "P N A 21"
_symmetry_group_IT_number 33
_symmetry_cell_setting 'orthorhombic'
loop_
_space_group_symop_operation_xyz
x,y,z
-x,-y,1/2+z
1/2-x,1/2+y,1/2+z
1/2+x,1/2-y,z
loop_
_atom_site_type_symbol
_atom_site_label
_atom_site_fract_x
_atom_site_fract_y
_atom_site_fract_z
Si Si1 0.025269 0.734085 0.066210
Si Si2 0.866706 0.020979 0.170454
Si Si3 0.858890 0.531452 0.071704
Si Si4 0.998141 0.373410 0.456580
Si Si5 0.996054 0.774636 0.654582
Si Si6 0.504324 0.379461 0.214585
O O1 0.765968 0.745152 0.164756
O O2 0.051312 0.678765 0.030230
O O3 0.003987 0.763742 0.874608
O O4 0.758912 0.029326 0.371180
O O5 0.952244 0.072909 0.101658
O O6 0.621093 0.997958 0.075959
O O7 0.121388 0.989364 0.182877
O O8 0.935297 0.586026 0.101936
O O9 0.245415 0.369657 0.327352
O O10 0.747433 0.388909 0.344374
O O11 0.768728 0.741904 0.588697
O O12 0.940809 0.829503 0.619955
#
# Coordination Sequence:
#
# PCOD9344341 Si02
#       6
#     4   4   4   4   4   4
#     4  10  15  24  40  68 106 138 159 207 283 350
#     4  11  23  39  57  81 112 152 194 239 280 332
#     4  11  23  39  57  81 112 152 194 239 280 332
#     4  11  18  29  48  73 106 148 171 219 282 339
#     4  10  15  24  40  68 106 138 159 207 283 350
#     4  11  18  29  48  73 106 148 171 219 282 339
#
# _framework density 21.863005999999999
#
# number of rings (size 3 to 8) (size 9 to 14) (size 15 to 20)
#    0.000    1.333    6.667    5.000    0.000    0.000 
#    0.000    0.000    0.000    0.000    0.000    0.000 
#    0.000   26.667    0.000    0.000    0.000    0.000 
#
# Total GULP energy -133873.502649 kJ/mol
# GULP energy per Si atom -5578.062610 kJ/mol
# Density = 2.181324 g / cm^3
# Si number density = 21.863006 Si / 1000 Ang^3
#
#
#
# Elastic Constant Matrix: (Units=GPa)
#
#
# Indices 1 2 3 4 5 6 
#
# 1 163.7007 38.3209 -3.6950 0.0000 0.0000 0.0000
# 2 38.3209 172.0473 3.3056 0.0000 0.0000 0.0000
# 3 -3.6950 3.3056 25.7904 0.0000 0.0000 0.0000
# 4 0.0000 0.0000 0.0000 5.1865 0.0000 0.0000
# 5 0.0000 0.0000 0.0000 0.0000 14.3131 0.0000
# 6 0.0000 0.0000 0.0000 0.0000 0.0000 43.9742
#
#
#
# Elastic Compliance Matrix: (Units=1/GPa)
#
#
# Indices 1 2 3 4 5 6 
#
# 1 0.006477 -0.001464 0.001116 0.000000 0.000000 0.000000
# 2 -0.001464 0.006158 -0.000999 0.000000 0.000000 0.000000
# 3 0.001116 -0.000999 0.039062 0.000000 0.000000 0.000000
# 4 0.000000 0.000000 0.000000 0.192810 0.000000 0.000000
# 5 0.000000 0.000000 0.000000 0.000000 0.069866 0.000000
# 6 0.000000 0.000000 0.000000 0.000000 0.000000 0.022741
#
#
# Mechanical properties :
#
#
# Convention : Reuss Voigt Hill
#
# Bulk Modulus (GPa) = 20.40758 48.60016 34.50387
# Shear Modulus (GPa) = 14.03937 34.26854 24.15396
#
# Velocity S-wave (km/s) = 2.53682 3.96336 3.32744
# Velocity P-wave (km/s) = 4.23499 6.57434 5.52979
#
# Compressibility (1/GPa) = 0.04900140
#
# Stress axis : x y z
#
# Youngs Moduli (GPa) = 154.40202 162.40012 25.60030
#
# Poissons Ratio (x) = 0.23775 -0.02856
# Poissons Ratio (y) = 0.22604 0.02557
# Poissons Ratio (z) = -0.17224 0.16224
#
# Static dielectric constant tensor:
#      x y z
#    x 1.883010 0.000000 0.000000 
#    y 0.000000 1.819880 0.000000 
#    z 0.000000 0.000000 1.878580 
# 
# From -- ./inp_files/2769.got.cif
#   From: 2010.05.17/outbox.cif.g08.bks.cpg/sg33_2_cif.got.tgz:2769.got - 2010.06.03 17:15:25.
