data_PCOD9344133
_publ_section_title
;
Structure prediction by ZEFSAII (Michael W. Deem and Ramdas Pophale) SiO2 
 PCOD9344133
Probable space group: P B A 2
;
_chemical_formula_sum "Si O2"
_cell_formula_units_Z 20
_cell_length_a 9.185050
_cell_length_b 9.607465
_cell_length_c 9.043978
_cell_angle_alpha 90.000000
_cell_angle_beta 90.000000
_cell_angle_gamma 90.000000
_cell_volume 798.086258
_symmetry_space_group_name_H-M "P B A 2"
_symmetry_group_IT_number 32
_symmetry_cell_setting 'orthorhombic'
loop_
_space_group_symop_operation_xyz
x,y,z
-x,-y,z
1/2-x,1/2+y,z
1/2+x,1/2-y,z
loop_
_atom_site_type_symbol
_atom_site_label
_atom_site_fract_x
_atom_site_fract_y
_atom_site_fract_z
Si Si1 0.730018 0.583886 0.832770
Si Si2 0.412797 0.679106 0.721644
Si Si3 0.011073 0.653329 0.288296
Si Si4 0.800536 0.864984 0.404078
Si Si5 0.361832 0.418178 0.139880
O O1 0.575840 0.652489 0.778948
O O2 0.702775 0.420967 0.805242
O O3 0.856341 0.664044 0.745140
O O4 0.752272 0.599041 0.008628
O O5 0.390318 0.626401 0.553728
O O6 0.083772 0.765848 0.182874
O O7 0.860394 0.721113 0.335494
O O8 0.000000 0.500000 0.226380
O O9 0.127191 0.641760 0.423393
O O10 0.829546 0.985559 0.283317
O O11 0.500000 0.500000 0.070508
#
# Coordination Sequence:
#
# PCOD9344133 Si02
#       5
#     4   4   4   4   4
#     4  11  26  47  69 102 141 184 230 285 360 415
#     4  11  26  46  71 102 141 182 232 288 355 418
#     4  11  25  41  71 105 134 177 241 281 345 407
#     4  11  25  45  72 102 140 185 231 293 348 421
#     4  10  23  45  70  98 141 185 225 286 350 417
#
# _framework density 25.059949
#
# number of rings (size 3 to 8) (size 9 to 14) (size 15 to 20)
#    0.000    1.200    2.000    2.400   16.800    2.400 
#    0.000    0.000    0.000    0.000    0.000    0.000 
#    0.000    0.000    0.000    0.000    0.000    0.000 
#
# Total GULP energy -111850.708592 kJ/mol
# GULP energy per Si atom -5592.535430 kJ/mol
# Density = 2.500291 g / cm^3
# Si number density = 25.059949 Si / 1000 Ang^3
#
#
#
# Elastic Constant Matrix: (Units=GPa)
#
#
# Indices 1 2 3 4 5 6 
#
# 1 97.1485 25.3508 8.6871 0.0000 0.0000 0.0000
# 2 25.3508 149.9538 29.5480 0.0000 0.0000 0.0000
# 3 8.6871 29.5480 128.4614 0.0000 0.0000 0.0000
# 4 0.0000 0.0000 0.0000 17.5826 0.0000 0.0000
# 5 0.0000 0.0000 0.0000 0.0000 15.6957 0.0000
# 6 0.0000 0.0000 0.0000 0.0000 0.0000 35.5773
#
#
#
# Elastic Compliance Matrix: (Units=1/GPa)
#
#
# Indices 1 2 3 4 5 6 
#
# 1 0.010781 -0.001759 -0.000325 0.000000 0.000000 0.000000
# 2 -0.001759 0.007272 -0.001554 0.000000 0.000000 0.000000
# 3 -0.000325 -0.001554 0.008164 0.000000 0.000000 0.000000
# 4 0.000000 0.000000 0.000000 0.056874 0.000000 0.000000
# 5 0.000000 0.000000 0.000000 0.000000 0.063712 0.000000
# 6 0.000000 0.000000 0.000000 0.000000 0.000000 0.028108
#
#
# Mechanical properties :
#
#
# Convention : Reuss Voigt Hill
#
# Bulk Modulus (GPa) = 52.78904 55.85951 54.32428
# Shear Modulus (GPa) = 26.52523 34.56964 30.54743
#
# Velocity S-wave (km/s) = 3.25694 3.71816 3.49517
# Velocity P-wave (km/s) = 5.93754 6.38527 6.16547
#
# Compressibility (1/GPa) = 0.01894333
#
# Stress axis : x y z
#
# Youngs Moduli (GPa) = 92.75160 137.50964 122.49222
#
# Poissons Ratio (x) = 0.24184 0.03976
# Poissons Ratio (y) = 0.16313 0.19033
# Poissons Ratio (z) = 0.03010 0.21366
#
# Static dielectric constant tensor:
#      x y z
#    x 2.065060 0.000000 0.000000 
#    y 0.000000 1.952870 0.000000 
#    z 0.000000 0.000000 2.038790 
# 
# From -- ./inp_files/2206.got.cif
#   From: 2010.05.17/outbox.cif.g08.bks.cpg/sg32_2_cif.got.tgz:2206.got - 2010.06.03 17:12:27.
