data_PCOD9344901
_publ_section_title
;
Structure prediction by ZEFSAII (Michael W. Deem and Ramdas Pophale) SiO2 
 PCOD9344901
Probable space group: P N A 21
;
_chemical_formula_sum "Si O2"
_cell_formula_units_Z 28
_cell_length_a 14.571972
_cell_length_b 7.747498
_cell_length_c 9.234550
_cell_angle_alpha 90.000000
_cell_angle_beta 90.000000
_cell_angle_gamma 90.000000
_cell_volume 1042.546748
_symmetry_space_group_name_H-M "P N A 21"
_symmetry_group_IT_number 33
_symmetry_cell_setting 'orthorhombic'
loop_
_space_group_symop_operation_xyz
x,y,z
-x,-y,1/2+z
1/2-x,1/2+y,1/2+z
1/2+x,1/2-y,z
loop_
_atom_site_type_symbol
_atom_site_label
_atom_site_fract_x
_atom_site_fract_y
_atom_site_fract_z
Si Si1 0.822945 0.158023 0.508480
Si Si2 0.660892 0.248920 0.696137
Si Si3 0.221361 0.839788 0.458949
Si Si4 0.900362 0.133250 0.200157
Si Si5 0.089851 0.009346 0.263686
Si Si6 0.105454 0.478949 0.118158
Si Si7 0.009620 0.636577 0.357622
O O1 0.720281 0.171831 0.567245
O O2 0.873140 0.007553 0.599670
O O3 0.876641 0.326785 0.563828
O O4 0.838102 0.155579 0.340044
O O5 0.732843 0.272157 0.831019
O O6 0.615398 0.431281 0.656222
O O7 0.582996 0.124888 0.758845
O O8 0.179526 0.003128 0.367089
O O9 0.142402 0.766069 0.563939
O O10 0.301120 0.886815 0.571521
O O11 0.005800 0.142419 0.254100
O O12 0.043615 0.831243 0.323787
O O13 0.026443 0.402218 0.016584
O O14 0.079994 0.503077 0.285399
#
# Coordination Sequence:
#
# PCOD9344901 Si02
#       7
#     4   4   4   4   4   4   4
#     4  10  20  37  59  85 117 156 199 240 300 348
#     4   9  20  40  53  84 121 157 192 246 296 344
#     4  10  20  37  61  83 119 152 195 242 290 351
#     4  11  20  36  61  84 114 157 198 243 293 353
#     4   9  20  38  58  83 118 154 191 247 302 347
#     4  10  20  38  58  87 115 153 194 242 289 351
#     4   9  20  36  60  80 120 157 191 242 298 344
#
# _framework density 26.857309999999998
#
# number of rings (size 3 to 8) (size 9 to 14) (size 15 to 20)
#    0.000    2.286    1.429    0.857    0.000    2.286 
#    7.714    1.429    0.000    0.000    0.000    0.000 
#    0.000    0.000    0.000    0.000    0.000    0.000 
#
# Total GULP energy -156556.997722 kJ/mol
# GULP energy per Si atom -5591.321347 kJ/mol
# Density = 2.679618 g / cm^3
# Si number density = 26.857310 Si / 1000 Ang^3
#
#
#
# Elastic Constant Matrix: (Units=GPa)
#
#
# Indices 1 2 3 4 5 6 
#
# 1 118.2207 17.3340 13.0653 0.0000 0.0000 0.0000
# 2 17.3340 50.1807 -1.7014 0.0000 0.0000 0.0000
# 3 13.0653 -1.7014 85.4009 0.0000 0.0000 0.0000
# 4 0.0000 0.0000 0.0000 24.1913 0.0000 0.0000
# 5 0.0000 0.0000 0.0000 0.0000 30.2105 0.0000
# 6 0.0000 0.0000 0.0000 0.0000 0.0000 31.1244
#
#
#
# Elastic Compliance Matrix: (Units=1/GPa)
#
#
# Indices 1 2 3 4 5 6 
#
# 1 0.009087 -0.003188 -0.001454 0.000000 0.000000 0.000000
# 2 -0.003188 0.021060 0.000907 0.000000 0.000000 0.000000
# 3 -0.001454 0.000907 0.011950 0.000000 0.000000 0.000000
# 4 0.000000 0.000000 0.000000 0.041337 0.000000 0.000000
# 5 0.000000 0.000000 0.000000 0.000000 0.033101 0.000000
# 6 0.000000 0.000000 0.000000 0.000000 0.000000 0.032129
#
#
# Mechanical properties :
#
#
# Convention : Reuss Voigt Hill
#
# Bulk Modulus (GPa) = 28.87858 34.57758 31.72808
# Shear Modulus (GPa) = 29.81940 32.11218 30.96579
#
# Velocity S-wave (km/s) = 3.33572 3.46158 3.39923
# Velocity P-wave (km/s) = 5.06082 5.37394 5.21973
#
# Compressibility (1/GPa) = 0.03462774
#
# Stress axis : x y z
#
# Youngs Moduli (GPa) = 110.04882 47.48325 83.68238
#
# Poissons Ratio (x) = 0.15139 0.12165
# Poissons Ratio (y) = 0.35086 -0.07593
# Poissons Ratio (z) = 0.15998 -0.04308
#
# Static dielectric constant tensor:
#      x y z
#    x 2.229490 0.000000 0.000000 
#    y 0.000000 2.149550 0.000000 
#    z 0.000000 0.000000 2.055460 
# 
# From -- ./inp_files/4319.got.cif
#   From: 2010.05.17/outbox.cif.g08.bks.cpg/sg33_3_cif.got.tgz:4319.got - 2010.06.03 17:15:25.
