data_PCOD9344874
_publ_section_title
;
Structure prediction by ZEFSAII (Michael W. Deem and Ramdas Pophale) SiO2 
 PCOD9344874
Probable space group: P N A 21
;
_chemical_formula_sum "Si O2"
_cell_formula_units_Z 24
_cell_length_a 9.006300
_cell_length_b 9.172812
_cell_length_c 15.487711
_cell_angle_alpha 90.000000
_cell_angle_beta 90.000000
_cell_angle_gamma 90.000000
_cell_volume 1279.487767
_symmetry_space_group_name_H-M "P N A 21"
_symmetry_group_IT_number 33
_symmetry_cell_setting 'orthorhombic'
loop_
_space_group_symop_operation_xyz
x,y,z
-x,-y,1/2+z
1/2-x,1/2+y,1/2+z
1/2+x,1/2-y,z
loop_
_atom_site_type_symbol
_atom_site_label
_atom_site_fract_x
_atom_site_fract_y
_atom_site_fract_z
Si Si1 0.440822 0.188760 0.640700
Si Si2 0.088773 0.121880 0.209826
Si Si3 0.750143 0.565770 0.068898
Si Si4 0.238459 0.430492 0.216598
Si Si5 0.273042 0.599046 0.393205
Si Si6 0.411532 0.358138 0.824410
O O1 0.368482 0.301993 0.573437
O O2 0.599201 0.129642 0.610086
O O3 0.453255 0.273153 0.733894
O O4 0.329559 0.053213 0.654115
O O5 0.138427 0.287277 0.217952
O O6 0.911199 0.105073 0.198219
O O7 0.178445 0.055756 0.130147
O O8 0.134445 0.017821 0.290504
O O9 0.774091 0.488049 0.977797
O O10 0.232111 0.501644 0.310874
O O11 0.448747 0.620938 0.386263
O O12 0.202962 0.757211 0.374996
#
# Coordination Sequence:
#
# PCOD9344874 Si02
#       6
#     4   4   4   4   4   4
#     4  10  20  39  61  80 112 153 188 228 284 345
#     4  10  20  36  59  84 112 149 191 230 276 343
#     4  11  22  37  58  86 113 146 190 238 285 330
#     4  10  21  38  60  84 113 151 191 228 278 344
#     4  10  22  37  57  84 112 146 189 236 284 328
#     4   9  19  39  59  78 110 151 187 226 281 346
#
# _framework density 18.757507
#
# number of rings (size 3 to 8) (size 9 to 14) (size 15 to 20)
#    0.000    2.000    0.000    6.000    0.000    6.667 
#    0.000    3.333    0.000    0.000    0.000    0.000 
#    0.000    0.000    0.000    0.000    0.000    0.000 
#
# Total GULP energy -133904.040423 kJ/mol
# GULP energy per Si atom -5579.335018 kJ/mol
# Density = 1.871481 g / cm^3
# Si number density = 18.757507 Si / 1000 Ang^3
#
#
#
# Elastic Constant Matrix: (Units=GPa)
#
#
# Indices 1 2 3 4 5 6 
#
# 1 38.8547 9.4986 1.0525 0.0000 0.0000 0.0000
# 2 9.4986 74.7762 -20.6303 0.0000 0.0000 0.0000
# 3 1.0525 -20.6303 19.0130 0.0000 0.0000 0.0000
# 4 0.0000 0.0000 0.0000 15.9948 0.0000 0.0000
# 5 0.0000 0.0000 0.0000 0.0000 12.5708 0.0000
# 6 0.0000 0.0000 0.0000 0.0000 0.0000 39.2737
#
#
#
# Elastic Compliance Matrix: (Units=1/GPa)
#
#
# Indices 1 2 3 4 5 6 
#
# 1 0.027296 -0.005544 -0.007527 0.000000 0.000000 0.000000
# 2 -0.005544 0.020213 0.022240 0.000000 0.000000 0.000000
# 3 -0.007527 0.022240 0.077144 0.000000 0.000000 0.000000
# 4 0.000000 0.000000 0.000000 0.062520 0.000000 0.000000
# 5 0.000000 0.000000 0.000000 0.000000 0.079549 0.000000
# 6 0.000000 0.000000 0.000000 0.000000 0.000000 0.025462
#
#
# Mechanical properties :
#
#
# Convention : Reuss Voigt Hill
#
# Bulk Modulus (GPa) = 6.99341 12.49839 9.74590
# Shear Modulus (GPa) = 15.55158 23.08272 19.31715
#
# Velocity S-wave (km/s) = 2.88251 3.51178 3.21259
# Velocity P-wave (km/s) = 3.84901 4.80843 4.35522
#
# Compressibility (1/GPa) = 0.14299167
#
# Stress axis : x y z
#
# Youngs Moduli (GPa) = 36.63532 49.47249 12.96279
#
# Poissons Ratio (x) = 0.27427 0.09756
# Poissons Ratio (y) = 0.20310 -0.28829
# Poissons Ratio (z) = 0.27574 -1.10025
#
# Static dielectric constant tensor:
#      x y z
#    x 1.662010 0.000000 0.000000 
#    y 0.000000 1.668330 0.000000 
#    z 0.000000 0.000000 1.651780 
# 
# From -- ./inp_files/7524.got.cif
#   From: 2010.05.17/outbox.cif.g08.bks.cpg/sg33_4_cif.got.tgz:7524.got - 2010.06.03 17:15:25.
