data_PCOD9344241
_publ_section_title
;
Structure prediction by ZEFSAII (Michael W. Deem and Ramdas Pophale) SiO2 
 PCOD9344241
Probable space group: P B A 2
;
_chemical_formula_sum "Si O2"
_cell_formula_units_Z 32
_cell_length_a 17.808516
_cell_length_b 7.509632
_cell_length_c 12.730260
_cell_angle_alpha 90.000000
_cell_angle_beta 90.000000
_cell_angle_gamma 90.000000
_cell_volume 1702.486434
_symmetry_space_group_name_H-M "P B A 2"
_symmetry_group_IT_number 32
_symmetry_cell_setting 'orthorhombic'
loop_
_space_group_symop_operation_xyz
x,y,z
-x,-y,z
1/2-x,1/2+y,z
1/2+x,1/2-y,z
loop_
_atom_site_type_symbol
_atom_site_label
_atom_site_fract_x
_atom_site_fract_y
_atom_site_fract_z
Si Si1 0.162107 0.211145 0.477240
Si Si2 0.586377 0.283505 0.694322
Si Si3 0.837893 0.211144 0.477240
Si Si4 0.413623 0.283505 0.694321
Si Si5 0.591589 0.000000 0.088226
Si Si6 0.091675 0.795843 0.925319
Si Si7 0.910135 0.500000 0.329348
Si Si8 0.591675 0.295844 0.925319
O O1 0.134128 0.267590 0.593329
O O2 0.250000 0.250000 0.468289
O O3 0.119335 0.327668 0.391256
O O4 0.147838 0.000000 0.465313
O O5 0.500000 0.224804 0.680267
O O6 0.585326 0.500000 0.698535
O O7 0.614530 0.227477 0.809498
O O8 0.865872 0.267590 0.593329
O O9 0.880665 0.327668 0.391256
O O10 0.385470 0.227477 0.809498
O O11 0.616393 0.000000 0.208474
O O12 0.500000 0.000000 0.089506
O O13 0.615473 0.170917 0.020389
O O14 0.615473 0.829083 0.020389
O O15 1.000000 0.795556 0.922192
O O16 0.115711 1.000000 0.939165
O O17 0.000000 0.500000 0.330363
#
# Coordination Sequence:
#
# PCOD9344241 Si02
#       8
#     4   4   4   4   4   4   4   4
#     4  11  22  39  59  83 116 160 192 236 298 350
#     4   8  15  29  53  84 113 142 183 231 282 347
#     4  11  22  39  59  83 116 160 192 236 298 350
#     4   8  15  29  53  84 113 142 183 231 282 347
#     4   9  18  31  49  79 113 143 185 236 280 330
#     4   8  14  27  48  76 111 144 174 224 290 339
#     4  11  24  39  59  89 116 149 207 252 277 336
#     4   8  14  27  48  76 111 144 174 224 290 339
#
# _framework density 18.796039
#
# number of rings (size 3 to 8) (size 9 to 14) (size 15 to 20)
#    0.000    2.750    1.250    2.250    0.000    3.500 
#    0.000    5.000    0.000    1.500    0.000    0.000 
#    0.000    0.000    0.000    0.000    0.000    0.000 
#
# Total GULP energy -178494.157003 kJ/mol
# GULP energy per Si atom -5577.942406 kJ/mol
# Density = 1.875326 g / cm^3
# Si number density = 18.796039 Si / 1000 Ang^3
#
#
#
# Elastic Constant Matrix: (Units=GPa)
#
#
# Indices 1 2 3 4 5 6 
#
# 1 47.6918 20.2969 45.7327 0.0000 0.0000 0.0000
# 2 20.2969 114.8975 85.7498 0.0000 0.0000 0.0000
# 3 45.7327 85.7498 207.4471 0.0000 0.0000 0.0000
# 4 0.0000 0.0000 0.0000 31.9277 0.0000 0.0000
# 5 0.0000 0.0000 0.0000 0.0000 -8.0749 0.0000
# 6 0.0000 0.0000 0.0000 0.0000 0.0000 7.7540
#
#
#
# Elastic Compliance Matrix: (Units=1/GPa)
#
#
# Indices 1 2 3 4 5 6 
#
# 1 0.026606 -0.000466 -0.005673 0.000000 0.000000 0.000000
# 2 -0.000466 0.012594 -0.005103 0.000000 0.000000 0.000000
# 3 -0.005673 -0.005103 0.008180 0.000000 0.000000 0.000000
# 4 0.000000 0.000000 0.000000 0.031321 0.000000 0.000000
# 5 0.000000 0.000000 0.000000 0.000000 -0.123841 0.000000
# 6 0.000000 0.000000 0.000000 0.000000 0.000000 0.128965
#
#
# Mechanical properties :
#
#
# Convention : Reuss Voigt Hill
#
# Bulk Modulus (GPa) = 40.16631 74.84391 57.50511
# Shear Modulus (GPa) = 43.62646 20.87184 32.24915
#
# Velocity S-wave (km/s) = 4.82295 3.33594 4.14665
# Velocity P-wave (km/s) = 7.24088 7.39888 7.32031
#
# Compressibility (1/GPa) = 0.02489649
#
# Stress axis : x y z
#
# Youngs Moduli (GPa) = 37.58539 79.40067 122.24215
#
# Poissons Ratio (x) = 0.03704 0.69343
# Poissons Ratio (y) = 0.01753 0.62382
# Poissons Ratio (z) = 0.21321 0.40519
#
# Static dielectric constant tensor:
#      x y z
#    x 1.618840 0.000000 0.000000 
#    y 0.000000 1.677410 0.000000 
#    z 0.000000 0.000000 1.646170 
# 
# From -- ./inp_files/4008.got.cif
#   From: 2010.05.17/outbox.cif.g08.bks.cpg/sg32_3_cif.got.tgz:4008.got - 2010.06.03 17:12:27.
