data_PCOD9344632
_publ_section_title
;
Structure prediction by ZEFSAII (Michael W. Deem and Ramdas Pophale) SiO2 
 PCOD9344632
Probable space group: P N A 21
;
_chemical_formula_sum "Si O2"
_cell_formula_units_Z 28
_cell_length_a 7.515759
_cell_length_b 19.808385
_cell_length_c 8.811402
_cell_angle_alpha 90.000000
_cell_angle_beta 90.000000
_cell_angle_gamma 90.000000
_cell_volume 1311.797894
_symmetry_space_group_name_H-M "P N A 21"
_symmetry_group_IT_number 33
_symmetry_cell_setting 'orthorhombic'
loop_
_space_group_symop_operation_xyz
x,y,z
-x,-y,1/2+z
1/2-x,1/2+y,1/2+z
1/2+x,1/2-y,z
loop_
_atom_site_type_symbol
_atom_site_label
_atom_site_fract_x
_atom_site_fract_y
_atom_site_fract_z
Si Si1 0.912006 0.085367 0.313010
Si Si2 0.359331 0.050231 0.041886
Si Si3 0.052601 0.979502 0.497622
Si Si4 0.106448 0.657595 0.781762
Si Si5 0.580563 0.101662 0.541349
Si Si6 0.826192 0.627064 0.372634
Si Si7 0.730381 0.704507 0.652376
O O1 0.742685 0.095749 0.421816
O O2 0.923488 0.156002 0.221830
O O3 0.894259 0.032108 0.173454
O O4 0.056324 0.054455 0.427907
O O5 0.338039 0.089157 0.199707
O O6 0.454318 0.978017 0.069453
O O7 0.488510 0.096133 0.938549
O O8 0.157034 0.040811 0.984287
O O9 0.178567 0.930668 0.401420
O O10 0.212778 0.721504 0.719746
O O11 0.912775 0.674711 0.714838
O O12 0.075331 0.642793 0.958383
O O13 0.644256 0.136626 0.695127
O O14 0.754498 0.690481 0.472451
#
# Coordination Sequence:
#
# PCOD9344632 Si02
#       7
#     4   4   4   4   4   4   4
#     4   9  19  34  57  90 118 157 201 248 305 366
#     4  10  21  37  61  93 116 163 211 250 311 373
#     4  10  19  35  61  87 123 158 203 256 314 362
#     4  10  21  39  63  86 123 165 209 250 310 384
#     4  10  20  39  63  88 128 157 206 268 315 360
#     4  10  21  38  60  91 123 160 203 265 306 369
#     4   9  21  38  59  85 121 164 211 243 311 382
#
# _framework density 21.344750999999999
#
# number of rings (size 3 to 8) (size 9 to 14) (size 15 to 20)
#    0.000    2.286    0.000    3.429    4.000    2.286 
#    0.000    7.143    6.286    0.000    0.000    0.000 
#    0.000    0.000    0.000    0.000    0.000    0.000 
#
# Total GULP energy -155969.066893 kJ/mol
# GULP energy per Si atom -5570.323818 kJ/mol
# Density = 2.129617 g / cm^3
# Si number density = 21.344751 Si / 1000 Ang^3
#
#
#
# Elastic Constant Matrix: (Units=GPa)
#
#
# Indices 1 2 3 4 5 6 
#
# 1 88.3869 22.6397 35.6383 0.0000 0.0000 0.0000
# 2 22.6397 77.5843 72.5391 0.0000 0.0000 0.0000
# 3 35.6383 72.5391 149.1891 0.0000 0.0000 0.0000
# 4 0.0000 0.0000 0.0000 15.2626 0.0000 0.0000
# 5 0.0000 0.0000 0.0000 0.0000 -8.6417 0.0000
# 6 0.0000 0.0000 0.0000 0.0000 0.0000 19.8707
#
#
#
# Elastic Compliance Matrix: (Units=1/GPa)
#
#
# Indices 1 2 3 4 5 6 
#
# 1 0.012625 -0.001585 -0.002245 0.000000 0.000000 0.000000
# 2 -0.001585 0.023832 -0.011209 0.000000 0.000000 0.000000
# 3 -0.002245 -0.011209 0.012689 0.000000 0.000000 0.000000
# 4 0.000000 0.000000 0.000000 0.065520 0.000000 0.000000
# 5 0.000000 0.000000 0.000000 0.000000 -0.115718 0.000000
# 6 0.000000 0.000000 0.000000 0.000000 0.000000 0.050325
#
#
# Mechanical properties :
#
#
# Convention : Reuss Voigt Hill
#
# Bulk Modulus (GPa) = 52.44382 64.08829 58.26606
# Shear Modulus (GPa) = 58.33811 17.58786 37.96299
#
# Velocity S-wave (km/s) = 5.23361 2.87364 4.22188
# Velocity P-wave (km/s) = 7.81947 6.41100 7.15000
#
# Compressibility (1/GPa) = 0.01906802
#
# Stress axis : x y z
#
# Youngs Moduli (GPa) = 79.20689 41.96096 78.80656
#
# Poissons Ratio (x) = 0.06650 0.17695
# Poissons Ratio (y) = 0.12553 0.88334
# Poissons Ratio (z) = 0.17785 0.47034
#
# Static dielectric constant tensor:
#      x y z
#    x 1.854420 0.000000 0.000000 
#    y 0.000000 1.960030 0.000000 
#    z 0.000000 0.000000 1.821140 
# 
# From -- ./inp_files/3422.got.cif
#   From: 2010.05.17/outbox.cif.g08.bks.cpg/sg33_2_cif.got.tgz:3422.got - 2010.06.03 17:15:25.
