data_PCOD9344203
_publ_section_title
;
Structure prediction by ZEFSAII (Michael W. Deem and Ramdas Pophale) SiO2 
 PCOD9344203
Probable space group: P B A 2
;
_chemical_formula_sum "Si O2"
_cell_formula_units_Z 16
_cell_length_a 10.211666
_cell_length_b 13.673308
_cell_length_c 4.908357
_cell_angle_alpha 90.000000
_cell_angle_beta 90.000000
_cell_angle_gamma 90.000000
_cell_volume 685.340412
_symmetry_space_group_name_H-M "P B A 2"
_symmetry_group_IT_number 32
_symmetry_cell_setting 'orthorhombic'
loop_
_space_group_symop_operation_xyz
x,y,z
-x,-y,z
1/2-x,1/2+y,z
1/2+x,1/2-y,z
loop_
_atom_site_type_symbol
_atom_site_label
_atom_site_fract_x
_atom_site_fract_y
_atom_site_fract_z
Si Si1 0.489579 0.821002 0.452230
Si Si2 0.233138 0.416952 0.715068
Si Si3 0.052868 0.803483 0.963239
Si Si4 0.500000 0.000000 0.082428
Si Si5 0.000000 0.000000 0.709353
O O1 0.534499 0.785628 0.750109
O O2 0.546539 0.913574 0.287566
O O3 0.340722 0.853731 0.491636
O O4 0.513286 0.729703 0.259108
O O5 0.300495 0.341734 0.924410
O O6 0.357172 0.474722 0.585782
O O7 0.121657 0.474114 0.883361
O O8 0.973088 0.900584 0.877874
#
# Coordination Sequence:
#
# PCOD9344203 Si02
#       5
#     4   4   4   2   2
#     4  12  25  48  76 112 155 205 259 317 387 469
#     4  10  25  51  77 119 153 211 258 318 407 456
#     4  10  26  48  76 112 154 207 259 317 391 470
#     4  12  26  48  76 120 158 200 262 328 392 472
#     4   8  24  52  76 116 156 200 260 322 392 464
#
# _framework density 23.346063000000001
#
# number of rings (size 3 to 8) (size 9 to 14) (size 15 to 20)
#    1.500    0.000    2.500    0.750    3.500    5.000 
#    4.500    0.000    0.000    0.000    0.000    0.000 
#    0.000    0.000    0.000    0.000    0.000    0.000 
#
# Total GULP energy -89159.750449 kJ/mol
# GULP energy per Si atom -5572.484403 kJ/mol
# Density = 2.329293 g / cm^3
# Si number density = 23.346063 Si / 1000 Ang^3
#
#
#
# Elastic Constant Matrix: (Units=GPa)
#
#
# Indices 1 2 3 4 5 6 
#
# 1 150.5890 31.9348 35.7291 0.0000 0.0000 0.0000
# 2 31.9348 79.7042 4.5785 0.0000 0.0000 0.0000
# 3 35.7291 4.5785 88.5459 0.0000 0.0000 0.0000
# 4 0.0000 0.0000 0.0000 3.8428 0.0000 0.0000
# 5 0.0000 0.0000 0.0000 0.0000 -10.1190 0.0000
# 6 0.0000 0.0000 0.0000 0.0000 0.0000 48.9021
#
#
#
# Elastic Compliance Matrix: (Units=1/GPa)
#
#
# Indices 1 2 3 4 5 6 
#
# 1 0.008014 -0.003034 -0.003077 0.000000 0.000000 0.000000
# 2 -0.003034 0.013733 0.000514 0.000000 0.000000 0.000000
# 3 -0.003077 0.000514 0.012509 0.000000 0.000000 0.000000
# 4 0.000000 0.000000 0.000000 0.260229 0.000000 0.000000
# 5 0.000000 0.000000 0.000000 0.000000 -0.098824 0.000000
# 6 0.000000 0.000000 0.000000 0.000000 0.000000 0.020449
#
#
# Mechanical properties :
#
#
# Convention : Reuss Voigt Hill
#
# Bulk Modulus (GPa) = 43.36231 51.48045 47.42138
# Shear Modulus (GPa) = 21.27752 24.96496 23.12124
#
# Velocity S-wave (km/s) = 3.02221 3.27363 3.15043
# Velocity P-wave (km/s) = 5.54909 6.03223 5.79569
#
# Compressibility (1/GPa) = 0.02306150
#
# Stress axis : x y z
#
# Youngs Moduli (GPa) = 124.78055 72.81965 79.94546
#
# Poissons Ratio (x) = 0.22095 0.24598
# Poissons Ratio (y) = 0.37861 -0.04111
# Poissons Ratio (z) = 0.38393 -0.03745
#
# Static dielectric constant tensor:
#      x y z
#    x 1.881270 0.000000 0.000000 
#    y 0.000000 1.921440 0.000000 
#    z 0.000000 0.000000 1.908070 
# 
# From -- ./inp_files/689.got.cif
#   From: 2010.05.17/outbox.cif.g08.bks.cpg/sg32_1_cif.got.tgz:689.got - 2010.06.03 17:12:27.
