data_PCOD9344049
_publ_section_title
;
Structure prediction by ZEFSAII (Michael W. Deem and Ramdas Pophale) SiO2 
 PCOD9344049
Probable space group: P B A 2
;
_chemical_formula_sum "Si O2"
_cell_formula_units_Z 18
_cell_length_a 4.921608
_cell_length_b 11.803258
_cell_length_c 13.429513
_cell_angle_alpha 90.000000
_cell_angle_beta 90.000000
_cell_angle_gamma 90.000000
_cell_volume 780.133961
_symmetry_space_group_name_H-M "P B A 2"
_symmetry_group_IT_number 32
_symmetry_cell_setting 'orthorhombic'
loop_
_space_group_symop_operation_xyz
x,y,z
-x,-y,z
1/2-x,1/2+y,z
1/2+x,1/2-y,z
loop_
_atom_site_type_symbol
_atom_site_label
_atom_site_fract_x
_atom_site_fract_y
_atom_site_fract_z
Si Si1 0.500000 0.500000 0.315771
Si Si2 0.608853 0.320693 0.479900
Si Si3 0.000000 0.000000 0.865681
Si Si4 0.500000 0.000000 0.171894
Si Si5 0.860043 0.667022 0.996285
Si Si6 0.040863 0.175748 0.704980
O O1 0.492302 0.395981 0.392125
O O2 0.750557 0.474701 0.243915
O O3 0.426982 0.206948 0.473458
O O4 0.570066 0.366631 0.591915
O O5 0.128887 0.089664 0.789491
O O6 0.776050 0.067126 0.930156
O O7 0.401576 0.895846 0.102408
O O8 0.649813 0.771636 0.982287
O O9 0.230385 0.285909 0.716425
#
# Coordination Sequence:
#
# PCOD9344049 Si02
#       6
#     2   4   2   2   4   4
#     4  12  24  42  70 100 128 176 230 280 342 412
#     4  10  22  41  65  99 139 175 218 272 335 409
#     4  12  24  44  72 100 134 180 232 282 342 416
#     4  12  28  46  68  98 132 176 234 290 354 414
#     4  12  27  47  69  97 135 178 229 292 354 415
#     4  10  23  41  65 100 139 178 219 271 338 411
#
# _framework density 23.072962
#
# number of rings (size 3 to 8) (size 9 to 14) (size 15 to 20)
#    0.000    0.889    0.000    6.667    0.000    9.778 
#    0.000    6.667    0.000    0.000    0.000    0.000 
#    0.000    0.000    0.000    0.000    0.000    0.000 
#
# Total GULP energy -100579.409266 kJ/mol
# GULP energy per Si atom -5587.744959 kJ/mol
# Density = 2.302045 g / cm^3
# Si number density = 23.072962 Si / 1000 Ang^3
#
#
#
# Elastic Constant Matrix: (Units=GPa)
#
#
# Indices 1 2 3 4 5 6 
#
# 1 115.0243 15.5764 45.4413 0.0000 0.0000 0.0000
# 2 15.5764 72.1880 68.6099 0.0000 0.0000 0.0000
# 3 45.4413 68.6099 174.1970 0.0000 0.0000 0.0000
# 4 0.0000 0.0000 0.0000 51.5149 0.0000 0.0000
# 5 0.0000 0.0000 0.0000 0.0000 19.3785 0.0000
# 6 0.0000 0.0000 0.0000 0.0000 0.0000 24.7997
#
#
#
# Elastic Compliance Matrix: (Units=1/GPa)
#
#
# Indices 1 2 3 4 5 6 
#
# 1 0.009704 0.000499 -0.002728 0.000000 0.000000 0.000000
# 2 0.000499 0.022167 -0.008861 0.000000 0.000000 0.000000
# 3 -0.002728 -0.008861 0.009942 0.000000 0.000000 0.000000
# 4 0.000000 0.000000 0.000000 0.019412 0.000000 0.000000
# 5 0.000000 0.000000 0.000000 0.000000 0.051604 0.000000
# 6 0.000000 0.000000 0.000000 0.000000 0.000000 0.040323
#
#
# Mechanical properties :
#
#
# Convention : Reuss Voigt Hill
#
# Bulk Modulus (GPa) = 50.93448 68.96273 59.94861
# Shear Modulus (GPa) = 27.49139 34.59074 31.04106
#
# Velocity S-wave (km/s) = 3.45555 3.87614 3.67187
# Velocity P-wave (km/s) = 6.16802 7.07011 6.63441
#
# Compressibility (1/GPa) = 0.01963306
#
# Stress axis : x y z
#
# Youngs Moduli (GPa) = 103.05106 45.11281 100.58206
#
# Poissons Ratio (x) = -0.02250 0.27437
# Poissons Ratio (y) = -0.05139 0.89123
# Poissons Ratio (z) = 0.28110 0.39973
#
# Static dielectric constant tensor:
#      x y z
#    x 1.838410 0.000000 0.000000 
#    y 0.000000 1.881580 0.000000 
#    z 0.000000 0.000000 1.839290 
# 
# From -- ./inp_files/3458.got.cif
#   From: 2010.05.17/outbox.cif.g08.bks.cpg/sg32_2_cif.got.tgz:3458.got - 2010.06.03 17:12:27.
