data_PCOD9344836
_publ_section_title
;
Structure prediction by ZEFSAII (Michael W. Deem and Ramdas Pophale) SiO2 
 PCOD9344836
Probable space group: P N A 21
;
_chemical_formula_sum "Si O2"
_cell_formula_units_Z 24
_cell_length_a 9.294175
_cell_length_b 8.123100
_cell_length_c 13.183863
_cell_angle_alpha 90.000000
_cell_angle_beta 90.000000
_cell_angle_gamma 90.000000
_cell_volume 995.348867
_symmetry_space_group_name_H-M "P N A 21"
_symmetry_group_IT_number 33
_symmetry_cell_setting 'orthorhombic'
loop_
_space_group_symop_operation_xyz
x,y,z
-x,-y,1/2+z
1/2-x,1/2+y,1/2+z
1/2+x,1/2-y,z
loop_
_atom_site_type_symbol
_atom_site_label
_atom_site_fract_x
_atom_site_fract_y
_atom_site_fract_z
Si Si1 0.439402 0.185638 0.287650
Si Si2 0.042198 0.729363 0.184274
Si Si3 0.285841 0.958847 0.116238
Si Si4 0.845114 0.239512 0.004307
Si Si5 0.903303 0.637476 0.390716
Si Si6 0.264209 0.909240 0.710342
O O1 0.597588 0.201457 0.241270
O O2 0.356755 0.358025 0.292285
O O3 0.347935 0.076875 0.205799
O O4 0.441333 0.056263 0.379861
O O5 0.134583 0.881670 0.146495
O O6 0.957983 0.732113 0.291003
O O7 0.162128 0.586545 0.202064
O O8 0.915690 0.673169 0.107485
O O9 0.277981 0.079276 0.021476
O O10 0.010136 0.281226 0.983452
O O11 0.764684 0.158569 0.909705
O O12 0.807465 0.130710 0.101948
#
# Coordination Sequence:
#
# PCOD9344836 Si02
#       6
#     4   4   4   4   4   4
#     4   9  19  37  57  84 114 153 197 239 289 363
#     4  10  20  38  58  86 119 156 197 242 292 365
#     4   9  20  35  57  84 115 152 195 234 287 360
#     4  11  20  37  59  86 114 151 196 249 298 348
#     4  10  20  35  58  86 117 147 196 254 299 342
#     4   9  19  36  59  82 115 157 199 238 293 364
#
# _framework density 24.112147
#
# number of rings (size 3 to 8) (size 9 to 14) (size 15 to 20)
#    0.000    2.667    0.000    5.000    0.000    4.000 
#    0.000   10.000    0.000   10.000    0.000    0.000 
#    0.000    0.000    0.000    0.000    0.000    0.000 
#
# Total GULP energy -133927.423046 kJ/mol
# GULP energy per Si atom -5580.309294 kJ/mol
# Density = 2.405727 g / cm^3
# Si number density = 24.112147 Si / 1000 Ang^3
#
#
#
# Elastic Constant Matrix: (Units=GPa)
#
#
# Indices 1 2 3 4 5 6 
#
# 1 75.1599 23.7972 13.0441 0.0000 0.0000 0.0000
# 2 23.7972 31.1543 2.3894 0.0000 0.0000 0.0000
# 3 13.0441 2.3894 29.1412 0.0000 0.0000 0.0000
# 4 0.0000 0.0000 0.0000 29.1943 0.0000 0.0000
# 5 0.0000 0.0000 0.0000 0.0000 33.9591 0.0000
# 6 0.0000 0.0000 0.0000 0.0000 0.0000 56.4527
#
#
#
# Elastic Compliance Matrix: (Units=1/GPa)
#
#
# Indices 1 2 3 4 5 6 
#
# 1 0.018998 -0.013947 -0.007360 0.000000 0.000000 0.000000
# 2 -0.013947 0.042541 0.002755 0.000000 0.000000 0.000000
# 3 -0.007360 0.002755 0.037384 0.000000 0.000000 0.000000
# 4 0.000000 0.000000 0.000000 0.034253 0.000000 0.000000
# 5 0.000000 0.000000 0.000000 0.000000 0.029447 0.000000
# 6 0.000000 0.000000 0.000000 0.000000 0.000000 0.017714
#
#
# Mechanical properties :
#
#
# Convention : Reuss Voigt Hill
#
# Bulk Modulus (GPa) = 16.17650 23.76850 19.97250
# Shear Modulus (GPa) = 21.00403 30.33620 25.67012
#
# Velocity S-wave (km/s) = 2.95464 3.55086 3.26638
# Velocity P-wave (km/s) = 4.28524 5.16627 4.74624
#
# Compressibility (1/GPa) = 0.06181808
#
# Stress axis : x y z
#
# Youngs Moduli (GPa) = 52.63599 23.50688 26.74909
#
# Poissons Ratio (x) = 0.32786 0.19688
# Poissons Ratio (y) = 0.73414 -0.07370
# Poissons Ratio (z) = 0.38742 -0.06476
#
# Static dielectric constant tensor:
#      x y z
#    x 1.922130 0.000000 0.000000 
#    y 0.000000 2.013100 0.000000 
#    z 0.000000 0.000000 2.019860 
# 
# From -- ./inp_files/7565.got.cif
#   From: 2010.05.17/outbox.cif.g08.bks.cpg/sg33_4_cif.got.tgz:7565.got - 2010.06.03 17:15:25.
