data_PCOD9344809
_publ_section_title
;
Structure prediction by ZEFSAII (Michael W. Deem and Ramdas Pophale) SiO2 
 PCOD9344809
Probable space group: P N A 21
;
_chemical_formula_sum "Si O2"
_cell_formula_units_Z 24
_cell_length_a 21.714559
_cell_length_b 11.387982
_cell_length_c 4.910355
_cell_angle_alpha 90.000000
_cell_angle_beta 90.000000
_cell_angle_gamma 90.000000
_cell_volume 1214.257171
_symmetry_space_group_name_H-M "P N A 21"
_symmetry_group_IT_number 33
_symmetry_cell_setting 'orthorhombic'
loop_
_space_group_symop_operation_xyz
x,y,z
-x,-y,1/2+z
1/2-x,1/2+y,1/2+z
1/2+x,1/2-y,z
loop_
_atom_site_type_symbol
_atom_site_label
_atom_site_fract_x
_atom_site_fract_y
_atom_site_fract_z
Si Si1 0.609826 0.808823 0.717020
Si Si2 0.203208 0.055712 0.000293
Si Si3 0.796286 0.787852 0.029318
Si Si4 0.161597 0.469283 0.487620
Si Si5 0.965167 0.459459 0.870566
Si Si6 0.337569 0.308307 0.704909
O O1 0.548022 0.842834 0.551274
O O2 0.647306 0.722581 0.515318
O O3 0.644857 0.935186 0.721104
O O4 0.611347 0.751725 0.010848
O O5 0.208431 0.155737 0.231112
O O6 0.270065 0.007137 0.903107
O O7 0.169076 0.944485 0.130807
O O8 0.175953 0.116287 0.734115
O O9 0.834303 0.667492 0.047282
O O10 0.727659 0.751927 0.128926
O O11 0.102950 0.493054 0.296699
O O12 0.004206 0.455304 0.597154
#
# Coordination Sequence:
#
# PCOD9344809 Si02
#       6
#     4   4   4   4   4   4
#     4  10  20  35  52  76 106 132 169 213 263 297
#     4  11  22  32  53  78 109 145 170 194 255 320
#     4  11  19  34  48  76 107 141 168 208 246 311
#     4   9  22  33  54  77 112 133 170 215 261 301
#     4  10  20  34  53  80 102 130 173 218 268 299
#     4  11  19  34  50  75 108 141 168 202 253 316
#
# _framework density 19.765170999999999
#
# number of rings (size 3 to 8) (size 9 to 14) (size 15 to 20)
#    1.000    0.667    3.333    2.000    0.000    8.000 
#    0.000    0.000    0.000    0.000    0.000   23.333 
#    0.000    0.000    0.000    0.000    0.000    0.000 
#
# Total GULP energy -133656.263241 kJ/mol
# GULP energy per Si atom -5569.010968 kJ/mol
# Density = 1.972018 g / cm^3
# Si number density = 19.765171 Si / 1000 Ang^3
#
#
#
# Elastic Constant Matrix: (Units=GPa)
#
#
# Indices 1 2 3 4 5 6 
#
# 1 24.0138 17.6164 15.7113 0.0000 0.0000 0.0000
# 2 17.6164 112.5225 21.8908 0.0000 0.0000 0.0000
# 3 15.7113 21.8908 81.6296 0.0000 0.0000 0.0000
# 4 0.0000 0.0000 0.0000 11.3261 0.0000 0.0000
# 5 0.0000 0.0000 0.0000 0.0000 17.1881 0.0000
# 6 0.0000 0.0000 0.0000 0.0000 0.0000 12.8379
#
#
#
# Elastic Compliance Matrix: (Units=1/GPa)
#
#
# Indices 1 2 3 4 5 6 
#
# 1 0.051799 -0.006510 -0.008224 0.000000 0.000000 0.000000
# 2 -0.006510 0.010194 -0.001481 0.000000 0.000000 0.000000
# 3 -0.008224 -0.001481 0.014231 0.000000 0.000000 0.000000
# 4 0.000000 0.000000 0.000000 0.088292 0.000000 0.000000
# 5 0.000000 0.000000 0.000000 0.000000 0.058180 0.000000
# 6 0.000000 0.000000 0.000000 0.000000 0.000000 0.077895
#
#
# Mechanical properties :
#
#
# Convention : Reuss Voigt Hill
#
# Bulk Modulus (GPa) = 22.83393 36.51145 29.67269
# Shear Modulus (GPa) = 14.38363 19.13355 16.75859
#
# Velocity S-wave (km/s) = 2.70057 3.11472 2.91501
# Velocity P-wave (km/s) = 4.61538 5.60785 5.13565
#
# Compressibility (1/GPa) = 0.04379448
#
# Stress axis : x y z
#
# Youngs Moduli (GPa) = 19.30544 98.09351 70.27154
#
# Poissons Ratio (x) = 0.63855 0.57792
# Poissons Ratio (y) = 0.12567 0.10407
# Poissons Ratio (z) = 0.15877 0.14527
#
# Static dielectric constant tensor:
#      x y z
#    x 1.744350 0.000000 0.000000 
#    y 0.000000 1.722430 0.000000 
#    z 0.000000 0.000000 1.708090 
# 
# From -- ./inp_files/2272.got.cif
#   From: 2010.05.17/outbox.cif.g08.bks.cpg/sg33_2_cif.got.tgz:2272.got - 2010.06.03 17:15:25.
