data_PCOD9344671
_publ_section_title
;
Structure prediction by ZEFSAII (Michael W. Deem and Ramdas Pophale) SiO2 
 PCOD9344671
Probable space group: P N A 21
;
_chemical_formula_sum "Si O2"
_cell_formula_units_Z 28
_cell_length_a 17.793639
_cell_length_b 11.942311
_cell_length_c 5.647764
_cell_angle_alpha 90.000000
_cell_angle_beta 90.000000
_cell_angle_gamma 90.000000
_cell_volume 1200.133871
_symmetry_space_group_name_H-M "P N A 21"
_symmetry_group_IT_number 33
_symmetry_cell_setting 'orthorhombic'
loop_
_space_group_symop_operation_xyz
x,y,z
-x,-y,1/2+z
1/2-x,1/2+y,1/2+z
1/2+x,1/2-y,z
loop_
_atom_site_type_symbol
_atom_site_label
_atom_site_fract_x
_atom_site_fract_y
_atom_site_fract_z
Si Si1 0.060760 0.378326 0.501600
Si Si2 0.259792 0.129776 0.079664
Si Si3 0.817977 0.543340 0.685996
Si Si4 0.831748 0.007329 0.974922
Si Si5 0.620521 0.307428 0.836043
Si Si6 0.989797 0.059571 0.038898
Si Si7 0.907002 0.405884 0.289979
O O1 0.127610 0.369749 0.312078
O O2 0.086055 0.299336 0.711545
O O3 0.060686 0.507876 0.591342
O O4 0.979478 0.347654 0.400753
O O5 0.206771 0.051842 0.248071
O O6 0.335903 0.168825 0.209453
O O7 0.200479 0.211550 0.958696
O O8 0.294713 0.049642 0.879857
O O9 0.736512 0.574317 0.590382
O O10 0.867428 0.484358 0.485335
O O11 0.904756 0.085466 0.955836
O O12 0.861000 0.904488 0.140819
O O13 0.555886 0.351487 0.009745
O O14 0.010344 0.974388 0.817721
#
# Coordination Sequence:
#
# PCOD9344671 Si02
#       7
#     4   4   4   4   4   4   4
#     4  11  21  37  63  94 125 164 225 265 327 397
#     4   9  18  37  61  85 116 164 211 261 335 393
#     4   9  19  36  62  85 115 168 209 265 322 400
#     4   9  18  36  64  88 122 167 214 266 338 399
#     4  10  21  35  62  94 128 163 218 276 332 400
#     4  10  19  36  63  96 131 172 214 269 345 411
#     4  10  20  37  63  86 121 170 211 262 329 398
#
# _framework density 23.330731
#
# number of rings (size 3 to 8) (size 9 to 14) (size 15 to 20)
#    0.000    2.286    2.857    0.000    0.000    1.143 
#    0.000    0.000   34.571    1.714    0.000    0.000 
#    0.000    0.000    0.000    0.000    0.000    0.000 
#
# Total GULP energy -156169.715446 kJ/mol
# GULP energy per Si atom -5577.489837 kJ/mol
# Density = 2.327763 g / cm^3
# Si number density = 23.330731 Si / 1000 Ang^3
#
#
#
# Elastic Constant Matrix: (Units=GPa)
#
#
# Indices 1 2 3 4 5 6 
#
# 1 226.9823 32.4468 26.9699 0.0000 0.0000 0.0000
# 2 32.4468 48.8653 5.8261 0.0000 0.0000 0.0000
# 3 26.9699 5.8261 44.7835 0.0000 0.0000 0.0000
# 4 0.0000 0.0000 0.0000 18.6305 0.0000 0.0000
# 5 0.0000 0.0000 0.0000 0.0000 50.4616 0.0000
# 6 0.0000 0.0000 0.0000 0.0000 0.0000 21.7468
#
#
#
# Elastic Compliance Matrix: (Units=1/GPa)
#
#
# Indices 1 2 3 4 5 6 
#
# 1 0.005172 -0.003111 -0.002710 0.000000 0.000000 0.000000
# 2 -0.003111 0.022658 -0.001074 0.000000 0.000000 0.000000
# 3 -0.002710 -0.001074 0.024102 0.000000 0.000000 0.000000
# 4 0.000000 0.000000 0.000000 0.053675 0.000000 0.000000
# 5 0.000000 0.000000 0.000000 0.000000 0.019817 0.000000
# 6 0.000000 0.000000 0.000000 0.000000 0.000000 0.045984
#
#
# Mechanical properties :
#
#
# Convention : Reuss Voigt Hill
#
# Bulk Modulus (GPa) = 26.21833 50.12406 38.17120
# Shear Modulus (GPa) = 25.26354 35.19366 30.22860
#
# Velocity S-wave (km/s) = 3.29423 3.88811 3.60343
# Velocity P-wave (km/s) = 5.07261 6.45657 5.80597
#
# Compressibility (1/GPa) = 0.03814125
#
# Stress axis : x y z
#
# Youngs Moduli (GPa) = 193.33309 44.13367 41.49109
#
# Poissons Ratio (x) = 0.13732 0.11245
# Poissons Ratio (y) = 0.60153 0.04456
# Poissons Ratio (z) = 0.52397 0.04740
#
# Static dielectric constant tensor:
#      x y z
#    x 1.871290 0.000000 0.000000 
#    y 0.000000 1.890890 0.000000 
#    z 0.000000 0.000000 1.936690 
# 
# From -- ./inp_files/1733.got.cif
#   From: 2010.05.17/outbox.cif.g08.bks.cpg/sg33_1_cif.got.tgz:1733.got - 2010.06.03 17:15:25.
