data_PCOD9344268
_publ_section_title
;
Structure prediction by ZEFSAII (Michael W. Deem and Ramdas Pophale) SiO2 
 PCOD9344268
Probable space group: P B A 2
;
_chemical_formula_sum "Si O2"
_cell_formula_units_Z 20
_cell_length_a 5.502738
_cell_length_b 27.312240
_cell_length_c 4.801431
_cell_angle_alpha 90.000000
_cell_angle_beta 90.000000
_cell_angle_gamma 90.000000
_cell_volume 721.617152
_symmetry_space_group_name_H-M "P B A 2"
_symmetry_group_IT_number 32
_symmetry_cell_setting 'orthorhombic'
loop_
_space_group_symop_operation_xyz
x,y,z
-x,-y,z
1/2-x,1/2+y,z
1/2+x,1/2-y,z
loop_
_atom_site_type_symbol
_atom_site_label
_atom_site_fract_x
_atom_site_fract_y
_atom_site_fract_z
Si Si1 0.110489 0.948847 0.956760
Si Si2 0.533055 0.162374 0.699301
Si Si3 0.405236 0.944400 0.449717
Si Si4 0.544392 0.349166 0.041599
Si Si5 0.974049 0.757529 0.298095
O O1 0.155205 0.944499 0.629986
O O2 0.946360 0.906587 0.080743
O O3 0.363990 0.943942 0.119625
O O4 0.000000 0.000000 0.028048
O O5 0.503026 0.110745 0.528751
O O6 0.292545 0.163752 0.886638
O O7 0.533427 0.214701 0.529664
O O8 0.787942 0.157876 0.871984
O O9 0.500000 0.000000 0.518660
O O10 0.529735 0.316551 0.322823
O O11 0.724898 0.748740 0.140042
#
# Coordination Sequence:
#
# PCOD9344268 Si02
#       5
#     4   4   4   4   4
#     4  11  24  45  75 112 153 198 250 309 379 453
#     4  11  26  48  74 107 150 198 251 312 376 448
#     4  11  24  45  75 112 153 198 250 309 379 453
#     4  11  26  48  74 107 150 198 251 312 376 448
#     4  12  26  44  70 102 142 190 248 306 368 436
#
# _framework density 27.715526000000001
#
# number of rings (size 3 to 8) (size 9 to 14) (size 15 to 20)
#    0.000    0.800    0.000    6.000    0.000   12.800 
#    0.000    2.000    0.000    2.400    0.000    0.000 
#    0.000    0.000    0.000    0.000    0.000    0.000 
#
# Total GULP energy -111565.392284 kJ/mol
# GULP energy per Si atom -5578.269614 kJ/mol
# Density = 2.765244 g / cm^3
# Si number density = 27.715526 Si / 1000 Ang^3
#
#
#
# Elastic Constant Matrix: (Units=GPa)
#
#
# Indices 1 2 3 4 5 6 
#
# 1 183.9419 38.1501 39.8226 0.0000 0.0000 0.0000
# 2 38.1501 305.6097 72.0073 0.0000 0.0000 0.0000
# 3 39.8226 72.0073 91.9124 0.0000 0.0000 0.0000
# 4 0.0000 0.0000 0.0000 50.8222 0.0000 0.0000
# 5 0.0000 0.0000 0.0000 0.0000 -12.0604 0.0000
# 6 0.0000 0.0000 0.0000 0.0000 0.0000 36.9317
#
#
#
# Elastic Compliance Matrix: (Units=1/GPa)
#
#
# Indices 1 2 3 4 5 6 
#
# 1 0.006006 -0.000168 -0.002471 0.000000 0.000000 0.000000
# 2 -0.000168 0.004018 -0.003075 0.000000 0.000000 0.000000
# 3 -0.002471 -0.003075 0.014360 0.000000 0.000000 0.000000
# 4 0.000000 0.000000 0.000000 0.019676 0.000000 0.000000
# 5 0.000000 0.000000 0.000000 0.000000 -0.082916 0.000000
# 6 0.000000 0.000000 0.000000 0.000000 0.000000 0.027077
#
#
# Mechanical properties :
#
#
# Convention : Reuss Voigt Hill
#
# Bulk Modulus (GPa) = 77.18228 97.93599 87.55913
# Shear Modulus (GPa) = 1260.52709 43.90431 652.21570
#
# Velocity S-wave (km/s) = 21.34939 3.98440 15.35695
# Velocity P-wave (km/s) = 25.21184 7.52198 18.60399
#
# Compressibility (1/GPa) = 0.01295634
#
# Stress axis : x y z
#
# Youngs Moduli (GPa) = 166.49415 248.90683 69.64020
#
# Poissons Ratio (x) = 0.04171 0.17208
# Poissons Ratio (y) = 0.02790 0.21414
# Poissons Ratio (z) = 0.41141 0.76536
#
# Static dielectric constant tensor:
#      x y z
#    x 2.180760 0.000000 0.000000 
#    y 0.000000 2.242000 0.000000 
#    z 0.000000 0.000000 2.080280 
# 
# From -- ./inp_files/175.got.cif
#   From: 2010.05.17/outbox.cif.g08.bks.cpg/sg32_1_cif.got.tgz:175.got - 2010.06.03 17:12:27.
