data_PCOD9344154
_publ_section_title
;
Structure prediction by ZEFSAII (Michael W. Deem and Ramdas Pophale) SiO2 
 PCOD9344154
Probable space group: P B A 2
;
_chemical_formula_sum "Si O2"
_cell_formula_units_Z 30
_cell_length_a 12.550842
_cell_length_b 19.119408
_cell_length_c 5.541291
_cell_angle_alpha 90.000000
_cell_angle_beta 90.000000
_cell_angle_gamma 90.000000
_cell_volume 1329.714060
_symmetry_space_group_name_H-M "P B A 2"
_symmetry_group_IT_number 32
_symmetry_cell_setting 'orthorhombic'
loop_
_space_group_symop_operation_xyz
x,y,z
-x,-y,z
1/2-x,1/2+y,z
1/2+x,1/2-y,z
loop_
_atom_site_type_symbol
_atom_site_label
_atom_site_fract_x
_atom_site_fract_y
_atom_site_fract_z
Si Si1 0.264762 0.969949 0.790340
Si Si2 0.911113 0.711164 0.480815
Si Si3 0.488835 0.643747 0.244707
Si Si4 0.500000 0.000000 0.898374
Si Si5 0.708078 0.454972 0.296489
Si Si6 0.453215 0.253911 0.868334
Si Si7 0.083360 0.629028 0.214677
Si Si8 0.311416 0.337187 0.552541
O O1 0.230034 0.890124 0.756018
O O2 0.212837 0.008227 0.557779
O O3 0.392136 0.980349 0.758674
O O4 0.233509 0.998957 0.055591
O O5 0.936594 0.785512 0.357178
O O6 0.794617 0.685573 0.415162
O O7 0.997509 0.652847 0.410517
O O8 0.936176 0.724866 0.761698
O O9 0.404643 0.582307 0.255812
O O10 0.521768 0.670685 0.981677
O O11 0.596903 0.628813 0.389743
O O12 0.468042 0.066313 0.061187
O O13 0.803211 0.397684 0.304504
O O14 0.405910 0.198266 0.051788
O O15 0.367136 0.268690 0.662417
#
# Coordination Sequence:
#
# PCOD9344154 Si02
#       8
#     4   4   4   2   4   4   4   4
#     4  11  28  47  75 108 143 201 237 311 359 446
#     4  10  24  41  73 104 140 183 242 306 367 433
#     4  10  26  46  68 104 143 193 243 306 359 448
#     4  10  24  46  74 110 150 184 246 304 382 440
#     4  11  28  47  74 104 148 193 245 293 372 432
#     4  10  24  44  67 108 137 192 241 304 367 432
#     4  10  24  43  73 106 146 189 237 306 370 439
#     4  11  26  44  74 103 144 190 248 303 368 431
#
# _framework density 22.561243000000001
#
# number of rings (size 3 to 8) (size 9 to 14) (size 15 to 20)
#    0.000    1.600    0.000    0.800   22.400    2.133 
#    0.000    0.000    0.000    0.000    0.000    0.000 
#    0.000    0.000    0.000    0.000    0.000    0.000 
#
# Total GULP energy -167684.472699 kJ/mol
# GULP energy per Si atom -5589.482423 kJ/mol
# Density = 2.250989 g / cm^3
# Si number density = 22.561243 Si / 1000 Ang^3
#
#
#
# Elastic Constant Matrix: (Units=GPa)
#
#
# Indices 1 2 3 4 5 6 
#
# 1 143.8041 38.5123 21.9065 0.0000 0.0000 0.0000
# 2 38.5123 56.8219 9.8553 0.0000 0.0000 0.0000
# 3 21.9065 9.8553 61.3521 0.0000 0.0000 0.0000
# 4 0.0000 0.0000 0.0000 37.3958 0.0000 0.0000
# 5 0.0000 0.0000 0.0000 0.0000 19.1836 0.0000
# 6 0.0000 0.0000 0.0000 0.0000 0.0000 35.4941
#
#
#
# Elastic Compliance Matrix: (Units=1/GPa)
#
#
# Indices 1 2 3 4 5 6 
#
# 1 0.008786 -0.005566 -0.002243 0.000000 0.000000 0.000000
# 2 -0.005566 0.021629 -0.001487 0.000000 0.000000 0.000000
# 3 -0.002243 -0.001487 0.017339 0.000000 0.000000 0.000000
# 4 0.000000 0.000000 0.000000 0.026741 0.000000 0.000000
# 5 0.000000 0.000000 0.000000 0.000000 0.052128 0.000000
# 6 0.000000 0.000000 0.000000 0.000000 0.000000 0.028174
#
#
# Mechanical properties :
#
#
# Convention : Reuss Voigt Hill
#
# Bulk Modulus (GPa) = 34.29081 44.72515 39.50798
# Shear Modulus (GPa) = 27.30592 31.19495 29.25044
#
# Velocity S-wave (km/s) = 3.48271 3.72247 3.60459
# Velocity P-wave (km/s) = 5.60396 6.19215 5.90538
#
# Compressibility (1/GPa) = 0.02916233
#
# Stress axis : x y z
#
# Youngs Moduli (GPa) = 113.81413 46.23367 57.67290
#
# Poissons Ratio (x) = 0.25734 0.12937
# Poissons Ratio (y) = 0.63349 0.08576
# Poissons Ratio (z) = 0.25530 0.06875
#
# Static dielectric constant tensor:
#      x y z
#    x 1.807460 0.000000 0.000000 
#    y 0.000000 1.834630 0.000000 
#    z 0.000000 0.000000 1.917400 
# 
# From -- ./inp_files/1032.got.cif
#   From: 2010.05.17/outbox.cif.g08.bks.cpg/sg32_1_cif.got.tgz:1032.got - 2010.06.03 17:12:27.
