data_PCOD9344428
_publ_section_title
;
Structure prediction by ZEFSAII (Michael W. Deem and Ramdas Pophale) SiO2 
 PCOD9344428
Probable space group: P N A 21
;
_chemical_formula_sum "Si O2"
_cell_formula_units_Z 28
_cell_length_a 5.799449
_cell_length_b 25.998207
_cell_length_c 9.333422
_cell_angle_alpha 90.000000
_cell_angle_beta 90.000000
_cell_angle_gamma 90.000000
_cell_volume 1407.249274
_symmetry_space_group_name_H-M "P N A 21"
_symmetry_group_IT_number 33
_symmetry_cell_setting 'orthorhombic'
loop_
_space_group_symop_operation_xyz
x,y,z
-x,-y,1/2+z
1/2-x,1/2+y,1/2+z
1/2+x,1/2-y,z
loop_
_atom_site_type_symbol
_atom_site_label
_atom_site_fract_x
_atom_site_fract_y
_atom_site_fract_z
Si Si1 0.322686 0.757731 0.256210
Si Si2 0.831384 0.461673 0.135784
Si Si3 0.140462 0.222984 0.441313
Si Si4 0.715138 0.888031 0.888330
Si Si5 0.636358 0.129871 0.628868
Si Si6 0.910508 0.450951 0.818055
Si Si7 0.027418 0.044736 0.613439
O O1 0.574750 0.752455 0.330501
O O2 0.311387 0.814041 0.185445
O O3 0.339229 0.721426 0.115197
O O4 0.811056 0.410924 0.230693
O O5 0.595342 0.490372 0.091487
O O6 0.957226 0.503807 0.234651
O O7 0.955892 0.452463 0.985411
O O8 0.392703 0.249556 0.402238
O O9 0.135821 0.164095 0.388378
O O10 0.485753 0.870945 0.974198
O O11 0.808192 0.935636 0.985732
O O12 0.474002 0.103169 0.746780
O O13 0.847994 0.091293 0.619872
O O14 0.649931 0.458981 0.766660
#
# Coordination Sequence:
#
# PCOD9344428 Si02
#       7
#     4   4   4   4   4   4   4
#     4  10  18  31  56  89 122 151 200 257 304 355
#     4  11  22  39  56  83 118 156 199 249 307 373
#     4  10  19  34  58  92 125 155 209 262 310 364
#     4  11  21  34  61  89 118 159 200 256 315 367
#     4  10  20  34  57  86 115 152 196 249 305 361
#     4  10  22  37  56  80 118 151 200 246 300 371
#     4  10  20  35  56  83 116 152 198 245 303 367
#
# _framework density 19.896972000000002
#
# number of rings (size 3 to 8) (size 9 to 14) (size 15 to 20)
#    0.000    1.714    2.857    5.143    2.000    1.143 
#    0.000    0.000    0.000    1.714    0.000    0.000 
#    0.000    0.000    0.000    0.000    0.000    0.000 
#
# Total GULP energy -155974.857165 kJ/mol
# GULP energy per Si atom -5570.530613 kJ/mol
# Density = 1.985169 g / cm^3
# Si number density = 19.896972 Si / 1000 Ang^3
#
#
#
# Elastic Constant Matrix: (Units=GPa)
#
#
# Indices 1 2 3 4 5 6 
#
# 1 95.8629 21.3113 11.2610 0.0000 0.0000 0.0000
# 2 21.3113 85.4126 30.6817 0.0000 0.0000 0.0000
# 3 11.2610 30.6817 102.5985 0.0000 0.0000 0.0000
# 4 0.0000 0.0000 0.0000 14.0372 0.0000 0.0000
# 5 0.0000 0.0000 0.0000 0.0000 8.6927 0.0000
# 6 0.0000 0.0000 0.0000 0.0000 0.0000 9.7543
#
#
#
# Elastic Compliance Matrix: (Units=1/GPa)
#
#
# Indices 1 2 3 4 5 6 
#
# 1 0.011062 -0.002604 -0.000436 0.000000 0.000000 0.000000
# 2 -0.002604 0.013730 -0.003820 0.000000 0.000000 0.000000
# 3 -0.000436 -0.003820 0.010937 0.000000 0.000000 0.000000
# 4 0.000000 0.000000 0.000000 0.071239 0.000000 0.000000
# 5 0.000000 0.000000 0.000000 0.000000 0.115039 0.000000
# 6 0.000000 0.000000 0.000000 0.000000 0.000000 0.102518
#
#
# Mechanical properties :
#
#
# Convention : Reuss Voigt Hill
#
# Bulk Modulus (GPa) = 45.43398 45.59797 45.51598
# Shear Modulus (GPa) = 14.46845 21.20486 17.83666
#
# Velocity S-wave (km/s) = 2.69953 3.26810 2.99733
# Velocity P-wave (km/s) = 5.70971 6.09979 5.90797
#
# Compressibility (1/GPa) = 0.02200996
#
# Stress axis : x y z
#
# Youngs Moduli (GPa) = 90.40353 72.83479 91.43349
#
# Poissons Ratio (x) = 0.18963 0.03982
# Poissons Ratio (y) = 0.23537 0.34928
# Poissons Ratio (z) = 0.03937 0.27823
#
# Static dielectric constant tensor:
#      x y z
#    x 1.848690 0.000000 0.000000 
#    y 0.000000 1.770670 0.000000 
#    z 0.000000 0.000000 1.676900 
# 
# From -- ./inp_files/2726.got.cif
#   From: 2010.05.17/outbox.cif.g08.bks.cpg/sg33_2_cif.got.tgz:2726.got - 2010.06.03 17:15:25.
