data_PCOD9344972
_publ_section_title
;
Structure prediction by ZEFSAII (Michael W. Deem and Ramdas Pophale) SiO2 
 PCOD9344972
Probable space group: P N A 21
;
_chemical_formula_sum "Si O2"
_cell_formula_units_Z 32
_cell_length_a 10.009807
_cell_length_b 12.617520
_cell_length_c 11.990102
_cell_angle_alpha 90.000000
_cell_angle_beta 90.000000
_cell_angle_gamma 90.000000
_cell_volume 1514.337173
_symmetry_space_group_name_H-M "P N A 21"
_symmetry_group_IT_number 33
_symmetry_cell_setting 'orthorhombic'
loop_
_space_group_symop_operation_xyz
x,y,z
-x,-y,1/2+z
1/2-x,1/2+y,1/2+z
1/2+x,1/2-y,z
loop_
_atom_site_type_symbol
_atom_site_label
_atom_site_fract_x
_atom_site_fract_y
_atom_site_fract_z
Si Si1 0.715819 0.510264 0.694810
Si Si2 0.930130 0.964251 0.969426
Si Si3 0.999855 0.181980 0.277947
Si Si4 0.472573 0.076178 0.212107
Si Si5 0.485408 0.154069 0.980296
Si Si6 0.236588 0.682697 0.339997
Si Si7 0.783463 0.584847 0.341513
Si Si8 0.608534 0.360663 0.055903
O O1 0.671117 0.466446 0.573892
O O2 0.622048 0.608236 0.732711
O O3 0.871147 0.541855 0.708743
O O4 0.691926 0.410895 0.776425
O O5 0.964304 0.857512 0.902241
O O6 0.858311 0.036448 0.875684
O O7 0.059367 0.023717 0.019839
O O8 0.969157 0.306559 0.267567
O O9 0.118796 0.156055 0.188088
O O10 0.371860 0.996582 0.271695
O O11 0.431409 0.085837 0.082441
O O12 0.418362 0.157747 0.858837
O O13 0.632099 0.108713 0.953888
O O14 0.493946 0.274627 0.023380
O O15 0.262354 0.798032 0.291282
O O16 0.278747 0.676016 0.470322
#
# Coordination Sequence:
#
# PCOD9344972 Si02
#       8
#     4   4   4   4   4   4   4   4
#     4  11  23  43  63  92 137 165 211 274 324 388
#     4  11  21  41  60  95 125 168 206 265 327 382
#     4  10  24  39  67  93 126 169 215 265 325 387
#     4  11  24  41  65  97 127 170 215 270 327 377
#     4  10  20  38  62  91 120 163 216 265 310 371
#     4  11  21  40  63  92 123 165 213 269 314 376
#     4  11  23  38  66  90 125 165 219 261 321 385
#     4   9  20  36  62  90 117 157 215 263 310 366
#
# _framework density 21.131357000000001
#
# number of rings (size 3 to 8) (size 9 to 14) (size 15 to 20)
#    0.000    1.500    5.000    0.000    3.500    0.000 
#    2.250    0.000    2.750    0.000    0.000    0.000 
#    0.000    0.000    0.000    0.000    0.000    0.000 
#
# Total GULP energy -178347.175225 kJ/mol
# GULP energy per Si atom -5573.349226 kJ/mol
# Density = 2.108326 g / cm^3
# Si number density = 21.131357 Si / 1000 Ang^3
#
#
#
# Elastic Constant Matrix: (Units=GPa)
#
#
# Indices 1 2 3 4 5 6 
#
# 1 46.5723 29.4148 13.5429 0.0000 0.0000 0.0000
# 2 29.4148 112.1638 39.2016 0.0000 0.0000 0.0000
# 3 13.5429 39.2016 69.0090 0.0000 0.0000 0.0000
# 4 0.0000 0.0000 0.0000 30.4348 0.0000 0.0000
# 5 0.0000 0.0000 0.0000 0.0000 26.7380 0.0000
# 6 0.0000 0.0000 0.0000 0.0000 0.0000 24.1305
#
#
#
# Elastic Compliance Matrix: (Units=1/GPa)
#
#
# Indices 1 2 3 4 5 6 
#
# 1 0.025863 -0.006249 -0.001525 0.000000 0.000000 0.000000
# 2 -0.006249 0.012634 -0.005951 0.000000 0.000000 0.000000
# 3 -0.001525 -0.005951 0.018171 0.000000 0.000000 0.000000
# 4 0.000000 0.000000 0.000000 0.032857 0.000000 0.000000
# 5 0.000000 0.000000 0.000000 0.000000 0.037400 0.000000
# 6 0.000000 0.000000 0.000000 0.000000 0.000000 0.041441
#
#
# Mechanical properties :
#
#
# Convention : Reuss Voigt Hill
#
# Bulk Modulus (GPa) = 34.22714 43.56262 38.89488
# Shear Modulus (GPa) = 24.32434 25.96637 25.14536
#
# Velocity S-wave (km/s) = 3.39647 3.50924 3.45331
# Velocity P-wave (km/s) = 5.62262 6.08930 5.86061
#
# Compressibility (1/GPa) = 0.02921658
#
# Stress axis : x y z
#
# Youngs Moduli (GPa) = 38.66590 79.15051 55.03399
#
# Poissons Ratio (x) = 0.49463 0.08395
# Poissons Ratio (y) = 0.24163 0.32749
# Poissons Ratio (z) = 0.05898 0.47100
#
# Static dielectric constant tensor:
#      x y z
#    x 1.885550 0.000000 0.000000 
#    y 0.000000 1.762110 0.000000 
#    z 0.000000 0.000000 1.799300 
# 
# From -- ./inp_files/6440.got.cif
#   From: 2010.05.17/outbox.cif.g08.bks.cpg/sg33_4_cif.got.tgz:6440.got - 2010.06.03 17:15:25.
