data_PCOD9344136
_publ_section_title
;
Structure prediction by ZEFSAII (Michael W. Deem and Ramdas Pophale) SiO2 
 PCOD9344136
Probable space group: P B A 2
;
_chemical_formula_sum "Si O2"
_cell_formula_units_Z 22
_cell_length_a 15.578794
_cell_length_b 10.393518
_cell_length_c 4.960152
_cell_angle_alpha 90.000000
_cell_angle_beta 90.000000
_cell_angle_gamma 90.000000
_cell_volume 803.140252
_symmetry_space_group_name_H-M "P B A 2"
_symmetry_group_IT_number 32
_symmetry_cell_setting 'orthorhombic'
loop_
_space_group_symop_operation_xyz
x,y,z
-x,-y,z
1/2-x,1/2+y,z
1/2+x,1/2-y,z
loop_
_atom_site_type_symbol
_atom_site_label
_atom_site_fract_x
_atom_site_fract_y
_atom_site_fract_z
Si Si1 0.104380 0.076678 0.371280
Si Si2 0.780491 0.354919 0.434256
Si Si3 0.500000 0.000000 0.626427
Si Si4 0.055912 0.746593 0.280366
Si Si5 0.641188 0.608961 0.867441
Si Si6 0.820998 0.526492 0.924123
O O1 0.182848 0.178036 0.377065
O O2 0.982990 0.847828 0.346373
O O3 0.111776 0.984883 0.628264
O O4 0.122604 0.988362 0.116323
O O5 0.849105 0.242469 0.412972
O O6 0.786529 0.416749 0.724314
O O7 0.812384 0.465115 0.221483
O O8 0.476677 0.116044 0.421415
O O9 0.581256 0.044617 0.816083
O O10 0.081419 0.769652 0.964231
O O11 0.744978 0.632031 0.881898
#
# Coordination Sequence:
#
# PCOD9344136 Si02
#       6
#     4   4   2   4   4   4
#     4  10  23  46  72 104 150 197 260 323 385 453
#     4   9  21  43  66 102 145 198 252 308 388 454
#     4  10  24  46  76 120 162 208 258 322 410 486
#     4  11  24  46  75 113 154 200 259 322 392 477
#     4  10  23  45  73 105 147 203 262 321 384 463
#     4   9  20  44  66  99 151 199 252 313 374 469
#
# _framework density 27.392474
#
# number of rings (size 3 to 8) (size 9 to 14) (size 15 to 20)
#    0.000    2.182    0.000    0.545    0.000   11.636 
#   29.455    0.000    0.000    0.000    0.000    0.000 
#    0.000    1.091    0.000    0.000    0.000    0.000 
#
# Total GULP energy -123062.041902 kJ/mol
# GULP energy per Si atom -5593.729177 kJ/mol
# Density = 2.733013 g / cm^3
# Si number density = 27.392474 Si / 1000 Ang^3
#
#
#
# Elastic Constant Matrix: (Units=GPa)
#
#
# Indices 1 2 3 4 5 6 
#
# 1 268.3825 65.7739 30.0457 0.0000 0.0000 0.0000
# 2 65.7739 99.7091 41.9170 0.0000 0.0000 0.0000
# 3 30.0457 41.9170 136.4042 0.0000 0.0000 0.0000
# 4 0.0000 0.0000 0.0000 25.6751 0.0000 0.0000
# 5 0.0000 0.0000 0.0000 0.0000 39.8818 0.0000
# 6 0.0000 0.0000 0.0000 0.0000 0.0000 62.2938
#
#
#
# Elastic Compliance Matrix: (Units=1/GPa)
#
#
# Indices 1 2 3 4 5 6 
#
# 1 0.004446 -0.002895 -0.000090 0.000000 0.000000 0.000000
# 2 -0.002895 0.013402 -0.003481 0.000000 0.000000 0.000000
# 3 -0.000090 -0.003481 0.008421 0.000000 0.000000 0.000000
# 4 0.000000 0.000000 0.000000 0.038948 0.000000 0.000000
# 5 0.000000 0.000000 0.000000 0.000000 0.025074 0.000000
# 6 0.000000 0.000000 0.000000 0.000000 0.000000 0.016053
#
#
# Mechanical properties :
#
#
# Convention : Reuss Voigt Hill
#
# Bulk Modulus (GPa) = 74.97610 86.66323 80.81967
# Shear Modulus (GPa) = 40.41386 50.02075 45.21730
#
# Velocity S-wave (km/s) = 3.84521 4.27790 4.06731
# Velocity P-wave (km/s) = 6.86620 7.49045 7.18511
#
# Compressibility (1/GPa) = 0.01333758
#
# Stress axis : x y z
#
# Youngs Moduli (GPa) = 224.94597 74.61524 118.75712
#
# Poissons Ratio (x) = 0.21600 0.01064
# Poissons Ratio (y) = 0.65118 0.41337
# Poissons Ratio (z) = 0.02016 0.25972
#
# Static dielectric constant tensor:
#      x y z
#    x 2.176530 0.000000 0.000000 
#    y 0.000000 2.262480 0.000000 
#    z 0.000000 0.000000 2.316500 
# 
# From -- ./inp_files/1449.got.cif
#   From: 2010.05.17/outbox.cif.g08.bks.cpg/sg32_1_cif.got.tgz:1449.got - 2010.06.03 17:12:27.
