data_PCOD9344310
_publ_section_title
;
Structure prediction by ZEFSAII (Michael W. Deem and Ramdas Pophale) SiO2 
 PCOD9344310
Probable space group: P B A 2
;
_chemical_formula_sum "Si O2"
_cell_formula_units_Z 16
_cell_length_a 14.719090
_cell_length_b 8.674962
_cell_length_c 4.966388
_cell_angle_alpha 90.000000
_cell_angle_beta 90.000000
_cell_angle_gamma 90.000000
_cell_volume 634.145898
_symmetry_space_group_name_H-M "P B A 2"
_symmetry_group_IT_number 32
_symmetry_cell_setting 'orthorhombic'
loop_
_space_group_symop_operation_xyz
x,y,z
-x,-y,z
1/2-x,1/2+y,z
1/2+x,1/2-y,z
loop_
_atom_site_type_symbol
_atom_site_label
_atom_site_fract_x
_atom_site_fract_y
_atom_site_fract_z
Si Si1 0.948335 0.630644 0.414040
Si Si2 0.604360 0.551613 0.983091
Si Si3 0.184430 0.114322 0.451385
Si Si4 0.119126 0.658837 0.678400
O O1 0.870036 0.740834 0.326671
O O2 0.905977 0.522925 0.653417
O O3 0.000000 0.500000 0.237981
O O4 0.116463 0.765239 0.937601
O O5 0.500000 0.500000 0.042603
O O6 0.675303 0.507269 0.214321
O O7 0.635516 0.459159 0.713588
O O8 0.283518 0.165534 0.541439
O O9 0.032669 0.729744 0.518930
#
# Coordination Sequence:
#
# PCOD9344310 Si02
#       4
#     4   4   4   4
#     4   8  20  45  70 102 154 189 251 308 382 430
#     4  12  25  45  74 104 146 193 250 305 369 442
#     4  12  24  45  72 109 141 199 250 307 374 448
#     4   9  22  44  73 104 150 195 246 309 368 453
#
# _framework density 25.230786999999999
#
# number of rings (size 3 to 8) (size 9 to 14) (size 15 to 20)
#    1.500    0.000    2.500    2.250    0.000    4.000 
#    0.000    6.250    0.000    0.000    0.000    0.000 
#    0.000    0.000    0.000    0.000    0.000    0.000 
#
# Total GULP energy -89235.095324 kJ/mol
# GULP energy per Si atom -5577.193458 kJ/mol
# Density = 2.517336 g / cm^3
# Si number density = 25.230787 Si / 1000 Ang^3
#
#
#
# Elastic Constant Matrix: (Units=GPa)
#
#
# Indices 1 2 3 4 5 6 
#
# 1 137.7357 43.4793 10.0406 0.0000 0.0000 0.0000
# 2 43.4793 101.2536 21.9297 0.0000 0.0000 0.0000
# 3 10.0406 21.9297 83.9028 0.0000 0.0000 0.0000
# 4 0.0000 0.0000 0.0000 35.6940 0.0000 0.0000
# 5 0.0000 0.0000 0.0000 0.0000 14.0013 0.0000
# 6 0.0000 0.0000 0.0000 0.0000 0.0000 42.4653
#
#
#
# Elastic Compliance Matrix: (Units=1/GPa)
#
#
# Indices 1 2 3 4 5 6 
#
# 1 0.008399 -0.003592 -0.000066 0.000000 0.000000 0.000000
# 2 -0.003592 0.012005 -0.002708 0.000000 0.000000 0.000000
# 3 -0.000066 -0.002708 0.012634 0.000000 0.000000 0.000000
# 4 0.000000 0.000000 0.000000 0.028016 0.000000 0.000000
# 5 0.000000 0.000000 0.000000 0.000000 0.071422 0.000000
# 6 0.000000 0.000000 0.000000 0.000000 0.000000 0.023549
#
#
# Mechanical properties :
#
#
# Convention : Reuss Voigt Hill
#
# Bulk Modulus (GPa) = 49.24718 52.64347 50.94533
# Shear Modulus (GPa) = 28.48576 34.92831 31.70703
#
# Velocity S-wave (km/s) = 3.36372 3.72473 3.54881
# Velocity P-wave (km/s) = 5.88619 6.27759 6.08504
#
# Compressibility (1/GPa) = 0.02030573
#
# Stress axis : x y z
#
# Youngs Moduli (GPa) = 119.06038 83.29680 79.14997
#
# Poissons Ratio (x) = 0.29923 0.00524
# Poissons Ratio (y) = 0.42770 0.21433
# Poissons Ratio (z) = 0.00788 0.22556
#
# Static dielectric constant tensor:
#      x y z
#    x 1.951190 0.000000 0.000000 
#    y 0.000000 2.113430 0.000000 
#    z 0.000000 0.000000 2.013800 
# 
# From -- ./inp_files/318.got.cif
#   From: 2010.05.17/outbox.cif.g08.bks.cpg/sg32_1_cif.got.tgz:318.got - 2010.06.03 17:12:27.
