data_PCOD9344345
_publ_section_title
;
Structure prediction by ZEFSAII (Michael W. Deem and Ramdas Pophale) SiO2 
 PCOD9344345
Probable space group: P N A 21
;
_chemical_formula_sum "Si O2"
_cell_formula_units_Z 32
_cell_length_a 7.394241
_cell_length_b 14.996095
_cell_length_c 11.961797
_cell_angle_alpha 90.000000
_cell_angle_beta 90.000000
_cell_angle_gamma 90.000000
_cell_volume 1326.380756
_symmetry_space_group_name_H-M "P N A 21"
_symmetry_group_IT_number 33
_symmetry_cell_setting 'orthorhombic'
loop_
_space_group_symop_operation_xyz
x,y,z
-x,-y,1/2+z
1/2-x,1/2+y,1/2+z
1/2+x,1/2-y,z
loop_
_atom_site_type_symbol
_atom_site_label
_atom_site_fract_x
_atom_site_fract_y
_atom_site_fract_z
Si Si1 0.889330 0.608946 0.667240
Si Si2 0.635742 0.652577 0.992066
Si Si3 0.268608 0.658879 0.914766
Si Si4 0.711935 0.488193 0.820666
Si Si5 0.284010 0.961283 0.442713
Si Si6 0.123054 0.093510 0.024954
Si Si7 0.007045 0.790388 0.700959
Si Si8 0.827671 0.055617 0.702271
O O1 0.867973 0.518201 0.736527
O O2 0.901582 0.585465 0.537518
O O3 0.024608 0.684074 0.711766
O O4 0.696561 0.658853 0.691177
O O5 0.711090 0.634135 0.114470
O O6 0.421691 0.648192 0.008999
O O7 0.673614 0.748362 0.938943
O O8 0.689826 0.573353 0.906232
O O9 0.166252 0.565762 0.926188
O O10 0.388723 0.669926 0.802271
O O11 0.532640 0.465342 0.747997
O O12 0.733387 0.409403 0.910223
O O13 0.278420 0.927462 0.316368
O O14 0.076338 0.946547 0.489740
O O15 0.090498 0.187657 0.083538
O O16 0.204927 0.030797 0.122706
#
# Coordination Sequence:
#
# PCOD9344345 Si02
#       8
#     4   4   4   4   4   4   4   4
#     4  11  20  33  54  80 103 138 181 220 272 314
#     4  11  21  30  56  87 106 137 179 236 267 314
#     4  12  18  34  54  84 110 135 182 229 274 312
#     4  10  15  30  52  80 101 127 182 222 252 305
#     4  10  18  32  56  73 108 148 179 214 266 334
#     4   9  15  27  53  78  93 133 186 215 249 309
#     4  11  18  32  53  82 106 131 183 233 259 319
#     4  10  15  32  52  80 101 137 190 213 251 321
#
# _framework density 24.125803000000001
#
# number of rings (size 3 to 8) (size 9 to 14) (size 15 to 20)
#    0.000    1.500   10.000    0.000    0.000    0.000 
#    0.000    5.000    5.500    0.000    0.000    0.000 
#    0.000    0.000    0.000    0.000    0.000    0.000 
#
# Total GULP energy -178638.149919 kJ/mol
# GULP energy per Si atom -5582.442185 kJ/mol
# Density = 2.407089 g / cm^3
# Si number density = 24.125803 Si / 1000 Ang^3
#
#
#
# Elastic Constant Matrix: (Units=GPa)
#
#
# Indices 1 2 3 4 5 6 
#
# 1 56.6082 8.2446 24.1056 0.0000 0.0000 0.0000
# 2 8.2446 72.8834 33.0661 0.0000 0.0000 0.0000
# 3 24.1056 33.0661 163.8074 0.0000 0.0000 0.0000
# 4 0.0000 0.0000 0.0000 46.7470 0.0000 0.0000
# 5 0.0000 0.0000 0.0000 0.0000 24.0089 0.0000
# 6 0.0000 0.0000 0.0000 0.0000 0.0000 29.6352
#
#
#
# Elastic Compliance Matrix: (Units=1/GPa)
#
#
# Indices 1 2 3 4 5 6 
#
# 1 0.018908 -0.000965 -0.002588 0.000000 0.000000 0.000000
# 2 -0.000965 0.015153 -0.002917 0.000000 0.000000 0.000000
# 3 -0.002588 -0.002917 0.007074 0.000000 0.000000 0.000000
# 4 0.000000 0.000000 0.000000 0.021392 0.000000 0.000000
# 5 0.000000 0.000000 0.000000 0.000000 0.041651 0.000000
# 6 0.000000 0.000000 0.000000 0.000000 0.000000 0.033744
#
#
# Mechanical properties :
#
#
# Convention : Reuss Voigt Hill
#
# Bulk Modulus (GPa) = 35.46552 47.12572 41.29562
# Shear Modulus (GPa) = 31.19947 35.27039 33.23493
#
# Velocity S-wave (km/s) = 3.60001 3.82768 3.71559
# Velocity P-wave (km/s) = 5.65794 6.25384 5.96334
#
# Compressibility (1/GPa) = 0.02819640
#
# Stress axis : x y z
#
# Youngs Moduli (GPa) = 52.88842 65.99355 141.35658
#
# Poissons Ratio (x) = 0.06368 0.36578
# Poissons Ratio (y) = 0.05103 0.41231
# Poissons Ratio (z) = 0.13686 0.19249
#
# Static dielectric constant tensor:
#      x y z
#    x 2.015250 0.000000 0.000000 
#    y 0.000000 1.933860 0.000000 
#    z 0.000000 0.000000 1.938070 
# 
# From -- ./inp_files/6542.got.cif
#   From: 2010.05.17/outbox.cif.g08.bks.cpg/sg33_4_cif.got.tgz:6542.got - 2010.06.03 17:15:25.
