data_PCOD9344493
_publ_section_title
;
Structure prediction by ZEFSAII (Michael W. Deem and Ramdas Pophale) SiO2 
 PCOD9344493
Probable space group: P N A 21
;
_chemical_formula_sum "Si O2"
_cell_formula_units_Z 28
_cell_length_a 19.560657
_cell_length_b 11.878516
_cell_length_c 5.891056
_cell_angle_alpha 90.000000
_cell_angle_beta 90.000000
_cell_angle_gamma 90.000000
_cell_volume 1368.796153
_symmetry_space_group_name_H-M "P N A 21"
_symmetry_group_IT_number 33
_symmetry_cell_setting 'orthorhombic'
loop_
_space_group_symop_operation_xyz
x,y,z
-x,-y,1/2+z
1/2-x,1/2+y,1/2+z
1/2+x,1/2-y,z
loop_
_atom_site_type_symbol
_atom_site_label
_atom_site_fract_x
_atom_site_fract_y
_atom_site_fract_z
Si Si1 0.019087 0.441727 0.799430
Si Si2 0.199555 0.117358 0.565573
Si Si3 0.908267 0.293992 0.646219
Si Si4 0.661447 0.150656 0.682157
Si Si5 0.312814 0.386791 0.886707
Si Si6 0.186415 0.529008 0.366490
Si Si7 0.678232 0.792193 0.761829
O O1 0.099282 0.411812 0.805299
O O2 0.004545 0.506457 0.548858
O O3 0.980251 0.322783 0.754082
O O4 0.152587 0.215358 0.664054
O O5 0.259848 0.185112 0.434737
O O6 0.169543 0.018100 0.411248
O O7 0.239567 0.050226 0.762477
O O8 0.896083 0.287089 0.378637
O O9 0.867019 0.187411 0.744761
O O10 0.867069 0.408505 0.707158
O O11 0.666179 0.095956 0.431086
O O12 0.735693 0.124796 0.790891
O O13 0.311252 0.321360 0.124603
O O14 0.181738 0.603515 0.592650
#
# Coordination Sequence:
#
# PCOD9344493 Si02
#       7
#     4   4   4   4   4   4   4
#     4  12  28  45  72 102 139 182 226 286 352 420
#     4  11  22  34  61  95 125 166 216 274 329 396
#     4  10  22  42  61  93 131 180 213 275 350 408
#     4  12  22  40  64 102 132 169 231 286 336 413
#     4  11  23  37  65  95 131 172 219 280 345 403
#     4  10  19  36  58  94 129 160 209 271 343 384
#     4  10  18  36  65  85 131 165 218 266 341 394
#
# _framework density 20.455929999999999
#
# number of rings (size 3 to 8) (size 9 to 14) (size 15 to 20)
#    0.000    1.143    7.143    1.714    4.000    1.143 
#    0.000    0.000    3.143    0.000    0.000    0.000 
#    0.000    0.000    0.000    0.000    0.000    0.000 
#
# Total GULP energy -155997.227014 kJ/mol
# GULP energy per Si atom -5571.329536 kJ/mol
# Density = 2.040937 g / cm^3
# Si number density = 20.455930 Si / 1000 Ang^3
#
#
#
# Elastic Constant Matrix: (Units=GPa)
#
#
# Indices 1 2 3 4 5 6 
#
# 1 51.3178 15.2133 7.2485 0.0000 0.0000 0.0000
# 2 15.2133 104.5226 12.8976 0.0000 0.0000 0.0000
# 3 7.2485 12.8976 60.2544 0.0000 0.0000 0.0000
# 4 0.0000 0.0000 0.0000 23.7380 0.0000 0.0000
# 5 0.0000 0.0000 0.0000 0.0000 20.4932 0.0000
# 6 0.0000 0.0000 0.0000 0.0000 0.0000 30.0626
#
#
#
# Elastic Compliance Matrix: (Units=1/GPa)
#
#
# Indices 1 2 3 4 5 6 
#
# 1 0.020571 -0.002762 -0.001884 0.000000 0.000000 0.000000
# 2 -0.002762 0.010198 -0.001851 0.000000 0.000000 0.000000
# 3 -0.001884 -0.001851 0.017219 0.000000 0.000000 0.000000
# 4 0.000000 0.000000 0.000000 0.042127 0.000000 0.000000
# 5 0.000000 0.000000 0.000000 0.000000 0.048797 0.000000
# 6 0.000000 0.000000 0.000000 0.000000 0.000000 0.033264
#
#
# Mechanical properties :
#
#
# Convention : Reuss Voigt Hill
#
# Bulk Modulus (GPa) = 28.57459 31.86819 30.22139
# Shear Modulus (GPa) = 25.40238 26.90779 26.15508
#
# Velocity S-wave (km/s) = 3.52776 3.63078 3.57964
# Velocity P-wave (km/s) = 5.53106 5.76104 5.64722
#
# Compressibility (1/GPa) = 0.03499613
#
# Stress axis : x y z
#
# Youngs Moduli (GPa) = 48.61175 98.06195 58.07539
#
# Poissons Ratio (x) = 0.27082 0.10939
# Poissons Ratio (y) = 0.13425 0.10747
# Poissons Ratio (z) = 0.09156 0.18147
#
# Static dielectric constant tensor:
#      x y z
#    x 1.795420 0.000000 0.000000 
#    y 0.000000 1.768740 0.000000 
#    z 0.000000 0.000000 1.834860 
# 
# From -- ./inp_files/1756.got.cif
#   From: 2010.05.17/outbox.cif.g08.bks.cpg/sg33_1_cif.got.tgz:1756.got - 2010.06.03 17:15:25.
