data_PCOD9344494
_publ_section_title
;
Structure prediction by ZEFSAII (Michael W. Deem and Ramdas Pophale) SiO2 
 PCOD9344494
Probable space group: P N A 21
;
_chemical_formula_sum "Si O2"
_cell_formula_units_Z 32
_cell_length_a 16.294548
_cell_length_b 5.187792
_cell_length_c 18.038863
_cell_angle_alpha 90.000000
_cell_angle_beta 90.000000
_cell_angle_gamma 90.000000
_cell_volume 1524.874259
_symmetry_space_group_name_H-M "P N A 21"
_symmetry_group_IT_number 33
_symmetry_cell_setting 'orthorhombic'
loop_
_space_group_symop_operation_xyz
x,y,z
-x,-y,1/2+z
1/2-x,1/2+y,1/2+z
1/2+x,1/2-y,z
loop_
_atom_site_type_symbol
_atom_site_label
_atom_site_fract_x
_atom_site_fract_y
_atom_site_fract_z
Si Si1 0.180021 0.752827 0.471330
Si Si2 0.300420 0.756165 0.871348
Si Si3 0.021947 0.959152 0.544555
Si Si4 0.864243 0.993188 0.338799
Si Si5 0.644529 0.191851 0.986103
Si Si6 0.025169 0.671554 0.930962
Si Si7 0.519117 0.480658 0.717899
Si Si8 0.949293 0.509138 0.789131
O O1 0.188971 0.471126 0.435631
O O2 0.097352 0.780938 0.518786
O O3 0.264358 0.798814 0.518057
O O4 0.180738 0.976483 0.406715
O O5 0.208621 0.798575 0.839836
O O6 0.363279 0.854879 0.808592
O O7 0.931661 0.840904 0.524324
O O8 0.031844 0.208801 0.492475
O O9 0.024835 0.028036 0.630010
O O10 0.946599 0.109560 0.374671
O O11 0.842234 0.785136 0.400906
O O12 0.894607 0.909465 0.258449
O O13 0.606422 0.911918 0.974703
O O14 0.988260 0.470607 0.872352
O O15 0.496250 0.775046 0.740288
O O16 0.455320 0.265011 0.748466
#
# Coordination Sequence:
#
# PCOD9344494 Si02
#       8
#     4   4   4   4   4   4   4   4
#     4  11  23  39  66 101 124 160 224 275 321 377
#     4  11  21  38  67  98 118 157 221 281 309 375
#     4  11  25  40  63  95 133 179 209 272 332 395
#     4   9  20  37  60  90 122 162 211 266 319 373
#     4  10  20  39  66  93 126 167 222 273 317 383
#     4  10  18  36  67  86 119 166 214 261 315 374
#     4  11  25  41  59  92 132 173 207 257 335 390
#     4  11  22  40  64  91 122 166 218 261 312 389
#
# _framework density 20.985337999999999
#
# number of rings (size 3 to 8) (size 9 to 14) (size 15 to 20)
#    0.000    1.500    3.750    1.500    3.500    0.000 
#    2.250    0.000    0.000    0.000    0.000    0.000 
#    0.000    0.000    0.000    0.000    0.000    0.000 
#
# Total GULP energy -178252.828538 kJ/mol
# GULP energy per Si atom -5570.400892 kJ/mol
# Density = 2.093757 g / cm^3
# Si number density = 20.985338 Si / 1000 Ang^3
#
#
#
# Elastic Constant Matrix: (Units=GPa)
#
#
# Indices 1 2 3 4 5 6 
#
# 1 96.7355 9.7965 39.3504 0.0000 0.0000 0.0000
# 2 9.7965 74.9736 15.8994 0.0000 0.0000 0.0000
# 3 39.3504 15.8994 117.4471 0.0000 0.0000 0.0000
# 4 0.0000 0.0000 0.0000 20.5986 0.0000 0.0000
# 5 0.0000 0.0000 0.0000 0.0000 14.2916 0.0000
# 6 0.0000 0.0000 0.0000 0.0000 0.0000 31.8113
#
#
#
# Elastic Compliance Matrix: (Units=1/GPa)
#
#
# Indices 1 2 3 4 5 6 
#
# 1 0.012008 -0.000737 -0.003924 0.000000 0.000000 0.000000
# 2 -0.000737 0.013777 -0.001618 0.000000 0.000000 0.000000
# 3 -0.003924 -0.001618 0.010048 0.000000 0.000000 0.000000
# 4 0.000000 0.000000 0.000000 0.048547 0.000000 0.000000
# 5 0.000000 0.000000 0.000000 0.000000 0.069971 0.000000
# 6 0.000000 0.000000 0.000000 0.000000 0.000000 0.031435
#
#
# Mechanical properties :
#
#
# Convention : Reuss Voigt Hill
#
# Bulk Modulus (GPa) = 42.96218 46.58318 44.77268
# Shear Modulus (GPa) = 24.25968 28.28098 26.27033
#
# Velocity S-wave (km/s) = 3.40373 3.67502 3.54198
# Velocity P-wave (km/s) = 5.99701 6.34459 6.17325
#
# Compressibility (1/GPa) = 0.02327628
#
# Stress axis : x y z
#
# Youngs Moduli (GPa) = 83.27699 72.58216 99.52130
#
# Poissons Ratio (x) = 0.05349 0.39047
# Poissons Ratio (y) = 0.06138 0.16104
# Poissons Ratio (z) = 0.32674 0.11745
#
# Static dielectric constant tensor:
#      x y z
#    x 1.910240 0.000000 0.000000 
#    y 0.000000 1.814410 0.000000 
#    z 0.000000 0.000000 1.743160 
# 
# From -- ./inp_files/8257.got.cif
#   From: 2010.05.17/outbox.cif.g08.bks.cpg/sg33_5_cif.got.tgz:8257.got - 2010.06.03 17:15:25.
