data_PCOD9344600
_publ_section_title
;
Structure prediction by ZEFSAII (Michael W. Deem and Ramdas Pophale) SiO2 
 PCOD9344600
Probable space group: P N A 21
;
_chemical_formula_sum "Si O2"
_cell_formula_units_Z 20
_cell_length_a 13.986575
_cell_length_b 14.643079
_cell_length_c 5.019843
_cell_angle_alpha 90.000000
_cell_angle_beta 90.000000
_cell_angle_gamma 90.000000
_cell_volume 1028.096589
_symmetry_space_group_name_H-M "P N A 21"
_symmetry_group_IT_number 33
_symmetry_cell_setting 'orthorhombic'
loop_
_space_group_symop_operation_xyz
x,y,z
-x,-y,1/2+z
1/2-x,1/2+y,1/2+z
1/2+x,1/2-y,z
loop_
_atom_site_type_symbol
_atom_site_label
_atom_site_fract_x
_atom_site_fract_y
_atom_site_fract_z
Si Si1 0.408121 0.812202 0.950840
Si Si2 0.524536 0.379467 0.606014
Si Si3 0.547317 0.958487 0.066238
Si Si4 0.689242 0.102376 0.951134
Si Si5 0.094258 0.915523 0.605344
O O1 0.413144 0.706644 0.021378
O O2 0.513547 0.856724 0.998762
O O3 0.372000 0.836158 0.657194
O O4 0.338933 0.865214 0.156930
O O5 0.482075 0.371948 0.901568
O O6 0.580406 0.475086 0.583226
O O7 0.435774 0.387261 0.401332
O O8 0.478705 0.018764 0.870778
O O9 0.650827 0.998745 0.998945
O O10 0.799589 0.110133 0.020945
#
# Coordination Sequence:
#
# PCOD9344600 Si02
#       5
#     4   4   4   4   4
#     4  10  19  35  59  80 111 141 181 225 272 322
#     4  10  21  38  59  76 113 153 180 218 278 331
#     4   8  16  30  51  75 105 141 162 212 277 312
#     4  10  19  35  55  82 113 137 183 230 266 318
#     4  10  21  38  56  79 112 150 182 221 275 325
#
# _framework density 19.453426
#
# number of rings (size 3 to 8) (size 9 to 14) (size 15 to 20)
#    0.000    2.400    0.000    2.400    0.000    0.000 
#    7.200    0.000    0.000    0.000    0.000    0.000 
#    0.000    0.000    0.000    0.000    0.000    0.000 
#
# Total GULP energy -111547.528898 kJ/mol
# GULP energy per Si atom -5577.376445 kJ/mol
# Density = 1.940915 g / cm^3
# Si number density = 19.453426 Si / 1000 Ang^3
#
#
#
# Elastic Constant Matrix: (Units=GPa)
#
#
# Indices 1 2 3 4 5 6 
#
# 1 42.8397 0.9460 -15.0911 0.0000 0.0000 0.0000
# 2 0.9460 43.0881 -3.4907 0.0000 0.0000 0.0000
# 3 -15.0911 -3.4907 61.6358 0.0000 0.0000 0.0000
# 4 0.0000 0.0000 0.0000 17.3190 0.0000 0.0000
# 5 0.0000 0.0000 0.0000 0.0000 15.9254 0.0000
# 6 0.0000 0.0000 0.0000 0.0000 0.0000 6.9296
#
#
#
# Elastic Compliance Matrix: (Units=1/GPa)
#
#
# Indices 1 2 3 4 5 6 
#
# 1 0.025546 -0.000054 0.006252 0.000000 0.000000 0.000000
# 2 -0.000054 0.023315 0.001307 0.000000 0.000000 0.000000
# 3 0.006252 0.001307 0.017829 0.000000 0.000000 0.000000
# 4 0.000000 0.000000 0.000000 0.057740 0.000000 0.000000
# 5 0.000000 0.000000 0.000000 0.000000 0.062793 0.000000
# 6 0.000000 0.000000 0.000000 0.000000 0.000000 0.144309
#
#
# Mechanical properties :
#
#
# Convention : Reuss Voigt Hill
#
# Bulk Modulus (GPa) = 12.23994 12.47689 12.35841
# Shear Modulus (GPa) = 14.54517 19.04810 16.79663
#
# Velocity S-wave (km/s) = 2.73736 3.13255 2.94160
# Velocity P-wave (km/s) = 4.03689 4.41718 4.23131
#
# Compressibility (1/GPa) = 0.08169977
#
# Stress axis : x y z
#
# Youngs Moduli (GPa) = 39.14454 42.89020 56.08818
#
# Poissons Ratio (x) = 0.00233 -0.35065
# Poissons Ratio (y) = 0.00213 -0.07331
# Poissons Ratio (z) = -0.24472 -0.05606
#
# Static dielectric constant tensor:
#      x y z
#    x 1.669390 0.000000 0.000000 
#    y 0.000000 1.692820 0.000000 
#    z 0.000000 0.000000 1.660680 
# 
# From -- ./inp_files/687.got.cif
#   From: 2010.05.17/outbox.cif.g08.bks.cpg/sg33_1_cif.got.tgz:687.got - 2010.06.03 17:15:25.
