data_PCOD9344742
_publ_section_title
;
Structure prediction by ZEFSAII (Michael W. Deem and Ramdas Pophale) SiO2 
 PCOD9344742
Probable space group: P N A 21
;
_chemical_formula_sum "Si O2"
_cell_formula_units_Z 24
_cell_length_a 15.101540
_cell_length_b 5.312433
_cell_length_c 12.302161
_cell_angle_alpha 90.000000
_cell_angle_beta 90.000000
_cell_angle_gamma 90.000000
_cell_volume 986.952177
_symmetry_space_group_name_H-M "P N A 21"
_symmetry_group_IT_number 33
_symmetry_cell_setting 'orthorhombic'
loop_
_space_group_symop_operation_xyz
x,y,z
-x,-y,1/2+z
1/2-x,1/2+y,1/2+z
1/2+x,1/2-y,z
loop_
_atom_site_type_symbol
_atom_site_label
_atom_site_fract_x
_atom_site_fract_y
_atom_site_fract_z
Si Si1 0.477078 0.105480 0.845310
Si Si2 0.127008 0.138129 0.601762
Si Si3 0.056523 0.897007 0.802384
Si Si4 0.922266 0.184664 0.557606
Si Si5 0.129159 0.313927 0.026147
Si Si6 0.684136 0.871975 0.485079
O O1 0.481005 0.388131 0.801082
O O2 0.545363 0.134586 0.947581
O O3 0.519347 0.880446 0.773890
O O4 0.379377 0.043858 0.886879
O O5 0.182418 0.384701 0.566030
O O6 0.025600 0.219730 0.579205
O O7 0.140934 0.883417 0.532892
O O8 0.128877 0.025174 0.723989
O O9 0.088098 0.859030 0.926585
O O10 0.863835 0.423051 0.588796
O O11 0.892236 0.918012 0.603265
O O12 0.217607 0.231443 0.964116
#
# Coordination Sequence:
#
# PCOD9344742 Si02
#       6
#     4   4   4   4   4   4
#     4  10  19  40  59  88 124 163 208 250 316 377
#     4  12  21  37  65  93 124 168 209 262 315 374
#     4  10  20  35  64  87 122 166 203 254 312 370
#     4  10  19  40  59  86 127 166 204 249 324 372
#     4  10  20  35  64  85 121 167 201 257 313 367
#     4  12  21  37  65  93 120 166 217 256 314 380
#
# _framework density 24.317288999999999
#
# number of rings (size 3 to 8) (size 9 to 14) (size 15 to 20)
#    0.000    1.333    6.667    2.000    0.000    0.000 
#    0.000    0.000   29.333    0.000    0.000    0.000 
#    0.000    0.000    0.000    0.000    0.000    0.000 
#
# Total GULP energy -133790.091173 kJ/mol
# GULP energy per Si atom -5574.587132 kJ/mol
# Density = 2.426194 g / cm^3
# Si number density = 24.317289 Si / 1000 Ang^3
#
#
#
# Elastic Constant Matrix: (Units=GPa)
#
#
# Indices 1 2 3 4 5 6 
#
# 1 88.8535 29.0870 -2.7904 0.0000 0.0000 0.0000
# 2 29.0870 237.0353 15.5848 0.0000 0.0000 0.0000
# 3 -2.7904 15.5848 54.3646 0.0000 0.0000 0.0000
# 4 0.0000 0.0000 0.0000 30.7862 0.0000 0.0000
# 5 0.0000 0.0000 0.0000 0.0000 8.5921 0.0000
# 6 0.0000 0.0000 0.0000 0.0000 0.0000 42.6548
#
#
#
# Elastic Compliance Matrix: (Units=1/GPa)
#
#
# Indices 1 2 3 4 5 6 
#
# 1 0.011783 -0.001514 0.001039 0.000000 0.000000 0.000000
# 2 -0.001514 0.004494 -0.001366 0.000000 0.000000 0.000000
# 3 0.001039 -0.001366 0.018839 0.000000 0.000000 0.000000
# 4 0.000000 0.000000 0.000000 0.032482 0.000000 0.000000
# 5 0.000000 0.000000 0.000000 0.000000 0.116386 0.000000
# 6 0.000000 0.000000 0.000000 0.000000 0.000000 0.023444
#
#
# Mechanical properties :
#
#
# Convention : Reuss Voigt Hill
#
# Bulk Modulus (GPa) = 31.81315 51.55735 41.68525
# Shear Modulus (GPa) = 22.56427 38.96477 30.76452
#
# Velocity S-wave (km/s) = 3.04947 4.00728 3.56072
# Velocity P-wave (km/s) = 5.05073 6.53138 5.83819
#
# Compressibility (1/GPa) = 0.03143354
#
# Stress axis : x y z
#
# Youngs Moduli (GPa) = 84.86958 222.49856 53.08057
#
# Poissons Ratio (x) = 0.33690 -0.05514
# Poissons Ratio (y) = 0.12851 0.07252
# Poissons Ratio (z) = -0.08817 0.30396
#
# Static dielectric constant tensor:
#      x y z
#    x 1.959990 0.000000 0.000000 
#    y 0.000000 2.066500 0.000000 
#    z 0.000000 0.000000 2.085710 
# 
# From -- ./inp_files/8063.got.cif
#   From: 2010.05.17/outbox.cif.g08.bks.cpg/sg33_5_cif.got.tgz:8063.got - 2010.06.03 17:15:25.
