data_PCOD9344941
_publ_section_title
;
Structure prediction by ZEFSAII (Michael W. Deem and Ramdas Pophale) SiO2 
 PCOD9344941
Probable space group: P N A 21
;
_chemical_formula_sum "Si O2"
_cell_formula_units_Z 20
_cell_length_a 5.278263
_cell_length_b 10.341976
_cell_length_c 14.107260
_cell_angle_alpha 90.000000
_cell_angle_beta 90.000000
_cell_angle_gamma 90.000000
_cell_volume 770.082443
_symmetry_space_group_name_H-M "P N A 21"
_symmetry_group_IT_number 33
_symmetry_cell_setting 'orthorhombic'
loop_
_space_group_symop_operation_xyz
x,y,z
-x,-y,1/2+z
1/2-x,1/2+y,1/2+z
1/2+x,1/2-y,z
loop_
_atom_site_type_symbol
_atom_site_label
_atom_site_fract_x
_atom_site_fract_y
_atom_site_fract_z
Si Si1 0.688149 0.452927 0.882230
Si Si2 0.005005 0.330740 0.040216
Si Si3 0.416480 0.074266 0.250854
Si Si4 0.315930 0.782811 0.235512
Si Si5 0.155892 0.177280 0.419767
O O1 0.646332 0.315486 0.826174
O O2 0.463135 0.533396 0.932051
O O3 0.820649 0.547074 0.805735
O O4 0.905747 0.425988 0.959311
O O5 0.792970 0.216815 0.030953
O O6 0.963891 0.387772 0.144017
O O7 0.228386 0.168897 0.306809
O O8 0.287364 0.932624 0.256293
O O9 0.576747 0.768877 0.180998
O O10 0.429971 0.228295 0.453229
#
# Coordination Sequence:
#
# PCOD9344941 Si02
#       5
#     4   4   4   4   4
#     4  11  25  47  75 108 149 202 257 309 374 454
#     4  12  29  46  75 116 154 195 262 318 373 458
#     4  11  24  45  74 110 151 193 248 313 383 441
#     4  10  20  37  68  97 130 185 239 293 350 432
#     4  12  24  41  70 101 142 195 242 299 376 445
#
# _framework density 25.971247000000002
#
# number of rings (size 3 to 8) (size 9 to 14) (size 15 to 20)
#    0.000    0.800    4.000    3.600    5.600    0.000 
#    0.000    4.000    0.000    0.000    0.000    0.000 
#    0.000    0.000    0.000    0.000    0.000    0.000 
#
# Total GULP energy -111715.843167 kJ/mol
# GULP energy per Si atom -5585.792158 kJ/mol
# Density = 2.591214 g / cm^3
# Si number density = 25.971247 Si / 1000 Ang^3
#
#
#
# Elastic Constant Matrix: (Units=GPa)
#
#
# Indices 1 2 3 4 5 6 
#
# 1 112.0224 19.5236 -14.1702 0.0000 0.0000 0.0000
# 2 19.5236 145.0113 19.7890 0.0000 0.0000 0.0000
# 3 -14.1702 19.7890 63.0980 0.0000 0.0000 0.0000
# 4 0.0000 0.0000 0.0000 22.6411 0.0000 0.0000
# 5 0.0000 0.0000 0.0000 0.0000 16.0917 0.0000
# 6 0.0000 0.0000 0.0000 0.0000 0.0000 59.4027
#
#
#
# Elastic Compliance Matrix: (Units=1/GPa)
#
#
# Indices 1 2 3 4 5 6 
#
# 1 0.009551 -0.001649 0.002662 0.000000 0.000000 0.000000
# 2 -0.001649 0.007489 -0.002719 0.000000 0.000000 0.000000
# 3 0.002662 -0.002719 0.017299 0.000000 0.000000 0.000000
# 4 0.000000 0.000000 0.000000 0.044167 0.000000 0.000000
# 5 0.000000 0.000000 0.000000 0.000000 0.062144 0.000000
# 6 0.000000 0.000000 0.000000 0.000000 0.000000 0.016834
#
#
# Mechanical properties :
#
#
# Convention : Reuss Voigt Hill
#
# Bulk Modulus (GPa) = 32.33452 41.15738 36.74595
# Shear Modulus (GPa) = 29.20461 39.29305 34.24883
#
# Velocity S-wave (km/s) = 3.35699 3.89388 3.63536
# Velocity P-wave (km/s) = 5.24433 6.00817 5.63920
#
# Compressibility (1/GPa) = 0.03092670
#
# Stress axis : x y z
#
# Youngs Moduli (GPa) = 104.70158 133.52712 57.80683
#
# Poissons Ratio (x) = 0.22021 -0.15389
# Poissons Ratio (y) = 0.17267 0.15718
# Poissons Ratio (z) = -0.27873 0.36308
#
# Static dielectric constant tensor:
#      x y z
#    x 2.138940 0.000000 0.000000 
#    y 0.000000 2.113000 0.000000 
#    z 0.000000 0.000000 1.983210 
# 
# From -- ./inp_files/7376.got.cif
#   From: 2010.05.17/outbox.cif.g08.bks.cpg/sg33_4_cif.got.tgz:7376.got - 2010.06.03 17:15:25.
