data_PCOD9344758
_publ_section_title
;
Structure prediction by ZEFSAII (Michael W. Deem and Ramdas Pophale) SiO2 
 PCOD9344758
Probable space group: P N A 21
;
_chemical_formula_sum "Si O2"
_cell_formula_units_Z 28
_cell_length_a 10.870763
_cell_length_b 14.220620
_cell_length_c 9.113592
_cell_angle_alpha 90.000000
_cell_angle_beta 90.000000
_cell_angle_gamma 90.000000
_cell_volume 1408.860980
_symmetry_space_group_name_H-M "P N A 21"
_symmetry_group_IT_number 33
_symmetry_cell_setting 'orthorhombic'
loop_
_space_group_symop_operation_xyz
x,y,z
-x,-y,1/2+z
1/2-x,1/2+y,1/2+z
1/2+x,1/2-y,z
loop_
_atom_site_type_symbol
_atom_site_label
_atom_site_fract_x
_atom_site_fract_y
_atom_site_fract_z
Si Si1 0.975859 0.722780 0.354260
Si Si2 0.461564 0.438689 0.896560
Si Si3 0.227280 0.367687 0.067999
Si Si4 0.525053 0.067388 0.274454
Si Si5 0.911625 0.605425 0.106183
Si Si6 0.162505 0.987118 0.093485
Si Si7 0.333736 0.171322 0.089462
O O1 0.866030 0.668810 0.440379
O O2 0.957523 0.700102 0.183066
O O3 0.979287 0.834394 0.380234
O O4 0.101200 0.684505 0.430340
O O5 0.411448 0.476570 0.743692
O O6 0.342126 0.423079 0.000063
O O7 0.563299 0.506691 0.965092
O O8 0.154645 0.425863 0.190388
O O9 0.273362 0.269112 0.133133
O O10 0.534966 0.079560 0.447533
O O11 0.442200 0.148573 0.202854
O O12 0.459131 0.972532 0.222236
O O13 0.765006 0.594521 0.089864
O O14 0.240607 0.084251 0.089346
#
# Coordination Sequence:
#
# PCOD9344758 Si02
#       7
#     4   4   4   4   4   4   4
#     4  10  20  43  67  88 117 171 214 256 310 371
#     4  11  24  40  63  92 129 166 204 256 320 373
#     4  10  19  41  64  86 125 170 204 253 312 374
#     4  10  22  37  65  92 121 162 209 264 304 369
#     4  11  22  42  65  92 122 160 220 261 309 371
#     4  11  23  40  61  91 128 162 204 259 316 376
#     4   9  20  39  65  89 122 163 211 251 311 372
#
# _framework density 19.874210999999999
#
# number of rings (size 3 to 8) (size 9 to 14) (size 15 to 20)
#    0.000    1.714    2.857    2.571    4.000    0.000 
#    5.143    0.000    0.000    0.000    0.000    0.000 
#    0.000    0.000    0.000    0.000    0.000    0.000 
#
# Total GULP energy -156316.400172 kJ/mol
# GULP energy per Si atom -5582.728578 kJ/mol
# Density = 1.982898 g / cm^3
# Si number density = 19.874211 Si / 1000 Ang^3
#
#
#
# Elastic Constant Matrix: (Units=GPa)
#
#
# Indices 1 2 3 4 5 6 
#
# 1 84.1757 16.0282 35.4052 0.0000 0.0000 0.0000
# 2 16.0282 30.8003 10.4585 0.0000 0.0000 0.0000
# 3 35.4052 10.4585 108.5116 0.0000 0.0000 0.0000
# 4 0.0000 0.0000 0.0000 22.5526 0.0000 0.0000
# 5 0.0000 0.0000 0.0000 0.0000 21.8369 0.0000
# 6 0.0000 0.0000 0.0000 0.0000 0.0000 10.6385
#
#
#
# Elastic Compliance Matrix: (Units=1/GPa)
#
#
# Indices 1 2 3 4 5 6 
#
# 1 0.014863 -0.006294 -0.004243 0.000000 0.000000 0.000000
# 2 -0.006294 0.036231 -0.001438 0.000000 0.000000 0.000000
# 3 -0.004243 -0.001438 0.010739 0.000000 0.000000 0.000000
# 4 0.000000 0.000000 0.000000 0.044341 0.000000 0.000000
# 5 0.000000 0.000000 0.000000 0.000000 0.045794 0.000000
# 6 0.000000 0.000000 0.000000 0.000000 0.000000 0.093998
#
#
# Mechanical properties :
#
#
# Convention : Reuss Voigt Hill
#
# Bulk Modulus (GPa) = 26.39765 38.58572 32.49169
# Shear Modulus (GPa) = 17.69640 21.77864 19.73752
#
# Velocity S-wave (km/s) = 2.98723 3.31392 3.15480
# Velocity P-wave (km/s) = 5.02088 5.83951 5.44560
#
# Compressibility (1/GPa) = 0.03788216
#
# Stress axis : x y z
#
# Youngs Moduli (GPa) = 67.28142 27.60075 93.12197
#
# Poissons Ratio (x) = 0.17371 0.39510
# Poissons Ratio (y) = 0.42346 0.13395
# Poissons Ratio (z) = 0.28547 0.03970
#
# Static dielectric constant tensor:
#      x y z
#    x 1.722230 0.000000 0.000000 
#    y 0.000000 1.702620 0.000000 
#    z 0.000000 0.000000 1.703460 
# 
# From -- ./inp_files/3889.got.cif
#   From: 2010.05.17/outbox.cif.g08.bks.cpg/sg33_2_cif.got.tgz:3889.got - 2010.06.03 17:15:25.
