data_PCOD9344443
_publ_section_title
;
Structure prediction by ZEFSAII (Michael W. Deem and Ramdas Pophale) SiO2 
 PCOD9344443
Probable space group: P N A 21
;
_chemical_formula_sum "Si O2"
_cell_formula_units_Z 28
_cell_length_a 26.991834
_cell_length_b 8.005861
_cell_length_c 5.119007
_cell_angle_alpha 90.000000
_cell_angle_beta 90.000000
_cell_angle_gamma 90.000000
_cell_volume 1106.180920
_symmetry_space_group_name_H-M "P N A 21"
_symmetry_group_IT_number 33
_symmetry_cell_setting 'orthorhombic'
loop_
_space_group_symop_operation_xyz
x,y,z
-x,-y,1/2+z
1/2-x,1/2+y,1/2+z
1/2+x,1/2-y,z
loop_
_atom_site_type_symbol
_atom_site_label
_atom_site_fract_x
_atom_site_fract_y
_atom_site_fract_z
Si Si1 0.386835 0.012130 0.316650
Si Si2 0.487923 0.114053 0.270774
Si Si3 0.802247 0.156607 0.842843
Si Si4 0.426429 0.678433 0.589162
Si Si5 0.842124 0.729000 0.970516
Si Si6 0.213455 0.497390 0.133962
Si Si7 0.644935 0.525607 0.821195
O O1 0.414503 0.849213 0.434365
O O2 0.337494 0.034645 0.480839
O O3 0.368179 0.946826 0.039615
O O4 0.429749 0.147489 0.316381
O O5 0.490959 0.985648 0.023143
O O6 0.520295 0.278853 0.209363
O O7 0.780383 0.340555 0.810627
O O8 0.825366 0.094094 0.570468
O O9 0.757683 0.038488 0.937001
O O10 0.842931 0.144202 0.075432
O O11 0.383851 0.673376 0.809333
O O12 0.411041 0.524598 0.405259
O O13 0.795312 0.669492 0.806297
O O14 0.833687 0.844215 0.222085
#
# Coordination Sequence:
#
# PCOD9344443 Si02
#       7
#     4   4   4   4   4   4   4
#     4   9  20  37  63 100 146 176 226 289 352 408
#     4  10  18  32  59 105 143 173 219 285 355 413
#     4  12  30  48  69 101 142 192 243 293 361 423
#     4   9  18  36  67 103 138 176 224 289 350 415
#     4  10  20  44  72 102 137 182 229 291 347 411
#     4  11  29  46  70 103 143 191 240 298 355 427
#     4  11  25  45  70 102 137 184 235 297 350 423
#
# _framework density 25.312317
#
# number of rings (size 3 to 8) (size 9 to 14) (size 15 to 20)
#    0.000    1.714    2.857    0.000   10.000    0.000 
#    0.000    0.000    0.000    0.000    7.429    0.000 
#    0.000    0.000    0.000    0.000    0.000    0.000 
#
# Total GULP energy -156540.344591 kJ/mol
# GULP energy per Si atom -5590.726593 kJ/mol
# Density = 2.525471 g / cm^3
# Si number density = 25.312317 Si / 1000 Ang^3
#
#
#
# Elastic Constant Matrix: (Units=GPa)
#
#
# Indices 1 2 3 4 5 6 
#
# 1 46.2715 6.6999 -4.9894 0.0000 0.0000 0.0000
# 2 6.6999 89.5500 15.4919 0.0000 0.0000 0.0000
# 3 -4.9894 15.4919 118.7378 0.0000 0.0000 0.0000
# 4 0.0000 0.0000 0.0000 37.2014 0.0000 0.0000
# 5 0.0000 0.0000 0.0000 0.0000 30.2566 0.0000
# 6 0.0000 0.0000 0.0000 0.0000 0.0000 20.5460
#
#
#
# Elastic Compliance Matrix: (Units=1/GPa)
#
#
# Indices 1 2 3 4 5 6 
#
# 1 0.022005 -0.001848 0.001166 0.000000 0.000000 0.000000
# 2 -0.001848 0.011580 -0.001589 0.000000 0.000000 0.000000
# 3 0.001166 -0.001589 0.008678 0.000000 0.000000 0.000000
# 4 0.000000 0.000000 0.000000 0.026881 0.000000 0.000000
# 5 0.000000 0.000000 0.000000 0.000000 0.033051 0.000000
# 6 0.000000 0.000000 0.000000 0.000000 0.000000 0.048671
#
#
# Mechanical properties :
#
#
# Convention : Reuss Voigt Hill
#
# Bulk Modulus (GPa) = 26.51008 32.10711 29.30860
# Shear Modulus (GPa) = 29.76526 33.42459 31.59492
#
# Velocity S-wave (km/s) = 3.43289 3.63779 3.53683
# Velocity P-wave (km/s) = 5.11946 5.50969 5.31815
#
# Compressibility (1/GPa) = 0.03772150
#
# Stress axis : x y z
#
# Youngs Moduli (GPa) = 45.44451 86.35559 115.23176
#
# Poissons Ratio (x) = 0.15959 -0.13433
# Poissons Ratio (y) = 0.08398 0.18305
# Poissons Ratio (z) = -0.05298 0.13718
#
# Static dielectric constant tensor:
#      x y z
#    x 2.056890 0.000000 0.000000 
#    y 0.000000 2.053370 0.000000 
#    z 0.000000 0.000000 2.061880 
# 
# From -- ./inp_files/2509.got.cif
#   From: 2010.05.17/outbox.cif.g08.bks.cpg/sg33_2_cif.got.tgz:2509.got - 2010.06.03 17:15:25.
