data_PCOD9344996
_publ_section_title
;
Structure prediction by ZEFSAII (Michael W. Deem and Ramdas Pophale) SiO2 
 PCOD9344996
Probable space group: P N A 21
;
_chemical_formula_sum "Si O2"
_cell_formula_units_Z 32
_cell_length_a 16.373583
_cell_length_b 11.592911
_cell_length_c 7.487479
_cell_angle_alpha 90.000000
_cell_angle_beta 90.000000
_cell_angle_gamma 90.000000
_cell_volume 1421.254474
_symmetry_space_group_name_H-M "P N A 21"
_symmetry_group_IT_number 33
_symmetry_cell_setting 'orthorhombic'
loop_
_space_group_symop_operation_xyz
x,y,z
-x,-y,1/2+z
1/2-x,1/2+y,1/2+z
1/2+x,1/2-y,z
loop_
_atom_site_type_symbol
_atom_site_label
_atom_site_fract_x
_atom_site_fract_y
_atom_site_fract_z
Si Si1 0.563036 0.467156 0.591030
Si Si2 0.037059 0.286809 0.570891
Si Si3 0.394149 0.913357 0.364097
Si Si4 0.366724 0.800615 0.702337
Si Si5 0.778772 0.178058 0.736617
Si Si6 0.883722 0.960976 0.678370
Si Si7 0.142685 0.675479 0.950638
Si Si8 0.186813 0.841422 0.642666
O O1 0.560800 0.335843 0.659785
O O2 0.595357 0.460840 0.389158
O O3 0.471282 0.516570 0.588449
O O4 0.625320 0.554179 0.685476
O O5 0.041238 0.392514 0.708346
O O6 0.092596 0.306771 0.395900
O O7 0.944398 0.274393 0.509043
O O8 0.422310 0.852786 0.546301
O O9 0.314853 0.849049 0.280829
O O10 0.367826 0.041237 0.413985
O O11 0.350957 0.667500 0.646993
O O12 0.281206 0.868351 0.687733
O O13 0.820619 0.064866 0.647452
O O14 0.793979 0.284526 0.603960
O O15 0.819122 0.190317 0.932900
O O16 0.166179 0.734861 0.766692
#
# Coordination Sequence:
#
# PCOD9344996 Si02
#       8
#     4   4   4   4   4   4   4   4
#     4  10  21  38  66 100 126 170 230 286 344 403
#     4  11  25  44  66 100 139 186 230 291 346 423
#     4  11  27  43  67  99 139 189 228 283 351 435
#     4  10  23  42  66  99 140 176 229 287 350 417
#     4  10  23  44  68  98 133 178 235 292 350 408
#     4  10  20  38  65  98 130 165 226 289 339 406
#     4  12  25  44  70  99 141 186 231 284 359 426
#     4  10  22  41  68 101 134 178 227 292 351 414
#
# _framework density 22.515319000000002
#
# number of rings (size 3 to 8) (size 9 to 14) (size 15 to 20)
#    0.000    1.500    1.250    3.000    3.500    6.000 
#    0.000    3.750    0.000    0.000    0.000    0.000 
#    0.000    0.000    0.000    0.000    0.000    0.000 
#
# Total GULP energy -178930.958486 kJ/mol
# GULP energy per Si atom -5591.592453 kJ/mol
# Density = 2.246407 g / cm^3
# Si number density = 22.515319 Si / 1000 Ang^3
#
#
#
# Elastic Constant Matrix: (Units=GPa)
#
#
# Indices 1 2 3 4 5 6 
#
# 1 41.2243 -1.9806 -9.1146 0.0000 0.0000 0.0000
# 2 -1.9806 87.0343 39.8288 0.0000 0.0000 0.0000
# 3 -9.1146 39.8288 74.9975 0.0000 0.0000 0.0000
# 4 0.0000 0.0000 0.0000 20.2331 0.0000 0.0000
# 5 0.0000 0.0000 0.0000 0.0000 22.7417 0.0000
# 6 0.0000 0.0000 0.0000 0.0000 0.0000 33.9836
#
#
#
# Elastic Compliance Matrix: (Units=1/GPa)
#
#
# Indices 1 2 3 4 5 6 
#
# 1 0.025005 -0.001085 0.003615 0.000000 0.000000 0.000000
# 2 -0.001085 0.015226 -0.008218 0.000000 0.000000 0.000000
# 3 0.003615 -0.008218 0.018137 0.000000 0.000000 0.000000
# 4 0.000000 0.000000 0.000000 0.049424 0.000000 0.000000
# 5 0.000000 0.000000 0.000000 0.000000 0.043972 0.000000
# 6 0.000000 0.000000 0.000000 0.000000 0.000000 0.029426
#
#
# Mechanical properties :
#
#
# Convention : Reuss Voigt Hill
#
# Bulk Modulus (GPa) = 21.28025 28.96925 25.12475
# Shear Modulus (GPa) = 24.01199 27.02654 25.51927
#
# Velocity S-wave (km/s) = 3.26923 3.46838 3.37028
# Velocity P-wave (km/s) = 4.87057 5.37903 5.13110
#
# Compressibility (1/GPa) = 0.04699194
#
# Stress axis : x y z
#
# Youngs Moduli (GPa) = 39.99245 65.67863 55.13491
#
# Poissons Ratio (x) = 0.07129 -0.19933
# Poissons Ratio (y) = 0.04341 0.45309
# Poissons Ratio (z) = -0.14458 0.53973
#
# Static dielectric constant tensor:
#      x y z
#    x 1.866600 0.000000 0.000000 
#    y 0.000000 1.864210 0.000000 
#    z 0.000000 0.000000 1.840850 
# 
# From -- ./inp_files/4837.got.cif
#   From: 2010.05.17/outbox.cif.g08.bks.cpg/sg33_3_cif.got.tgz:4837.got - 2010.06.03 17:15:25.
