data_PCOD9344582
_publ_section_title
;
Structure prediction by ZEFSAII (Michael W. Deem and Ramdas Pophale) SiO2 
 PCOD9344582
Probable space group: P N A 21
;
_chemical_formula_sum "Si O2"
_cell_formula_units_Z 32
_cell_length_a 27.900773
_cell_length_b 5.465090
_cell_length_c 7.865823
_cell_angle_alpha 90.000000
_cell_angle_beta 90.000000
_cell_angle_gamma 90.000000
_cell_volume 1199.382544
_symmetry_space_group_name_H-M "P N A 21"
_symmetry_group_IT_number 33
_symmetry_cell_setting 'orthorhombic'
loop_
_space_group_symop_operation_xyz
x,y,z
-x,-y,1/2+z
1/2-x,1/2+y,1/2+z
1/2+x,1/2-y,z
loop_
_atom_site_type_symbol
_atom_site_label
_atom_site_fract_x
_atom_site_fract_y
_atom_site_fract_z
Si Si1 0.058773 0.256277 0.228870
Si Si2 0.354914 0.563680 0.497305
Si Si3 0.083699 0.673084 0.056533
Si Si4 0.282785 0.831054 0.295723
Si Si5 0.194507 0.072495 0.463336
Si Si6 0.580171 0.190746 0.746201
Si Si7 0.151049 0.568205 0.534306
Si Si8 0.009668 0.014483 0.542441
O O1 0.044475 0.088475 0.388180
O O2 0.108978 0.168946 0.141492
O O3 0.070860 0.543716 0.233578
O O4 0.008975 0.243686 0.115472
O O5 0.362811 0.279871 0.539876
O O6 0.305044 0.696833 0.462552
O O7 0.380064 0.614929 0.312827
O O8 0.075980 0.484376 0.905231
O O9 0.042809 0.869360 0.019584
O O10 0.234019 0.966421 0.337787
O O11 0.318240 0.030575 0.209792
O O12 0.280439 0.627643 0.146307
O O13 0.157155 0.846138 0.477081
O O14 0.172958 0.342417 0.422925
O O15 0.534176 0.340517 0.696856
O O16 0.599487 0.027601 0.592362
#
# Coordination Sequence:
#
# PCOD9344582 Si02
#       8
#     4   4   4   4   4   4   4   4
#     4  10  21  35  54  82 116 152 200 247 304 366
#     4   9  19  39  59  83 114 158 198 250 313 384
#     4  10  19  34  58  82 112 157 206 246 309 375
#     4   9  21  38  65  91 124 164 211 262 325 390
#     4  10  21  38  65  92 126 161 216 262 323 391
#     4  10  20  37  61  82 119 163 204 260 308 385
#     4   9  22  39  63  92 125 168 212 257 329 387
#     4  11  21  36  55  84 118 155 205 254 307 366
#
# _framework density 26.680396999999999
#
# number of rings (size 3 to 8) (size 9 to 14) (size 15 to 20)
#    0.750    1.500    0.000    3.750    1.750    1.000 
#    2.250    0.000    0.000    0.000    0.000    0.000 
#    0.000    0.000    0.000    0.000    0.000    0.000 
#
# Total GULP energy -178435.228357 kJ/mol
# GULP energy per Si atom -5576.100886 kJ/mol
# Density = 2.661967 g / cm^3
# Si number density = 26.680397 Si / 1000 Ang^3
#
#
#
# Elastic Constant Matrix: (Units=GPa)
#
#
# Indices 1 2 3 4 5 6 
#
# 1 29.0022 7.8643 17.5892 0.0000 0.0000 0.0000
# 2 7.8643 85.8618 16.0589 0.0000 0.0000 0.0000
# 3 17.5892 16.0589 97.3951 0.0000 0.0000 0.0000
# 4 0.0000 0.0000 0.0000 17.6078 0.0000 0.0000
# 5 0.0000 0.0000 0.0000 0.0000 37.0450 0.0000
# 6 0.0000 0.0000 0.0000 0.0000 0.0000 32.9128
#
#
#
# Elastic Compliance Matrix: (Units=1/GPa)
#
#
# Indices 1 2 3 4 5 6 
#
# 1 0.039170 -0.002337 -0.006689 0.000000 0.000000 0.000000
# 2 -0.002337 0.012157 -0.001582 0.000000 0.000000 0.000000
# 3 -0.006689 -0.001582 0.011736 0.000000 0.000000 0.000000
# 4 0.000000 0.000000 0.000000 0.056793 0.000000 0.000000
# 5 0.000000 0.000000 0.000000 0.000000 0.026994 0.000000
# 6 0.000000 0.000000 0.000000 0.000000 0.000000 0.030383
#
#
# Mechanical properties :
#
#
# Convention : Reuss Voigt Hill
#
# Bulk Modulus (GPa) = 23.89624 32.80931 28.35277
# Shear Modulus (GPa) = 23.54062 28.89623 26.21843
#
# Velocity S-wave (km/s) = 2.97361 3.29454 3.13818
# Velocity P-wave (km/s) = 4.55694 5.17647 4.87656
#
# Compressibility (1/GPa) = 0.04184760
#
# Stress axis : x y z
#
# Youngs Moduli (GPa) = 25.52949 82.25973 85.20543
#
# Poissons Ratio (x) = 0.19222 0.56992
# Poissons Ratio (y) = 0.05965 0.13483
# Poissons Ratio (z) = 0.17076 0.13017
#
# Static dielectric constant tensor:
#      x y z
#    x 2.071120 0.000000 0.000000 
#    y 0.000000 2.411900 0.000000 
#    z 0.000000 0.000000 2.258770 
# 
# From -- ./inp_files/5362.got.cif
#   From: 2010.05.17/outbox.cif.g08.bks.cpg/sg33_3_cif.got.tgz:5362.got - 2010.06.03 17:15:25.
