data_PCOD9344048
_publ_section_title
;
Structure prediction by ZEFSAII (Michael W. Deem and Ramdas Pophale) SiO2 
 PCOD9344048
Probable space group: P B A 2
;
_chemical_formula_sum "Si O2"
_cell_formula_units_Z 24
_cell_length_a 15.250734
_cell_length_b 9.156269
_cell_length_c 7.401959
_cell_angle_alpha 90.000000
_cell_angle_beta 90.000000
_cell_angle_gamma 90.000000
_cell_volume 1033.608244
_symmetry_space_group_name_H-M "P B A 2"
_symmetry_group_IT_number 32
_symmetry_cell_setting 'orthorhombic'
loop_
_space_group_symop_operation_xyz
x,y,z
-x,-y,z
1/2-x,1/2+y,z
1/2+x,1/2-y,z
loop_
_atom_site_type_symbol
_atom_site_label
_atom_site_fract_x
_atom_site_fract_y
_atom_site_fract_z
Si Si1 0.072814 0.322615 0.475800
Si Si2 0.574858 0.128104 0.872268
Si Si3 0.574858 0.628104 0.615965
Si Si4 0.150090 0.034379 0.297661
Si Si5 0.427186 0.322615 0.012432
Si Si6 0.650090 0.965621 0.190571
O O1 0.093614 0.459397 0.349282
O O2 0.113758 0.344623 0.674859
O O3 0.975537 0.269450 0.536333
O O4 0.110394 0.186325 0.364594
O O5 0.524463 0.269450 0.951899
O O6 0.642978 0.072876 0.018705
O O7 0.500000 0.000000 0.856837
O O8 0.386242 0.344623 0.813373
O O9 0.500000 0.500000 0.631395
O O10 0.642978 0.572876 0.469527
O O11 0.093614 0.959397 0.138950
O O12 0.250000 0.052640 0.244116
O O13 0.389606 0.186325 0.123639
#
# Coordination Sequence:
#
# PCOD9344048 Si02
#       6
#     4   4   4   4   4   4
#     4  10  22  41  65  92 125 166 214 263 313 373
#     4   9  21  41  65  93 123 165 216 263 310 372
#     4   9  21  41  65  93 123 165 216 263 310 372
#     4  11  23  40  64  94 128 165 206 260 322 381
#     4  10  22  41  65  92 125 166 214 263 313 373
#     4  11  23  40  64  94 128 165 206 260 322 381
#
# _framework density 23.219626999999999
#
# number of rings (size 3 to 8) (size 9 to 14) (size 15 to 20)
#    0.000    2.000    0.000    2.000    0.000   13.333 
#    0.000    6.667    0.000    0.000    0.000    0.000 
#    0.000    0.000    0.000    0.000    0.000    0.000 
#
# Total GULP energy -134258.320721 kJ/mol
# GULP energy per Si atom -5594.096697 kJ/mol
# Density = 2.316678 g / cm^3
# Si number density = 23.219627 Si / 1000 Ang^3
#
#
#
# Elastic Constant Matrix: (Units=GPa)
#
#
# Indices 1 2 3 4 5 6 
#
# 1 53.2875 31.9158 59.1276 0.0000 0.0000 0.0000
# 2 31.9158 116.0791 93.4731 0.0000 0.0000 0.0000
# 3 59.1276 93.4731 228.8670 0.0000 0.0000 0.0000
# 4 0.0000 0.0000 0.0000 50.9014 0.0000 0.0000
# 5 0.0000 0.0000 0.0000 0.0000 -19.2003 0.0000
# 6 0.0000 0.0000 0.0000 0.0000 0.0000 12.8920
#
#
#
# Elastic Compliance Matrix: (Units=1/GPa)
#
#
# Indices 1 2 3 4 5 6 
#
# 1 0.026855 -0.002677 -0.005844 0.000000 0.000000 0.000000
# 2 -0.002677 0.013103 -0.004660 0.000000 0.000000 0.000000
# 3 -0.005844 -0.004660 0.007782 0.000000 0.000000 0.000000
# 4 0.000000 0.000000 0.000000 0.019646 0.000000 0.000000
# 5 0.000000 0.000000 0.000000 0.000000 -0.052082 0.000000
# 6 0.000000 0.000000 0.000000 0.000000 0.000000 0.077568
#
#
# Mechanical properties :
#
#
# Convention : Reuss Voigt Hill
#
# Bulk Modulus (GPa) = 46.77931 85.25187 66.01559
# Shear Modulus (GPa) = 39.56922 23.16639 31.36781
#
# Velocity S-wave (km/s) = 4.13259 3.16208 3.67947
# Velocity P-wave (km/s) = 6.55448 7.08003 6.82232
#
# Compressibility (1/GPa) = 0.02137697
#
# Stress axis : x y z
#
# Youngs Moduli (GPa) = 37.23753 76.31604 128.49452
#
# Poissons Ratio (x) = 0.20433 0.75097
# Poissons Ratio (y) = 0.09970 0.59878
# Poissons Ratio (z) = 0.21763 0.35563
#
# Static dielectric constant tensor:
#      x y z
#    x 1.850120 0.000000 0.000000 
#    y 0.000000 1.917230 0.000000 
#    z 0.000000 0.000000 1.880790 
# 
# From -- ./inp_files/2989.got.cif
#   From: 2010.05.17/outbox.cif.g08.bks.cpg/sg32_2_cif.got.tgz:2989.got - 2010.06.03 17:12:27.
