data_PCOD9344656
_publ_section_title
;
Structure prediction by ZEFSAII (Michael W. Deem and Ramdas Pophale) SiO2 
 PCOD9344656
Probable space group: P N A 21
;
_chemical_formula_sum "Si O2"
_cell_formula_units_Z 32
_cell_length_a 8.439392
_cell_length_b 20.299072
_cell_length_c 9.216754
_cell_angle_alpha 90.000000
_cell_angle_beta 90.000000
_cell_angle_gamma 90.000000
_cell_volume 1578.938956
_symmetry_space_group_name_H-M "P N A 21"
_symmetry_group_IT_number 33
_symmetry_cell_setting 'orthorhombic'
loop_
_space_group_symop_operation_xyz
x,y,z
-x,-y,1/2+z
1/2-x,1/2+y,1/2+z
1/2+x,1/2-y,z
loop_
_atom_site_type_symbol
_atom_site_label
_atom_site_fract_x
_atom_site_fract_y
_atom_site_fract_z
Si Si1 0.829184 0.970213 0.647030
Si Si2 0.681832 0.839930 0.795014
Si Si3 0.175781 0.916482 0.674113
Si Si4 0.196023 0.089272 0.561992
Si Si5 0.599056 0.660880 0.954738
Si Si6 0.613050 0.222187 0.375576
Si Si7 0.305140 0.955256 0.400515
Si Si8 0.673772 0.970041 0.338482
O O1 0.746967 0.902382 0.706629
O O2 0.777553 0.976653 0.482026
O O3 0.016370 0.960619 0.662782
O O4 0.769740 0.031609 0.743224
O O5 0.497995 0.823745 0.777426
O O6 0.782098 0.772716 0.778839
O O7 0.709532 0.858082 0.964662
O O8 0.119482 0.860618 0.785595
O O9 0.236516 0.900952 0.511930
O O10 0.309115 0.959990 0.755907
O O11 0.252001 0.082738 0.726700
O O12 0.011571 0.107584 0.533972
O O13 0.249090 0.021493 0.484932
O O14 0.502598 0.728675 0.961221
O O15 0.779951 0.679520 0.985678
O O16 0.493627 0.954340 0.380940
#
# Coordination Sequence:
#
# PCOD9344656 Si02
#       8
#     4   4   4   4   4   4   4   4
#     4  11  20  37  54  84 120 158 195 240 296 362
#     4   9  18  34  59  83 114 145 204 251 293 358
#     4  11  21  37  57  84 119 158 196 245 293 359
#     4   9  19  38  52  84 118 152 199 239 287 360
#     4  10  19  36  61  89 113 146 202 252 306 353
#     4   9  18  33  59  91 105 149 197 263 298 345
#     4  10  21  37  53  84 121 156 200 232 287 363
#     4  11  24  34  57  83 124 164 193 244 296 362
#
# _framework density 20.266774999999999
#
# number of rings (size 3 to 8) (size 9 to 14) (size 15 to 20)
#    0.000    2.000    3.750    2.250    7.000    0.000 
#    0.000    0.000    0.000    6.000    0.000    0.000 
#    0.000    0.000    0.000    0.000    0.000    0.000 
#
# Total GULP energy -178263.468956 kJ/mol
# GULP energy per Si atom -5570.733405 kJ/mol
# Density = 2.022065 g / cm^3
# Si number density = 20.266775 Si / 1000 Ang^3
#
#
#
# Elastic Constant Matrix: (Units=GPa)
#
#
# Indices 1 2 3 4 5 6 
#
# 1 113.4118 26.9271 21.8743 0.0000 0.0000 0.0000
# 2 26.9271 55.5534 25.2006 0.0000 0.0000 0.0000
# 3 21.8743 25.2006 111.2121 0.0000 0.0000 0.0000
# 4 0.0000 0.0000 0.0000 7.3494 0.0000 0.0000
# 5 0.0000 0.0000 0.0000 0.0000 30.9128 0.0000
# 6 0.0000 0.0000 0.0000 0.0000 0.0000 31.6903
#
#
#
# Elastic Compliance Matrix: (Units=1/GPa)
#
#
# Indices 1 2 3 4 5 6 
#
# 1 0.010058 -0.004433 -0.000974 0.000000 0.000000 0.000000
# 2 -0.004433 0.022017 -0.004117 0.000000 0.000000 0.000000
# 3 -0.000974 -0.004117 0.010116 0.000000 0.000000 0.000000
# 4 0.000000 0.000000 0.000000 0.136066 0.000000 0.000000
# 5 0.000000 0.000000 0.000000 0.000000 0.032349 0.000000
# 6 0.000000 0.000000 0.000000 0.000000 0.000000 0.031555
#
#
# Mechanical properties :
#
#
# Convention : Reuss Voigt Hill
#
# Bulk Modulus (GPa) = 43.20962 47.57572 45.39267
# Shear Modulus (GPa) = 18.59256 27.73552 23.16404
#
# Velocity S-wave (km/s) = 3.03213 3.70337 3.38443
# Velocity P-wave (km/s) = 5.79872 6.46624 6.14156
#
# Compressibility (1/GPa) = 0.02314300
#
# Stress axis : x y z
#
# Youngs Moduli (GPa) = 99.42498 45.41895 98.85072
#
# Poissons Ratio (x) = 0.20136 0.09625
# Poissons Ratio (y) = 0.44079 0.40698
# Poissons Ratio (z) = 0.09681 0.18699
#
# Static dielectric constant tensor:
#      x y z
#    x 1.791870 0.000000 0.000000 
#    y 0.000000 1.803740 0.000000 
#    z 0.000000 0.000000 1.756910 
# 
# From -- ./inp_files/3522.got.cif
#   From: 2010.05.17/outbox.cif.g08.bks.cpg/sg33_2_cif.got.tgz:3522.got - 2010.06.03 17:15:25.
