data_PCOD9344364
_publ_section_title
;
Structure prediction by ZEFSAII (Michael W. Deem and Ramdas Pophale) SiO2 
 PCOD9344364
Probable space group: P N A 21
;
_chemical_formula_sum "Si O2"
_cell_formula_units_Z 28
_cell_length_a 5.387633
_cell_length_b 6.970250
_cell_length_c 33.113590
_cell_angle_alpha 90.000000
_cell_angle_beta 90.000000
_cell_angle_gamma 90.000000
_cell_volume 1243.519576
_symmetry_space_group_name_H-M "P N A 21"
_symmetry_group_IT_number 33
_symmetry_cell_setting 'orthorhombic'
loop_
_space_group_symop_operation_xyz
x,y,z
-x,-y,1/2+z
1/2-x,1/2+y,1/2+z
1/2+x,1/2-y,z
loop_
_atom_site_type_symbol
_atom_site_label
_atom_site_fract_x
_atom_site_fract_y
_atom_site_fract_z
Si Si1 0.399727 0.039755 0.476360
Si Si2 0.028737 0.622585 0.393979
Si Si3 0.498180 0.379660 0.096059
Si Si4 0.399571 0.473820 0.508359
Si Si5 0.000621 0.519326 0.216222
Si Si6 0.976198 0.624398 0.304730
Si Si7 0.500639 0.544134 0.181374
O O1 0.368505 0.253015 0.494289
O O2 0.622293 0.945921 0.502118
O O3 0.125607 0.951777 0.480685
O O4 0.489676 0.025448 0.430378
O O5 0.797693 0.773882 0.396968
O O6 0.004448 0.533891 0.349084
O O7 0.241602 0.258261 0.098243
O O8 0.516111 0.492994 0.053919
O O9 0.505136 0.528998 0.133215
O O10 0.003172 0.501784 0.264338
O O11 0.746275 0.447510 0.198092
O O12 0.998280 0.744100 0.201403
O O13 0.251432 0.448086 0.196816
O O14 0.705392 0.724189 0.302489
#
# Coordination Sequence:
#
# PCOD9344364 Si02
#       7
#     4   4   4   4   4   4   4
#     4  10  21  39  59  89 112 159 195 241 297 356
#     4  10  21  32  55  89 126 154 190 245 296 338
#     4  12  26  42  57  86 116 154 203 253 311 351
#     4  10  23  40  63  80 115 157 198 253 294 362
#     4  10  17  32  57  88 110 147 193 233 291 338
#     4  10  16  30  50  86 123 148 190 240 281 330
#     4  10  20  33  57  84 114 147 187 247 284 353
#
# _framework density 22.516736000000002
#
# number of rings (size 3 to 8) (size 9 to 14) (size 15 to 20)
#    0.000    1.714    2.857    2.571    0.000    8.000 
#    0.000    0.000    0.000    0.000   22.286    0.000 
#    0.000    0.000    0.000    0.000    0.000    0.000 
#
# Total GULP energy -156245.566132 kJ/mol
# GULP energy per Si atom -5580.198790 kJ/mol
# Density = 2.246549 g / cm^3
# Si number density = 22.516736 Si / 1000 Ang^3
#
#
#
# Elastic Constant Matrix: (Units=GPa)
#
#
# Indices 1 2 3 4 5 6 
#
# 1 176.4941 -2.1100 2.8621 0.0000 0.0000 0.0000
# 2 -2.1100 84.9559 1.3707 0.0000 0.0000 0.0000
# 3 2.8621 1.3707 169.1530 0.0000 0.0000 0.0000
# 4 0.0000 0.0000 0.0000 14.1933 0.0000 0.0000
# 5 0.0000 0.0000 0.0000 0.0000 38.4148 0.0000
# 6 0.0000 0.0000 0.0000 0.0000 0.0000 -15.6344
#
#
#
# Elastic Compliance Matrix: (Units=1/GPa)
#
#
# Indices 1 2 3 4 5 6 
#
# 1 0.005669 0.000142 -0.000097 0.000000 0.000000 0.000000
# 2 0.000142 0.011776 -0.000098 0.000000 0.000000 0.000000
# 3 -0.000097 -0.000098 0.005914 0.000000 0.000000 0.000000
# 4 0.000000 0.000000 0.000000 0.070456 0.000000 0.000000
# 5 0.000000 0.000000 0.000000 0.000000 0.026032 0.000000
# 6 0.000000 0.000000 0.000000 0.000000 0.000000 -0.063962
#
#
# Mechanical properties :
#
#
# Convention : Reuss Voigt Hill
#
# Bulk Modulus (GPa) = 43.00285 48.31653 45.65969
# Shear Modulus (GPa) = 78.44185 35.96010 57.20098
#
# Velocity S-wave (km/s) = 5.90870 4.00063 5.04568
# Velocity P-wave (km/s) = 8.10494 6.54559 7.36664
#
# Compressibility (1/GPa) = 0.02325427
#
# Stress axis : x y z
#
# Youngs Moduli (GPa) = 176.39214 84.91896 169.08335
#
# Poissons Ratio (x) = -0.01209 0.01641
# Poissons Ratio (y) = -0.02511 0.01654
# Poissons Ratio (z) = 0.01712 0.00831
#
# Static dielectric constant tensor:
#      x y z
#    x 1.889370 0.000000 0.000000 
#    y 0.000000 1.585780 0.000000 
#    z 0.000000 0.000000 1.812600 
# 
# From -- ./inp_files/9328.got.cif
#   From: 2010.05.17/outbox.cif.g08.bks.cpg/sg33_5_cif.got.tgz:9328.got - 2010.06.03 17:15:25.
