data_PCOD9344087
_publ_section_title
;
Structure prediction by ZEFSAII (Michael W. Deem and Ramdas Pophale) SiO2 
 PCOD9344087
Probable space group: P B A 2
;
_chemical_formula_sum "Si O2"
_cell_formula_units_Z 24
_cell_length_a 5.100371
_cell_length_b 17.697987
_cell_length_c 12.761707
_cell_angle_alpha 90.000000
_cell_angle_beta 90.000000
_cell_angle_gamma 90.000000
_cell_volume 1151.952068
_symmetry_space_group_name_H-M "P B A 2"
_symmetry_group_IT_number 32
_symmetry_cell_setting 'orthorhombic'
loop_
_space_group_symop_operation_xyz
x,y,z
-x,-y,z
1/2-x,1/2+y,z
1/2+x,1/2-y,z
loop_
_atom_site_type_symbol
_atom_site_label
_atom_site_fract_x
_atom_site_fract_y
_atom_site_fract_z
Si Si1 0.255010 0.946975 0.290310
Si Si2 0.021661 0.412479 0.732781
Si Si3 0.783026 0.698022 0.144075
Si Si4 0.757485 0.198885 0.900174
Si Si5 0.843823 0.804679 0.635773
Si Si6 0.133893 0.918582 0.522891
O O1 0.244399 0.874731 0.215752
O O2 0.271876 0.919050 0.410838
O O3 0.500000 0.000000 0.265367
O O4 0.000000 0.000000 0.282082
O O5 0.169465 0.407697 0.620330
O O6 0.000000 0.500000 0.760304
O O7 0.178583 0.366504 0.820425
O O8 0.740759 0.372209 0.714296
O O9 0.558840 0.760575 0.162473
O O10 0.766548 0.675262 0.021421
O O11 0.042980 0.234684 0.884110
O O12 0.595847 0.749176 0.645317
O O13 0.915808 0.852614 0.531684
O O14 0.000000 0.000000 0.535882
#
# Coordination Sequence:
#
# PCOD9344087 Si02
#       6
#     4   4   4   4   4   4
#     4  11  25  43  71  99 135 178 223 279 338 401
#     4  12  24  41  66  97 136 177 223 272 329 405
#     4  10  22  46  70  97 132 172 222 281 341 400
#     4  10  24  43  67  94 131 174 217 277 340 391
#     4  12  25  40  62  92 128 172 222 267 318 388
#     4  11  25  43  66  94 139 180 220 271 335 393
#
# _framework density 20.834199999999999
#
# number of rings (size 3 to 8) (size 9 to 14) (size 15 to 20)
#    0.000    1.000    3.333    2.500    4.667    2.000 
#    0.000    0.833    0.000    0.000    0.000    0.000 
#    0.000    0.000    0.000    0.000    0.000    0.000 
#
# Total GULP energy -134193.370211 kJ/mol
# GULP energy per Si atom -5591.390425 kJ/mol
# Density = 2.078678 g / cm^3
# Si number density = 20.834200 Si / 1000 Ang^3
#
#
#
# Elastic Constant Matrix: (Units=GPa)
#
#
# Indices 1 2 3 4 5 6 
#
# 1 98.4076 19.9902 13.8621 0.0000 0.0000 0.0000
# 2 19.9902 134.2520 68.0957 0.0000 0.0000 0.0000
# 3 13.8621 68.0957 128.3829 0.0000 0.0000 0.0000
# 4 0.0000 0.0000 0.0000 54.8438 0.0000 0.0000
# 5 0.0000 0.0000 0.0000 0.0000 64.6091 0.0000
# 6 0.0000 0.0000 0.0000 0.0000 0.0000 34.3584
#
#
#
# Elastic Compliance Matrix: (Units=1/GPa)
#
#
# Indices 1 2 3 4 5 6 
#
# 1 0.010495 -0.001352 -0.000416 0.000000 0.000000 0.000000
# 2 -0.001352 0.010364 -0.005351 0.000000 0.000000 0.000000
# 3 -0.000416 -0.005351 0.010673 0.000000 0.000000 0.000000
# 4 0.000000 0.000000 0.000000 0.018234 0.000000 0.000000
# 5 0.000000 0.000000 0.000000 0.000000 0.015478 0.000000
# 6 0.000000 0.000000 0.000000 0.000000 0.000000 0.029105
#
#
# Mechanical properties :
#
#
# Convention : Reuss Voigt Hill
#
# Bulk Modulus (GPa) = 57.82567 62.77093 60.29830
# Shear Modulus (GPa) = 43.72499 48.03523 45.88011
#
# Velocity S-wave (km/s) = 4.58614 4.80687 4.69780
# Velocity P-wave (km/s) = 7.47389 7.81039 7.64399
#
# Compressibility (1/GPa) = 0.01729336
#
# Stress axis : x y z
#
# Youngs Moduli (GPa) = 95.28338 96.48528 93.69802
#
# Poissons Ratio (x) = 0.13040 0.03901
# Poissons Ratio (y) = 0.12878 0.50141
# Poissons Ratio (z) = 0.03967 0.51633
#
# Static dielectric constant tensor:
#      x y z
#    x 1.789020 0.000000 0.000000 
#    y 0.000000 1.682720 0.000000 
#    z 0.000000 0.000000 1.761470 
# 
# From -- ./inp_files/3532.got.cif
#   From: 2010.05.17/outbox.cif.g08.bks.cpg/sg32_2_cif.got.tgz:3532.got - 2010.06.03 17:12:27.
