data_PCOD9344404
_publ_section_title
;
Structure prediction by ZEFSAII (Michael W. Deem and Ramdas Pophale) SiO2 
 PCOD9344404
Probable space group: P N A 21
;
_chemical_formula_sum "Si O2"
_cell_formula_units_Z 28
_cell_length_a 9.410047
_cell_length_b 16.618416
_cell_length_c 7.117990
_cell_angle_alpha 90.000000
_cell_angle_beta 90.000000
_cell_angle_gamma 90.000000
_cell_volume 1113.111815
_symmetry_space_group_name_H-M "P N A 21"
_symmetry_group_IT_number 33
_symmetry_cell_setting 'orthorhombic'
loop_
_space_group_symop_operation_xyz
x,y,z
-x,-y,1/2+z
1/2-x,1/2+y,1/2+z
1/2+x,1/2-y,z
loop_
_atom_site_type_symbol
_atom_site_label
_atom_site_fract_x
_atom_site_fract_y
_atom_site_fract_z
Si Si1 0.918307 0.160150 0.382670
Si Si2 0.281324 0.892669 0.190358
Si Si3 0.571771 0.796802 0.641701
Si Si4 0.398560 0.532432 0.704244
Si Si5 0.134036 0.423076 0.284834
Si Si6 0.341601 0.729121 0.395937
Si Si7 0.678895 0.436048 0.769663
O O1 0.860075 0.141887 0.587506
O O2 0.781647 0.128457 0.258718
O O3 0.933871 0.253495 0.342651
O O4 0.055838 0.109597 0.323529
O O5 0.330433 0.819022 0.314716
O O6 0.224029 0.974159 0.286680
O O7 0.381655 0.914736 0.012315
O O8 0.491140 0.880983 0.669741
O O9 0.488498 0.734328 0.506700
O O10 0.724419 0.795507 0.549609
O O11 0.545948 0.483456 0.684700
O O12 0.350010 0.552191 0.493860
O O13 0.177211 0.514090 0.234131
O O14 0.325357 0.659368 0.240650
#
# Coordination Sequence:
#
# PCOD9344404 Si02
#       7
#     4   4   4   4   4   4   4
#     4   9  19  38  61  90 118 168 219 266 318 380
#     4   9  21  37  58  96 128 158 207 290 316 375
#     4  12  22  40  65  92 129 173 220 267 327 402
#     4  10  17  37  65  90 119 166 222 268 304 387
#     4   8  20  41  58  84 128 171 204 261 334 379
#     4  12  24  38  65 100 129 167 224 277 326 376
#     4  10  21  37  62  96 125 167 222 275 319 391
#
# _framework density 25.154703999999999
#
# number of rings (size 3 to 8) (size 9 to 14) (size 15 to 20)
#    0.857    1.143    4.286    0.857    0.000    2.286 
#    0.000    4.286    0.000    0.000    0.000    0.000 
#    0.000    0.000    0.000    0.000    0.000    0.000 
#
# Total GULP energy -156310.577958 kJ/mol
# GULP energy per Si atom -5582.520641 kJ/mol
# Density = 2.509745 g / cm^3
# Si number density = 25.154704 Si / 1000 Ang^3
#
#
#
# Elastic Constant Matrix: (Units=GPa)
#
#
# Indices 1 2 3 4 5 6 
#
# 1 30.3787 27.8229 7.6805 0.0000 0.0000 0.0000
# 2 27.8229 61.0115 12.6638 0.0000 0.0000 0.0000
# 3 7.6805 12.6638 54.2202 0.0000 0.0000 0.0000
# 4 0.0000 0.0000 0.0000 31.2975 0.0000 0.0000
# 5 0.0000 0.0000 0.0000 0.0000 19.0487 0.0000
# 6 0.0000 0.0000 0.0000 0.0000 0.0000 33.5955
#
#
#
# Elastic Compliance Matrix: (Units=1/GPa)
#
#
# Indices 1 2 3 4 5 6 
#
# 1 0.056753 -0.025446 -0.002096 0.000000 0.000000 0.000000
# 2 -0.025446 0.028634 -0.003083 0.000000 0.000000 0.000000
# 3 -0.002096 -0.003083 0.019460 0.000000 0.000000 0.000000
# 4 0.000000 0.000000 0.000000 0.031951 0.000000 0.000000
# 5 0.000000 0.000000 0.000000 0.000000 0.052497 0.000000
# 6 0.000000 0.000000 0.000000 0.000000 0.000000 0.029766
#
#
# Mechanical properties :
#
#
# Convention : Reuss Voigt Hill
#
# Bulk Modulus (GPa) = 22.93734 26.88275 24.91004
# Shear Modulus (GPa) = 16.95806 23.28455 20.12131
#
# Velocity S-wave (km/s) = 2.59926 3.04576 2.83132
# Velocity P-wave (km/s) = 4.25987 4.80406 4.54013
#
# Compressibility (1/GPa) = 0.04359704
#
# Stress axis : x y z
#
# Youngs Moduli (GPa) = 17.62026 34.92306 51.38638
#
# Poissons Ratio (x) = 0.88865 0.10771
# Poissons Ratio (y) = 0.44836 0.15845
# Poissons Ratio (z) = 0.03693 0.10768
#
# Static dielectric constant tensor:
#      x y z
#    x 1.975580 0.000000 0.000000 
#    y 0.000000 2.070790 0.000000 
#    z 0.000000 0.000000 2.007250 
# 
# From -- ./inp_files/3320.got.cif
#   From: 2010.05.17/outbox.cif.g08.bks.cpg/sg33_2_cif.got.tgz:3320.got - 2010.06.03 17:15:25.
