data_PCOD9344183
_publ_section_title
;
Structure prediction by ZEFSAII (Michael W. Deem and Ramdas Pophale) SiO2 
 PCOD9344183
Probable space group: P B A 2
;
_chemical_formula_sum "Si O2"
_cell_formula_units_Z 26
_cell_length_a 9.238039
_cell_length_b 9.825579
_cell_length_c 11.271155
_cell_angle_alpha 90.000000
_cell_angle_beta 90.000000
_cell_angle_gamma 90.000000
_cell_volume 1023.072392
_symmetry_space_group_name_H-M "P B A 2"
_symmetry_group_IT_number 32
_symmetry_cell_setting 'orthorhombic'
loop_
_space_group_symop_operation_xyz
x,y,z
-x,-y,z
1/2-x,1/2+y,z
1/2+x,1/2-y,z
loop_
_atom_site_type_symbol
_atom_site_label
_atom_site_fract_x
_atom_site_fract_y
_atom_site_fract_z
Si Si1 0.341517 0.245703 0.922580
Si Si2 0.746711 0.344935 0.150589
Si Si3 0.500000 0.000000 0.788907
Si Si4 0.162823 0.254209 0.689684
Si Si5 0.814024 0.664963 0.373433
Si Si6 0.068487 0.791606 0.533046
Si Si7 0.000000 0.500000 0.205095
Si Si8 0.500000 0.500000 0.018489
O O1 0.224026 0.244423 0.819215
O O2 0.425235 0.109476 0.877122
O O3 0.244784 0.259951 0.042106
O O4 0.444495 0.376537 0.936162
O O5 0.719566 0.285257 0.280116
O O6 0.916828 0.384378 0.136288
O O7 0.629572 0.453097 0.106263
O O8 0.400199 0.909243 0.699183
O O9 0.297463 0.223001 0.602325
O O10 0.033041 0.160735 0.640924
O O11 0.666960 0.623422 0.441421
O O12 0.871534 0.548861 0.288727
O O13 0.950691 0.707261 0.456024
#
# Coordination Sequence:
#
# PCOD9344183 Si02
#       8
#     4   4   2   4   4   4   2   2
#     4  12  26  51  80 119 156 204 264 327 401 470
#     4  12  26  46  77 115 157 201 265 328 396 469
#     4  12  25  47  82 114 156 199 257 322 402 462
#     4  11  24  50  76 111 151 205 255 324 388 466
#     4  11  24  49  73 113 152 206 263 317 390 469
#     4  10  24  47  76 105 157 201 264 313 387 466
#     4  12  25  45  76 108 154 211 251 330 402 456
#     4  12  28  48  82 116 162 208 262 328 402 484
#
# _framework density 25.413647999999998
#
# number of rings (size 3 to 8) (size 9 to 14) (size 15 to 20)
#    0.000    0.615    3.077    4.154    2.154    2.462 
#    0.000    1.538    0.000    0.000    0.000    0.000 
#    0.000    0.000    0.000    0.000    0.000    0.000 
#
# Total GULP energy -144911.219812 kJ/mol
# GULP energy per Si atom -5573.508454 kJ/mol
# Density = 2.535581 g / cm^3
# Si number density = 25.413648 Si / 1000 Ang^3
#
#
#
# Elastic Constant Matrix: (Units=GPa)
#
#
# Indices 1 2 3 4 5 6 
#
# 1 165.8209 41.7326 54.1690 0.0000 0.0000 0.0000
# 2 41.7326 94.0556 18.2472 0.0000 0.0000 0.0000
# 3 54.1690 18.2472 110.6796 0.0000 0.0000 0.0000
# 4 0.0000 0.0000 0.0000 19.8177 0.0000 0.0000
# 5 0.0000 0.0000 0.0000 0.0000 90.3962 0.0000
# 6 0.0000 0.0000 0.0000 0.0000 0.0000 32.6128
#
#
#
# Elastic Compliance Matrix: (Units=1/GPa)
#
#
# Indices 1 2 3 4 5 6 
#
# 1 0.007844 -0.002826 -0.003373 0.000000 0.000000 0.000000
# 2 -0.002826 0.012001 -0.000596 0.000000 0.000000 0.000000
# 3 -0.003373 -0.000596 0.010784 0.000000 0.000000 0.000000
# 4 0.000000 0.000000 0.000000 0.050460 0.000000 0.000000
# 5 0.000000 0.000000 0.000000 0.000000 0.011062 0.000000
# 6 0.000000 0.000000 0.000000 0.000000 0.000000 0.030663
#
#
# Mechanical properties :
#
#
# Convention : Reuss Voigt Hill
#
# Bulk Modulus (GPa) = 58.68435 66.53931 62.61183
# Shear Modulus (GPa) = 35.19062 45.65915 40.42488
#
# Velocity S-wave (km/s) = 3.72521 4.24328 3.99266
# Velocity P-wave (km/s) = 6.45327 7.08848 6.77832
#
# Compressibility (1/GPa) = 0.01704032
#
# Stress axis : x y z
#
# Youngs Moduli (GPa) = 127.49161 83.32367 92.72931
#
# Poissons Ratio (x) = 0.23546 0.31277
# Poissons Ratio (y) = 0.36027 0.05523
# Poissons Ratio (z) = 0.43003 0.04962
#
# Static dielectric constant tensor:
#      x y z
#    x 1.935560 0.000000 0.000000 
#    y 0.000000 2.100100 0.000000 
#    z 0.000000 0.000000 2.079640 
# 
# From -- ./inp_files/3709.got.cif
#   From: 2010.05.17/outbox.cif.g08.bks.cpg/sg32_2_cif.got.tgz:3709.got - 2010.06.03 17:12:27.
