data_PCOD9344940
_publ_section_title
;
Structure prediction by ZEFSAII (Michael W. Deem and Ramdas Pophale) SiO2 
 PCOD9344940
Probable space group: P N A 21
;
_chemical_formula_sum "Si O2"
_cell_formula_units_Z 32
_cell_length_a 5.945879
_cell_length_b 15.511230
_cell_length_c 12.946291
_cell_angle_alpha 90.000000
_cell_angle_beta 90.000000
_cell_angle_gamma 90.000000
_cell_volume 1194.009189
_symmetry_space_group_name_H-M "P N A 21"
_symmetry_group_IT_number 33
_symmetry_cell_setting 'orthorhombic'
loop_
_space_group_symop_operation_xyz
x,y,z
-x,-y,1/2+z
1/2-x,1/2+y,1/2+z
1/2+x,1/2-y,z
loop_
_atom_site_type_symbol
_atom_site_label
_atom_site_fract_x
_atom_site_fract_y
_atom_site_fract_z
Si Si1 0.033349 0.516426 0.625000
Si Si2 0.870819 0.824410 0.308587
Si Si3 0.054134 0.681273 0.888505
Si Si4 0.716799 0.349399 0.583122
Si Si5 0.200983 0.012088 0.334389
Si Si6 0.556021 0.215080 0.164442
Si Si7 0.124814 0.359331 0.868154
Si Si8 0.673847 0.553374 0.961950
O O1 0.179366 0.494465 0.726874
O O2 0.931079 0.611899 0.642566
O O3 0.216888 0.518353 0.534070
O O4 0.876340 0.432286 0.609116
O O5 0.878926 0.742965 0.387357
O O6 0.123663 0.862268 0.313015
O O7 0.631914 0.869338 0.330469
O O8 0.322829 0.951377 0.421337
O O9 0.848549 0.621811 0.921717
O O10 0.234091 0.611451 0.849909
O O11 0.968522 0.731989 0.788543
O O12 0.164931 0.710627 0.996492
O O13 0.658970 0.299124 0.687929
O O14 0.502955 0.396113 0.533269
O O15 0.940783 0.012991 0.360953
O O16 0.801409 0.253590 0.128081
#
# Coordination Sequence:
#
# PCOD9344940 Si02
#       8
#     4   4   4   4   4   4   4   4
#     4  10  22  41  70  97 133 185 239 292 349 414
#     4  10  21  37  57  91 131 171 212 262 326 412
#     4   9  23  41  61  98 129 173 229 290 350 412
#     4  10  20  38  64  96 133 172 230 279 350 415
#     4  10  20  37  67  96 132 178 223 288 334 413
#     4  11  27  46  69  97 139 187 240 291 359 419
#     4  10  21  36  57  90 129 171 212 251 331 395
#     4  10  22  38  71 103 130 171 243 289 345 406
#
# _framework density 26.800462
#
# number of rings (size 3 to 8) (size 9 to 14) (size 15 to 20)
#    0.000    2.000    1.250    0.750   10.500    1.000 
#    4.500    0.000    5.500    0.000    0.000    0.000 
#    0.000    0.000    0.000    0.000    0.000    0.000 
#
# Total GULP energy -178235.644983 kJ/mol
# GULP energy per Si atom -5569.863906 kJ/mol
# Density = 2.673946 g / cm^3
# Si number density = 26.800462 Si / 1000 Ang^3
#
#
#
# Elastic Constant Matrix: (Units=GPa)
#
#
# Indices 1 2 3 4 5 6 
#
# 1 174.0006 40.5558 40.7645 0.0000 0.0000 0.0000
# 2 40.5558 125.2101 18.5769 0.0000 0.0000 0.0000
# 3 40.7645 18.5769 70.5815 0.0000 0.0000 0.0000
# 4 0.0000 0.0000 0.0000 13.5523 0.0000 0.0000
# 5 0.0000 0.0000 0.0000 0.0000 32.3356 0.0000
# 6 0.0000 0.0000 0.0000 0.0000 0.0000 43.6437
#
#
#
# Elastic Compliance Matrix: (Units=1/GPa)
#
#
# Indices 1 2 3 4 5 6 
#
# 1 0.006990 -0.001733 -0.003581 0.000000 0.000000 0.000000
# 2 -0.001733 0.008741 -0.001300 0.000000 0.000000 0.000000
# 3 -0.003581 -0.001300 0.016578 0.000000 0.000000 0.000000
# 4 0.000000 0.000000 0.000000 0.073788 0.000000 0.000000
# 5 0.000000 0.000000 0.000000 0.000000 0.030926 0.000000
# 6 0.000000 0.000000 0.000000 0.000000 0.000000 0.022913
#
#
# Mechanical properties :
#
#
# Convention : Reuss Voigt Hill
#
# Bulk Modulus (GPa) = 52.40571 63.28741 57.84656
# Shear Modulus (GPa) = 27.85152 35.89932 31.87542
#
# Velocity S-wave (km/s) = 3.22719 3.66389 3.45245
# Velocity P-wave (km/s) = 5.78643 6.44704 6.12565
#
# Compressibility (1/GPa) = 0.01908189
#
# Stress axis : x y z
#
# Youngs Moduli (GPa) = 143.06315 114.40783 60.31974
#
# Poissons Ratio (x) = 0.19824 0.21600
# Poissons Ratio (y) = 0.24789 0.07840
# Poissons Ratio (z) = 0.51231 0.14870
#
# Static dielectric constant tensor:
#      x y z
#    x 2.113460 0.000000 0.000000 
#    y 0.000000 2.474230 0.000000 
#    z 0.000000 0.000000 2.287840 
# 
# From -- ./inp_files/7450.got.cif
#   From: 2010.05.17/outbox.cif.g08.bks.cpg/sg33_4_cif.got.tgz:7450.got - 2010.06.03 17:15:25.
