data_PCOD9344297
_publ_section_title
;
Structure prediction by ZEFSAII (Michael W. Deem and Ramdas Pophale) SiO2 
 PCOD9344297
Probable space group: P B A 2
;
_chemical_formula_sum "Si O2"
_cell_formula_units_Z 20
_cell_length_a 16.085745
_cell_length_b 9.033243
_cell_length_c 4.899771
_cell_angle_alpha 90.000000
_cell_angle_beta 90.000000
_cell_angle_gamma 90.000000
_cell_volume 711.968298
_symmetry_space_group_name_H-M "P B A 2"
_symmetry_group_IT_number 32
_symmetry_cell_setting 'orthorhombic'
loop_
_space_group_symop_operation_xyz
x,y,z
-x,-y,z
1/2-x,1/2+y,z
1/2+x,1/2-y,z
loop_
_atom_site_type_symbol
_atom_site_label
_atom_site_fract_x
_atom_site_fract_y
_atom_site_fract_z
Si Si1 0.390684 0.238156 0.444680
Si Si2 0.000000 0.000000 0.273664
Si Si3 0.109316 0.261844 0.102649
Si Si4 0.223432 0.609404 0.021209
Si Si5 0.723432 0.109404 0.526120
Si Si6 0.000000 0.500000 0.773664
O O1 0.443818 0.387092 0.442958
O O2 0.358844 0.189828 0.141450
O O3 0.302557 0.285567 0.573201
O O4 0.444457 0.109027 0.582620
O O5 0.943818 0.887092 0.104371
O O6 0.252499 1.000000 0.273664
O O7 0.055543 0.390973 0.964709
O O8 0.141156 0.310172 0.405879
O O9 0.302557 0.714433 0.974127
O O10 0.210523 0.500000 0.773664
#
# Coordination Sequence:
#
# PCOD9344297 Si02
#       6
#     4   2   4   4   4   2
#     4  11  30  55  92 138 184 244 316 374 481 545
#     4  12  28  56  84 136 182 248 290 408 450 554
#     4  11  30  55  92 138 184 244 316 374 481 545
#     4  11  28  58  93 132 182 248 310 381 451 577
#     4  11  28  58  93 132 182 248 310 381 451 577
#     4  12  32  56  98 140 190 240 302 408 458 558
#
# _framework density 28.091135000000001
#
# number of rings (size 3 to 8) (size 9 to 14) (size 15 to 20)
#    0.000    0.800    2.000    0.000   14.000    6.400 
#    0.000    1.000    0.000    0.000    0.000    0.000 
#    0.000    0.000    0.000    0.000    0.000    0.000 
#
# Total GULP energy -112336.706678 kJ/mol
# GULP energy per Si atom -5616.835334 kJ/mol
# Density = 2.802720 g / cm^3
# Si number density = 28.091135 Si / 1000 Ang^3
#
#
#
# Elastic Constant Matrix: (Units=GPa)
#
#
# Indices 1 2 3 4 5 6 
#
# 1 225.0772 141.0228 103.1158 0.0000 0.0000 0.0000
# 2 141.0228 282.8817 87.5315 0.0000 0.0000 0.0000
# 3 103.1158 87.5315 184.5037 0.0000 0.0000 0.0000
# 4 0.0000 0.0000 0.0000 58.0809 0.0000 0.0000
# 5 0.0000 0.0000 0.0000 0.0000 48.5568 0.0000
# 6 0.0000 0.0000 0.0000 0.0000 0.0000 84.0066
#
#
#
# Elastic Compliance Matrix: (Units=1/GPa)
#
#
# Indices 1 2 3 4 5 6 
#
# 1 0.007559 -0.002884 -0.002856 0.000000 0.000000 0.000000
# 2 -0.002884 0.005244 -0.000876 0.000000 0.000000 0.000000
# 3 -0.002856 -0.000876 0.007432 0.000000 0.000000 0.000000
# 4 0.000000 0.000000 0.000000 0.017217 0.000000 0.000000
# 5 0.000000 0.000000 0.000000 0.000000 0.020594 0.000000
# 6 0.000000 0.000000 0.000000 0.000000 0.000000 0.011904
#
#
# Mechanical properties :
#
#
# Convention : Reuss Voigt Hill
#
# Bulk Modulus (GPa) = 142.81941 150.64478 146.73210
# Shear Modulus (GPa) = 58.46863 62.18168 60.32516
#
# Velocity S-wave (km/s) = 4.56718 4.70996 4.63912
# Velocity P-wave (km/s) = 8.87491 9.12808 9.00238
#
# Compressibility (1/GPa) = 0.00700185
#
# Stress axis : x y z
#
# Youngs Moduli (GPa) = 132.30041 190.69495 134.56120
#
# Poissons Ratio (x) = 0.55004 0.38430
# Poissons Ratio (y) = 0.38161 0.11785
# Poissons Ratio (z) = 0.37784 0.16701
#
# Static dielectric constant tensor:
#      x y z
#    x 2.218820 0.000000 0.000000 
#    y 0.000000 2.144180 0.000000 
#    z 0.000000 0.000000 2.354410 
# 
# From -- ./inp_files/1375.got.cif
#   From: 2010.05.17/outbox.cif.g08.bks.cpg/sg32_1_cif.got.tgz:1375.got - 2010.06.03 17:12:27.
