data_PCOD9344065
_publ_section_title
;
Structure prediction by ZEFSAII (Michael W. Deem and Ramdas Pophale) SiO2 
 PCOD9344065
Probable space group: P B A 2
;
_chemical_formula_sum "Si O2"
_cell_formula_units_Z 22
_cell_length_a 13.665402
_cell_length_b 12.937919
_cell_length_c 5.186930
_cell_angle_alpha 90.000000
_cell_angle_beta 90.000000
_cell_angle_gamma 90.000000
_cell_volume 917.058893
_symmetry_space_group_name_H-M "P B A 2"
_symmetry_group_IT_number 32
_symmetry_cell_setting 'orthorhombic'
loop_
_space_group_symop_operation_xyz
x,y,z
-x,-y,z
1/2-x,1/2+y,z
1/2+x,1/2-y,z
loop_
_atom_site_type_symbol
_atom_site_label
_atom_site_fract_x
_atom_site_fract_y
_atom_site_fract_z
Si Si1 0.732843 0.142182 0.976540
Si Si2 0.144354 0.445330 0.476803
Si Si3 0.566584 0.298967 0.989286
Si Si4 0.945437 0.343794 0.618863
Si Si5 0.500000 0.500000 0.674374
Si Si6 0.907794 0.151747 0.334086
O O1 0.714258 0.110061 0.683738
O O2 0.674039 0.250540 0.005273
O O3 0.685575 0.062890 0.187849
O O4 0.843147 0.146341 0.078732
O O5 0.121265 0.555005 0.609230
O O6 0.041450 0.384291 0.467108
O O7 0.497224 0.207846 0.868033
O O8 0.547738 0.405181 0.833436
O O9 0.520919 0.326387 0.263125
O O10 0.881960 0.252989 0.494042
O O11 0.585095 0.548932 0.498408
#
# Coordination Sequence:
#
# PCOD9344065 Si02
#       6
#     4   4   4   4   2   4
#     4  11  25  43  70 102 144 176 244 291 353 419
#     4  10  22  43  67 106 135 177 229 302 354 422
#     4  10  22  46  67  99 140 192 231 300 350 433
#     4   9  21  40  72  93 138 181 231 288 370 407
#     4  10  24  46  70  98 148 196 244 280 378 424
#     4  11  23  45  69 100 138 193 234 293 350 437
#
# _framework density 23.989735
#
# number of rings (size 3 to 8) (size 9 to 14) (size 15 to 20)
#    0.000    1.818    1.818    0.545    7.636    1.455 
#    9.818    0.000    0.000    0.000    0.000    0.000 
#    0.000    0.000    0.000    0.000    0.000    0.000 
#
# Total GULP energy -122818.327753 kJ/mol
# GULP energy per Si atom -5582.651261 kJ/mol
# Density = 2.393513 g / cm^3
# Si number density = 23.989735 Si / 1000 Ang^3
#
#
#
# Elastic Constant Matrix: (Units=GPa)
#
#
# Indices 1 2 3 4 5 6 
#
# 1 78.9362 43.2418 8.7956 0.0000 0.0000 0.0000
# 2 43.2418 152.3162 30.0414 0.0000 0.0000 0.0000
# 3 8.7956 30.0414 62.8782 0.0000 0.0000 0.0000
# 4 0.0000 0.0000 0.0000 19.8917 0.0000 0.0000
# 5 0.0000 0.0000 0.0000 0.0000 32.7906 0.0000
# 6 0.0000 0.0000 0.0000 0.0000 0.0000 25.0035
#
#
#
# Elastic Compliance Matrix: (Units=1/GPa)
#
#
# Indices 1 2 3 4 5 6 
#
# 1 0.015002 -0.004245 -0.000070 0.000000 0.000000 0.000000
# 2 -0.004245 0.008450 -0.003443 0.000000 0.000000 0.000000
# 3 -0.000070 -0.003443 0.017559 0.000000 0.000000 0.000000
# 4 0.000000 0.000000 0.000000 0.050272 0.000000 0.000000
# 5 0.000000 0.000000 0.000000 0.000000 0.030497 0.000000
# 6 0.000000 0.000000 0.000000 0.000000 0.000000 0.039994
#
#
# Mechanical properties :
#
#
# Convention : Reuss Voigt Hill
#
# Bulk Modulus (GPa) = 39.22659 50.92089 45.07374
# Shear Modulus (GPa) = 26.91241 29.67393 28.29317
#
# Velocity S-wave (km/s) = 3.35301 3.52084 3.43795
# Velocity P-wave (km/s) = 5.60153 6.14822 5.88123
#
# Compressibility (1/GPa) = 0.02549291
#
# Stress axis : x y z
#
# Youngs Moduli (GPa) = 66.65881 118.34978 56.95207
#
# Poissons Ratio (x) = 0.50240 0.00400
# Poissons Ratio (y) = 0.28297 0.19609
# Poissons Ratio (z) = 0.00469 0.40749
#
# Static dielectric constant tensor:
#      x y z
#    x 1.943020 0.000000 0.000000 
#    y 0.000000 1.980600 0.000000 
#    z 0.000000 0.000000 1.918050 
# 
# From -- ./inp_files/825.got.cif
#   From: 2010.05.17/outbox.cif.g08.bks.cpg/sg32_1_cif.got.tgz:825.got - 2010.06.03 17:12:27.
