data_PCOD9344197
_publ_section_title
;
Structure prediction by ZEFSAII (Michael W. Deem and Ramdas Pophale) SiO2 
 PCOD9344197
Probable space group: P B A 2
;
_chemical_formula_sum "Si O2"
_cell_formula_units_Z 16
_cell_length_a 14.294121
_cell_length_b 9.220377
_cell_length_c 5.103468
_cell_angle_alpha 90.000000
_cell_angle_beta 90.000000
_cell_angle_gamma 90.000000
_cell_volume 672.622714
_symmetry_space_group_name_H-M "P B A 2"
_symmetry_group_IT_number 32
_symmetry_cell_setting 'orthorhombic'
loop_
_space_group_symop_operation_xyz
x,y,z
-x,-y,z
1/2-x,1/2+y,z
1/2+x,1/2-y,z
loop_
_atom_site_type_symbol
_atom_site_label
_atom_site_fract_x
_atom_site_fract_y
_atom_site_fract_z
Si Si1 0.838683 0.522038 0.590240
Si Si2 0.111921 0.667494 0.095749
Si Si3 0.543830 0.278685 0.782560
Si Si4 0.641988 0.573389 0.779182
O O1 0.854418 0.436913 0.861690
O O2 0.904329 0.662401 0.606294
O O3 0.731015 0.569139 0.595140
O O4 0.864586 0.413004 0.360140
O O5 0.997542 0.300356 0.033984
O O6 0.159814 0.822567 0.028981
O O7 0.611669 0.410994 0.854036
O O8 0.450902 0.351732 0.655922
#
# Coordination Sequence:
#
# PCOD9344197 Si02
#       4
#     4   4   4   4
#     4  12  23  45  77 111 149 205 263 322 391 480
#     4  10  25  44  70 109 152 200 258 318 392 468
#     4   9  22  47  73 110 157 202 257 324 403 462
#     4   9  22  47  73 111 157 201 254 328 397 467
#
# _framework density 23.787481
#
# number of rings (size 3 to 8) (size 9 to 14) (size 15 to 20)
#    1.500    0.500    0.000    2.250    0.000    8.000 
#    0.000   10.000    0.000    0.000    0.000    0.000 
#    0.000    0.000    0.000    0.000    0.000    0.000 
#
# Total GULP energy -89411.528455 kJ/mol
# GULP energy per Si atom -5588.220528 kJ/mol
# Density = 2.373334 g / cm^3
# Si number density = 23.787481 Si / 1000 Ang^3
#
#
#
# Elastic Constant Matrix: (Units=GPa)
#
#
# Indices 1 2 3 4 5 6 
#
# 1 151.5068 78.6807 60.2446 0.0000 0.0000 0.0000
# 2 78.6807 176.4629 73.7538 0.0000 0.0000 0.0000
# 3 60.2446 73.7538 108.9311 0.0000 0.0000 0.0000
# 4 0.0000 0.0000 0.0000 30.8453 0.0000 0.0000
# 5 0.0000 0.0000 0.0000 0.0000 8.3818 0.0000
# 6 0.0000 0.0000 0.0000 0.0000 0.0000 36.5808
#
#
#
# Elastic Compliance Matrix: (Units=1/GPa)
#
#
# Indices 1 2 3 4 5 6 
#
# 1 0.009360 -0.002803 -0.003279 0.000000 0.000000 0.000000
# 2 -0.002803 0.008743 -0.004369 0.000000 0.000000 0.000000
# 3 -0.003279 -0.004369 0.013952 0.000000 0.000000 0.000000
# 4 0.000000 0.000000 0.000000 0.032420 0.000000 0.000000
# 5 0.000000 0.000000 0.000000 0.000000 0.119307 0.000000
# 6 0.000000 0.000000 0.000000 0.000000 0.000000 0.027337
#
#
# Mechanical properties :
#
#
# Convention : Reuss Voigt Hill
#
# Bulk Modulus (GPa) = 89.66636 95.80656 92.73646
# Shear Modulus (GPa) = 21.21011 30.10970 25.65990
#
# Velocity S-wave (km/s) = 2.98929 3.56164 3.28794
# Velocity P-wave (km/s) = 7.04919 7.56817 7.31328
#
# Compressibility (1/GPa) = 0.01115245
#
# Stress axis : x y z
#
# Youngs Moduli (GPa) = 106.84117 114.37887 71.67590
#
# Poissons Ratio (x) = 0.32060 0.23500
# Poissons Ratio (y) = 0.29947 0.31318
# Poissons Ratio (z) = 0.35029 0.49976
#
# Static dielectric constant tensor:
#      x y z
#    x 1.940990 0.000000 0.000000 
#    y 0.000000 1.918730 0.000000 
#    z 0.000000 0.000000 1.895560 
# 
# From -- ./inp_files/1355.got.cif
#   From: 2010.05.17/outbox.cif.g08.bks.cpg/sg32_1_cif.got.tgz:1355.got - 2010.06.03 17:12:27.
