data_PCOD9344622
_publ_section_title
;
Structure prediction by ZEFSAII (Michael W. Deem and Ramdas Pophale) SiO2 
 PCOD9344622
Probable space group: P N A 21
;
_chemical_formula_sum "Si O2"
_cell_formula_units_Z 28
_cell_length_a 13.104900
_cell_length_b 10.690495
_cell_length_c 7.684693
_cell_angle_alpha 90.000000
_cell_angle_beta 90.000000
_cell_angle_gamma 90.000000
_cell_volume 1076.609105
_symmetry_space_group_name_H-M "P N A 21"
_symmetry_group_IT_number 33
_symmetry_cell_setting 'orthorhombic'
loop_
_space_group_symop_operation_xyz
x,y,z
-x,-y,1/2+z
1/2-x,1/2+y,1/2+z
1/2+x,1/2-y,z
loop_
_atom_site_type_symbol
_atom_site_label
_atom_site_fract_x
_atom_site_fract_y
_atom_site_fract_z
Si Si1 0.894512 0.952660 0.386740
Si Si2 0.622741 0.008743 0.797062
Si Si3 0.932345 0.855636 0.871390
Si Si4 0.697504 0.647889 0.116606
Si Si5 0.493336 0.223846 0.724396
Si Si6 0.765885 0.008752 0.085538
Si Si7 0.736864 0.764822 0.735943
O O1 0.862378 0.019690 0.565673
O O2 0.791473 0.951066 0.272344
O O3 0.972672 0.059680 0.311913
O O4 0.948705 0.820870 0.354325
O O5 0.701507 0.109436 0.715614
O O6 0.517763 0.080694 0.771240
O O7 0.657626 0.878318 0.711090
O O8 0.657175 0.990077 0.996327
O O9 0.859245 0.788620 0.733089
O O10 0.970691 0.762434 0.025832
O O11 0.851261 0.948662 0.962455
O O12 0.623566 0.735836 0.224223
O O13 0.721308 0.714028 0.933217
O O14 0.784389 0.154839 0.104713
#
# Coordination Sequence:
#
# PCOD9344622 Si02
#       7
#     4   4   4   4   4   4   4
#     4   9  19  36  64  87 111 147 205 257 289 338
#     4  11  22  37  60  88 121 162 191 242 310 351
#     4   9  17  36  61  84 112 150 198 248 295 339
#     4  10  21  39  61  83 120 156 196 253 292 348
#     4  10  19  35  60  88 112 149 201 240 295 351
#     4   9  20  35  54  90 117 145 199 246 288 354
#     4  10  20  38  58  80 123 159 190 244 303 363
#
# _framework density 26.007581999999999
#
# number of rings (size 3 to 8) (size 9 to 14) (size 15 to 20)
#    0.000    2.286    1.429    1.714    2.000    0.000 
#    2.571    2.857   15.714    0.000    0.000    0.000 
#    0.000    0.000    0.000    0.000    0.000    0.000 
#
# Total GULP energy -156580.915025 kJ/mol
# GULP energy per Si atom -5592.175537 kJ/mol
# Density = 2.594839 g / cm^3
# Si number density = 26.007582 Si / 1000 Ang^3
#
#
#
# Elastic Constant Matrix: (Units=GPa)
#
#
# Indices 1 2 3 4 5 6 
#
# 1 49.5241 -1.4598 13.9968 0.0000 0.0000 0.0000
# 2 -1.4598 81.6589 2.8986 0.0000 0.0000 0.0000
# 3 13.9968 2.8986 46.5100 0.0000 0.0000 0.0000
# 4 0.0000 0.0000 0.0000 36.3223 0.0000 0.0000
# 5 0.0000 0.0000 0.0000 0.0000 24.6820 0.0000
# 6 0.0000 0.0000 0.0000 0.0000 0.0000 35.1670
#
#
#
# Elastic Compliance Matrix: (Units=1/GPa)
#
#
# Indices 1 2 3 4 5 6 
#
# 1 0.022102 0.000633 -0.006691 0.000000 0.000000 0.000000
# 2 0.000633 0.012291 -0.000956 0.000000 0.000000 0.000000
# 3 -0.006691 -0.000956 0.023574 0.000000 0.000000 0.000000
# 4 0.000000 0.000000 0.000000 0.027531 0.000000 0.000000
# 5 0.000000 0.000000 0.000000 0.000000 0.040515 0.000000
# 6 0.000000 0.000000 0.000000 0.000000 0.000000 0.028436
#
#
# Mechanical properties :
#
#
# Convention : Reuss Voigt Hill
#
# Bulk Modulus (GPa) = 22.75941 23.17381 22.96661
# Shear Modulus (GPa) = 27.30385 30.05144 28.67765
#
# Velocity S-wave (km/s) = 3.24364 3.40293 3.32424
# Velocity P-wave (km/s) = 4.77476 4.93657 4.85634
#
# Compressibility (1/GPa) = 0.04393787
#
# Stress axis : x y z
#
# Youngs Moduli (GPa) = 45.24516 81.35824 42.41987
#
# Poissons Ratio (x) = -0.05147 0.28382
# Poissons Ratio (y) = -0.02862 0.04057
# Poissons Ratio (z) = 0.30272 0.07781
#
# Static dielectric constant tensor:
#      x y z
#    x 2.059660 0.000000 0.000000 
#    y 0.000000 2.098640 0.000000 
#    z 0.000000 0.000000 2.098590 
# 
# From -- ./inp_files/4329.got.cif
#   From: 2010.05.17/outbox.cif.g08.bks.cpg/sg33_3_cif.got.tgz:4329.got - 2010.06.03 17:15:25.
