data_PCOD9344784
_publ_section_title
;
Structure prediction by ZEFSAII (Michael W. Deem and Ramdas Pophale) SiO2 
 PCOD9344784
Probable space group: P N A 21
;
_chemical_formula_sum "Si O2"
_cell_formula_units_Z 32
_cell_length_a 5.573213
_cell_length_b 21.934917
_cell_length_c 9.049820
_cell_angle_alpha 90.000000
_cell_angle_beta 90.000000
_cell_angle_gamma 90.000000
_cell_volume 1106.322075
_symmetry_space_group_name_H-M "P N A 21"
_symmetry_group_IT_number 33
_symmetry_cell_setting 'orthorhombic'
loop_
_space_group_symop_operation_xyz
x,y,z
-x,-y,1/2+z
1/2-x,1/2+y,1/2+z
1/2+x,1/2-y,z
loop_
_atom_site_type_symbol
_atom_site_label
_atom_site_fract_x
_atom_site_fract_y
_atom_site_fract_z
Si Si1 0.789170 0.771660 0.129840
Si Si2 0.023670 0.990030 0.872590
Si Si3 0.349564 0.096751 0.548293
Si Si4 0.699424 0.181375 0.353393
Si Si5 0.944657 0.715483 0.520089
Si Si6 0.793092 0.103302 0.910441
Si Si7 0.556369 0.978792 0.596594
Si Si8 0.566248 0.391190 0.193581
O O1 0.544334 0.745426 0.199020
O O2 0.771519 0.844301 0.120506
O O3 0.786928 0.736975 0.969491
O O4 0.931866 0.054928 0.807539
O O5 0.227885 0.003298 0.987338
O O6 0.841328 0.942914 0.955178
O O7 0.108191 0.947614 0.739499
O O8 0.557644 0.129582 0.448141
O O9 0.465289 0.044695 0.653171
O O10 0.573655 0.194365 0.195003
O O11 0.967883 0.160936 0.301392
O O12 0.714364 0.759963 0.505309
O O13 0.881808 0.660806 0.404742
O O14 0.631344 0.053753 0.992555
O O15 0.994932 0.126081 0.027601
O O16 0.678912 0.925210 0.691488
#
# Coordination Sequence:
#
# PCOD9344784 Si02
#       8
#     4   4   4   4   4   4   4   4
#     4  10  20  32  50  79 114 151 194 233 288 359
#     4  10  20  35  58  78 112 160 202 251 302 356
#     4  10  20  34  52  79 116 157 204 238 294 361
#     4  10  20  34  52  86 121 160 195 242 293 379
#     4  11  24  37  57  86 123 162 197 243 308 374
#     4   9  23  36  54  86 118 156 198 256 296 369
#     4  10  21  37  53  79 118 156 204 247 296 357
#     4  10  20  33  58  81 116 156 198 244 299 351
#
# _framework density 28.924666999999999
#
# number of rings (size 3 to 8) (size 9 to 14) (size 15 to 20)
#    0.000    2.000    1.250    2.250   10.500    1.000 
#    0.000    0.000    0.000    0.000    0.000    3.500 
#    0.000    0.000    0.000    0.000    0.000    0.000 
#
# Total GULP energy -178859.666067 kJ/mol
# GULP energy per Si atom -5589.364565 kJ/mol
# Density = 2.885883 g / cm^3
# Si number density = 28.924667 Si / 1000 Ang^3
#
#
#
# Elastic Constant Matrix: (Units=GPa)
#
#
# Indices 1 2 3 4 5 6 
#
# 1 138.2019 87.4290 23.8506 0.0000 0.0000 0.0000
# 2 87.4290 210.6314 25.2551 0.0000 0.0000 0.0000
# 3 23.8506 25.2551 73.9049 0.0000 0.0000 0.0000
# 4 0.0000 0.0000 0.0000 40.0654 0.0000 0.0000
# 5 0.0000 0.0000 0.0000 0.0000 44.1355 0.0000
# 6 0.0000 0.0000 0.0000 0.0000 0.0000 78.1057
#
#
#
# Elastic Compliance Matrix: (Units=1/GPa)
#
#
# Indices 1 2 3 4 5 6 
#
# 1 0.010061 -0.003949 -0.001898 0.000000 0.000000 0.000000
# 2 -0.003949 0.006500 -0.000947 0.000000 0.000000 0.000000
# 3 -0.001898 -0.000947 0.014467 0.000000 0.000000 0.000000
# 4 0.000000 0.000000 0.000000 0.024959 0.000000 0.000000
# 5 0.000000 0.000000 0.000000 0.000000 0.022657 0.000000
# 6 0.000000 0.000000 0.000000 0.000000 0.000000 0.012803
#
#
# Mechanical properties :
#
#
# Convention : Reuss Voigt Hill
#
# Bulk Modulus (GPa) = 57.33341 77.31196 67.32268
# Shear Modulus (GPa) = 45.10651 51.54157 48.32404
#
# Velocity S-wave (km/s) = 3.95327 4.22586 4.09184
# Velocity P-wave (km/s) = 6.37985 7.11318 6.75647
#
# Compressibility (1/GPa) = 0.01744184
#
# Stress axis : x y z
#
# Youngs Moduli (GPa) = 99.39063 153.84114 69.12338
#
# Poissons Ratio (x) = 0.60748 0.13117
# Poissons Ratio (y) = 0.39247 0.06546
# Poissons Ratio (z) = 0.18860 0.14568
#
# Static dielectric constant tensor:
#      x y z
#    x 2.408810 0.000000 0.000000 
#    y 0.000000 2.273970 0.000000 
#    z 0.000000 0.000000 2.385830 
# 
# From -- ./inp_files/5558.got.cif
#   From: 2010.05.17/outbox.cif.g08.bks.cpg/sg33_3_cif.got.tgz:5558.got - 2010.06.03 17:15:25.
