data_PCOD9344117
_publ_section_title
;
Structure prediction by ZEFSAII (Michael W. Deem and Ramdas Pophale) SiO2 
 PCOD9344117
Probable space group: P B A 2
;
_chemical_formula_sum "Si O2"
_cell_formula_units_Z 24
_cell_length_a 8.773505
_cell_length_b 21.825171
_cell_length_c 5.228257
_cell_angle_alpha 90.000000
_cell_angle_beta 90.000000
_cell_angle_gamma 90.000000
_cell_volume 1001.123626
_symmetry_space_group_name_H-M "P B A 2"
_symmetry_group_IT_number 32
_symmetry_cell_setting 'orthorhombic'
loop_
_space_group_symop_operation_xyz
x,y,z
-x,-y,z
1/2-x,1/2+y,z
1/2+x,1/2-y,z
loop_
_atom_site_type_symbol
_atom_site_label
_atom_site_fract_x
_atom_site_fract_y
_atom_site_fract_z
Si Si1 0.360459 0.339298 0.458540
Si Si2 0.079433 0.934469 0.837188
Si Si3 0.089691 0.186063 0.056161
Si Si4 0.466489 0.857117 0.387812
Si Si5 0.927650 0.566427 0.911713
Si Si6 0.876187 0.272264 0.776815
O O1 0.389837 0.408113 0.552149
O O2 0.519859 0.315952 0.340775
O O3 0.202929 0.333438 0.306337
O O4 0.317002 0.294410 0.690799
O O5 0.246312 0.938867 0.962350
O O6 0.000000 0.000000 0.842610
O O7 0.979491 0.878759 0.954103
O O8 0.260439 0.191480 0.956000
O O9 0.018287 0.248603 0.940313
O O10 0.444469 0.899801 0.639528
O O11 0.579524 0.807671 0.515993
O O12 0.509308 0.897227 0.142602
O O13 0.000000 0.500000 0.892195
#
# Coordination Sequence:
#
# PCOD9344117 Si02
#       6
#     4   4   4   4   4   4
#     4  10  23  43  67  99 147 191 238 316 378 453
#     4  10  24  45  67 100 144 187 250 308 382 454
#     4  11  24  43  67 102 141 193 248 313 379 458
#     4  11  24  47  71 104 143 194 243 311 381 453
#     4  11  25  48  72 102 143 193 249 307 380 456
#     4  11  25  40  68 103 142 188 246 309 381 461
#
# _framework density 23.973063
#
# number of rings (size 3 to 8) (size 9 to 14) (size 15 to 20)
#    0.000    1.333    3.333    0.500    7.000    0.667 
#    0.000    0.000    0.000    0.000    0.000    0.000 
#    0.000    0.000    0.000    0.000    0.000    0.000 
#
# Total GULP energy -133903.988185 kJ/mol
# GULP energy per Si atom -5579.332841 kJ/mol
# Density = 2.391850 g / cm^3
# Si number density = 23.973063 Si / 1000 Ang^3
#
#
#
# Elastic Constant Matrix: (Units=GPa)
#
#
# Indices 1 2 3 4 5 6 
#
# 1 105.5842 81.3577 41.4758 0.0000 0.0000 0.0000
# 2 81.3577 152.8168 45.5292 0.0000 0.0000 0.0000
# 3 41.4758 45.5292 106.5291 0.0000 0.0000 0.0000
# 4 0.0000 0.0000 0.0000 25.9972 0.0000 0.0000
# 5 0.0000 0.0000 0.0000 0.0000 32.5700 0.0000
# 6 0.0000 0.0000 0.0000 0.0000 0.0000 47.9685
#
#
#
# Elastic Compliance Matrix: (Units=1/GPa)
#
#
# Indices 1 2 3 4 5 6 
#
# 1 0.016928 -0.008077 -0.003139 0.000000 0.000000 0.000000
# 2 -0.008077 0.011353 -0.001707 0.000000 0.000000 0.000000
# 3 -0.003139 -0.001707 0.011339 0.000000 0.000000 0.000000
# 4 0.000000 0.000000 0.000000 0.038466 0.000000 0.000000
# 5 0.000000 0.000000 0.000000 0.000000 0.030703 0.000000
# 6 0.000000 0.000000 0.000000 0.000000 0.000000 0.020847
#
#
# Mechanical properties :
#
#
# Convention : Reuss Voigt Hill
#
# Bulk Modulus (GPa) = 72.60425 77.96174 75.28299
# Shear Modulus (GPa) = 31.23602 34.41163 32.82383
#
# Velocity S-wave (km/s) = 3.61357 3.79282 3.70428
# Velocity P-wave (km/s) = 6.91101 7.19526 7.05457
#
# Compressibility (1/GPa) = 0.01377330
#
# Stress axis : x y z
#
# Youngs Moduli (GPa) = 59.07460 88.08612 88.19328
#
# Poissons Ratio (x) = 0.71147 0.27680
# Poissons Ratio (y) = 0.47715 0.15057
# Poissons Ratio (z) = 0.18541 0.15038
#
# Static dielectric constant tensor:
#      x y z
#    x 2.066250 0.000000 0.000000 
#    y 0.000000 1.874790 0.000000 
#    z 0.000000 0.000000 2.072020 
# 
# From -- ./inp_files/492.got.cif
#   From: 2010.05.17/outbox.cif.g08.bks.cpg/sg32_1_cif.got.tgz:492.got - 2010.06.03 17:12:27.
