data_PCOD9344862
_publ_section_title
;
Structure prediction by ZEFSAII (Michael W. Deem and Ramdas Pophale) SiO2 
 PCOD9344862
Probable space group: P N A 21
;
_chemical_formula_sum "Si O2"
_cell_formula_units_Z 32
_cell_length_a 8.452522
_cell_length_b 5.128652
_cell_length_c 27.338495
_cell_angle_alpha 90.000000
_cell_angle_beta 90.000000
_cell_angle_gamma 90.000000
_cell_volume 1185.124957
_symmetry_space_group_name_H-M "P N A 21"
_symmetry_group_IT_number 33
_symmetry_cell_setting 'orthorhombic'
loop_
_space_group_symop_operation_xyz
x,y,z
-x,-y,1/2+z
1/2-x,1/2+y,1/2+z
1/2+x,1/2-y,z
loop_
_atom_site_type_symbol
_atom_site_label
_atom_site_fract_x
_atom_site_fract_y
_atom_site_fract_z
Si Si1 0.190518 0.489238 0.228540
Si Si2 0.544294 0.276906 0.319580
Si Si3 0.144076 0.073910 0.098785
Si Si4 0.828271 0.724404 0.311754
Si Si5 0.405590 0.102209 0.166190
Si Si6 0.114778 0.920384 0.533831
Si Si7 0.132242 0.349693 0.964971
Si Si8 0.344659 0.013407 0.900318
O O1 0.251255 0.737452 0.258431
O O2 0.316506 0.336072 0.195124
O O3 0.146465 0.288908 0.272122
O O4 0.027685 0.549847 0.200453
O O5 0.453729 0.542196 0.313974
O O6 0.417933 0.042736 0.319051
O O7 0.640363 0.254498 0.370491
O O8 0.266747 0.945826 0.137407
O O9 0.264452 0.250864 0.066666
O O10 0.027714 0.261829 0.128713
O O11 0.014043 0.916217 0.065984
O O12 0.709583 0.799026 0.355678
O O13 0.230628 0.024866 0.490702
O O14 0.993858 0.732427 0.505793
O O15 0.220258 0.096131 0.942053
O O16 0.018468 0.458076 0.923315
#
# Coordination Sequence:
#
# PCOD9344862 Si02
#       8
#     4   4   4   4   4   4   4   4
#     4  10  20  36  56  85 120 178 214 279 315 384
#     4  11  24  43  64  91 130 181 230 271 324 383
#     4   8  14  25  48  84 128 167 208 266 334 397
#     4  11  24  43  64  91 130 181 228 273 322 383
#     4   9  16  31  52  83 128 167 220 268 323 394
#     4   8  14  25  48  84 128 167 208 266 334 397
#     4   9  16  31  52  83 128 167 220 268 323 394
#     4  10  20  36  56  85 120 178 214 279 315 384
#
# _framework density 27.001370999999999
#
# number of rings (size 3 to 8) (size 9 to 14) (size 15 to 20)
#    0.000    2.500    2.500    0.000    0.000    4.000 
#    0.000    0.000    0.000    0.000    0.000    0.000 
#    0.000  372.000    0.000    0.000    0.000   93.000 
#
# Total GULP energy -178799.509940 kJ/mol
# GULP energy per Si atom -5587.484686 kJ/mol
# Density = 2.693991 g / cm^3
# Si number density = 27.001371 Si / 1000 Ang^3
#
#
#
# Elastic Constant Matrix: (Units=GPa)
#
#
# Indices 1 2 3 4 5 6 
#
# 1 194.3557 36.6509 93.5836 0.0000 0.0000 0.0000
# 2 36.6509 70.0392 12.5801 0.0000 0.0000 0.0000
# 3 93.5836 12.5801 135.8150 0.0000 0.0000 0.0000
# 4 0.0000 0.0000 0.0000 -197.3657 0.0000 0.0000
# 5 0.0000 0.0000 0.0000 0.0000 117.2794 0.0000
# 6 0.0000 0.0000 0.0000 0.0000 0.0000 55.4441
#
#
#
# Elastic Compliance Matrix: (Units=1/GPa)
#
#
# Indices 1 2 3 4 5 6 
#
# 1 0.008439 -0.003428 -0.005497 0.000000 0.000000 0.000000
# 2 -0.003428 0.015912 0.000889 0.000000 0.000000 0.000000
# 3 -0.005497 0.000889 0.011068 0.000000 0.000000 0.000000
# 4 0.000000 0.000000 0.000000 -0.005067 0.000000 0.000000
# 5 0.000000 0.000000 0.000000 0.000000 0.008527 0.000000
# 6 0.000000 0.000000 0.000000 0.000000 0.000000 0.018036
#
#
# Mechanical properties :
#
#
# Convention : Reuss Voigt Hill
#
# Bulk Modulus (GPa) = 51.69251 76.20434 63.94843
# Shear Modulus (GPa) = 62.94227 12.23124 37.58676
#
# Velocity S-wave (km/s) = 4.83336 2.13066 3.73504
# Velocity P-wave (km/s) = 7.09468 5.85974 6.50658
#
# Compressibility (1/GPa) = 0.01934516
#
# Stress axis : x y z
#
# Youngs Moduli (GPa) = 118.50285 62.84473 90.34708
#
# Poissons Ratio (x) = 0.21546 0.49664
# Poissons Ratio (y) = 0.40629 -0.08027
# Poissons Ratio (z) = 0.65142 -0.05584
#
# Static dielectric constant tensor:
#      x y z
#    x 2.131410 0.000000 0.000000 
#    y 0.000000 4.780440 0.000000 
#    z 0.000000 0.000000 2.266470 
# 
# From -- ./inp_files/9382.got.cif
#   From: 2010.05.17/outbox.cif.g08.bks.cpg/sg33_5_cif.got.tgz:9382.got - 2010.06.03 17:15:25.
