data_PCOD9344191
_publ_section_title
;
Structure prediction by ZEFSAII (Michael W. Deem and Ramdas Pophale) SiO2 
 PCOD9344191
Probable space group: P B A 2
;
_chemical_formula_sum "Si O2"
_cell_formula_units_Z 14
_cell_length_a 10.284650
_cell_length_b 10.744139
_cell_length_c 5.016134
_cell_angle_alpha 90.000000
_cell_angle_beta 90.000000
_cell_angle_gamma 90.000000
_cell_volume 554.281348
_symmetry_space_group_name_H-M "P B A 2"
_symmetry_group_IT_number 32
_symmetry_cell_setting 'orthorhombic'
loop_
_space_group_symop_operation_xyz
x,y,z
-x,-y,z
1/2-x,1/2+y,z
1/2+x,1/2-y,z
loop_
_atom_site_type_symbol
_atom_site_label
_atom_site_fract_x
_atom_site_fract_y
_atom_site_fract_z
Si Si1 0.852440 0.883001 0.965570
Si Si2 0.891113 0.252920 0.830879
Si Si3 0.286086 0.453985 0.451347
Si Si4 0.000000 0.500000 0.570511
O O1 0.736324 0.783584 0.004109
O O2 0.990612 0.817675 0.968518
O O3 0.827302 0.944102 0.676267
O O4 0.839996 0.991613 0.179183
O O5 0.841999 0.172431 0.577429
O O6 0.950813 0.384236 0.742619
O O7 0.129442 0.453302 0.421618
#
# Coordination Sequence:
#
# PCOD9344191 Si02
#       4
#     4   4   4   2
#     4  11  27  47  82 115 161 216 268 340 414 485
#     4  11  24  53  79 120 165 210 274 343 412 497
#     4  11  26  48  80 118 159 211 279 335 413 487
#     4  10  24  50  78 120 160 214 266 338 412 492
#
# _framework density 25.257930000000002
#
# number of rings (size 3 to 8) (size 9 to 14) (size 15 to 20)
#    0.000    1.143    2.857    0.857    0.000   18.286 
#    0.000    0.000    0.000    0.000    0.000    0.000 
#    0.000    0.000    0.000    0.000    0.000    0.000 
#
# Total GULP energy -78531.949292 kJ/mol
# GULP energy per Si atom -5609.424949 kJ/mol
# Density = 2.520044 g / cm^3
# Si number density = 25.257930 Si / 1000 Ang^3
#
#
#
# Elastic Constant Matrix: (Units=GPa)
#
#
# Indices 1 2 3 4 5 6 
#
# 1 251.2121 118.9918 64.9129 0.0000 0.0000 0.0000
# 2 118.9918 140.2121 27.2173 0.0000 0.0000 0.0000
# 3 64.9129 27.2173 30.0054 0.0000 0.0000 0.0000
# 4 0.0000 0.0000 0.0000 34.1683 0.0000 0.0000
# 5 0.0000 0.0000 0.0000 0.0000 12.5995 0.0000
# 6 0.0000 0.0000 0.0000 0.0000 0.0000 66.5036
#
#
#
# Elastic Compliance Matrix: (Units=1/GPa)
#
#
# Indices 1 2 3 4 5 6 
#
# 1 0.012578 -0.006545 -0.021274 0.000000 0.000000 0.000000
# 2 -0.006545 0.012062 0.003218 0.000000 0.000000 0.000000
# 3 -0.021274 0.003218 0.076433 0.000000 0.000000 0.000000
# 4 0.000000 0.000000 0.000000 0.029267 0.000000 0.000000
# 5 0.000000 0.000000 0.000000 0.000000 0.079368 0.000000
# 6 0.000000 0.000000 0.000000 0.000000 0.000000 0.015037
#
#
# Mechanical properties :
#
#
# Convention : Reuss Voigt Hill
#
# Bulk Modulus (GPa) = 19.27893 93.74150 56.51021
# Shear Modulus (GPa) = 17.16814 36.67479 26.92146
#
# Velocity S-wave (km/s) = 2.60996 3.81466 3.26830
# Velocity P-wave (km/s) = 4.09046 7.52306 6.05509
#
# Compressibility (1/GPa) = 0.05187011
#
# Stress axis : x y z
#
# Youngs Moduli (GPa) = 79.50369 82.90735 13.08336
#
# Poissons Ratio (x) = 0.54261 0.27834
# Poissons Ratio (y) = 0.52033 -0.04210
# Poissons Ratio (z) = 1.69139 -0.26678
#
# Static dielectric constant tensor:
#      x y z
#    x 2.012380 0.000000 0.000000 
#    y 0.000000 2.090820 0.000000 
#    z 0.000000 0.000000 1.951340 
# 
# From -- ./inp_files/287.got.cif
#   From: 2010.05.17/outbox.cif.g08.bks.cpg/sg32_1_cif.got.tgz:287.got - 2010.06.03 17:12:27.
