data_PCOD9344078
_publ_section_title
;
Structure prediction by ZEFSAII (Michael W. Deem and Ramdas Pophale) SiO2 
 PCOD9344078
Probable space group: P B A 2
;
_chemical_formula_sum "Si O2"
_cell_formula_units_Z 26
_cell_length_a 16.636410
_cell_length_b 8.492151
_cell_length_c 8.228638
_cell_angle_alpha 90.000000
_cell_angle_beta 90.000000
_cell_angle_gamma 90.000000
_cell_volume 1162.532973
_symmetry_space_group_name_H-M "P B A 2"
_symmetry_group_IT_number 32
_symmetry_cell_setting 'orthorhombic'
loop_
_space_group_symop_operation_xyz
x,y,z
-x,-y,z
1/2-x,1/2+y,z
1/2+x,1/2-y,z
loop_
_atom_site_type_symbol
_atom_site_label
_atom_site_fract_x
_atom_site_fract_y
_atom_site_fract_z
Si Si1 0.192170 0.226449 0.051480
Si Si2 0.000000 0.500000 0.833856
Si Si3 0.826190 0.474246 0.889484
Si Si4 0.671334 0.808912 0.545245
Si Si5 0.253045 0.931599 0.356160
Si Si6 0.504986 0.310354 0.605738
Si Si7 0.082170 0.095869 0.284734
O O1 0.219692 0.325356 0.207832
O O2 0.104661 0.170641 0.110330
O O3 0.188525 0.340824 0.898648
O O4 0.260268 0.101512 0.007716
O O5 0.920267 0.455303 0.933925
O O6 0.019994 0.340779 0.725898
O O7 0.818049 0.395914 0.714952
O O8 0.738190 0.678404 0.511627
O O9 0.584724 0.728681 0.544474
O O10 0.683795 0.934998 0.402367
O O11 0.165094 0.002281 0.317358
O O12 0.500000 0.500000 0.659710
O O13 0.564669 0.305410 0.449942
O O14 0.000000 0.000000 0.266886
#
# Coordination Sequence:
#
# PCOD9344078 Si02
#       7
#     4   2   4   4   4   4   4
#     4  12  25  47  70 104 152 191 244 299 380 451
#     4  10  26  48  72 108 152 192 260 294 380 446
#     4  11  26  48  68 106 147 196 239 301 376 450
#     4  11  23  43  74 104 143 185 249 304 359 441
#     4  12  22  42  73 107 136 190 245 304 357 440
#     4  10  22  44  72 110 144 184 245 318 369 426
#     4  11  23  41  71 106 143 183 247 301 374 427
#
# _framework density 22.364958999999999
#
# number of rings (size 3 to 8) (size 9 to 14) (size 15 to 20)
#    0.000    0.923    6.154    0.923    4.308    2.462 
#    8.308    0.000    0.000    0.000    0.000    0.000 
#    0.000    0.000    0.000    0.000    0.000    0.000 
#
# Total GULP energy -144947.032819 kJ/mol
# GULP energy per Si atom -5574.885878 kJ/mol
# Density = 2.231406 g / cm^3
# Si number density = 22.364959 Si / 1000 Ang^3
#
#
#
# Elastic Constant Matrix: (Units=GPa)
#
#
# Indices 1 2 3 4 5 6 
#
# 1 110.4802 36.8990 24.2971 0.0000 0.0000 0.0000
# 2 36.8990 92.7603 14.7124 0.0000 0.0000 0.0000
# 3 24.2971 14.7124 39.5196 0.0000 0.0000 0.0000
# 4 0.0000 0.0000 0.0000 24.9299 0.0000 0.0000
# 5 0.0000 0.0000 0.0000 0.0000 34.0350 0.0000
# 6 0.0000 0.0000 0.0000 0.0000 0.0000 42.6491
#
#
#
# Elastic Compliance Matrix: (Units=1/GPa)
#
#
# Indices 1 2 3 4 5 6 
#
# 1 0.011540 -0.003683 -0.005724 0.000000 0.000000 0.000000
# 2 -0.003683 0.012632 -0.002439 0.000000 0.000000 0.000000
# 3 -0.005724 -0.002439 0.029731 0.000000 0.000000 0.000000
# 4 0.000000 0.000000 0.000000 0.040112 0.000000 0.000000
# 5 0.000000 0.000000 0.000000 0.000000 0.029382 0.000000
# 6 0.000000 0.000000 0.000000 0.000000 0.000000 0.023447
#
#
# Mechanical properties :
#
#
# Convention : Reuss Voigt Hill
#
# Bulk Modulus (GPa) = 33.09865 43.84191 38.47028
# Shear Modulus (GPa) = 27.68457 31.44624 29.56541
#
# Velocity S-wave (km/s) = 3.52213 3.75380 3.63981
# Velocity P-wave (km/s) = 5.60107 6.19948 5.90786
#
# Compressibility (1/GPa) = 0.03021271
#
# Stress axis : x y z
#
# Youngs Moduli (GPa) = 86.65338 79.16292 33.63500
#
# Poissons Ratio (x) = 0.29153 0.19253
# Poissons Ratio (y) = 0.31912 0.08202
# Poissons Ratio (z) = 0.49601 0.19304
#
# Static dielectric constant tensor:
#      x y z
#    x 1.820440 0.000000 0.000000 
#    y 0.000000 1.939070 0.000000 
#    z 0.000000 0.000000 1.855470 
# 
# From -- ./inp_files/3201.got.cif
#   From: 2010.05.17/outbox.cif.g08.bks.cpg/sg32_2_cif.got.tgz:3201.got - 2010.06.03 17:12:27.
