data_PCOD9344385
_publ_section_title
;
Structure prediction by ZEFSAII (Michael W. Deem and Ramdas Pophale) SiO2 
 PCOD9344385
Probable space group: P N A 21
;
_chemical_formula_sum "Si O2"
_cell_formula_units_Z 32
_cell_length_a 9.620087
_cell_length_b 7.672936
_cell_length_c 16.844103
_cell_angle_alpha 90.000000
_cell_angle_beta 90.000000
_cell_angle_gamma 90.000000
_cell_volume 1243.335872
_symmetry_space_group_name_H-M "P N A 21"
_symmetry_group_IT_number 33
_symmetry_cell_setting 'orthorhombic'
loop_
_space_group_symop_operation_xyz
x,y,z
-x,-y,1/2+z
1/2-x,1/2+y,1/2+z
1/2+x,1/2-y,z
loop_
_atom_site_type_symbol
_atom_site_label
_atom_site_fract_x
_atom_site_fract_y
_atom_site_fract_z
Si Si1 0.810663 0.925153 0.245760
Si Si2 0.962754 0.251240 0.996339
Si Si3 0.721354 0.288390 0.897589
Si Si4 0.755205 0.947903 0.794834
Si Si5 0.353306 0.641274 0.958303
Si Si6 0.965034 0.923502 0.649599
Si Si7 0.512082 0.078042 0.704196
Si Si8 0.082223 0.719478 0.051818
O O1 0.831334 0.941309 0.340057
O O2 0.646891 0.918060 0.231603
O O3 0.900732 0.754335 0.222076
O O4 0.882529 0.062339 0.188463
O O5 0.828441 0.353677 0.964227
O O6 0.021542 0.225951 0.084244
O O7 0.091778 0.298987 0.941018
O O8 0.908930 0.055289 0.973655
O O9 0.777074 0.142515 0.834698
O O10 0.859879 0.910319 0.722886
O O11 0.602876 0.943062 0.755027
O O12 0.789477 0.834041 0.871541
O O13 0.236066 0.672590 0.025093
O O14 0.485829 0.759034 0.975585
O O15 0.919702 0.098800 0.601405
O O16 0.494511 0.082850 0.609426
#
# Coordination Sequence:
#
# PCOD9344385 Si02
#       8
#     4   4   4   4   4   4   4   4
#     4  10  17  29  54  84 111 143 188 240 289 341
#     4  10  21  36  58  88 121 154 196 249 299 353
#     4  10  18  35  58  85 119 159 197 243 298 357
#     4  10  20  36  56  83 115 152 196 241 288 352
#     4  10  21  37  58  87 118 152 196 245 293 351
#     4  10  20  37  59  87 116 151 195 247 297 346
#     4  10  17  29  53  83 108 138 183 239 287 336
#     4  10  18  35  60  85 114 149 191 246 299 346
#
# _framework density 25.737213000000001
#
# number of rings (size 3 to 8) (size 9 to 14) (size 15 to 20)
#    0.000    2.000    0.000    9.000    0.000    0.000 
#    0.000   15.000    0.000    0.000    0.000    0.000 
#    0.000    0.000    0.000    0.000    0.000    0.000 
#
# Total GULP energy -178834.977081 kJ/mol
# GULP energy per Si atom -5588.593034 kJ/mol
# Density = 2.567863 g / cm^3
# Si number density = 25.737213 Si / 1000 Ang^3
#
#
#
# Elastic Constant Matrix: (Units=GPa)
#
#
# Indices 1 2 3 4 5 6 
#
# 1 155.2175 0.5518 51.4705 0.0000 0.0000 0.0000
# 2 0.5518 77.9620 21.5073 0.0000 0.0000 0.0000
# 3 51.4705 21.5073 153.6082 0.0000 0.0000 0.0000
# 4 0.0000 0.0000 0.0000 7.8488 0.0000 0.0000
# 5 0.0000 0.0000 0.0000 0.0000 46.3717 0.0000
# 6 0.0000 0.0000 0.0000 0.0000 0.0000 -7.7918
#
#
#
# Elastic Compliance Matrix: (Units=1/GPa)
#
#
# Indices 1 2 3 4 5 6 
#
# 1 0.007279 0.000646 -0.002530 0.000000 0.000000 0.000000
# 2 0.000646 0.013399 -0.002093 0.000000 0.000000 0.000000
# 3 -0.002530 -0.002093 0.007651 0.000000 0.000000 0.000000
# 4 0.000000 0.000000 0.000000 0.127408 0.000000 0.000000
# 5 0.000000 0.000000 0.000000 0.000000 0.021565 0.000000
# 6 0.000000 0.000000 0.000000 0.000000 0.000000 -0.128341
#
#
# Mechanical properties :
#
#
# Convention : Reuss Voigt Hill
#
# Bulk Modulus (GPa) = 49.07400 59.31634 54.19517
# Shear Modulus (GPa) = 78.48575 30.16962 54.32768
#
# Velocity S-wave (km/s) = 5.52822 3.42748 4.59940
# Velocity P-wave (km/s) = 7.73673 6.22579 7.02202
#
# Compressibility (1/GPa) = 0.02037739
#
# Stress axis : x y z
#
# Youngs Moduli (GPa) = 137.38004 74.62973 130.70765
#
# Poissons Ratio (x) = -0.04823 0.33063
# Poissons Ratio (y) = -0.08879 0.27353
# Poissons Ratio (z) = 0.34751 0.15618
#
# Static dielectric constant tensor:
#      x y z
#    x 1.981140 0.000000 0.000000 
#    y 0.000000 2.212170 0.000000 
#    z 0.000000 0.000000 2.108500 
# 
# From -- ./inp_files/8573.got.cif
#   From: 2010.05.17/outbox.cif.g08.bks.cpg/sg33_5_cif.got.tgz:8573.got - 2010.06.03 17:15:25.
