data_PCOD9344947
_publ_section_title
;
Structure prediction by ZEFSAII (Michael W. Deem and Ramdas Pophale) SiO2 
 PCOD9344947
Probable space group: P N A 21
;
_chemical_formula_sum "Si O2"
_cell_formula_units_Z 28
_cell_length_a 9.704234
_cell_length_b 27.272217
_cell_length_c 4.957015
_cell_angle_alpha 90.000000
_cell_angle_beta 90.000000
_cell_angle_gamma 90.000000
_cell_volume 1311.903640
_symmetry_space_group_name_H-M "P N A 21"
_symmetry_group_IT_number 33
_symmetry_cell_setting 'orthorhombic'
loop_
_space_group_symop_operation_xyz
x,y,z
-x,-y,1/2+z
1/2-x,1/2+y,1/2+z
1/2+x,1/2-y,z
loop_
_atom_site_type_symbol
_atom_site_label
_atom_site_fract_x
_atom_site_fract_y
_atom_site_fract_z
Si Si1 0.860219 0.130819 0.236600
Si Si2 0.109012 0.644119 0.974795
Si Si3 0.243048 0.108118 0.944190
Si Si4 0.473937 0.533839 0.597004
Si Si5 0.195556 0.345503 0.707401
Si Si6 0.812394 0.255763 0.765574
Si Si7 0.933208 0.800854 0.515005
O O1 0.800084 0.123172 0.530528
O O2 0.974237 0.174993 0.250517
O O3 0.927957 0.080277 0.148679
O O4 0.741464 0.146537 0.018835
O O5 0.183902 0.603808 0.159403
O O6 0.164035 0.697626 0.073161
O O7 0.953584 0.643696 0.085808
O O8 0.152816 0.631796 0.668179
O O9 0.174295 0.058705 0.045016
O O10 0.120980 0.147918 0.888513
O O11 0.524502 0.502568 0.346036
O O12 0.230839 0.289195 0.635186
O O13 0.957565 0.233907 0.864655
O O14 0.710355 0.271446 0.012331
#
# Coordination Sequence:
#
# PCOD9344947 Si02
#       7
#     4   4   4   4   4   4   4
#     4  10  23  40  62  92 125 160 204 270 321 369
#     4  11  22  40  60  88 129 176 211 253 310 371
#     4  10  23  40  62  92 125 160 204 270 321 369
#     4  11  22  42  72  98 118 154 208 270 337 392
#     4  11  22  40  60  88 129 176 211 253 310 371
#     4  10  20  38  58  88 122 172 228 252 296 364
#     4   9  20  38  56  86 124 160 210 258 301 358
#
# _framework density 21.343029999999999
#
# number of rings (size 3 to 8) (size 9 to 14) (size 15 to 20)
#    0.000    1.714    1.429    2.571    0.000   14.857 
#   10.286    0.000    0.000   17.143    0.000    0.000 
#    0.000    0.000    0.000    0.000    0.000    0.000 
#
# Total GULP energy -156037.887336 kJ/mol
# GULP energy per Si atom -5572.781691 kJ/mol
# Density = 2.129445 g / cm^3
# Si number density = 21.343030 Si / 1000 Ang^3
#
#
#
# Elastic Constant Matrix: (Units=GPa)
#
#
# Indices 1 2 3 4 5 6 
#
# 1 82.9293 4.9104 5.7833 0.0000 0.0000 0.0000
# 2 4.9104 81.3317 11.2894 0.0000 0.0000 0.0000
# 3 5.7833 11.2894 75.0322 0.0000 0.0000 0.0000
# 4 0.0000 0.0000 0.0000 32.3517 0.0000 0.0000
# 5 0.0000 0.0000 0.0000 0.0000 23.9547 0.0000
# 6 0.0000 0.0000 0.0000 0.0000 0.0000 20.9610
#
#
#
# Elastic Compliance Matrix: (Units=1/GPa)
#
#
# Indices 1 2 3 4 5 6 
#
# 1 0.012154 -0.000617 -0.000844 0.000000 0.000000 0.000000
# 2 -0.000617 0.012589 -0.001847 0.000000 0.000000 0.000000
# 3 -0.000844 -0.001847 0.013670 0.000000 0.000000 0.000000
# 4 0.000000 0.000000 0.000000 0.030910 0.000000 0.000000
# 5 0.000000 0.000000 0.000000 0.000000 0.041746 0.000000
# 6 0.000000 0.000000 0.000000 0.000000 0.000000 0.047708
#
#
# Mechanical properties :
#
#
# Convention : Reuss Voigt Hill
#
# Bulk Modulus (GPa) = 31.44780 31.47327 31.46054
# Shear Modulus (GPa) = 28.41057 29.94081 29.17569
#
# Velocity S-wave (km/s) = 3.65244 3.74951 3.70129
# Velocity P-wave (km/s) = 5.70557 5.78995 5.74791
#
# Compressibility (1/GPa) = 0.03179872
#
# Stress axis : x y z
#
# Youngs Moduli (GPa) = 82.27860 79.43523 73.15022
#
# Poissons Ratio (x) = 0.04898 0.06174
# Poissons Ratio (y) = 0.05074 0.13508
# Poissons Ratio (z) = 0.06944 0.14668
#
# Static dielectric constant tensor:
#      x y z
#    x 1.850200 0.000000 0.000000 
#    y 0.000000 1.754920 0.000000 
#    z 0.000000 0.000000 1.808120 
# 
# From -- ./inp_files/479.got.cif
#   From: 2010.05.17/outbox.cif.g08.bks.cpg/sg33_1_cif.got.tgz:479.got - 2010.06.03 17:15:25.
