data_PCOD9344869
_publ_section_title
;
Structure prediction by ZEFSAII (Michael W. Deem and Ramdas Pophale) SiO2 
 PCOD9344869
Probable space group: P N A 21
;
_chemical_formula_sum "Si O2"
_cell_formula_units_Z 24
_cell_length_a 26.823543
_cell_length_b 4.828973
_cell_length_c 6.641873
_cell_angle_alpha 90.000000
_cell_angle_beta 90.000000
_cell_angle_gamma 90.000000
_cell_volume 860.322905
_symmetry_space_group_name_H-M "P N A 21"
_symmetry_group_IT_number 33
_symmetry_cell_setting 'orthorhombic'
loop_
_space_group_symop_operation_xyz
x,y,z
-x,-y,1/2+z
1/2-x,1/2+y,1/2+z
1/2+x,1/2-y,z
loop_
_atom_site_type_symbol
_atom_site_label
_atom_site_fract_x
_atom_site_fract_y
_atom_site_fract_z
Si Si1 0.141636 0.988968 0.436210
Si Si2 0.311954 0.837741 0.456425
Si Si3 0.997918 0.567676 0.361090
Si Si4 0.729727 0.658690 0.188706
Si Si5 0.443203 0.396754 0.209498
Si Si6 0.897914 0.511911 0.704332
O O1 0.128410 0.301476 0.377881
O O2 0.198793 0.923699 0.390383
O O3 0.114592 0.917482 0.645362
O O4 0.114869 0.802700 0.261278
O O5 0.286186 0.038300 0.621334
O O6 0.369935 0.885930 0.502400
O O7 0.292549 0.535552 0.515828
O O8 0.287402 0.890511 0.240425
O O9 0.960004 0.307241 0.388860
O O10 0.029933 0.742782 0.522392
O O11 0.044078 0.430664 0.236284
O O12 0.966381 0.801977 0.244425
#
# Coordination Sequence:
#
# PCOD9344869 Si02
#       6
#     4   4   4   4   4   4
#     4   9  18  34  55  76 104 145 179 205 259 333
#     4  10  20  36  58  81 107 140 178 219 264 316
#     4  11  21  36  56  79 107 141 179 220 262 313
#     4  10  20  36  58  81 107 140 178 219 264 316
#     4  11  21  36  56  79 107 141 179 220 262 313
#     4   9  18  34  55  76 104 145 179 205 259 333
#
# _framework density 27.896505000000001
#
# number of rings (size 3 to 8) (size 9 to 14) (size 15 to 20)
#    0.000    2.000    0.000    6.000    0.000    0.000 
#    0.000    5.000    0.000    0.000    0.000    0.000 
#    0.000    0.000    0.000    0.000    0.000    0.000 
#
# Total GULP energy -134275.671660 kJ/mol
# GULP energy per Si atom -5594.819652 kJ/mol
# Density = 2.783301 g / cm^3
# Si number density = 27.896505 Si / 1000 Ang^3
#
#
#
# Elastic Constant Matrix: (Units=GPa)
#
#
# Indices 1 2 3 4 5 6 
#
# 1 116.5192 9.1880 9.2984 0.0000 0.0000 0.0000
# 2 9.1880 105.6663 -2.1586 0.0000 0.0000 0.0000
# 3 9.2984 -2.1586 47.5960 0.0000 0.0000 0.0000
# 4 0.0000 0.0000 0.0000 31.8953 0.0000 0.0000
# 5 0.0000 0.0000 0.0000 0.0000 52.9225 0.0000
# 6 0.0000 0.0000 0.0000 0.0000 0.0000 27.6491
#
#
#
# Elastic Compliance Matrix: (Units=1/GPa)
#
#
# Indices 1 2 3 4 5 6 
#
# 1 0.008785 -0.000800 -0.001753 0.000000 0.000000 0.000000
# 2 -0.000800 0.009545 0.000589 0.000000 0.000000 0.000000
# 3 -0.001753 0.000589 0.021379 0.000000 0.000000 0.000000
# 4 0.000000 0.000000 0.000000 0.031353 0.000000 0.000000
# 5 0.000000 0.000000 0.000000 0.000000 0.018896 0.000000
# 6 0.000000 0.000000 0.000000 0.000000 0.000000 0.036168
#
#
# Mechanical properties :
#
#
# Convention : Reuss Voigt Hill
#
# Bulk Modulus (GPa) = 27.94581 33.60413 30.77497
# Shear Modulus (GPa) = 35.21634 39.39030 37.30332
#
# Velocity S-wave (km/s) = 3.55687 3.76176 3.66075
# Velocity P-wave (km/s) = 5.18728 5.56236 5.37809
#
# Compressibility (1/GPa) = 0.03578354
#
# Stress axis : x y z
#
# Youngs Moduli (GPa) = 113.82789 104.76327 46.77433
#
# Poissons Ratio (x) = 0.08378 0.08197
# Poissons Ratio (y) = 0.09103 -0.02756
# Poissons Ratio (z) = 0.19949 -0.06172
#
# Static dielectric constant tensor:
#      x y z
#    x 2.151880 0.000000 0.000000 
#    y 0.000000 2.041290 0.000000 
#    z 0.000000 0.000000 2.410200 
# 
# From -- ./inp_files/2381.got.cif
#   From: 2010.05.17/outbox.cif.g08.bks.cpg/sg33_2_cif.got.tgz:2381.got - 2010.06.03 17:15:25.
