data_PCOD9344931
_publ_section_title
;
Structure prediction by ZEFSAII (Michael W. Deem and Ramdas Pophale) SiO2 
 PCOD9344931
Probable space group: P N A 21
;
_chemical_formula_sum "Si O2"
_cell_formula_units_Z 28
_cell_length_a 19.122818
_cell_length_b 5.129640
_cell_length_c 13.296403
_cell_angle_alpha 90.000000
_cell_angle_beta 90.000000
_cell_angle_gamma 90.000000
_cell_volume 1304.286348
_symmetry_space_group_name_H-M "P N A 21"
_symmetry_group_IT_number 33
_symmetry_cell_setting 'orthorhombic'
loop_
_space_group_symop_operation_xyz
x,y,z
-x,-y,1/2+z
1/2-x,1/2+y,1/2+z
1/2+x,1/2-y,z
loop_
_atom_site_type_symbol
_atom_site_label
_atom_site_fract_x
_atom_site_fract_y
_atom_site_fract_z
Si Si1 0.738716 0.684069 0.164150
Si Si2 0.847981 0.499691 0.516986
Si Si3 0.910923 0.005487 0.016994
Si Si4 0.630141 0.517156 0.737270
Si Si5 0.181092 0.503147 0.476413
Si Si6 0.930630 0.985100 0.452043
Si Si7 0.741600 0.855517 0.834265
O O1 0.687721 0.902598 0.119383
O O2 0.808580 0.820030 0.205764
O O3 0.711203 0.513317 0.256425
O O4 0.763364 0.511109 0.068448
O O5 0.890292 0.766093 0.516382
O O6 0.786969 0.509010 0.431773
O O7 0.899070 0.265361 0.482076
O O8 0.914520 0.055345 0.137079
O O9 0.858978 0.225730 0.974063
O O10 0.987282 0.022227 0.970604
O O11 0.875615 0.725209 0.998013
O O12 0.587877 0.431454 0.835359
O O13 0.673243 0.771375 0.771329
O O14 0.221826 0.402354 0.378223
#
# Coordination Sequence:
#
# PCOD9344931 Si02
#       7
#     4   4   4   4   4   4   4
#     4  10  20  37  64  93 125 156 209 268 330 384
#     4  10  23  38  64  93 123 163 211 266 322 376
#     4  11  23  43  62  90 129 172 216 260 313 401
#     4  10  22  38  66  88 124 174 208 266 338 378
#     4  10  23  38  64  93 123 163 211 266 322 376
#     4  11  23  43  62  90 129 172 216 260 313 401
#     4  10  20  37  64  93 125 156 209 268 330 384
#
# _framework density 21.467676999999998
#
# number of rings (size 3 to 8) (size 9 to 14) (size 15 to 20)
#    0.000    1.714    2.857    0.857    4.000    3.429 
#    2.571    0.000    0.000    0.000    0.000    0.000 
#    0.000    0.000    0.000    0.000    0.000    0.000 
#
# Total GULP energy -156634.708792 kJ/mol
# GULP energy per Si atom -5594.096743 kJ/mol
# Density = 2.141882 g / cm^3
# Si number density = 21.467677 Si / 1000 Ang^3
#
#
#
# Elastic Constant Matrix: (Units=GPa)
#
#
# Indices 1 2 3 4 5 6 
#
# 1 73.7697 12.2422 -1.1255 0.0000 0.0000 0.0000
# 2 12.2422 72.4649 2.7855 0.0000 0.0000 0.0000
# 3 -1.1255 2.7855 67.9581 0.0000 0.0000 0.0000
# 4 0.0000 0.0000 0.0000 37.3637 0.0000 0.0000
# 5 0.0000 0.0000 0.0000 0.0000 34.0343 0.0000
# 6 0.0000 0.0000 0.0000 0.0000 0.0000 24.0118
#
#
#
# Elastic Compliance Matrix: (Units=1/GPa)
#
#
# Indices 1 2 3 4 5 6 
#
# 1 0.013954 -0.002370 0.000328 0.000000 0.000000 0.000000
# 2 -0.002370 0.014224 -0.000622 0.000000 0.000000 0.000000
# 3 0.000328 -0.000622 0.014746 0.000000 0.000000 0.000000
# 4 0.000000 0.000000 0.000000 0.026764 0.000000 0.000000
# 5 0.000000 0.000000 0.000000 0.000000 0.029382 0.000000
# 6 0.000000 0.000000 0.000000 0.000000 0.000000 0.041646
#
#
# Mechanical properties :
#
#
# Convention : Reuss Voigt Hill
#
# Bulk Modulus (GPa) = 26.59862 26.88856 26.74359
# Shear Modulus (GPa) = 31.53054 32.43464 31.98259
#
# Velocity S-wave (km/s) = 3.83658 3.89119 3.86398
# Velocity P-wave (km/s) = 5.66063 5.72196 5.69138
#
# Compressibility (1/GPa) = 0.03759594
#
# Stress axis : x y z
#
# Youngs Moduli (GPa) = 71.66399 70.30325 67.81545
#
# Poissons Ratio (x) = 0.16662 -0.02226
# Poissons Ratio (y) = 0.16984 0.04220
# Poissons Ratio (z) = -0.02352 0.04375
#
# Static dielectric constant tensor:
#      x y z
#    x 1.740840 0.000000 0.000000 
#    y 0.000000 1.821100 0.000000 
#    z 0.000000 0.000000 1.816080 
# 
# From -- ./inp_files/6930.got.cif
#   From: 2010.05.17/outbox.cif.g08.bks.cpg/sg33_4_cif.got.tgz:6930.got - 2010.06.03 17:15:25.
