data_PCOD9344448
_publ_section_title
;
Structure prediction by ZEFSAII (Michael W. Deem and Ramdas Pophale) SiO2 
 PCOD9344448
Probable space group: P N A 21
;
_chemical_formula_sum "Si O2"
_cell_formula_units_Z 24
_cell_length_a 5.422289
_cell_length_b 14.301241
_cell_length_c 11.226308
_cell_angle_alpha 90.000000
_cell_angle_beta 90.000000
_cell_angle_gamma 90.000000
_cell_volume 870.549238
_symmetry_space_group_name_H-M "P N A 21"
_symmetry_group_IT_number 33
_symmetry_cell_setting 'orthorhombic'
loop_
_space_group_symop_operation_xyz
x,y,z
-x,-y,1/2+z
1/2-x,1/2+y,1/2+z
1/2+x,1/2-y,z
loop_
_atom_site_type_symbol
_atom_site_label
_atom_site_fract_x
_atom_site_fract_y
_atom_site_fract_z
Si Si1 0.408860 0.894054 0.151210
Si Si2 0.603803 0.134340 0.918707
Si Si3 0.601037 0.802628 0.923759
Si Si4 0.166689 0.472773 0.311480
Si Si5 0.097815 0.216796 0.123100
Si Si6 0.910264 0.973550 0.498702
O O1 0.345436 0.847722 0.279090
O O2 0.591866 0.978676 0.191770
O O3 0.562046 0.830460 0.062536
O O4 0.179038 0.937595 0.080672
O O5 0.822695 0.076433 0.975428
O O6 0.367808 0.061537 0.912942
O O7 0.558109 0.225516 0.997081
O O8 0.376136 0.730908 0.904769
O O9 0.515499 0.892838 0.848578
O O10 0.431540 0.463900 0.365235
O O11 0.330623 0.269240 0.180843
O O12 0.161495 0.110970 0.098291
#
# Coordination Sequence:
#
# PCOD9344448 Si02
#       6
#     4   4   4   4   4   4
#     4   9  22  42  65  98 127 180 230 271 345 415
#     4   9  20  37  63  92 129 171 219 280 335 405
#     4  11  26  44  70 100 140 182 232 287 345 411
#     4   9  21  43  61  92 133 178 222 279 346 403
#     4  10  18  33  57  89 122 157 203 266 323 374
#     4  10  19  37  62  91 133 170 218 283 342 400
#
# _framework density 27.568802000000002
#
# number of rings (size 3 to 8) (size 9 to 14) (size 15 to 20)
#    1.000    1.333    1.667    0.000    4.667    5.333 
#    3.000    3.333    0.000    0.000    0.000    0.000 
#    0.000    0.000    0.000    0.000    0.000    0.000 
#
# Total GULP energy -133851.160341 kJ/mol
# GULP energy per Si atom -5577.131681 kJ/mol
# Density = 2.750605 g / cm^3
# Si number density = 27.568802 Si / 1000 Ang^3
#
#
#
# Elastic Constant Matrix: (Units=GPa)
#
#
# Indices 1 2 3 4 5 6 
#
# 1 109.7535 33.5415 30.2642 0.0000 0.0000 0.0000
# 2 33.5415 85.5088 20.7767 0.0000 0.0000 0.0000
# 3 30.2642 20.7767 142.9629 0.0000 0.0000 0.0000
# 4 0.0000 0.0000 0.0000 37.1587 0.0000 0.0000
# 5 0.0000 0.0000 0.0000 0.0000 33.7361 0.0000
# 6 0.0000 0.0000 0.0000 0.0000 0.0000 35.5162
#
#
#
# Elastic Compliance Matrix: (Units=1/GPa)
#
#
# Indices 1 2 3 4 5 6 
#
# 1 0.010747 -0.003797 -0.001723 0.000000 0.000000 0.000000
# 2 -0.003797 0.013464 -0.001153 0.000000 0.000000 0.000000
# 3 -0.001723 -0.001153 0.007527 0.000000 0.000000 0.000000
# 4 0.000000 0.000000 0.000000 0.026912 0.000000 0.000000
# 5 0.000000 0.000000 0.000000 0.000000 0.029642 0.000000
# 6 0.000000 0.000000 0.000000 0.000000 0.000000 0.028156
#
#
# Mechanical properties :
#
#
# Convention : Reuss Voigt Hill
#
# Bulk Modulus (GPa) = 54.37109 56.37665 55.37387
# Shear Modulus (GPa) = 36.78510 38.19172 37.48841
#
# Velocity S-wave (km/s) = 3.65677 3.72603 3.69156
# Velocity P-wave (km/s) = 6.13140 6.24539 6.18866
#
# Compressibility (1/GPa) = 0.01839213
#
# Stress axis : x y z
#
# Youngs Moduli (GPa) = 93.05060 74.27110 132.85189
#
# Poissons Ratio (x) = 0.28199 0.22894
# Poissons Ratio (y) = 0.35330 0.15318
# Poissons Ratio (z) = 0.16035 0.08563
#
# Static dielectric constant tensor:
#      x y z
#    x 2.208090 0.000000 0.000000 
#    y 0.000000 2.262300 0.000000 
#    z 0.000000 0.000000 2.284770 
# 
# From -- ./inp_files/7401.got.cif
#   From: 2010.05.17/outbox.cif.g08.bks.cpg/sg33_4_cif.got.tgz:7401.got - 2010.06.03 17:15:25.
