data_PCOD9344751
_publ_section_title
;
Structure prediction by ZEFSAII (Michael W. Deem and Ramdas Pophale) SiO2 
 PCOD9344751
Probable space group: P N A 21
;
_chemical_formula_sum "Si O2"
_cell_formula_units_Z 28
_cell_length_a 19.233824
_cell_length_b 4.929987
_cell_length_c 11.944359
_cell_angle_alpha 90.000000
_cell_angle_beta 90.000000
_cell_angle_gamma 90.000000
_cell_volume 1132.594009
_symmetry_space_group_name_H-M "P N A 21"
_symmetry_group_IT_number 33
_symmetry_cell_setting 'orthorhombic'
loop_
_space_group_symop_operation_xyz
x,y,z
-x,-y,1/2+z
1/2-x,1/2+y,1/2+z
1/2+x,1/2-y,z
loop_
_atom_site_type_symbol
_atom_site_label
_atom_site_fract_x
_atom_site_fract_y
_atom_site_fract_z
Si Si1 0.972056 0.047406 0.238720
Si Si2 0.526958 0.953602 0.362631
Si Si3 0.683918 0.440312 0.988394
Si Si4 0.315677 0.073163 0.624498
Si Si5 0.831996 0.570295 0.972277
Si Si6 0.168852 0.926174 0.632235
Si Si7 0.446934 0.255069 0.551598
O O1 0.008307 0.851554 0.329566
O O2 0.005660 0.960074 0.120371
O O3 0.890002 0.007072 0.221561
O O4 0.990189 0.351273 0.272397
O O5 0.490704 0.048754 0.478483
O O6 0.607999 0.016034 0.382983
O O7 0.701350 0.610497 0.103148
O O8 0.754861 0.507872 0.924688
O O9 0.608616 0.579042 0.973243
O O10 0.680850 0.122454 0.013151
O O11 0.397861 0.100589 0.643244
O O12 0.246942 0.954474 0.679490
O O13 0.844024 0.363800 0.075808
O O14 0.835419 0.866825 0.026803
#
# Coordination Sequence:
#
# PCOD9344751 Si02
#       7
#     4   4   4   4   4   4   4
#     4  12  27  40  64 100 130 170 218 259 325 390
#     4  12  27  40  64 100 130 170 218 259 325 390
#     4   8  18  34  66  87 113 169 211 248 326 368
#     4   8  18  34  66  87 113 169 211 248 326 368
#     4  10  19  40  67  87 123 171 207 257 322 375
#     4  10  19  40  67  87 123 171 207 257 322 375
#     4  10  24  42  68  86 140 162 212 276 318 370
#
# _framework density 24.722011999999999
#
# number of rings (size 3 to 8) (size 9 to 14) (size 15 to 20)
#    0.857    1.143    1.429    1.714    4.000    0.000 
#    0.000    2.857    0.000    0.000    0.000    0.000 
#    0.000    0.000    0.000    0.000    0.000    0.000 
#
# Total GULP energy -156068.347613 kJ/mol
# GULP energy per Si atom -5573.869558 kJ/mol
# Density = 2.466574 g / cm^3
# Si number density = 24.722012 Si / 1000 Ang^3
#
#
#
# Elastic Constant Matrix: (Units=GPa)
#
#
# Indices 1 2 3 4 5 6 
#
# 1 98.9728 12.2341 -0.9027 0.0000 0.0000 0.0000
# 2 12.2341 77.1055 -0.1566 0.0000 0.0000 0.0000
# 3 -0.9027 -0.1566 69.4478 0.0000 0.0000 0.0000
# 4 0.0000 0.0000 0.0000 26.4639 0.0000 0.0000
# 5 0.0000 0.0000 0.0000 0.0000 9.0698 0.0000
# 6 0.0000 0.0000 0.0000 0.0000 0.0000 -11.7871
#
#
#
# Elastic Compliance Matrix: (Units=1/GPa)
#
#
# Indices 1 2 3 4 5 6 
#
# 1 0.010307 -0.001635 0.000130 0.000000 0.000000 0.000000
# 2 -0.001635 0.013229 0.000009 0.000000 0.000000 0.000000
# 3 0.000130 0.000009 0.014401 0.000000 0.000000 0.000000
# 4 0.000000 0.000000 0.000000 0.037787 0.000000 0.000000
# 5 0.000000 0.000000 0.000000 0.000000 0.110256 0.000000
# 6 0.000000 0.000000 0.000000 0.000000 0.000000 -0.084838
#
#
# Mechanical properties :
#
#
# Convention : Reuss Voigt Hill
#
# Bulk Modulus (GPa) = 28.61699 29.76397 29.19048
# Shear Modulus (GPa) = 43.18451 20.37274 31.77863
#
# Velocity S-wave (km/s) = 4.18401 2.87378 3.58919
# Velocity P-wave (km/s) = 5.91117 4.80386 5.38605
#
# Compressibility (1/GPa) = 0.03494427
#
# Stress axis : x y z
#
# Youngs Moduli (GPa) = 97.02053 75.59317 69.43959
#
# Poissons Ratio (x) = 0.12361 -0.00905
# Poissons Ratio (y) = 0.15864 -0.00060
# Poissons Ratio (z) = -0.01264 -0.00065
#
# Static dielectric constant tensor:
#      x y z
#    x 2.032940 0.000000 0.000000 
#    y 0.000000 1.861920 0.000000 
#    z 0.000000 0.000000 2.037620 
# 
# From -- ./inp_files/8301.got.cif
#   From: 2010.05.17/outbox.cif.g08.bks.cpg/sg33_5_cif.got.tgz:8301.got - 2010.06.03 17:15:25.
