data_PCOD9344553
_publ_section_title
;
Structure prediction by ZEFSAII (Michael W. Deem and Ramdas Pophale) SiO2 
 PCOD9344553
Probable space group: P N A 21
;
_chemical_formula_sum "Si O2"
_cell_formula_units_Z 32
_cell_length_a 8.975456
_cell_length_b 21.638918
_cell_length_c 8.195271
_cell_angle_alpha 90.000000
_cell_angle_beta 90.000000
_cell_angle_gamma 90.000000
_cell_volume 1591.678620
_symmetry_space_group_name_H-M "P N A 21"
_symmetry_group_IT_number 33
_symmetry_cell_setting 'orthorhombic'
loop_
_space_group_symop_operation_xyz
x,y,z
-x,-y,1/2+z
1/2-x,1/2+y,1/2+z
1/2+x,1/2-y,z
loop_
_atom_site_type_symbol
_atom_site_label
_atom_site_fract_x
_atom_site_fract_y
_atom_site_fract_z
Si Si1 0.031447 0.924819 0.262420
Si Si2 0.754158 0.332752 0.317445
Si Si3 0.974046 0.271800 0.775611
Si Si4 0.314788 0.671634 0.432957
Si Si5 0.455240 0.771452 0.781650
Si Si6 0.262378 0.330342 0.638178
Si Si7 0.319567 0.338764 0.257143
Si Si8 0.536580 0.436115 0.378681
O O1 0.180135 0.883011 0.262962
O O2 0.899710 0.887193 0.354178
O O3 0.006617 0.930558 0.068148
O O4 0.048538 0.992843 0.332725
O O5 0.653123 0.275345 0.382403
O O6 0.924396 0.318477 0.355480
O O7 0.688988 0.397230 0.373718
O O8 0.723333 0.332640 0.123302
O O9 0.844283 0.313199 0.852340
O O10 0.882688 0.224031 0.664190
O O11 0.072798 0.228424 0.895183
O O12 0.097652 0.311003 0.684305
O O13 0.570662 0.718586 0.716697
O O14 0.338099 0.815109 0.682176
O O15 0.272895 0.344539 0.447320
O O16 0.422484 0.400480 0.251501
#
# Coordination Sequence:
#
# PCOD9344553 Si02
#       8
#     4   4   4   4   4   4   4   4
#     4  10  21  37  55  75  99 135 177 216 258 305
#     4  10  19  33  53  78 108 138 168 207 251 303
#     4   9  18  30  50  80 107 135 166 203 254 307
#     4  10  19  33  53  78 108 138 168 207 251 303
#     4   9  18  30  50  80 107 135 166 203 254 307
#     4   9  17  30  51  77 106 134 165 208 256 305
#     4   9  17  30  51  77 106 134 165 208 256 305
#     4  10  21  37  55  75  99 135 177 216 258 305
#
# _framework density 20.104562999999999
#
# number of rings (size 3 to 8) (size 9 to 14) (size 15 to 20)
#    0.000    2.500    0.000    2.250    0.000    7.000 
#    0.000    5.000    0.000    0.000    0.000    0.000 
#    0.000    0.000    0.000    0.000    0.000    0.000 
#
# Total GULP energy -178186.708877 kJ/mol
# GULP energy per Si atom -5568.334652 kJ/mol
# Density = 2.005880 g / cm^3
# Si number density = 20.104563 Si / 1000 Ang^3
#
#
#
# Elastic Constant Matrix: (Units=GPa)
#
#
# Indices 1 2 3 4 5 6 
#
# 1 168.2420 64.6494 19.0925 0.0000 0.0000 0.0000
# 2 64.6494 139.6984 23.0917 0.0000 0.0000 0.0000
# 3 19.0925 23.0917 52.3898 0.0000 0.0000 0.0000
# 4 0.0000 0.0000 0.0000 27.7756 0.0000 0.0000
# 5 0.0000 0.0000 0.0000 0.0000 16.8967 0.0000
# 6 0.0000 0.0000 0.0000 0.0000 0.0000 18.7193
#
#
#
# Elastic Compliance Matrix: (Units=1/GPa)
#
#
# Indices 1 2 3 4 5 6 
#
# 1 0.007306 -0.003172 -0.001264 0.000000 0.000000 0.000000
# 2 -0.003172 0.009098 -0.002854 0.000000 0.000000 0.000000
# 3 -0.001264 -0.002854 0.020806 0.000000 0.000000 0.000000
# 4 0.000000 0.000000 0.000000 0.036003 0.000000 0.000000
# 5 0.000000 0.000000 0.000000 0.000000 0.059183 0.000000
# 6 0.000000 0.000000 0.000000 0.000000 0.000000 0.053421
#
#
# Mechanical properties :
#
#
# Convention : Reuss Voigt Hill
#
# Bulk Modulus (GPa) = 44.19031 63.77749 53.98390
# Shear Modulus (GPa) = 24.04517 29.57810 26.81164
#
# Velocity S-wave (km/s) = 3.46208 3.83980 3.65582
# Velocity P-wave (km/s) = 6.16517 7.17290 6.68804
#
# Compressibility (1/GPa) = 0.02262940
#
# Stress axis : x y z
#
# Youngs Moduli (GPa) = 136.86884 109.91350 48.06196
#
# Poissons Ratio (x) = 0.34866 0.06077
# Poissons Ratio (y) = 0.43417 0.13717
# Poissons Ratio (z) = 0.17306 0.31370
#
# Static dielectric constant tensor:
#      x y z
#    x 1.768290 0.000000 0.000000 
#    y 0.000000 1.740080 0.000000 
#    z 0.000000 0.000000 1.843070 
# 
# From -- ./inp_files/3523.got.cif
#   From: 2010.05.17/outbox.cif.g08.bks.cpg/sg33_2_cif.got.tgz:3523.got - 2010.06.03 17:15:25.
