data_PCOD9344707
_publ_section_title
;
Structure prediction by ZEFSAII (Michael W. Deem and Ramdas Pophale) SiO2 
 PCOD9344707
Probable space group: P N A 21
;
_chemical_formula_sum "Si O2"
_cell_formula_units_Z 32
_cell_length_a 5.143042
_cell_length_b 23.206438
_cell_length_c 12.390022
_cell_angle_alpha 90.000000
_cell_angle_beta 90.000000
_cell_angle_gamma 90.000000
_cell_volume 1478.770007
_symmetry_space_group_name_H-M "P N A 21"
_symmetry_group_IT_number 33
_symmetry_cell_setting 'orthorhombic'
loop_
_space_group_symop_operation_xyz
x,y,z
-x,-y,1/2+z
1/2-x,1/2+y,1/2+z
1/2+x,1/2-y,z
loop_
_atom_site_type_symbol
_atom_site_label
_atom_site_fract_x
_atom_site_fract_y
_atom_site_fract_z
Si Si1 0.978658 0.105780 0.011710
Si Si2 0.400615 0.779378 0.696667
Si Si3 0.011131 0.050817 0.247816
Si Si4 0.999734 0.289328 0.509106
Si Si5 0.991452 0.611450 0.832743
Si Si6 0.978910 0.321667 0.975763
Si Si7 0.440459 0.578863 0.278701
Si Si8 0.442981 0.843201 0.242684
O O1 0.011331 0.080251 0.129906
O O2 0.186631 0.157512 0.997871
O O3 0.047542 0.067519 0.907789
O O4 0.682278 0.125642 0.993761
O O5 0.110887 0.767041 0.735389
O O6 0.492817 0.840945 0.737361
O O7 0.424785 0.779125 0.567947
O O8 0.263865 0.070409 0.314173
O O9 0.765852 0.074212 0.315062
O O10 0.991273 0.982843 0.227419
O O11 0.239655 0.246729 0.485719
O O12 0.020014 0.307469 0.634169
O O13 0.007438 0.347868 0.438247
O O14 0.016657 0.305337 0.851230
O O15 0.664280 0.625066 0.248727
O O16 0.165796 0.607651 0.249874
#
# Coordination Sequence:
#
# PCOD9344707 Si02
#       8
#     4   4   4   4   4   4   4   4
#     4  10  19  38  59  84 126 155 193 260 314 370
#     4  12  22  35  58  86 118 152 197 248 306 364
#     4  12  22  40  66  92 128 174 216 261 331 386
#     4  12  26  46  69  94 132 183 222 278 336 386
#     4  12  25  41  61  92 129 167 220 266 315 392
#     4  10  20  38  59  86 118 158 193 254 317 367
#     4  10  23  39  65  99 124 172 213 270 324 386
#     4  10  23  43  65  91 133 161 218 267 325 381
#
# _framework density 21.639607999999999
#
# number of rings (size 3 to 8) (size 9 to 14) (size 15 to 20)
#    0.000    1.000    2.500    4.500    0.000    3.000 
#    0.000    0.000    0.000    0.000    0.000    0.000 
#    0.000    0.000    0.000    0.000    0.000    0.000 
#
# Total GULP energy -178918.461674 kJ/mol
# GULP energy per Si atom -5591.201927 kJ/mol
# Density = 2.159036 g / cm^3
# Si number density = 21.639608 Si / 1000 Ang^3
#
#
#
# Elastic Constant Matrix: (Units=GPa)
#
#
# Indices 1 2 3 4 5 6 
#
# 1 97.5079 2.4002 2.6294 0.0000 0.0000 0.0000
# 2 2.4002 29.9432 1.8683 0.0000 0.0000 0.0000
# 3 2.6294 1.8683 115.7324 0.0000 0.0000 0.0000
# 4 0.0000 0.0000 0.0000 16.2445 0.0000 0.0000
# 5 0.0000 0.0000 0.0000 0.0000 14.2083 0.0000
# 6 0.0000 0.0000 0.0000 0.0000 0.0000 26.6250
#
#
#
# Elastic Compliance Matrix: (Units=1/GPa)
#
#
# Indices 1 2 3 4 5 6 
#
# 1 0.010281 -0.000810 -0.000221 0.000000 0.000000 0.000000
# 2 -0.000810 0.033494 -0.000522 0.000000 0.000000 0.000000
# 3 -0.000221 -0.000522 0.008654 0.000000 0.000000 0.000000
# 4 0.000000 0.000000 0.000000 0.061559 0.000000 0.000000
# 5 0.000000 0.000000 0.000000 0.000000 0.070382 0.000000
# 6 0.000000 0.000000 0.000000 0.000000 0.000000 0.037559
#
#
# Mechanical properties :
#
#
# Convention : Reuss Voigt Hill
#
# Bulk Modulus (GPa) = 20.27440 28.55325 24.41383
# Shear Modulus (GPa) = 20.70593 27.16794 23.93694
#
# Velocity S-wave (km/s) = 3.09666 3.54711 3.32951
# Velocity P-wave (km/s) = 4.70905 5.47718 5.10758
#
# Compressibility (1/GPa) = 0.04932328
#
# Stress axis : x y z
#
# Youngs Moduli (GPa) = 97.26235 29.85598 115.55269
#
# Poissons Ratio (x) = 0.02420 0.02548
# Poissons Ratio (y) = 0.07882 0.06035
# Poissons Ratio (z) = 0.02145 0.01559
#
# Static dielectric constant tensor:
#      x y z
#    x 1.790980 0.000000 0.000000 
#    y 0.000000 1.769220 0.000000 
#    z 0.000000 0.000000 1.814990 
# 
# From -- ./inp_files/5568.got.cif
#   From: 2010.05.17/outbox.cif.g08.bks.cpg/sg33_3_cif.got.tgz:5568.got - 2010.06.03 17:15:25.
