data_PCOD9344167
_publ_section_title
;
Structure prediction by ZEFSAII (Michael W. Deem and Ramdas Pophale) SiO2 
 PCOD9344167
Probable space group: P B A 2
;
_chemical_formula_sum "Si O2"
_cell_formula_units_Z 12
_cell_length_a 10.002383
_cell_length_b 10.135366
_cell_length_c 5.271461
_cell_angle_alpha 90.000000
_cell_angle_beta 90.000000
_cell_angle_gamma 90.000000
_cell_volume 534.409185
_symmetry_space_group_name_H-M "P B A 2"
_symmetry_group_IT_number 32
_symmetry_cell_setting 'orthorhombic'
loop_
_space_group_symop_operation_xyz
x,y,z
-x,-y,z
1/2-x,1/2+y,z
1/2+x,1/2-y,z
loop_
_atom_site_type_symbol
_atom_site_label
_atom_site_fract_x
_atom_site_fract_y
_atom_site_fract_z
Si Si1 0.817310 0.246098 0.299930
Si Si2 0.846483 0.525521 0.500051
Si Si3 0.389748 0.388620 0.796756
O O1 0.793647 0.399199 0.345320
O O2 0.908042 0.191057 0.533497
O O3 0.684079 0.157870 0.340840
O O4 0.879905 0.208941 0.032274
O O5 0.754064 0.542423 0.747322
O O6 0.000000 0.500000 0.554077
O O7 0.500000 0.500000 0.832942
#
# Coordination Sequence:
#
# PCOD9344167 Si02
#       3
#     4   4   4
#     4  10  25  42  70 101 142 180 237 287 359 424
#     4  10  26  46  70 108 138 187 237 298 356 426
#     4  10  24  44  72  99 142 187 233 287 362 417
#
# _framework density 22.454702000000001
#
# number of rings (size 3 to 8) (size 9 to 14) (size 15 to 20)
#    2.000    0.000    0.000    1.000    9.333    1.333 
#    0.000    0.000    0.000    0.000    0.000    0.000 
#    0.000    0.000    0.000    0.000    0.000    0.000 
#
# Total GULP energy -66980.165541 kJ/mol
# GULP energy per Si atom -5581.680462 kJ/mol
# Density = 2.240359 g / cm^3
# Si number density = 22.454702 Si / 1000 Ang^3
#
#
#
# Elastic Constant Matrix: (Units=GPa)
#
#
# Indices 1 2 3 4 5 6 
#
# 1 86.5411 41.7094 13.3349 0.0000 0.0000 0.0000
# 2 41.7094 128.0806 30.7798 0.0000 0.0000 0.0000
# 3 13.3349 30.7798 147.3069 0.0000 0.0000 0.0000
# 4 0.0000 0.0000 0.0000 16.8936 0.0000 0.0000
# 5 0.0000 0.0000 0.0000 0.0000 7.6572 0.0000
# 6 0.0000 0.0000 0.0000 0.0000 0.0000 29.3421
#
#
#
# Elastic Compliance Matrix: (Units=1/GPa)
#
#
# Indices 1 2 3 4 5 6 
#
# 1 0.013721 -0.004390 -0.000325 0.000000 0.000000 0.000000
# 2 -0.004390 0.009625 -0.001614 0.000000 0.000000 0.000000
# 3 -0.000325 -0.001614 0.007155 0.000000 0.000000 0.000000
# 4 0.000000 0.000000 0.000000 0.059194 0.000000 0.000000
# 5 0.000000 0.000000 0.000000 0.000000 0.130596 0.000000
# 6 0.000000 0.000000 0.000000 0.000000 0.000000 0.034081
#
#
# Mechanical properties :
#
#
# Convention : Reuss Voigt Hill
#
# Bulk Modulus (GPa) = 56.04159 59.28631 57.66395
# Shear Modulus (GPa) = 18.31654 29.18554 23.75104
#
# Velocity S-wave (km/s) = 2.85916 3.60912 3.25581
# Velocity P-wave (km/s) = 5.99262 6.62024 6.31424
#
# Compressibility (1/GPa) = 0.01784389
#
# Stress axis : x y z
#
# Youngs Moduli (GPa) = 72.88012 103.89531 139.75969
#
# Poissons Ratio (x) = 0.45613 0.04539
# Poissons Ratio (y) = 0.31996 0.22554
# Poissons Ratio (z) = 0.02367 0.16766
#
# Static dielectric constant tensor:
#      x y z
#    x 1.844620 0.000000 0.000000 
#    y 0.000000 1.834310 0.000000 
#    z 0.000000 0.000000 1.824040 
# 
# From -- ./inp_files/41.got.cif
#   From: 2010.05.17/outbox.cif.g08.bks.cpg/sg32_1_cif.got.tgz:41.got - 2010.06.03 17:12:27.
