data_PCOD9344589
_publ_section_title
;
Structure prediction by ZEFSAII (Michael W. Deem and Ramdas Pophale) SiO2 
 PCOD9344589
Probable space group: P N A 21
;
_chemical_formula_sum "Si O2"
_cell_formula_units_Z 32
_cell_length_a 9.036708
_cell_length_b 9.749162
_cell_length_c 19.813361
_cell_angle_alpha 90.000000
_cell_angle_beta 90.000000
_cell_angle_gamma 90.000000
_cell_volume 1745.563647
_symmetry_space_group_name_H-M "P N A 21"
_symmetry_group_IT_number 33
_symmetry_cell_setting 'orthorhombic'
loop_
_space_group_symop_operation_xyz
x,y,z
-x,-y,1/2+z
1/2-x,1/2+y,1/2+z
1/2+x,1/2-y,z
loop_
_atom_site_type_symbol
_atom_site_label
_atom_site_fract_x
_atom_site_fract_y
_atom_site_fract_z
Si Si1 0.912137 0.850848 0.629950
Si Si2 0.829315 0.256822 0.916779
Si Si3 0.082471 0.816965 0.276758
Si Si4 0.087567 0.360430 0.007347
Si Si5 0.585200 0.907552 0.110062
Si Si6 0.229968 0.872930 0.697914
Si Si7 0.759669 0.123805 0.640696
Si Si8 0.766031 0.924807 0.302382
O O1 0.939093 0.747725 0.567908
O O2 0.801907 0.772343 0.681006
O O3 0.065920 0.877456 0.667565
O O4 0.833605 0.990381 0.606762
O O5 0.867657 0.156013 0.854018
O O6 0.734099 0.377767 0.880193
O O7 0.744331 0.176472 0.974612
O O8 0.970373 0.329376 0.948915
O O9 0.181149 0.881858 0.218155
O O10 0.120319 0.654796 0.275119
O O11 0.911967 0.855566 0.269611
O O12 0.078944 0.511336 0.038985
O O13 0.416865 0.882113 0.134109
O O14 0.673525 0.764596 0.111034
O O15 0.673594 0.014169 0.157604
O O16 0.233078 0.921447 0.775591
#
# Coordination Sequence:
#
# PCOD9344589 Si02
#       8
#     4   4   4   4   4   4   4   4
#     4  11  23  36  59  86 127 157 188 247 306 361
#     4  10  19  35  61  86 115 156 198 247 287 359
#     4  10  19  34  60  92 111 149 196 256 293 354
#     4  11  21  38  56  89 118 156 201 237 295 362
#     4  11  23  35  60  86 121 156 197 253 293 360
#     4  11  21  39  55  89 120 153 196 247 309 353
#     4  12  21  38  60  92 121 155 199 251 317 351
#     4  10  19  35  59  88 115 148 203 252 296 352
#
# _framework density 18.332189
#
# number of rings (size 3 to 8) (size 9 to 14) (size 15 to 20)
#    0.750    0.500    3.750    5.250    0.000    0.000 
#    0.000    0.000    0.000    7.500    0.000    0.000 
#    0.000    0.000    0.000    0.000    0.000    0.000 
#
# Total GULP energy -178258.912965 kJ/mol
# GULP energy per Si atom -5570.591030 kJ/mol
# Density = 1.829046 g / cm^3
# Si number density = 18.332189 Si / 1000 Ang^3
#
#
#
# Elastic Constant Matrix: (Units=GPa)
#
#
# Indices 1 2 3 4 5 6 
#
# 1 98.3267 30.1773 4.4263 0.0000 0.0000 0.0000
# 2 30.1773 94.9838 18.4074 0.0000 0.0000 0.0000
# 3 4.4263 18.4074 54.9677 0.0000 0.0000 0.0000
# 4 0.0000 0.0000 0.0000 26.5157 0.0000 0.0000
# 5 0.0000 0.0000 0.0000 0.0000 24.3153 0.0000
# 6 0.0000 0.0000 0.0000 0.0000 0.0000 25.5886
#
#
#
# Elastic Compliance Matrix: (Units=1/GPa)
#
#
# Indices 1 2 3 4 5 6 
#
# 1 0.011274 -0.003642 0.000312 0.000000 0.000000 0.000000
# 2 -0.003642 0.012436 -0.003871 0.000000 0.000000 0.000000
# 3 0.000312 -0.003871 0.019464 0.000000 0.000000 0.000000
# 4 0.000000 0.000000 0.000000 0.037714 0.000000 0.000000
# 5 0.000000 0.000000 0.000000 0.000000 0.041126 0.000000
# 6 0.000000 0.000000 0.000000 0.000000 0.000000 0.039080
#
#
# Mechanical properties :
#
#
# Convention : Reuss Voigt Hill
#
# Bulk Modulus (GPa) = 34.75816 39.36671 37.06243
# Shear Modulus (GPa) = 27.01445 28.30172 27.65808
#
# Velocity S-wave (km/s) = 3.84292 3.93342 3.88843
# Velocity P-wave (km/s) = 6.22030 6.49228 6.35774
#
# Compressibility (1/GPa) = 0.02877022
#
# Stress axis : x y z
#
# Youngs Moduli (GPa) = 88.69979 80.41494 51.37763
#
# Poissons Ratio (x) = 0.29289 -0.01602
# Poissons Ratio (y) = 0.32307 0.19889
# Poissons Ratio (z) = -0.02766 0.31129
#
# Static dielectric constant tensor:
#      x y z
#    x 1.638340 0.000000 0.000000 
#    y 0.000000 1.637730 0.000000 
#    z 0.000000 0.000000 1.690930 
# 
# From -- ./inp_files/8987.got.cif
#   From: 2010.05.17/outbox.cif.g08.bks.cpg/sg33_5_cif.got.tgz:8987.got - 2010.06.03 17:15:25.
