data_PCOD9344641
_publ_section_title
;
Structure prediction by ZEFSAII (Michael W. Deem and Ramdas Pophale) SiO2 
 PCOD9344641
Probable space group: P N A 21
;
_chemical_formula_sum "Si O2"
_cell_formula_units_Z 32
_cell_length_a 14.239220
_cell_length_b 9.373428
_cell_length_c 10.032944
_cell_angle_alpha 90.000000
_cell_angle_beta 90.000000
_cell_angle_gamma 90.000000
_cell_volume 1339.100080
_symmetry_space_group_name_H-M "P N A 21"
_symmetry_group_IT_number 33
_symmetry_cell_setting 'orthorhombic'
loop_
_space_group_symop_operation_xyz
x,y,z
-x,-y,1/2+z
1/2-x,1/2+y,1/2+z
1/2+x,1/2-y,z
loop_
_atom_site_type_symbol
_atom_site_label
_atom_site_fract_x
_atom_site_fract_y
_atom_site_fract_z
Si Si1 0.844400 0.707655 0.908410
Si Si2 0.469386 0.583008 0.059856
Si Si3 0.984079 0.245405 0.009787
Si Si4 0.884574 0.765615 0.288018
Si Si5 0.327304 0.256745 0.782083
Si Si6 0.898521 0.495514 0.093736
Si Si7 0.853644 0.256924 0.482556
Si Si8 0.256588 0.582703 0.758441
O O1 0.741641 0.664668 0.964051
O O2 0.826800 0.782229 0.768067
O O3 0.877504 0.845767 0.993843
O O4 0.909298 0.578184 0.952877
O O5 0.456310 0.627096 0.214170
O O6 0.473630 0.414852 0.057137
O O7 0.554190 0.657143 0.976312
O O8 0.900747 0.270124 0.899666
O O9 0.080851 0.260467 0.934620
O O10 0.973445 0.372748 0.113353
O O11 0.776575 0.809349 0.293731
O O12 0.896612 0.622710 0.200284
O O13 0.360544 0.199420 0.637621
O O14 0.307221 0.429676 0.775737
O O15 0.800076 0.418315 0.122229
O O16 0.823030 0.378570 0.374525
#
# Coordination Sequence:
#
# PCOD9344641 Si02
#       8
#     4   4   4   4   4   4   4   4
#     4   9  19  38  62  91 125 175 209 264 334 382
#     4  11  21  39  67  97 124 167 233 264 324 394
#     4  12  25  41  66 101 131 169 226 281 317 399
#     4  10  23  44  63  89 137 178 208 274 338 387
#     4  11  20  41  65  93 133 171 217 269 336 389
#     4  10  22  41  62  93 135 170 220 264 326 402
#     4  10  19  35  67  93 122 174 211 265 337 377
#     4   9  17  39  66  85 125 174 208 269 322 388
#
# _framework density 23.896644999999999
#
# number of rings (size 3 to 8) (size 9 to 14) (size 15 to 20)
#    0.750    1.000    6.250    0.000    0.000    6.000 
#    2.250    1.250    0.000    0.000    0.000    0.000 
#    0.000    0.000    0.000    0.000    0.000    0.000 
#
# Total GULP energy -178193.397655 kJ/mol
# GULP energy per Si atom -5568.543677 kJ/mol
# Density = 2.384226 g / cm^3
# Si number density = 23.896645 Si / 1000 Ang^3
#
#
#
# Elastic Constant Matrix: (Units=GPa)
#
#
# Indices 1 2 3 4 5 6 
#
# 1 25.0445 -1.5876 -0.3720 0.0000 0.0000 0.0000
# 2 -1.5876 96.2380 16.5087 0.0000 0.0000 0.0000
# 3 -0.3720 16.5087 41.3532 0.0000 0.0000 0.0000
# 4 0.0000 0.0000 0.0000 31.4501 0.0000 0.0000
# 5 0.0000 0.0000 0.0000 0.0000 26.1937 0.0000
# 6 0.0000 0.0000 0.0000 0.0000 0.0000 20.0613
#
#
#
# Elastic Compliance Matrix: (Units=1/GPa)
#
#
# Indices 1 2 3 4 5 6 
#
# 1 0.039971 0.000642 0.000103 0.000000 0.000000 0.000000
# 2 0.000642 0.011165 -0.004451 0.000000 0.000000 0.000000
# 3 0.000103 -0.004451 0.025960 0.000000 0.000000 0.000000
# 4 0.000000 0.000000 0.000000 0.031796 0.000000 0.000000
# 5 0.000000 0.000000 0.000000 0.000000 0.038177 0.000000
# 6 0.000000 0.000000 0.000000 0.000000 0.000000 0.049847
#
#
# Mechanical properties :
#
#
# Convention : Reuss Voigt Hill
#
# Bulk Modulus (GPa) = 14.35061 21.30376 17.82718
# Shear Modulus (GPa) = 21.97248 25.41347 23.69298
#
# Velocity S-wave (km/s) = 3.03558 3.26463 3.15219
# Velocity P-wave (km/s) = 4.27839 4.81090 4.55244
#
# Compressibility (1/GPa) = 0.06968347
#
# Stress axis : x y z
#
# Youngs Moduli (GPa) = 25.01802 89.56486 38.52093
#
# Poissons Ratio (x) = -0.05747 -0.00399
# Poissons Ratio (y) = -0.01605 0.17147
# Poissons Ratio (z) = -0.00259 0.39869
#
# Static dielectric constant tensor:
#      x y z
#    x 1.990580 0.000000 0.000000 
#    y 0.000000 1.943090 0.000000 
#    z 0.000000 0.000000 1.978290 
# 
# From -- ./inp_files/6842.got.cif
#   From: 2010.05.17/outbox.cif.g08.bks.cpg/sg33_4_cif.got.tgz:6842.got - 2010.06.03 17:15:25.
