data_PCOD9344296
_publ_section_title
;
Structure prediction by ZEFSAII (Michael W. Deem and Ramdas Pophale) SiO2 
 PCOD9344296
Probable space group: P B A 2
;
_chemical_formula_sum "Si O2"
_cell_formula_units_Z 24
_cell_length_a 9.746317
_cell_length_b 8.951999
_cell_length_c 11.599062
_cell_angle_alpha 90.000000
_cell_angle_beta 90.000000
_cell_angle_gamma 90.000000
_cell_volume 1012.006793
_symmetry_space_group_name_H-M "P B A 2"
_symmetry_group_IT_number 32
_symmetry_cell_setting 'orthorhombic'
loop_
_space_group_symop_operation_xyz
x,y,z
-x,-y,z
1/2-x,1/2+y,z
1/2+x,1/2-y,z
loop_
_atom_site_type_symbol
_atom_site_label
_atom_site_fract_x
_atom_site_fract_y
_atom_site_fract_z
Si Si1 0.435054 0.671687 0.275750
Si Si2 0.755664 0.374799 0.060940
Si Si3 0.163600 0.721691 0.676723
Si Si4 0.067824 0.161690 0.536149
Si Si5 0.500000 0.000000 0.198154
Si Si6 0.500000 0.000000 0.833362
Si Si7 0.280393 0.386658 0.899675
O O1 0.500000 0.500000 0.268234
O O2 0.334269 0.675507 0.167718
O O3 0.378535 0.677193 0.406036
O O4 0.505573 0.838096 0.263905
O O5 0.866440 0.485018 0.118037
O O6 0.674353 0.461471 0.960662
O O7 0.824261 0.241343 0.989679
O O8 0.313060 0.692549 0.626811
O O9 0.102451 0.591999 0.753961
O O10 0.168744 0.855496 0.770587
O O11 0.060539 0.736028 0.569893
O O12 0.000000 0.000000 0.547263
O O13 0.612161 0.104943 0.895985
#
# Coordination Sequence:
#
# PCOD9344296 Si02
#       7
#     4   4   4   4   2   2   4
#     4  11  28  51  77 113 157 209 269 331 405 487
#     4  12  26  46  74 111 152 204 257 329 402 484
#     4  12  26  49  76 113 154 211 265 334 409 486
#     4  11  28  49  76 111 156 206 274 331 402 490
#     4  12  27  49  78 116 154 207 267 326 408 478
#     4  12  25  45  70 116 156 203 265 324 416 488
#     4  12  25  44  76 109 159 202 260 331 406 493
#
# _framework density 23.715257999999999
#
# number of rings (size 3 to 8) (size 9 to 14) (size 15 to 20)
#    0.000    0.333    5.000    2.500    2.333    3.333 
#    0.000    0.000    0.000    0.000    0.000    0.000 
#    0.000    0.000    0.000    0.000    0.000    0.000 
#
# Total GULP energy -133872.269164 kJ/mol
# GULP energy per Si atom -5578.011215 kJ/mol
# Density = 2.366128 g / cm^3
# Si number density = 23.715258 Si / 1000 Ang^3
#
#
#
# Elastic Constant Matrix: (Units=GPa)
#
#
# Indices 1 2 3 4 5 6 
#
# 1 65.9320 7.0934 25.1274 0.0000 0.0000 0.0000
# 2 7.0934 109.9000 29.0093 0.0000 0.0000 0.0000
# 3 25.1274 29.0093 149.3813 0.0000 0.0000 0.0000
# 4 0.0000 0.0000 0.0000 10.3668 0.0000 0.0000
# 5 0.0000 0.0000 0.0000 0.0000 49.6099 0.0000
# 6 0.0000 0.0000 0.0000 0.0000 0.0000 31.0947
#
#
#
# Elastic Compliance Matrix: (Units=1/GPa)
#
#
# Indices 1 2 3 4 5 6 
#
# 1 0.016218 -0.000344 -0.002661 0.000000 0.000000 0.000000
# 2 -0.000344 0.009598 -0.001806 0.000000 0.000000 0.000000
# 3 -0.002661 -0.001806 0.007493 0.000000 0.000000 0.000000
# 4 0.000000 0.000000 0.000000 0.096462 0.000000 0.000000
# 5 0.000000 0.000000 0.000000 0.000000 0.020157 0.000000
# 6 0.000000 0.000000 0.000000 0.000000 0.000000 0.032160
#
#
# Mechanical properties :
#
#
# Convention : Reuss Voigt Hill
#
# Bulk Modulus (GPa) = 42.21898 49.74150 45.98024
# Shear Modulus (GPa) = 25.04926 35.81316 30.43121
#
# Velocity S-wave (km/s) = 3.25353 3.89026 3.58605
# Velocity P-wave (km/s) = 5.65288 6.41863 6.04789
#
# Compressibility (1/GPa) = 0.02368603
#
# Stress axis : x y z
#
# Youngs Moduli (GPa) = 61.65835 104.18710 133.46428
#
# Poissons Ratio (x) = 0.03588 0.35518
# Poissons Ratio (y) = 0.02123 0.24104
# Poissons Ratio (z) = 0.16409 0.18816
#
# Static dielectric constant tensor:
#      x y z
#    x 2.030940 0.000000 0.000000 
#    y 0.000000 2.123800 0.000000 
#    z 0.000000 0.000000 1.865630 
# 
# From -- ./inp_files/3842.got.cif
#   From: 2010.05.17/outbox.cif.g08.bks.cpg/sg32_2_cif.got.tgz:3842.got - 2010.06.03 17:12:27.
