data_PCOD9344425
_publ_section_title
;
Structure prediction by ZEFSAII (Michael W. Deem and Ramdas Pophale) SiO2 
 PCOD9344425
Probable space group: P N A 21
;
_chemical_formula_sum "Si O2"
_cell_formula_units_Z 20
_cell_length_a 12.819369
_cell_length_b 9.559062
_cell_length_c 5.812844
_cell_angle_alpha 90.000000
_cell_angle_beta 90.000000
_cell_angle_gamma 90.000000
_cell_volume 712.312548
_symmetry_space_group_name_H-M "P N A 21"
_symmetry_group_IT_number 33
_symmetry_cell_setting 'orthorhombic'
loop_
_space_group_symop_operation_xyz
x,y,z
-x,-y,1/2+z
1/2-x,1/2+y,1/2+z
1/2+x,1/2-y,z
loop_
_atom_site_type_symbol
_atom_site_label
_atom_site_fract_x
_atom_site_fract_y
_atom_site_fract_z
Si Si1 0.330757 0.781180 0.662050
Si Si2 0.109168 0.604367 0.141870
Si Si3 0.441912 0.523773 0.851705
Si Si4 0.238863 0.341567 0.737162
Si Si5 0.381884 0.118193 0.143132
O O1 0.347168 0.947159 0.663157
O O2 0.400363 0.682119 0.815568
O O3 0.344794 0.756286 0.389858
O O4 0.209980 0.731551 0.667023
O O5 0.201978 0.715700 0.116678
O O6 0.064063 0.640705 0.395783
O O7 0.058274 0.613553 0.887336
O O8 0.503249 0.493783 0.604363
O O9 0.337292 0.430065 0.839072
O O10 0.174005 0.466725 0.624918
#
# Coordination Sequence:
#
# PCOD9344425 Si02
#       5
#     4   4   4   4   4
#     4   9  20  38  63  91 123 168 221 267 316 398
#     4  10  18  31  54  87 114 148 206 268 302 349
#     4  11  26  45  64  93 138 179 212 273 356 407
#     4   9  20  38  63  91 123 168 221 267 316 398
#     4   9  18  30  52  86 120 149 196 261 314 358
#
# _framework density 28.077560999999999
#
# number of rings (size 3 to 8) (size 9 to 14) (size 15 to 20)
#    0.000    2.400    0.000    1.200    0.000   20.800 
#    0.000    2.000    0.000    0.000    0.000    0.000 
#    0.000    0.000    0.000    0.000    0.000    0.000 
#
# Total GULP energy -111345.673339 kJ/mol
# GULP energy per Si atom -5567.283667 kJ/mol
# Density = 2.801365 g / cm^3
# Si number density = 28.077561 Si / 1000 Ang^3
#
#
#
# Elastic Constant Matrix: (Units=GPa)
#
#
# Indices 1 2 3 4 5 6 
#
# 1 127.0710 43.5587 70.7624 0.0000 0.0000 0.0000
# 2 43.5587 184.7387 23.8872 0.0000 0.0000 0.0000
# 3 70.7624 23.8872 279.3009 0.0000 0.0000 0.0000
# 4 0.0000 0.0000 0.0000 37.2638 0.0000 0.0000
# 5 0.0000 0.0000 0.0000 0.0000 66.1976 0.0000
# 6 0.0000 0.0000 0.0000 0.0000 0.0000 93.4590
#
#
#
# Elastic Compliance Matrix: (Units=1/GPa)
#
#
# Indices 1 2 3 4 5 6 
#
# 1 0.009858 -0.002024 -0.002324 0.000000 0.000000 0.000000
# 2 -0.002024 0.005889 0.000009 0.000000 0.000000 0.000000
# 3 -0.002324 0.000009 0.004169 0.000000 0.000000 0.000000
# 4 0.000000 0.000000 0.000000 0.026836 0.000000 0.000000
# 5 0.000000 0.000000 0.000000 0.000000 0.015106 0.000000
# 6 0.000000 0.000000 0.000000 0.000000 0.000000 0.010700
#
#
# Mechanical properties :
#
#
# Convention : Reuss Voigt Hill
#
# Bulk Modulus (GPa) = 88.99126 96.39191 92.69159
# Shear Modulus (GPa) = 58.83661 69.57756 64.20709
#
# Velocity S-wave (km/s) = 4.58263 4.98340 4.78721
# Velocity P-wave (km/s) = 7.73074 8.21690 7.97752
#
# Compressibility (1/GPa) = 0.01123706
#
# Stress axis : x y z
#
# Youngs Moduli (GPa) = 101.44292 169.80659 239.89440
#
# Poissons Ratio (x) = 0.34365 0.55762
# Poissons Ratio (y) = 0.20530 -0.00218
# Poissons Ratio (z) = 0.23580 -0.00154
#
# Static dielectric constant tensor:
#      x y z
#    x 2.111020 0.000000 0.000000 
#    y 0.000000 2.094830 0.000000 
#    z 0.000000 0.000000 2.438510 
# 
# From -- ./inp_files/1284.got.cif
#   From: 2010.05.17/outbox.cif.g08.bks.cpg/sg33_1_cif.got.tgz:1284.got - 2010.06.03 17:15:25.
