data_PCOD9344251
_publ_section_title
;
Structure prediction by ZEFSAII (Michael W. Deem and Ramdas Pophale) SiO2 
 PCOD9344251
Probable space group: P B A 2
;
_chemical_formula_sum "Si O2"
_cell_formula_units_Z 28
_cell_length_a 8.430712
_cell_length_b 27.651697
_cell_length_c 4.663276
_cell_angle_alpha 90.000000
_cell_angle_beta 90.000000
_cell_angle_gamma 90.000000
_cell_volume 1087.119193
_symmetry_space_group_name_H-M "P B A 2"
_symmetry_group_IT_number 32
_symmetry_cell_setting 'orthorhombic'
loop_
_space_group_symop_operation_xyz
x,y,z
-x,-y,z
1/2-x,1/2+y,z
1/2+x,1/2-y,z
loop_
_atom_site_type_symbol
_atom_site_label
_atom_site_fract_x
_atom_site_fract_y
_atom_site_fract_z
Si Si1 0.000000 0.000000 0.813771
Si Si2 0.537553 0.368375 0.419986
Si Si3 0.761130 0.432672 0.799340
Si Si4 0.980925 0.642066 0.715636
Si Si5 0.742899 0.567031 0.450247
Si Si6 0.880864 0.804126 0.942179
Si Si7 0.968779 0.291856 0.149638
Si Si8 0.500000 0.000000 0.442747
O O1 0.121523 0.967374 0.626051
O O2 0.872106 0.964490 0.971414
O O3 0.651894 0.407324 0.562302
O O4 0.374410 0.393250 0.323413
O O5 0.609654 0.351980 0.126824
O O6 0.545348 0.322239 0.640502
O O7 0.881536 0.389077 0.876126
O O8 0.883554 0.468955 0.642492
O O9 0.034666 0.676721 0.445277
O O10 0.854706 0.601957 0.633859
O O11 0.911165 0.678394 0.948230
O O12 0.874216 0.534814 0.281063
O O13 0.696552 0.790333 0.971880
O O14 0.972385 0.762811 0.120532
#
# Coordination Sequence:
#
# PCOD9344251 Si02
#       8
#     2   4   4   4   4   4   4   2
#     4   8  16  34  66  96 132 164 214 260 316 380
#     4  11  23  41  68  94 134 170 214 264 323 385
#     4   9  16  36  61  94 124 168 203 260 312 377
#     4  11  23  41  68  94 134 170 214 264 323 385
#     4   9  20  36  69 100 132 174 215 264 322 385
#     4  12  26  44  66  95 130 170 218 271 324 384
#     4  12  26  44  66  95 130 170 218 271 324 384
#     4   8  16  34  66  96 132 164 214 260 316 380
#
# _framework density 25.756145
#
# number of rings (size 3 to 8) (size 9 to 14) (size 15 to 20)
#    0.000    1.714    2.857    0.857    4.000    0.000 
#    0.000    0.000    0.000  120.000    0.000    0.000 
#    0.000    0.000    0.000    0.000    0.000    0.000 
#
# Total GULP energy -155935.661343 kJ/mol
# GULP energy per Si atom -5569.130762 kJ/mol
# Density = 2.569752 g / cm^3
# Si number density = 25.756145 Si / 1000 Ang^3
#
#
#
# Elastic Constant Matrix: (Units=GPa)
#
#
# Indices 1 2 3 4 5 6 
#
# 1 132.9458 68.5856 14.4041 0.0000 0.0000 0.0000
# 2 68.5856 121.4090 38.1685 0.0000 0.0000 0.0000
# 3 14.4041 38.1685 89.1372 0.0000 0.0000 0.0000
# 4 0.0000 0.0000 0.0000 16.3811 0.0000 0.0000
# 5 0.0000 0.0000 0.0000 0.0000 24.8675 0.0000
# 6 0.0000 0.0000 0.0000 0.0000 0.0000 65.9041
#
#
#
# Elastic Compliance Matrix: (Units=1/GPa)
#
#
# Indices 1 2 3 4 5 6 
#
# 1 0.010691 -0.006351 0.000992 0.000000 0.000000 0.000000
# 2 -0.006351 0.013291 -0.004665 0.000000 0.000000 0.000000
# 3 0.000992 -0.004665 0.013056 0.000000 0.000000 0.000000
# 4 0.000000 0.000000 0.000000 0.061046 0.000000 0.000000
# 5 0.000000 0.000000 0.000000 0.000000 0.040213 0.000000
# 6 0.000000 0.000000 0.000000 0.000000 0.000000 0.015174
#
#
# Mechanical properties :
#
#
# Convention : Reuss Voigt Hill
#
# Bulk Modulus (GPa) = 58.85976 65.08981 61.97479
# Shear Modulus (GPa) = 27.90454 36.25279 32.07867
#
# Velocity S-wave (km/s) = 3.29509 3.75579 3.53296
# Velocity P-wave (km/s) = 6.11385 6.64337 6.38410
#
# Compressibility (1/GPa) = 0.01698953
#
# Stress axis : x y z
#
# Youngs Moduli (GPa) = 93.53672 75.23807 76.59393
#
# Poissons Ratio (x) = 0.47786 -0.07598
# Poissons Ratio (y) = 0.59409 0.35730
# Poissons Ratio (z) = -0.09279 0.35098
#
# Static dielectric constant tensor:
#      x y z
#    x 2.016900 0.000000 0.000000 
#    y 0.000000 2.259360 0.000000 
#    z 0.000000 0.000000 2.087180 
# 
# From -- ./inp_files/591.got.cif
#   From: 2010.05.17/outbox.cif.g08.bks.cpg/sg32_1_cif.got.tgz:591.got - 2010.06.03 17:12:27.
