data_PCOD9344226
_publ_section_title
;
Structure prediction by ZEFSAII (Michael W. Deem and Ramdas Pophale) SiO2 
 PCOD9344226
Probable space group: P B A 2
;
_chemical_formula_sum "Si O2"
_cell_formula_units_Z 26
_cell_length_a 10.646494
_cell_length_b 8.645374
_cell_length_c 12.047281
_cell_angle_alpha 90.000000
_cell_angle_beta 90.000000
_cell_angle_gamma 90.000000
_cell_volume 1108.866950
_symmetry_space_group_name_H-M "P B A 2"
_symmetry_group_IT_number 32
_symmetry_cell_setting 'orthorhombic'
loop_
_space_group_symop_operation_xyz
x,y,z
-x,-y,z
1/2-x,1/2+y,z
1/2+x,1/2-y,z
loop_
_atom_site_type_symbol
_atom_site_label
_atom_site_fract_x
_atom_site_fract_y
_atom_site_fract_z
Si Si1 0.816685 0.524026 0.582530
Si Si2 0.139069 0.499354 0.092909
Si Si3 0.845258 0.789966 0.731806
Si Si4 0.000000 0.000000 0.882758
Si Si5 0.859507 0.018955 0.271992
Si Si6 0.209565 0.712809 0.420355
Si Si7 0.788109 0.206623 0.951443
O O1 0.886594 0.633056 0.670225
O O2 0.714726 0.420216 0.650589
O O3 0.873995 0.402110 0.495392
O O4 0.756129 0.654823 0.504002
O O5 0.248136 0.493019 0.183763
O O6 0.000000 0.500000 0.142312
O O7 0.155316 0.650534 0.017301
O O8 0.162903 0.352089 0.013232
O O9 0.742033 0.746307 0.824442
O O10 0.955887 0.864033 0.802003
O O11 0.116137 0.937097 0.952435
O O12 0.856061 0.190278 0.324511
O O13 0.820979 0.889984 0.365095
O O14 0.000000 0.000000 0.228322
#
# Coordination Sequence:
#
# PCOD9344226 Si02
#       7
#     4   4   4   2   4   4   4
#     4   9  19  41  68  98 145 184 236 284 351 425
#     4  12  28  46  74 105 140 191 245 297 369 438
#     4  11  20  41  67 103 147 188 240 285 353 427
#     4  12  24  40  72  98 152 196 234 300 360 418
#     4  11  25  46  74 105 141 183 239 302 367 428
#     4   9  21  44  68  98 142 183 235 293 357 426
#     4  12  25  45  70 104 147 186 241 299 359 433
#
# _framework density 23.447355999999999
#
# number of rings (size 3 to 8) (size 9 to 14) (size 15 to 20)
#    0.000    1.231    3.077    1.846    1.077    3.692 
#   12.462    3.846    0.000    0.000    0.000    0.000 
#    0.000    0.000    0.000    0.000    0.000    0.000 
#
# Total GULP energy -145319.958973 kJ/mol
# GULP energy per Si atom -5589.229191 kJ/mol
# Density = 2.339399 g / cm^3
# Si number density = 23.447356 Si / 1000 Ang^3
#
#
#
# Elastic Constant Matrix: (Units=GPa)
#
#
# Indices 1 2 3 4 5 6 
#
# 1 124.4372 31.7301 42.8353 0.0000 0.0000 0.0000
# 2 31.7301 124.7505 48.0614 0.0000 0.0000 0.0000
# 3 42.8353 48.0614 108.3311 0.0000 0.0000 0.0000
# 4 0.0000 0.0000 0.0000 25.3131 0.0000 0.0000
# 5 0.0000 0.0000 0.0000 0.0000 17.6324 0.0000
# 6 0.0000 0.0000 0.0000 0.0000 0.0000 29.4595
#
#
#
# Elastic Compliance Matrix: (Units=1/GPa)
#
#
# Indices 1 2 3 4 5 6 
#
# 1 0.009440 -0.001162 -0.003217 0.000000 0.000000 0.000000
# 2 -0.001162 0.009811 -0.003894 0.000000 0.000000 0.000000
# 3 -0.003217 -0.003894 0.012231 0.000000 0.000000 0.000000
# 4 0.000000 0.000000 0.000000 0.039505 0.000000 0.000000
# 5 0.000000 0.000000 0.000000 0.000000 0.056714 0.000000
# 6 0.000000 0.000000 0.000000 0.000000 0.000000 0.033945
#
#
# Mechanical properties :
#
#
# Convention : Reuss Voigt Hill
#
# Bulk Modulus (GPa) = 66.94791 66.97472 66.96132
# Shear Modulus (GPa) = 27.29709 30.14046 28.71878
#
# Velocity S-wave (km/s) = 3.41572 3.58921 3.50354
# Velocity P-wave (km/s) = 6.64610 6.76775 6.70720
#
# Compressibility (1/GPa) = 0.01493699
#
# Stress axis : x y z
#
# Youngs Moduli (GPa) = 105.93375 101.92142 81.76255
#
# Poissons Ratio (x) = 0.11838 0.26306
# Poissons Ratio (y) = 0.12304 0.31835
# Poissons Ratio (z) = 0.34082 0.39684
#
# Static dielectric constant tensor:
#      x y z
#    x 1.888260 0.000000 0.000000 
#    y 0.000000 1.889020 0.000000 
#    z 0.000000 0.000000 1.917580 
# 
# From -- ./inp_files/3845.got.cif
#   From: 2010.05.17/outbox.cif.g08.bks.cpg/sg32_2_cif.got.tgz:3845.got - 2010.06.03 17:12:27.
