data_PCOD9344636
_publ_section_title
;
Structure prediction by ZEFSAII (Michael W. Deem and Ramdas Pophale) SiO2 
 PCOD9344636
Probable space group: P N A 21
;
_chemical_formula_sum "Si O2"
_cell_formula_units_Z 32
_cell_length_a 23.067689
_cell_length_b 5.210290
_cell_length_c 13.389179
_cell_angle_alpha 90.000000
_cell_angle_beta 90.000000
_cell_angle_gamma 90.000000
_cell_volume 1609.236712
_symmetry_space_group_name_H-M "P N A 21"
_symmetry_group_IT_number 33
_symmetry_cell_setting 'orthorhombic'
loop_
_space_group_symop_operation_xyz
x,y,z
-x,-y,1/2+z
1/2-x,1/2+y,1/2+z
1/2+x,1/2-y,z
loop_
_atom_site_type_symbol
_atom_site_label
_atom_site_fract_x
_atom_site_fract_y
_atom_site_fract_z
Si Si1 0.545954 0.536481 0.352290
Si Si2 0.820368 0.922748 0.828413
Si Si3 0.961052 0.227220 0.225213
Si Si4 0.299048 0.500217 0.061444
Si Si5 0.128496 0.489654 0.613991
Si Si6 0.307728 0.065823 0.700888
Si Si7 0.941770 0.409999 0.669210
Si Si8 0.965843 0.853620 0.057428
O O1 0.609084 0.415737 0.329837
O O2 0.489762 0.362005 0.327417
O O3 0.544817 0.775830 0.276967
O O4 0.542634 0.558071 0.470612
O O5 0.799159 0.656179 0.782985
O O6 0.802150 0.159380 0.756658
O O7 0.799933 0.959750 0.942092
O O8 0.908057 0.422608 0.212205
O O9 0.017821 0.341360 0.169567
O O10 0.944304 0.980291 0.160500
O O11 0.330129 0.743833 0.114090
O O12 0.236074 0.505763 0.111449
O O13 0.334036 0.235739 0.081073
O O14 0.076998 0.387925 0.540117
O O15 0.373966 0.049769 0.662701
O O16 0.969429 0.235829 0.582278
#
# Coordination Sequence:
#
# PCOD9344636 Si02
#       8
#     4   4   4   4   4   4   4   4
#     4  10  19  35  62  95 121 166 212 266 307 387
#     4  11  22  40  66  96 119 163 228 256 314 389
#     4  10  19  36  60  89 132 158 203 266 321 372
#     4  12  24  41  69  92 128 170 216 270 318 377
#     4  11  21  39  62  95 122 162 206 264 321 374
#     4  11  24  43  64  92 129 169 212 271 317 375
#     4   9  21  36  60  91 130 164 207 259 323 382
#     4  10  20  36  63  94 127 160 210 266 323 372
#
# _framework density 19.885204999999999
#
# number of rings (size 3 to 8) (size 9 to 14) (size 15 to 20)
#    0.000    1.500    3.750    1.500    0.000    3.000 
#    0.000    2.500    2.750    0.000    0.000    0.000 
#    0.000    0.000    0.000    0.000    0.000    0.000 
#
# Total GULP energy -178270.880899 kJ/mol
# GULP energy per Si atom -5570.965028 kJ/mol
# Density = 1.983995 g / cm^3
# Si number density = 19.885205 Si / 1000 Ang^3
#
#
#
# Elastic Constant Matrix: (Units=GPa)
#
#
# Indices 1 2 3 4 5 6 
#
# 1 102.1820 35.7185 31.1576 0.0000 0.0000 0.0000
# 2 35.7185 103.0609 13.6385 0.0000 0.0000 0.0000
# 3 31.1576 13.6385 42.7696 0.0000 0.0000 0.0000
# 4 0.0000 0.0000 0.0000 16.2561 0.0000 0.0000
# 5 0.0000 0.0000 0.0000 0.0000 28.4120 0.0000
# 6 0.0000 0.0000 0.0000 0.0000 0.0000 21.9335
#
#
#
# Elastic Compliance Matrix: (Units=1/GPa)
#
#
# Indices 1 2 3 4 5 6 
#
# 1 0.013746 -0.003590 -0.008869 0.000000 0.000000 0.000000
# 2 -0.003590 0.011068 -0.000914 0.000000 0.000000 0.000000
# 3 -0.008869 -0.000914 0.030133 0.000000 0.000000 0.000000
# 4 0.000000 0.000000 0.000000 0.061515 0.000000 0.000000
# 5 0.000000 0.000000 0.000000 0.000000 0.035196 0.000000
# 6 0.000000 0.000000 0.000000 0.000000 0.000000 0.045592
#
#
# Mechanical properties :
#
#
# Convention : Reuss Voigt Hill
#
# Bulk Modulus (GPa) = 35.45943 45.44908 40.45426
# Shear Modulus (GPa) = 21.42259 24.48685 22.95472
#
# Velocity S-wave (km/s) = 3.28581 3.51295 3.40128
# Velocity P-wave (km/s) = 5.68033 6.27374 5.98439
#
# Compressibility (1/GPa) = 0.02820124
#
# Stress axis : x y z
#
# Youngs Moduli (GPa) = 72.74944 90.34837 33.18566
#
# Poissons Ratio (x) = 0.32438 0.29432
# Poissons Ratio (y) = 0.26119 0.03033
# Poissons Ratio (z) = 0.64521 0.08257
#
# Static dielectric constant tensor:
#      x y z
#    x 1.719760 0.000000 0.000000 
#    y 0.000000 1.766540 0.000000 
#    z 0.000000 0.000000 1.709580 
# 
# From -- ./inp_files/7331.got.cif
#   From: 2010.05.17/outbox.cif.g08.bks.cpg/sg33_4_cif.got.tgz:7331.got - 2010.06.03 17:15:25.
