data_PCOD9344839
_publ_section_title
;
Structure prediction by ZEFSAII (Michael W. Deem and Ramdas Pophale) SiO2 
 PCOD9344839
Probable space group: P N A 21
;
_chemical_formula_sum "Si O2"
_cell_formula_units_Z 24
_cell_length_a 5.877338
_cell_length_b 17.388756
_cell_length_c 8.809997
_cell_angle_alpha 90.000000
_cell_angle_beta 90.000000
_cell_angle_gamma 90.000000
_cell_volume 900.378138
_symmetry_space_group_name_H-M "P N A 21"
_symmetry_group_IT_number 33
_symmetry_cell_setting 'orthorhombic'
loop_
_space_group_symop_operation_xyz
x,y,z
-x,-y,1/2+z
1/2-x,1/2+y,1/2+z
1/2+x,1/2-y,z
loop_
_atom_site_type_symbol
_atom_site_label
_atom_site_fract_x
_atom_site_fract_y
_atom_site_fract_z
Si Si1 0.995561 0.643911 0.995800
Si Si2 0.499589 0.333950 0.868819
Si Si3 0.382559 0.057597 0.792179
Si Si4 0.991520 0.280027 0.127136
Si Si5 0.158740 0.436789 0.062809
Si Si6 0.493233 0.329179 0.505861
O O1 0.985711 0.607846 0.166437
O O2 0.267394 0.631390 0.959224
O O3 0.995919 0.737429 0.980286
O O4 0.733262 0.630289 0.940077
O O5 0.728337 0.382488 0.879003
O O6 0.467050 0.329733 0.689648
O O7 0.504469 0.252610 0.953609
O O8 0.331916 0.385433 0.968790
O O9 0.255975 0.995168 0.688735
O O10 0.525893 0.019119 0.927388
O O11 0.740585 0.252423 0.182885
O O12 0.006083 0.371606 0.144762
#
# Coordination Sequence:
#
# PCOD9344839 Si02
#       6
#     4   4   4   4   4   4
#     4   9  17  29  48  83 112 149 188 263 306 360
#     4  10  20  35  58  88 124 164 223 263 313 377
#     4  11  22  38  57  94 133 167 207 267 348 392
#     4  10  20  36  63  95 118 161 232 280 305 371
#     4  11  23  38  62  97 130 170 211 278 333 399
#     4   9  16  26  52  77 111 141 209 255 297 341
#
# _framework density 26.655465
#
# number of rings (size 3 to 8) (size 9 to 14) (size 15 to 20)
#    0.000    2.000    3.333    1.000    9.333    1.333 
#    0.000    0.000    0.000    0.000   34.667    0.000 
#    0.000    0.000    0.000    0.000    0.000    0.000 
#
# Total GULP energy -133771.119183 kJ/mol
# GULP energy per Si atom -5573.796633 kJ/mol
# Density = 2.659480 g / cm^3
# Si number density = 26.655465 Si / 1000 Ang^3
#
#
#
# Elastic Constant Matrix: (Units=GPa)
#
#
# Indices 1 2 3 4 5 6 
#
# 1 199.1375 27.4088 35.5552 0.0000 0.0000 0.0000
# 2 27.4088 73.2019 31.2003 0.0000 0.0000 0.0000
# 3 35.5552 31.2003 107.4512 0.0000 0.0000 0.0000
# 4 0.0000 0.0000 0.0000 32.5067 0.0000 0.0000
# 5 0.0000 0.0000 0.0000 0.0000 26.5739 0.0000
# 6 0.0000 0.0000 0.0000 0.0000 0.0000 29.2274
#
#
#
# Elastic Compliance Matrix: (Units=1/GPa)
#
#
# Indices 1 2 3 4 5 6 
#
# 1 0.005470 -0.001457 -0.001387 0.000000 0.000000 0.000000
# 2 -0.001457 0.015978 -0.004158 0.000000 0.000000 0.000000
# 3 -0.001387 -0.004158 0.010973 0.000000 0.000000 0.000000
# 4 0.000000 0.000000 0.000000 0.030763 0.000000 0.000000
# 5 0.000000 0.000000 0.000000 0.000000 0.037631 0.000000
# 6 0.000000 0.000000 0.000000 0.000000 0.000000 0.034214
#
#
# Mechanical properties :
#
#
# Convention : Reuss Voigt Hill
#
# Bulk Modulus (GPa) = 54.29408 63.12435 58.70921
# Shear Modulus (GPa) = 32.22247 36.70335 34.46291
#
# Velocity S-wave (km/s) = 3.48062 3.71476 3.59960
# Velocity P-wave (km/s) = 6.04699 6.49093 6.27289
#
# Compressibility (1/GPa) = 0.01841822
#
# Stress axis : x y z
#
# Youngs Moduli (GPa) = 182.82183 62.58457 91.13549
#
# Poissons Ratio (x) = 0.09118 0.12640
# Poissons Ratio (y) = 0.26636 0.37890
# Poissons Ratio (z) = 0.25356 0.26020
#
# Static dielectric constant tensor:
#      x y z
#    x 2.185420 0.000000 0.000000 
#    y 0.000000 2.088380 0.000000 
#    z 0.000000 0.000000 2.127760 
# 
# From -- ./inp_files/2660.got.cif
#   From: 2010.05.17/outbox.cif.g08.bks.cpg/sg33_2_cif.got.tgz:2660.got - 2010.06.03 17:15:25.
