data_PCOD9344035
_publ_section_title
;
Structure prediction by ZEFSAII (Michael W. Deem and Ramdas Pophale) SiO2 
 PCOD9344035
Probable space group: P B A 2
;
_chemical_formula_sum "Si O2"
_cell_formula_units_Z 26
_cell_length_a 11.242047
_cell_length_b 14.746035
_cell_length_c 5.509547
_cell_angle_alpha 90.000000
_cell_angle_beta 90.000000
_cell_angle_gamma 90.000000
_cell_volume 913.348562
_symmetry_space_group_name_H-M "P B A 2"
_symmetry_group_IT_number 32
_symmetry_cell_setting 'orthorhombic'
loop_
_space_group_symop_operation_xyz
x,y,z
-x,-y,z
1/2-x,1/2+y,z
1/2+x,1/2-y,z
loop_
_atom_site_type_symbol
_atom_site_label
_atom_site_fract_x
_atom_site_fract_y
_atom_site_fract_z
Si Si1 0.257776 0.053598 0.983240
Si Si2 0.577940 0.600105 0.866357
Si Si3 0.500000 0.000000 0.804506
Si Si4 0.349797 0.830158 0.290162
Si Si5 0.785149 0.750821 0.795354
Si Si6 0.585365 0.652174 0.369324
Si Si7 0.408164 0.130383 0.398183
O O1 0.251518 0.144368 0.816058
O O2 0.141943 0.994832 0.920860
O O3 0.368102 0.988212 0.913211
O O4 0.297399 0.087868 0.252722
O O5 0.674968 0.680880 0.820337
O O6 0.523345 0.605872 0.598581
O O7 0.519897 0.628800 0.119332
O O8 0.538188 0.914833 0.637954
O O9 0.353456 0.774209 0.546726
O O10 0.223225 0.881770 0.325387
O O11 0.471045 0.884456 0.244807
O O12 0.345839 0.768930 0.052129
O O13 0.603710 0.760751 0.394785
#
# Coordination Sequence:
#
# PCOD9344035 Si02
#       7
#     4   4   2   4   4   4   4
#     4  12  26  41  71 107 147 185 238 310 373 437
#     4  10  22  40  65  92 135 186 233 276 356 435
#     4  12  26  36  64 110 144 164 228 298 390 416
#     4  10  22  40  65  92 135 186 233 276 356 435
#     4  10  22  44  63  95 141 192 228 278 365 437
#     4  10  22  44  63  95 141 192 228 278 365 437
#     4  12  26  41  71 107 147 185 238 310 373 437
#
# _framework density 28.466678999999999
#
# number of rings (size 3 to 8) (size 9 to 14) (size 15 to 20)
#    0.000    1.231    3.077    4.154   12.923    0.000 
#    0.000    0.000    0.000    5.538    0.000    0.000 
#    0.000    0.000    0.000    0.000    0.000    0.000 
#
# Total GULP energy -145265.172445 kJ/mol
# GULP energy per Si atom -5587.122017 kJ/mol
# Density = 2.840189 g / cm^3
# Si number density = 28.466679 Si / 1000 Ang^3
#
#
#
# Elastic Constant Matrix: (Units=GPa)
#
#
# Indices 1 2 3 4 5 6 
#
# 1 40.0297 -12.5508 -3.4372 0.0000 0.0000 0.0000
# 2 -12.5508 123.8725 30.9962 0.0000 0.0000 0.0000
# 3 -3.4372 30.9962 183.1592 0.0000 0.0000 0.0000
# 4 0.0000 0.0000 0.0000 23.6034 0.0000 0.0000
# 5 0.0000 0.0000 0.0000 0.0000 44.8723 0.0000
# 6 0.0000 0.0000 0.0000 0.0000 0.0000 63.0969
#
#
#
# Elastic Compliance Matrix: (Units=1/GPa)
#
#
# Indices 1 2 3 4 5 6 
#
# 1 0.025801 0.002603 0.000044 0.000000 0.000000 0.000000
# 2 0.002603 0.008692 -0.001422 0.000000 0.000000 0.000000
# 3 0.000044 -0.001422 0.005701 0.000000 0.000000 0.000000
# 4 0.000000 0.000000 0.000000 0.042367 0.000000 0.000000
# 5 0.000000 0.000000 0.000000 0.000000 0.022285 0.000000
# 6 0.000000 0.000000 0.000000 0.000000 0.000000 0.015849
#
#
# Mechanical properties :
#
#
# Convention : Reuss Voigt Hill
#
# Bulk Modulus (GPa) = 23.44961 41.89752 32.67356
# Shear Modulus (GPa) = 37.74688 48.45142 43.09915
#
# Velocity S-wave (km/s) = 3.64538 4.13005 3.89526
# Velocity P-wave (km/s) = 5.09646 6.12317 5.63325
#
# Compressibility (1/GPa) = 0.04264464
#
# Stress axis : x y z
#
# Youngs Moduli (GPa) = 38.75751 115.04232 175.40081
#
# Poissons Ratio (x) = -0.29949 -0.00765
# Poissons Ratio (y) = -0.10090 0.24945
# Poissons Ratio (z) = -0.00169 0.16361
#
# Static dielectric constant tensor:
#      x y z
#    x 1.757390 0.000000 0.000000 
#    y 0.000000 2.366470 0.000000 
#    z 0.000000 0.000000 2.420260 
# 
# From -- ./inp_files/1226.got.cif
#   From: 2010.05.17/outbox.cif.g08.bks.cpg/sg32_1_cif.got.tgz:1226.got - 2010.06.03 17:12:27.
