data_PCOD9344649
_publ_section_title
;
Structure prediction by ZEFSAII (Michael W. Deem and Ramdas Pophale) SiO2 
 PCOD9344649
Probable space group: P N A 21
;
_chemical_formula_sum "Si O2"
_cell_formula_units_Z 32
_cell_length_a 11.807923
_cell_length_b 13.298831
_cell_length_c 8.620514
_cell_angle_alpha 90.000000
_cell_angle_beta 90.000000
_cell_angle_gamma 90.000000
_cell_volume 1353.692869
_symmetry_space_group_name_H-M "P N A 21"
_symmetry_group_IT_number 33
_symmetry_cell_setting 'orthorhombic'
loop_
_space_group_symop_operation_xyz
x,y,z
-x,-y,1/2+z
1/2-x,1/2+y,1/2+z
1/2+x,1/2-y,z
loop_
_atom_site_type_symbol
_atom_site_label
_atom_site_fract_x
_atom_site_fract_y
_atom_site_fract_z
Si Si1 0.310397 0.627258 0.701310
Si Si2 0.263481 0.243732 0.889772
Si Si3 0.989783 0.988545 0.539204
Si Si4 0.523700 0.697547 0.864603
Si Si5 0.600158 0.903237 0.899633
Si Si6 0.197772 0.894910 0.645409
Si Si7 0.937425 0.589752 0.618764
Si Si8 0.983031 0.768545 0.373304
O O1 0.254644 0.669207 0.540912
O O2 0.384366 0.530267 0.653084
O O3 0.406432 0.701534 0.770671
O O4 0.228641 0.605955 0.843827
O O5 0.144171 0.235455 0.795925
O O6 0.389640 0.238008 0.815049
O O7 0.269928 0.351376 0.976972
O O8 0.990958 0.884176 0.437991
O O9 0.110006 0.985278 0.627697
O O10 0.976460 0.093770 0.456741
O O11 0.550087 0.797329 0.958065
O O12 0.625728 0.686273 0.740782
O O13 0.536994 0.922565 0.738590
O O14 0.575499 0.992598 0.013098
O O15 0.319717 0.911301 0.716359
O O16 0.964230 0.685901 0.510058
#
# Coordination Sequence:
#
# PCOD9344649 Si02
#       8
#     4   4   4   4   4   4   4   4
#     4  10  19  36  58  90 122 162 213 257 318 375
#     4   9  14  29  56  80 113 150 207 253 299 372
#     4   9  19  34  61  91 117 154 212 275 304 366
#     4  11  21  37  65  94 119 167 219 265 311 386
#     4  12  24  40  63  96 132 171 212 260 321 391
#     4   9  17  35  58  85 119 154 211 259 312 363
#     4  11  23  40  63  91 129 173 211 260 322 392
#     4   9  17  33  56  85 119 159 207 257 315 375
#
# _framework density 23.639040000000001
#
# number of rings (size 3 to 8) (size 9 to 14) (size 15 to 20)
#    0.000    2.000    2.500    4.500    0.000    1.000 
#    0.000    2.500    2.750    0.000    0.000    0.000 
#    0.000    0.000    0.000    0.000    0.000    0.000 
#
# Total GULP energy -178412.630133 kJ/mol
# GULP energy per Si atom -5575.394692 kJ/mol
# Density = 2.358524 g / cm^3
# Si number density = 23.639040 Si / 1000 Ang^3
#
#
#
# Elastic Constant Matrix: (Units=GPa)
#
#
# Indices 1 2 3 4 5 6 
#
# 1 130.9480 32.3045 13.7195 0.0000 0.0000 0.0000
# 2 32.3045 149.9767 37.7687 0.0000 0.0000 0.0000
# 3 13.7195 37.7687 29.1821 0.0000 0.0000 0.0000
# 4 0.0000 0.0000 0.0000 28.9922 0.0000 0.0000
# 5 0.0000 0.0000 0.0000 0.0000 12.6363 0.0000
# 6 0.0000 0.0000 0.0000 0.0000 0.0000 7.4622
#
#
#
# Elastic Compliance Matrix: (Units=1/GPa)
#
#
# Indices 1 2 3 4 5 6 
#
# 1 0.008170 -0.001176 -0.002319 0.000000 0.000000 0.000000
# 2 -0.001176 0.010061 -0.012468 0.000000 0.000000 0.000000
# 3 -0.002319 -0.012468 0.051495 0.000000 0.000000 0.000000
# 4 0.000000 0.000000 0.000000 0.034492 0.000000 0.000000
# 5 0.000000 0.000000 0.000000 0.000000 0.079137 0.000000
# 6 0.000000 0.000000 0.000000 0.000000 0.000000 0.134010
#
#
# Mechanical properties :
#
#
# Convention : Reuss Voigt Hill
#
# Bulk Modulus (GPa) = 26.45582 53.07693 39.76638
# Shear Modulus (GPa) = 13.81631 24.90572 19.36102
#
# Velocity S-wave (km/s) = 2.42020 3.24942 2.86497
# Velocity P-wave (km/s) = 4.36185 6.04815 5.27285
#
# Compressibility (1/GPa) = 0.03779887
#
# Stress axis : x y z
#
# Youngs Moduli (GPa) = 122.40438 99.39489 19.41931
#
# Poissons Ratio (x) = 0.11685 0.04504
# Poissons Ratio (y) = 0.14391 0.24213
# Poissons Ratio (z) = 0.28389 1.23930
#
# Static dielectric constant tensor:
#      x y z
#    x 1.988900 0.000000 0.000000 
#    y 0.000000 1.924490 0.000000 
#    z 0.000000 0.000000 1.922830 
# 
# From -- ./inp_files/3936.got.cif
#   From: 2010.05.17/outbox.cif.g08.bks.cpg/sg33_2_cif.got.tgz:3936.got - 2010.06.03 17:15:25.
