data_PCOD9344667
_publ_section_title
;
Structure prediction by ZEFSAII (Michael W. Deem and Ramdas Pophale) SiO2 
 PCOD9344667
Probable space group: P N A 21
;
_chemical_formula_sum "Si O2"
_cell_formula_units_Z 32
_cell_length_a 6.995291
_cell_length_b 14.648594
_cell_length_c 11.846773
_cell_angle_alpha 90.000000
_cell_angle_beta 90.000000
_cell_angle_gamma 90.000000
_cell_volume 1213.952782
_symmetry_space_group_name_H-M "P N A 21"
_symmetry_group_IT_number 33
_symmetry_cell_setting 'orthorhombic'
loop_
_space_group_symop_operation_xyz
x,y,z
-x,-y,1/2+z
1/2-x,1/2+y,1/2+z
1/2+x,1/2-y,z
loop_
_atom_site_type_symbol
_atom_site_label
_atom_site_fract_x
_atom_site_fract_y
_atom_site_fract_z
Si Si1 0.476143 0.770603 0.825600
Si Si2 0.719941 0.420099 0.730583
Si Si3 0.876307 0.089149 0.347220
Si Si4 0.172682 0.249939 0.896744
Si Si5 0.821794 0.399328 0.484496
Si Si6 0.704012 0.999851 0.556852
Si Si7 0.839553 0.551451 0.298648
Si Si8 0.411950 0.213055 0.066593
O O1 0.307205 0.844777 0.828223
O O2 0.455529 0.662921 0.850205
O O3 0.568568 0.773820 0.700762
O O4 0.613623 0.806527 0.924612
O O5 0.617467 0.516767 0.748007
O O6 0.661036 0.338764 0.814887
O O7 0.705143 0.389067 0.600638
O O8 0.933292 0.450439 0.772657
O O9 0.851585 0.029387 0.460375
O O10 0.195373 0.345731 0.833752
O O11 0.172474 0.257240 0.043346
O O12 0.924263 0.258762 0.928647
O O13 0.779040 0.481738 0.396702
O O14 0.022024 0.438060 0.533157
O O15 0.758742 0.024125 0.682838
O O16 0.634754 0.895226 0.551960
#
# Coordination Sequence:
#
# PCOD9344667 Si02
#       8
#     4   4   4   4   4   4   4   4
#     4  11  23  39  66  97 122 171 218 264 318 384
#     4  11  22  40  64  92 132 171 210 267 327 383
#     4  11  22  42  65  91 128 168 214 263 323 381
#     4  12  23  39  64  99 123 169 213 265 321 384
#     4  10  19  36  63  92 124 167 216 253 316 389
#     4  10  19  39  65  88 125 172 212 261 312 386
#     4  11  20  38  66  93 122 169 224 253 313 399
#     4  12  22  39  67  92 126 163 219 264 314 380
#
# _framework density 26.360168000000002
#
# number of rings (size 3 to 8) (size 9 to 14) (size 15 to 20)
#    0.000    1.000    7.500    1.500    3.500    0.000 
#    0.000    1.250    0.000    0.000    0.000    0.000 
#    0.000    0.000    0.000    0.000    0.000    0.000 
#
# Total GULP energy -178746.927893 kJ/mol
# GULP energy per Si atom -5585.841497 kJ/mol
# Density = 2.630017 g / cm^3
# Si number density = 26.360168 Si / 1000 Ang^3
#
#
#
# Elastic Constant Matrix: (Units=GPa)
#
#
# Indices 1 2 3 4 5 6 
#
# 1 108.8920 43.3914 35.0818 0.0000 0.0000 0.0000
# 2 43.3914 204.0544 81.5793 0.0000 0.0000 0.0000
# 3 35.0818 81.5793 183.7027 0.0000 0.0000 0.0000
# 4 0.0000 0.0000 0.0000 10.1297 0.0000 0.0000
# 5 0.0000 0.0000 0.0000 0.0000 11.3766 0.0000
# 6 0.0000 0.0000 0.0000 0.0000 0.0000 20.6516
#
#
#
# Elastic Compliance Matrix: (Units=1/GPa)
#
#
# Indices 1 2 3 4 5 6 
#
# 1 0.010248 -0.001698 -0.001203 0.000000 0.000000 0.000000
# 2 -0.001698 0.006240 -0.002447 0.000000 0.000000 0.000000
# 3 -0.001203 -0.002447 0.006760 0.000000 0.000000 0.000000
# 4 0.000000 0.000000 0.000000 0.098720 0.000000 0.000000
# 5 0.000000 0.000000 0.000000 0.000000 0.087899 0.000000
# 6 0.000000 0.000000 0.000000 0.000000 0.000000 0.048422
#
#
# Mechanical properties :
#
#
# Convention : Reuss Voigt Hill
#
# Bulk Modulus (GPa) = 79.66985 90.75046 85.21016
# Shear Modulus (GPa) = 18.30371 30.87136 24.58754
#
# Velocity S-wave (km/s) = 2.63795 3.42590 3.05741
# Velocity P-wave (km/s) = 6.29027 7.08173 6.69770
#
# Compressibility (1/GPa) = 0.01255180
#
# Stress axis : x y z
#
# Youngs Moduli (GPa) = 97.58343 160.25719 147.93238
#
# Poissons Ratio (x) = 0.27215 0.17794
# Poissons Ratio (y) = 0.16572 0.36195
# Poissons Ratio (z) = 0.11738 0.39211
#
# Static dielectric constant tensor:
#      x y z
#    x 2.913650 0.000000 0.000000 
#    y 0.000000 1.974500 0.000000 
#    z 0.000000 0.000000 2.058530 
# 
# From -- ./inp_files/6476.got.cif
#   From: 2010.05.17/outbox.cif.g08.bks.cpg/sg33_4_cif.got.tgz:6476.got - 2010.06.03 17:15:25.
