data_PCOD9344299
_publ_section_title
;
Structure prediction by ZEFSAII (Michael W. Deem and Ramdas Pophale) SiO2 
 PCOD9344299
Probable space group: P B A 2
;
_chemical_formula_sum "Si O2"
_cell_formula_units_Z 28
_cell_length_a 22.378430
_cell_length_b 7.696957
_cell_length_c 8.730529
_cell_angle_alpha 90.000000
_cell_angle_beta 90.000000
_cell_angle_gamma 90.000000
_cell_volume 1503.797069
_symmetry_space_group_name_H-M "P B A 2"
_symmetry_group_IT_number 32
_symmetry_cell_setting 'orthorhombic'
loop_
_space_group_symop_operation_xyz
x,y,z
-x,-y,z
1/2-x,1/2+y,z
1/2+x,1/2-y,z
loop_
_atom_site_type_symbol
_atom_site_label
_atom_site_fract_x
_atom_site_fract_y
_atom_site_fract_z
Si Si1 0.775678 0.038413 0.296520
Si Si2 0.666386 0.207432 0.448659
Si Si3 0.435718 0.579729 0.017650
Si Si4 0.275617 0.038408 0.956435
Si Si5 0.666399 0.292489 0.804313
Si Si6 0.861512 0.250026 0.126422
Si Si7 0.064280 0.420252 0.235220
O O1 0.721449 0.079579 0.409608
O O2 0.818726 0.203596 0.269603
O O3 0.814890 0.879782 0.355520
O O4 0.750072 0.999874 0.126457
O O5 0.662025 0.249790 0.626520
O O6 0.605207 0.135078 0.378214
O O7 0.500000 0.500000 0.977095
O O8 0.400181 0.421685 0.098539
O O9 0.441682 0.749973 0.126456
O O10 0.394789 0.635122 0.874677
O O11 0.221446 0.079507 0.843140
O O12 0.314828 0.879638 0.897709
O O13 0.318699 0.203530 0.983295
O O14 0.900187 0.421732 0.154280
O O15 0.000000 0.500000 0.275761
#
# Coordination Sequence:
#
# PCOD9344299 Si02
#       7
#     4   4   4   4   4   4   4
#     4  12  20  38  68  96 132 169 219 271 322 398
#     4  12  24  40  63 102 144 173 211 275 352 403
#     4  12  24  43  68  95 125 175 233 277 315 387
#     4  12  20  38  68  96 132 169 219 271 322 398
#     4  12  24  40  63 102 144 173 211 275 352 403
#     4  12  22  38  68 102 124 160 226 282 314 378
#     4  12  24  43  68  95 125 175 233 277 315 387
#
# _framework density 18.619532
#
# number of rings (size 3 to 8) (size 9 to 14) (size 15 to 20)
#    0.000    0.000   10.000    0.857    0.000    0.000 
#    0.000    4.286    0.000    0.000    0.000    0.000 
#    0.000    0.000    0.000    0.000    0.000    0.000 
#
# Total GULP energy -156450.421746 kJ/mol
# GULP energy per Si atom -5587.515062 kJ/mol
# Density = 1.857715 g / cm^3
# Si number density = 18.619532 Si / 1000 Ang^3
#
#
#
# Elastic Constant Matrix: (Units=GPa)
#
#
# Indices 1 2 3 4 5 6 
#
# 1 166.7360 60.8713 70.7121 0.0000 0.0000 0.0000
# 2 60.8713 130.1340 45.6940 0.0000 0.0000 0.0000
# 3 70.7121 45.6940 126.7957 0.0000 0.0000 0.0000
# 4 0.0000 0.0000 0.0000 24.9860 0.0000 0.0000
# 5 0.0000 0.0000 0.0000 0.0000 10.7096 0.0000
# 6 0.0000 0.0000 0.0000 0.0000 0.0000 50.5159
#
#
#
# Elastic Compliance Matrix: (Units=1/GPa)
#
#
# Indices 1 2 3 4 5 6 
#
# 1 0.008600 -0.002677 -0.003831 0.000000 0.000000 0.000000
# 2 -0.002677 0.009631 -0.001978 0.000000 0.000000 0.000000
# 3 -0.003831 -0.001978 0.010736 0.000000 0.000000 0.000000
# 4 0.000000 0.000000 0.000000 0.040022 0.000000 0.000000
# 5 0.000000 0.000000 0.000000 0.000000 0.093374 0.000000
# 6 0.000000 0.000000 0.000000 0.000000 0.000000 0.019796
#
#
# Mechanical properties :
#
#
# Convention : Reuss Voigt Hill
#
# Bulk Modulus (GPa) = 83.37130 86.46894 84.92012
# Shear Modulus (GPa) = 24.61480 33.66819 29.14149
#
# Velocity S-wave (km/s) = 3.63986 4.25693 3.96043
# Velocity P-wave (km/s) = 7.90811 8.40849 8.16213
#
# Compressibility (1/GPa) = 0.01199454
#
# Stress axis : x y z
#
# Youngs Moduli (GPa) = 116.28326 103.82943 93.14498
#
# Poissons Ratio (x) = 0.27799 0.35684
# Poissons Ratio (y) = 0.31133 0.18421
# Poissons Ratio (z) = 0.44549 0.20534
#
# Static dielectric constant tensor:
#      x y z
#    x 1.674060 0.000000 0.000000 
#    y 0.000000 2.169510 0.000000 
#    z 0.000000 0.000000 1.632170 
# 
# From -- ./inp_files/3297.got.cif
#   From: 2010.05.17/outbox.cif.g08.bks.cpg/sg32_2_cif.got.tgz:3297.got - 2010.06.03 17:12:27.
