data_PCOD9344894
_publ_section_title
;
Structure prediction by ZEFSAII (Michael W. Deem and Ramdas Pophale) SiO2 
 PCOD9344894
Probable space group: P N A 21
;
_chemical_formula_sum "Si O2"
_cell_formula_units_Z 32
_cell_length_a 16.261386
_cell_length_b 9.478922
_cell_length_c 8.458317
_cell_angle_alpha 90.000000
_cell_angle_beta 90.000000
_cell_angle_gamma 90.000000
_cell_volume 1303.768446
_symmetry_space_group_name_H-M "P N A 21"
_symmetry_group_IT_number 33
_symmetry_cell_setting 'orthorhombic'
loop_
_space_group_symop_operation_xyz
x,y,z
-x,-y,1/2+z
1/2-x,1/2+y,1/2+z
1/2+x,1/2-y,z
loop_
_atom_site_type_symbol
_atom_site_label
_atom_site_fract_x
_atom_site_fract_y
_atom_site_fract_z
Si Si1 0.351000 0.533729 0.535380
Si Si2 0.025800 0.169264 0.212269
Si Si3 0.403203 0.538041 0.038647
Si Si4 0.391888 0.114367 0.876817
Si Si5 0.952764 0.431299 0.394632
Si Si6 0.742164 0.543642 0.724763
Si Si7 0.797825 0.375594 0.208306
Si Si8 0.962777 0.211542 0.651313
O O1 0.403198 0.671774 0.580573
O O2 0.311371 0.524980 0.365833
O O3 0.279468 0.527652 0.665195
O O4 0.414402 0.405160 0.549907
O O5 0.065277 0.080422 0.361631
O O6 0.995048 0.314216 0.281425
O O7 0.950417 0.090465 0.126631
O O8 0.306520 0.512164 0.068900
O O9 0.442564 0.666518 0.144451
O O10 0.408315 0.268763 0.805925
O O11 0.484859 0.058957 0.893490
O O12 0.332701 0.015483 0.767408
O O13 0.349015 0.124446 0.045132
O O14 0.859318 0.439235 0.337592
O O15 0.955982 0.359994 0.565037
O O16 0.732492 0.714114 0.739524
#
# Coordination Sequence:
#
# PCOD9344894 Si02
#       8
#     4   4   4   4   4   4   4   4
#     4  10  22  40  64  92 126 169 218 272 325 401
#     4  10  20  36  66  95 121 169 219 265 329 389
#     4  10  20  36  66  93 127 168 215 264 325 389
#     4  11  26  41  62  98 131 163 226 272 328 400
#     4  11  21  43  65  90 132 172 210 274 332 394
#     4  11  22  44  61  94 132 170 216 275 328 391
#     4  11  23  41  67  88 126 177 215 268 341 390
#     4  10  22  43  61  94 131 164 221 270 326 400
#
# _framework density 24.544236999999999
#
# number of rings (size 3 to 8) (size 9 to 14) (size 15 to 20)
#    0.000    1.500    2.500    3.000    3.500    2.000 
#   11.250    1.250    0.000    0.000    0.000    0.000 
#    0.000    0.000    0.000    0.000    0.000    0.000 
#
# Total GULP energy -178742.102680 kJ/mol
# GULP energy per Si atom -5585.690709 kJ/mol
# Density = 2.448837 g / cm^3
# Si number density = 24.544237 Si / 1000 Ang^3
#
#
#
# Elastic Constant Matrix: (Units=GPa)
#
#
# Indices 1 2 3 4 5 6 
#
# 1 118.2119 30.0578 18.8967 0.0000 0.0000 0.0000
# 2 30.0578 34.6940 12.5324 0.0000 0.0000 0.0000
# 3 18.8967 12.5324 62.1825 0.0000 0.0000 0.0000
# 4 0.0000 0.0000 0.0000 36.1344 0.0000 0.0000
# 5 0.0000 0.0000 0.0000 0.0000 47.6576 0.0000
# 6 0.0000 0.0000 0.0000 0.0000 0.0000 35.5697
#
#
#
# Elastic Compliance Matrix: (Units=1/GPa)
#
#
# Indices 1 2 3 4 5 6 
#
# 1 0.010983 -0.008962 -0.001531 0.000000 0.000000 0.000000
# 2 -0.008962 0.038400 -0.005016 0.000000 0.000000 0.000000
# 3 -0.001531 -0.005016 0.017558 0.000000 0.000000 0.000000
# 4 0.000000 0.000000 0.000000 0.027674 0.000000 0.000000
# 5 0.000000 0.000000 0.000000 0.000000 0.020983 0.000000
# 6 0.000000 0.000000 0.000000 0.000000 0.000000 0.028114
#
#
# Mechanical properties :
#
#
# Convention : Reuss Voigt Hill
#
# Bulk Modulus (GPa) = 27.83785 37.56247 32.70016
# Shear Modulus (GPa) = 26.78031 34.11244 30.44637
#
# Velocity S-wave (km/s) = 3.30677 3.73209 3.52585
# Velocity P-wave (km/s) = 5.09374 5.82311 5.47059
#
# Compressibility (1/GPa) = 0.03592231
#
# Stress axis : x y z
#
# Youngs Moduli (GPa) = 91.04982 26.04186 56.95432
#
# Poissons Ratio (x) = 0.23339 0.08722
# Poissons Ratio (y) = 0.81600 0.28566
# Poissons Ratio (z) = 0.13943 0.13062
#
# Static dielectric constant tensor:
#      x y z
#    x 1.975830 0.000000 0.000000 
#    y 0.000000 1.955690 0.000000 
#    z 0.000000 0.000000 2.040240 
# 
# From -- ./inp_files/4414.got.cif
#   From: 2010.05.17/outbox.cif.g08.bks.cpg/sg33_3_cif.got.tgz:4414.got - 2010.06.03 17:15:25.
