data_PCOD9344727
_publ_section_title
;
Structure prediction by ZEFSAII (Michael W. Deem and Ramdas Pophale) SiO2 
 PCOD9344727
Probable space group: P N A 21
;
_chemical_formula_sum "Si O2"
_cell_formula_units_Z 32
_cell_length_a 15.222465
_cell_length_b 17.626591
_cell_length_c 4.906131
_cell_angle_alpha 90.000000
_cell_angle_beta 90.000000
_cell_angle_gamma 90.000000
_cell_volume 1316.413877
_symmetry_space_group_name_H-M "P N A 21"
_symmetry_group_IT_number 33
_symmetry_cell_setting 'orthorhombic'
loop_
_space_group_symop_operation_xyz
x,y,z
-x,-y,1/2+z
1/2-x,1/2+y,1/2+z
1/2+x,1/2-y,z
loop_
_atom_site_type_symbol
_atom_site_label
_atom_site_fract_x
_atom_site_fract_y
_atom_site_fract_z
Si Si1 0.002924 0.601971 0.932140
Si Si2 0.815046 0.774856 0.839993
Si Si3 0.292833 0.560797 0.634157
Si Si4 0.601537 0.198477 0.834147
Si Si5 0.248652 0.407282 0.772260
Si Si6 0.328334 0.341541 0.259844
Si Si7 0.400030 0.053968 0.917946
Si Si8 0.946211 0.022968 0.317478
O O1 0.036204 0.604080 0.619986
O O2 0.931843 0.533351 0.953926
O O3 0.084941 0.571893 0.104003
O O4 0.973649 0.673832 0.117449
O O5 0.818876 0.862458 0.776486
O O6 0.886177 0.734922 0.633169
O O7 0.715304 0.741359 0.798460
O O8 0.840482 0.754671 0.146935
O O9 0.272628 0.492038 0.839509
O O10 0.199526 0.569733 0.488367
O O11 0.367568 0.528379 0.435394
O O12 0.655082 0.120191 0.870513
O O13 0.260512 0.389191 0.453285
O O14 0.316673 0.356151 0.939707
O O15 0.417681 0.387646 0.329726
O O16 0.026510 0.003562 0.518142
#
# Coordination Sequence:
#
# PCOD9344727 Si02
#       8
#     4   4   4   4   4   4   4   4
#     4  10  20  38  59  93 126 155 203 246 309 386
#     4  10  23  36  64  91 127 168 216 251 325 385
#     4  11  23  43  63  96 126 166 217 273 319 382
#     4  10  19  39  58  90 123 172 199 249 309 392
#     4   9  18  33  62  84 115 157 206 250 303 368
#     4   9  19  38  59  89 119 160 210 258 316 382
#     4  10  22  35  62  95 123 155 197 262 310 365
#     4  11  24  42  67  94 125 167 226 283 319 368
#
# _framework density 24.308467
#
# number of rings (size 3 to 8) (size 9 to 14) (size 15 to 20)
#    0.000    2.000    1.250    2.250    0.000    7.000 
#    0.000    3.750    0.000    3.000    0.000    0.000 
#    0.000    0.000    0.000    0.000    0.000    0.000 
#
# Total GULP energy -178392.509581 kJ/mol
# GULP energy per Si atom -5574.765924 kJ/mol
# Density = 2.425314 g / cm^3
# Si number density = 24.308467 Si / 1000 Ang^3
#
#
#
# Elastic Constant Matrix: (Units=GPa)
#
#
# Indices 1 2 3 4 5 6 
#
# 1 65.6246 4.2630 2.0648 0.0000 0.0000 0.0000
# 2 4.2630 65.6776 8.1493 0.0000 0.0000 0.0000
# 3 2.0648 8.1493 115.6837 0.0000 0.0000 0.0000
# 4 0.0000 0.0000 0.0000 9.1055 0.0000 0.0000
# 5 0.0000 0.0000 0.0000 0.0000 26.6529 0.0000
# 6 0.0000 0.0000 0.0000 0.0000 0.0000 0.5354
#
#
#
# Elastic Compliance Matrix: (Units=1/GPa)
#
#
# Indices 1 2 3 4 5 6 
#
# 1 0.015308 -0.000968 -0.000205 0.000000 0.000000 0.000000
# 2 -0.000968 0.015421 -0.001069 0.000000 0.000000 0.000000
# 3 -0.000205 -0.001069 0.008723 0.000000 0.000000 0.000000
# 4 0.000000 0.000000 0.000000 0.109823 0.000000 0.000000
# 5 0.000000 0.000000 0.000000 0.000000 0.037519 0.000000
# 6 0.000000 0.000000 0.000000 0.000000 0.000000 1.867882
#
#
# Mechanical properties :
#
#
# Convention : Reuss Voigt Hill
#
# Bulk Modulus (GPa) = 28.59786 30.66003 29.62894
# Shear Modulus (GPa) = 2.41451 22.75934 12.58692
#
# Velocity S-wave (km/s) = 0.99771 3.06318 2.27799
# Velocity P-wave (km/s) = 3.62179 5.01508 4.37426
#
# Compressibility (1/GPa) = 0.03496765
#
# Stress axis : x y z
#
# Youngs Moduli (GPa) = 65.32730 64.84506 114.63643
#
# Poissons Ratio (x) = 0.06278 0.02350
# Poissons Ratio (y) = 0.06325 0.12256
# Poissons Ratio (z) = 0.01339 0.06932
#
# Static dielectric constant tensor:
#      x y z
#    x 1.995230 0.000000 0.000000 
#    y 0.000000 1.987520 0.000000 
#    z 0.000000 0.000000 1.897840 
# 
# From -- ./inp_files/1476.got.cif
#   From: 2010.05.17/outbox.cif.g08.bks.cpg/sg33_1_cif.got.tgz:1476.got - 2010.06.03 17:15:25.
