data_PCOD9344750
_publ_section_title
;
Structure prediction by ZEFSAII (Michael W. Deem and Ramdas Pophale) SiO2 
 PCOD9344750
Probable space group: P N A 21
;
_chemical_formula_sum "Si O2"
_cell_formula_units_Z 32
_cell_length_a 11.159294
_cell_length_b 12.707301
_cell_length_c 9.651114
_cell_angle_alpha 90.000000
_cell_angle_beta 90.000000
_cell_angle_gamma 90.000000
_cell_volume 1368.571471
_symmetry_space_group_name_H-M "P N A 21"
_symmetry_group_IT_number 33
_symmetry_cell_setting 'orthorhombic'
loop_
_space_group_symop_operation_xyz
x,y,z
-x,-y,1/2+z
1/2-x,1/2+y,1/2+z
1/2+x,1/2-y,z
loop_
_atom_site_type_symbol
_atom_site_label
_atom_site_fract_x
_atom_site_fract_y
_atom_site_fract_z
Si Si1 0.844021 0.873895 0.120620
Si Si2 0.406380 0.458883 0.715280
Si Si3 0.574729 0.913485 0.143332
Si Si4 0.667449 0.310280 0.920293
Si Si5 0.311074 0.439926 0.441358
Si Si6 0.451536 0.671947 0.836575
Si Si7 0.418861 0.258713 0.888918
Si Si8 0.545635 0.097545 0.340283
O O1 0.717154 0.932402 0.117934
O O2 0.835793 0.797127 0.252507
O O3 0.960562 0.946299 0.148811
O O4 0.874132 0.817153 0.977613
O O5 0.313448 0.414944 0.603927
O O6 0.387569 0.580121 0.750744
O O7 0.403904 0.380533 0.844604
O O8 0.571580 0.812692 0.248169
O O9 0.512963 0.006351 0.231735
O O10 0.519677 0.903190 0.990187
O O11 0.659654 0.435894 0.936581
O O12 0.546185 0.253582 0.966496
O O13 0.798447 0.274848 0.967715
O O14 0.418201 0.374752 0.373428
O O15 0.185089 0.421591 0.372599
O O16 0.467646 0.786978 0.777828
#
# Coordination Sequence:
#
# PCOD9344750 Si02
#       8
#     4   4   4   4   4   4   4   4
#     4   9  19  40  66  89 130 174 221 280 341 413
#     4  10  21  39  68  99 125 171 237 279 339 426
#     4  11  24  45  66 100 140 184 227 292 362 419
#     4  10  19  40  66  93 129 176 218 277 339 419
#     4  11  22  44  65  91 139 182 218 284 360 411
#     4  11  23  42  70 102 128 182 239 283 346 426
#     4  10  20  40  67  98 128 174 227 280 349 421
#     4  12  26  44  70  98 145 181 233 293 354 427
#
# _framework density 23.382045000000002
#
# number of rings (size 3 to 8) (size 9 to 14) (size 15 to 20)
#    0.000    1.500    5.000    2.250    7.000    1.000 
#    2.250    0.000    0.000    0.000    0.000    0.000 
#    0.000    0.000    0.000    0.000    0.000    0.000 
#
# Total GULP energy -178783.644916 kJ/mol
# GULP energy per Si atom -5586.988904 kJ/mol
# Density = 2.332883 g / cm^3
# Si number density = 23.382045 Si / 1000 Ang^3
#
#
#
# Elastic Constant Matrix: (Units=GPa)
#
#
# Indices 1 2 3 4 5 6 
#
# 1 93.6942 27.6422 19.8880 0.0000 0.0000 0.0000
# 2 27.6422 117.6705 20.8570 0.0000 0.0000 0.0000
# 3 19.8880 20.8570 67.1179 0.0000 0.0000 0.0000
# 4 0.0000 0.0000 0.0000 7.6519 0.0000 0.0000
# 5 0.0000 0.0000 0.0000 0.0000 -0.4114 0.0000
# 6 0.0000 0.0000 0.0000 0.0000 0.0000 30.6036
#
#
#
# Elastic Compliance Matrix: (Units=1/GPa)
#
#
# Indices 1 2 3 4 5 6 
#
# 1 0.011953 -0.002307 -0.002825 0.000000 0.000000 0.000000
# 2 -0.002307 0.009439 -0.002250 0.000000 0.000000 0.000000
# 3 -0.002825 -0.002250 0.016435 0.000000 0.000000 0.000000
# 4 0.000000 0.000000 0.000000 0.130686 0.000000 0.000000
# 5 0.000000 0.000000 0.000000 0.000000 -2.430461 0.000000
# 6 0.000000 0.000000 0.000000 0.000000 0.000000 0.032676
#
#
# Mechanical properties :
#
#
# Convention : Reuss Voigt Hill
#
# Bulk Modulus (GPa) = 43.35731 46.13967 44.74849
# Shear Modulus (GPa) = -2.26570 21.57517 9.65473
#
# Velocity S-wave (km/s) = -0.98544 3.04093 2.03423
# Velocity P-wave (km/s) = 4.15794 5.66617 4.96960
#
# Compressibility (1/GPa) = 0.02306416
#
# Stress axis : x y z
#
# Youngs Moduli (GPa) = 83.65842 105.94302 60.84474
#
# Poissons Ratio (x) = 0.24444 0.17188
# Poissons Ratio (y) = 0.19302 0.13687
# Poissons Ratio (z) = 0.23633 0.23832
#
# Static dielectric constant tensor:
#      x y z
#    x 1.893320 0.000000 0.000000 
#    y 0.000000 1.880300 0.000000 
#    z 0.000000 0.000000 1.933350 
# 
# From -- ./inp_files/6502.got.cif
#   From: 2010.05.17/outbox.cif.g08.bks.cpg/sg33_4_cif.got.tgz:6502.got - 2010.06.03 17:15:25.
