data_PCOD9344374
_publ_section_title
;
Structure prediction by ZEFSAII (Michael W. Deem and Ramdas Pophale) SiO2 
 PCOD9344374
Probable space group: P N A 21
;
_chemical_formula_sum "Si O2"
_cell_formula_units_Z 28
_cell_length_a 9.331408
_cell_length_b 13.123711
_cell_length_c 8.805412
_cell_angle_alpha 90.000000
_cell_angle_beta 90.000000
_cell_angle_gamma 90.000000
_cell_volume 1078.334544
_symmetry_space_group_name_H-M "P N A 21"
_symmetry_group_IT_number 33
_symmetry_cell_setting 'orthorhombic'
loop_
_space_group_symop_operation_xyz
x,y,z
-x,-y,1/2+z
1/2-x,1/2+y,1/2+z
1/2+x,1/2-y,z
loop_
_atom_site_type_symbol
_atom_site_label
_atom_site_fract_x
_atom_site_fract_y
_atom_site_fract_z
Si Si1 0.107236 0.425938 0.101420
Si Si2 0.782671 0.161844 0.350402
Si Si3 0.186352 0.348461 0.782436
Si Si4 0.429317 0.251010 0.638710
Si Si5 0.451711 0.617575 0.699570
Si Si6 0.776153 0.475420 0.064749
Si Si7 0.626741 0.435358 0.548236
O O1 0.140731 0.354905 0.249026
O O2 0.213043 0.526529 0.093649
O O3 0.943514 0.453719 0.070904
O O4 0.150865 0.363238 0.954490
O O5 0.825469 0.237388 0.489308
O O6 0.780203 0.048101 0.428481
O O7 0.911035 0.185974 0.235057
O O8 0.310662 0.265400 0.766553
O O9 0.251940 0.450398 0.709020
O O10 0.042018 0.335187 0.682190
O O11 0.545499 0.342639 0.630684
O O12 0.311902 0.627513 0.596351
O O13 0.532340 0.529993 0.603724
O O14 0.396828 0.593370 0.871396
#
# Coordination Sequence:
#
# PCOD9344374 Si02
#       7
#     4   4   4   4   4   4   4
#     4  11  22  36  65  99 127 163 230 294 324 384
#     4   9  21  38  59  90 131 175 213 269 349 405
#     4  11  23  42  63  95 134 173 223 273 343 415
#     4  10  22  42  62  90 130 181 214 262 348 428
#     4  10  16  34  58  89 124 164 211 268 318 394
#     4  11  20  37  59 100 129 161 221 286 324 392
#     4  10  18  35  60  89 127 167 214 264 334 396
#
# _framework density 25.965966999999999
#
# number of rings (size 3 to 8) (size 9 to 14) (size 15 to 20)
#    0.000    1.714    5.714    0.857    2.000    0.000 
#    0.000    2.857    0.000    1.714    0.000    0.000 
#    0.000    0.000    0.000    0.000    0.000    0.000 
#
# Total GULP energy -155979.151150 kJ/mol
# GULP energy per Si atom -5570.683970 kJ/mol
# Density = 2.590687 g / cm^3
# Si number density = 25.965967 Si / 1000 Ang^3
#
#
#
# Elastic Constant Matrix: (Units=GPa)
#
#
# Indices 1 2 3 4 5 6 
#
# 1 177.9362 24.0476 31.7166 0.0000 0.0000 0.0000
# 2 24.0476 35.6512 19.5067 0.0000 0.0000 0.0000
# 3 31.7166 19.5067 38.6307 0.0000 0.0000 0.0000
# 4 0.0000 0.0000 0.0000 11.9830 0.0000 0.0000
# 5 0.0000 0.0000 0.0000 0.0000 11.4759 0.0000
# 6 0.0000 0.0000 0.0000 0.0000 0.0000 27.1828
#
#
#
# Elastic Compliance Matrix: (Units=1/GPa)
#
#
# Indices 1 2 3 4 5 6 
#
# 1 0.006694 -0.002084 -0.004443 0.000000 0.000000 0.000000
# 2 -0.002084 0.039406 -0.018188 0.000000 0.000000 0.000000
# 3 -0.004443 -0.018188 0.038718 0.000000 0.000000 0.000000
# 4 0.000000 0.000000 0.000000 0.083451 0.000000 0.000000
# 5 0.000000 0.000000 0.000000 0.000000 0.087139 0.000000
# 6 0.000000 0.000000 0.000000 0.000000 0.000000 0.036788
#
#
# Mechanical properties :
#
#
# Convention : Reuss Voigt Hill
#
# Bulk Modulus (GPa) = 28.25758 44.75111 36.50435
# Shear Modulus (GPa) = 14.14737 21.92482 18.03609
#
# Velocity S-wave (km/s) = 2.33672 2.90895 2.63840
# Velocity P-wave (km/s) = 4.26456 5.34365 4.83431
#
# Compressibility (1/GPa) = 0.03538873
#
# Stress axis : x y z
#
# Youngs Moduli (GPa) = 149.39559 25.37656 25.82773
#
# Poissons Ratio (x) = 0.05288 0.11476
# Poissons Ratio (y) = 0.31131 0.46974
# Poissons Ratio (z) = 0.66382 0.46154
#
# Static dielectric constant tensor:
#      x y z
#    x 2.104790 0.000000 0.000000 
#    y 0.000000 2.208740 0.000000 
#    z 0.000000 0.000000 2.026900 
# 
# From -- ./inp_files/3333.got.cif
#   From: 2010.05.17/outbox.cif.g08.bks.cpg/sg33_2_cif.got.tgz:3333.got - 2010.06.03 17:15:25.
