data_PCOD9344929
_publ_section_title
;
Structure prediction by ZEFSAII (Michael W. Deem and Ramdas Pophale) SiO2 
 PCOD9344929
Probable space group: P N A 21
;
_chemical_formula_sum "Si O2"
_cell_formula_units_Z 32
_cell_length_a 19.242617
_cell_length_b 9.547065
_cell_length_c 8.646372
_cell_angle_alpha 90.000000
_cell_angle_beta 90.000000
_cell_angle_gamma 90.000000
_cell_volume 1588.429455
_symmetry_space_group_name_H-M "P N A 21"
_symmetry_group_IT_number 33
_symmetry_cell_setting 'orthorhombic'
loop_
_space_group_symop_operation_xyz
x,y,z
-x,-y,1/2+z
1/2-x,1/2+y,1/2+z
1/2+x,1/2-y,z
loop_
_atom_site_type_symbol
_atom_site_label
_atom_site_fract_x
_atom_site_fract_y
_atom_site_fract_z
Si Si1 0.860089 0.616927 0.979230
Si Si2 0.623117 0.555742 0.901539
Si Si3 0.532630 0.947861 0.283303
Si Si4 0.269886 0.525061 0.647542
Si Si5 0.695886 0.043386 0.928346
Si Si6 0.258666 0.830836 0.725447
Si Si7 0.413892 0.744557 0.283599
Si Si8 0.429236 0.147200 0.435660
O O1 0.905371 0.496030 0.896160
O O2 0.821425 0.700870 0.844076
O O3 0.794811 0.552598 0.068499
O O4 0.902280 0.708567 0.104124
O O5 0.688725 0.613831 0.803123
O O6 0.591938 0.419056 0.818829
O O7 0.658842 0.509807 0.062708
O O8 0.571649 0.685600 0.929718
O O9 0.486959 0.813625 0.333667
O O10 0.553711 0.917424 0.105727
O O11 0.479234 0.077519 0.308070
O O12 0.263772 0.472478 0.823349
O O13 0.251213 0.687567 0.633412
O O14 0.647480 0.173923 0.876650
O O15 0.715106 0.053417 0.105985
O O16 0.648044 0.908343 0.899756
#
# Coordination Sequence:
#
# PCOD9344929 Si02
#       8
#     4   4   4   4   4   4   4   4
#     4  10  22  39  66  90 121 174 214 257 325 392
#     4  11  24  40  63  99 141 161 213 278 339 381
#     4  11  22  43  69  87 121 175 236 260 322 391
#     4  10  22  39  59 100 132 160 210 264 334 398
#     4  10  20  37  64  91 126 174 212 253 327 395
#     4  11  21  36  64  96 130 169 203 265 334 396
#     4  10  22  41  62  93 130 168 214 280 315 387
#     4  11  23  41  67  94 123 175 220 273 318 398
#
# _framework density 20.145686000000001
#
# number of rings (size 3 to 8) (size 9 to 14) (size 15 to 20)
#    0.000    1.500    5.000    0.000    1.750    2.000 
#    0.000    5.000    0.000    0.000    0.000    0.000 
#    0.000    0.000    0.000    0.000    0.000    0.000 
#
# Total GULP energy -178460.384059 kJ/mol
# GULP energy per Si atom -5576.887002 kJ/mol
# Density = 2.009983 g / cm^3
# Si number density = 20.145686 Si / 1000 Ang^3
#
#
#
# Elastic Constant Matrix: (Units=GPa)
#
#
# Indices 1 2 3 4 5 6 
#
# 1 44.7014 24.2430 28.0298 0.0000 0.0000 0.0000
# 2 24.2430 126.8872 30.2785 0.0000 0.0000 0.0000
# 3 28.0298 30.2785 87.4370 0.0000 0.0000 0.0000
# 4 0.0000 0.0000 0.0000 16.6353 0.0000 0.0000
# 5 0.0000 0.0000 0.0000 0.0000 22.5362 0.0000
# 6 0.0000 0.0000 0.0000 0.0000 0.0000 11.3951
#
#
#
# Elastic Compliance Matrix: (Units=1/GPa)
#
#
# Indices 1 2 3 4 5 6 
#
# 1 0.029498 -0.003684 -0.008181 0.000000 0.000000 0.000000
# 2 -0.003684 0.009051 -0.001953 0.000000 0.000000 0.000000
# 3 -0.008181 -0.001953 0.014736 0.000000 0.000000 0.000000
# 4 0.000000 0.000000 0.000000 0.060113 0.000000 0.000000
# 5 0.000000 0.000000 0.000000 0.000000 0.044373 0.000000
# 6 0.000000 0.000000 0.000000 0.000000 0.000000 0.087757
#
#
# Mechanical properties :
#
#
# Convention : Reuss Voigt Hill
#
# Bulk Modulus (GPa) = 38.98737 47.12535 43.05636
# Shear Modulus (GPa) = 17.74854 21.87826 19.81340
#
# Velocity S-wave (km/s) = 2.97140 3.29903 3.13949
# Velocity P-wave (km/s) = 5.58274 6.16072 5.87884
#
# Compressibility (1/GPa) = 0.02564934
#
# Stress axis : x y z
#
# Youngs Moduli (GPa) = 33.90048 110.48556 67.86253
#
# Poissons Ratio (x) = 0.40701 0.55515
# Poissons Ratio (y) = 0.12488 0.13256
# Poissons Ratio (z) = 0.27733 0.21582
#
# Static dielectric constant tensor:
#      x y z
#    x 1.735000 0.000000 0.000000 
#    y 0.000000 1.711150 0.000000 
#    z 0.000000 0.000000 1.792070 
# 
# From -- ./inp_files/4988.got.cif
#   From: 2010.05.17/outbox.cif.g08.bks.cpg/sg33_3_cif.got.tgz:4988.got - 2010.06.03 17:15:25.
