data_PCOD9344110
_publ_section_title
;
Structure prediction by ZEFSAII (Michael W. Deem and Ramdas Pophale) SiO2 
 PCOD9344110
Probable space group: P B A 2
;
_chemical_formula_sum "Si O2"
_cell_formula_units_Z 32
_cell_length_a 18.058623
_cell_length_b 11.456502
_cell_length_c 6.207802
_cell_angle_alpha 90.000000
_cell_angle_beta 90.000000
_cell_angle_gamma 90.000000
_cell_volume 1284.323778
_symmetry_space_group_name_H-M "P B A 2"
_symmetry_group_IT_number 32
_symmetry_cell_setting 'orthorhombic'
loop_
_space_group_symop_operation_xyz
x,y,z
-x,-y,z
1/2-x,1/2+y,z
1/2+x,1/2-y,z
loop_
_atom_site_type_symbol
_atom_site_label
_atom_site_fract_x
_atom_site_fract_y
_atom_site_fract_z
Si Si1 0.859495 0.834207 0.372520
Si Si2 0.896142 0.962507 0.747025
Si Si3 0.759495 0.264579 0.728501
Si Si4 0.654128 0.132350 0.074717
Si Si5 0.698448 0.530641 0.102048
Si Si6 0.516551 0.698229 0.760840
Si Si7 0.612538 0.886986 0.997665
Si Si8 0.383099 0.277826 0.377560
O O1 0.906449 0.934889 0.493761
O O2 0.801004 0.811336 0.561695
O O3 0.883267 0.716766 0.251067
O O4 0.818883 0.904277 0.190139
O O5 0.933201 0.839609 0.826455
O O6 0.942847 0.076267 0.808685
O O7 0.818959 0.004409 0.850439
O O8 0.812393 0.348002 0.872214
O O9 0.821326 0.211758 0.565105
O O10 0.707962 0.190380 0.892371
O O11 0.721886 0.064927 0.191635
O O12 0.604583 0.026561 0.985255
O O13 0.641421 0.626051 0.200300
O O14 0.548296 0.808069 0.889128
O O15 0.539580 0.716684 0.509526
O O16 0.618756 0.841777 0.242988
#
# Coordination Sequence:
#
# PCOD9344110 Si02
#       8
#     4   4   4   4   4   4   4   4
#     4  12  25  39  62  98 132 171 214 266 337 402
#     4  11  23  41  66  91 133 167 221 284 334 389
#     4  11  22  38  60  95 131 168 208 260 330 398
#     4  12  24  39  63  96 134 176 211 264 333 409
#     4  12  22  39  64  98 132 165 214 268 336 401
#     4  10  23  42  63  95 124 174 222 281 335 379
#     4  11  23  40  64  92 132 171 220 266 327 404
#     4  11  20  40  64  96 130 164 209 268 335 392
#
# _framework density 24.915835999999999
#
# number of rings (size 3 to 8) (size 9 to 14) (size 15 to 20)
#    0.000    0.750    5.000    3.750    1.750    3.000 
#    0.000    0.000    0.000   11.250    0.000    0.000 
#    0.000    0.000    0.000    0.000    0.000    0.000 
#
# Total GULP energy -178176.491478 kJ/mol
# GULP energy per Si atom -5568.015359 kJ/mol
# Density = 2.485913 g / cm^3
# Si number density = 24.915836 Si / 1000 Ang^3
#
#
#
# Elastic Constant Matrix: (Units=GPa)
#
#
# Indices 1 2 3 4 5 6 
#
# 1 67.4064 10.3974 12.7167 0.0000 0.0000 0.0000
# 2 10.3974 87.9672 28.0419 0.0000 0.0000 0.0000
# 3 12.7167 28.0419 90.9330 0.0000 0.0000 0.0000
# 4 0.0000 0.0000 0.0000 33.9440 0.0000 0.0000
# 5 0.0000 0.0000 0.0000 0.0000 16.8878 0.0000
# 6 0.0000 0.0000 0.0000 0.0000 0.0000 38.6667
#
#
#
# Elastic Compliance Matrix: (Units=1/GPa)
#
#
# Indices 1 2 3 4 5 6 
#
# 1 0.015361 -0.001254 -0.001761 0.000000 0.000000 0.000000
# 2 -0.001254 0.012710 -0.003744 0.000000 0.000000 0.000000
# 3 -0.001761 -0.003744 0.012398 0.000000 0.000000 0.000000
# 4 0.000000 0.000000 0.000000 0.029460 0.000000 0.000000
# 5 0.000000 0.000000 0.000000 0.000000 0.059214 0.000000
# 6 0.000000 0.000000 0.000000 0.000000 0.000000 0.025862
#
#
# Mechanical properties :
#
#
# Convention : Reuss Voigt Hill
#
# Bulk Modulus (GPa) = 37.10630 38.73541 37.92086
# Shear Modulus (GPa) = 28.16776 30.90973 29.53874
#
# Velocity S-wave (km/s) = 3.36596 3.52599 3.44690
# Velocity P-wave (km/s) = 5.48008 5.67072 5.57621
#
# Compressibility (1/GPa) = 0.02694960
#
# Stress axis : x y z
#
# Youngs Moduli (GPa) = 65.09927 78.68062 80.65806
#
# Poissons Ratio (x) = 0.09867 0.14208
# Poissons Ratio (y) = 0.08164 0.30198
# Poissons Ratio (z) = 0.11467 0.29458
#
# Static dielectric constant tensor:
#      x y z
#    x 2.216780 0.000000 0.000000 
#    y 0.000000 2.145050 0.000000 
#    z 0.000000 0.000000 2.054660 
# 
# From -- ./inp_files/1682.got.cif
#   From: 2010.05.17/outbox.cif.g08.bks.cpg/sg32_1_cif.got.tgz:1682.got - 2010.06.03 17:12:27.
