data_PCOD9344993
_publ_section_title
;
Structure prediction by ZEFSAII (Michael W. Deem and Ramdas Pophale) SiO2 
 PCOD9344993
Probable space group: P N A 21
;
_chemical_formula_sum "Si O2"
_cell_formula_units_Z 20
_cell_length_a 9.241936
_cell_length_b 10.820673
_cell_length_c 7.928190
_cell_angle_alpha 90.000000
_cell_angle_beta 90.000000
_cell_angle_gamma 90.000000
_cell_volume 792.850454
_symmetry_space_group_name_H-M "P N A 21"
_symmetry_group_IT_number 33
_symmetry_cell_setting 'orthorhombic'
loop_
_space_group_symop_operation_xyz
x,y,z
-x,-y,1/2+z
1/2-x,1/2+y,1/2+z
1/2+x,1/2-y,z
loop_
_atom_site_type_symbol
_atom_site_label
_atom_site_fract_x
_atom_site_fract_y
_atom_site_fract_z
Si Si1 0.829775 0.853823 0.368490
Si Si2 0.250502 0.315684 0.158499
Si Si3 0.981417 0.003313 0.650954
Si Si4 0.299754 0.055277 0.323309
Si Si5 0.074094 0.536342 0.196204
O O1 0.824407 0.733517 0.485739
O O2 0.881628 0.968132 0.489534
O O3 0.663982 0.871653 0.312599
O O4 0.932215 0.871317 0.203446
O O5 0.392566 0.400188 0.143062
O O6 0.296967 0.194042 0.255714
O O7 0.130822 0.399572 0.248436
O O8 0.865028 0.986581 0.801460
O O9 0.403845 0.968276 0.212444
O O10 0.365127 0.051789 0.508948
#
# Coordination Sequence:
#
# PCOD9344993 Si02
#       5
#     4   4   4   4   4
#     4  10  21  40  63  90 124 164 209 257 313 374
#     4  10  22  42  63  88 126 167 203 259 320 372
#     4  10  20  38  65  90 122 165 208 255 312 375
#     4  11  21  39  63  90 124 164 208 257 311 374
#     4  11  24  41  62  92 128 164 208 262 316 375
#
# _framework density 25.225439999999999
#
# number of rings (size 3 to 8) (size 9 to 14) (size 15 to 20)
#    0.000    1.600    0.000    7.200    0.000    0.000 
#    0.000   24.000    0.000    0.000    0.000    0.000 
#    0.000    0.000    0.000    0.000    0.000    0.000 
#
# Total GULP energy -111774.692907 kJ/mol
# GULP energy per Si atom -5588.734645 kJ/mol
# Density = 2.516803 g / cm^3
# Si number density = 25.225440 Si / 1000 Ang^3
#
#
#
# Elastic Constant Matrix: (Units=GPa)
#
#
# Indices 1 2 3 4 5 6 
#
# 1 137.3895 23.9653 25.2423 0.0000 0.0000 0.0000
# 2 23.9653 49.1901 14.4173 0.0000 0.0000 0.0000
# 3 25.2423 14.4173 74.5274 0.0000 0.0000 0.0000
# 4 0.0000 0.0000 0.0000 29.9526 0.0000 0.0000
# 5 0.0000 0.0000 0.0000 0.0000 52.7508 0.0000
# 6 0.0000 0.0000 0.0000 0.0000 0.0000 36.5267
#
#
#
# Elastic Compliance Matrix: (Units=1/GPa)
#
#
# Indices 1 2 3 4 5 6 
#
# 1 0.008265 -0.003399 -0.002142 0.000000 0.000000 0.000000
# 2 -0.003399 0.022949 -0.003288 0.000000 0.000000 0.000000
# 3 -0.002142 -0.003288 0.014779 0.000000 0.000000 0.000000
# 4 0.000000 0.000000 0.000000 0.033386 0.000000 0.000000
# 5 0.000000 0.000000 0.000000 0.000000 0.018957 0.000000
# 6 0.000000 0.000000 0.000000 0.000000 0.000000 0.027377
#
#
# Mechanical properties :
#
#
# Convention : Reuss Voigt Hill
#
# Bulk Modulus (GPa) = 35.29153 43.15075 39.22114
# Shear Modulus (GPa) = 32.71889 37.01150 34.86519
#
# Velocity S-wave (km/s) = 3.60538 3.83460 3.72175
# Velocity P-wave (km/s) = 5.59933 6.06207 5.83529
#
# Compressibility (1/GPa) = 0.02833541
#
# Stress axis : x y z
#
# Youngs Moduli (GPa) = 120.99249 43.57485 67.66170
#
# Poissons Ratio (x) = 0.14811 0.14492
# Poissons Ratio (y) = 0.41125 0.22249
# Poissons Ratio (z) = 0.25914 0.14329
#
# Static dielectric constant tensor:
#      x y z
#    x 1.954690 0.000000 0.000000 
#    y 0.000000 1.962160 0.000000 
#    z 0.000000 0.000000 2.107260 
# 
# From -- ./inp_files/2996.got.cif
#   From: 2010.05.17/outbox.cif.g08.bks.cpg/sg33_2_cif.got.tgz:2996.got - 2010.06.03 17:15:25.
