data_PCOD9344909
_publ_section_title
;
Structure prediction by ZEFSAII (Michael W. Deem and Ramdas Pophale) SiO2 
 PCOD9344909
Probable space group: P N A 21
;
_chemical_formula_sum "Si O2"
_cell_formula_units_Z 20
_cell_length_a 8.315010
_cell_length_b 12.023692
_cell_length_c 7.239061
_cell_angle_alpha 90.000000
_cell_angle_beta 90.000000
_cell_angle_gamma 90.000000
_cell_volume 723.740465
_symmetry_space_group_name_H-M "P N A 21"
_symmetry_group_IT_number 33
_symmetry_cell_setting 'orthorhombic'
loop_
_space_group_symop_operation_xyz
x,y,z
-x,-y,1/2+z
1/2-x,1/2+y,1/2+z
1/2+x,1/2-y,z
loop_
_atom_site_type_symbol
_atom_site_label
_atom_site_fract_x
_atom_site_fract_y
_atom_site_fract_z
Si Si1 0.722180 0.339176 0.146720
Si Si2 0.930279 0.910685 0.004343
Si Si3 0.288326 0.899779 0.538128
Si Si4 0.905861 0.531476 0.942729
Si Si5 0.378786 0.215927 0.523884
O O1 0.849656 0.296940 0.302433
O O2 0.698267 0.232093 0.019206
O O3 0.583883 0.375895 0.288965
O O4 0.788018 0.444594 0.038589
O O5 0.775752 0.849371 0.099995
O O6 0.084460 0.843041 0.075399
O O7 0.882037 0.039526 0.003231
O O8 0.425252 0.964422 0.423104
O O9 0.334841 0.927134 0.750373
O O10 0.962561 0.641396 0.052820
#
# Coordination Sequence:
#
# PCOD9344909 Si02
#       5
#     4   4   4   4   4
#     4  10  20  37  61  87 121 159 206 258 303 368
#     4   9  19  38  61  84 121 164 199 257 311 368
#     4  11  21  38  64  90 125 168 207 257 321 373
#     4  11  18  39  62  85 120 170 204 247 316 382
#     4   9  18  36  64  78 121 161 200 249 313 355
#
# _framework density 27.634219999999999
#
# number of rings (size 3 to 8) (size 9 to 14) (size 15 to 20)
#    1.200    0.800    4.000    0.000    0.000    0.000 
#   10.800    8.000    0.000    0.000    0.000    0.000 
#    0.000    0.000    0.000    0.000    0.000    0.000 
#
# Total GULP energy -111793.270230 kJ/mol
# GULP energy per Si atom -5589.663511 kJ/mol
# Density = 2.757132 g / cm^3
# Si number density = 27.634220 Si / 1000 Ang^3
#
#
#
# Elastic Constant Matrix: (Units=GPa)
#
#
# Indices 1 2 3 4 5 6 
#
# 1 55.7911 19.4305 5.9540 0.0000 0.0000 0.0000
# 2 19.4305 167.9736 33.8410 0.0000 0.0000 0.0000
# 3 5.9540 33.8410 65.1141 0.0000 0.0000 0.0000
# 4 0.0000 0.0000 0.0000 41.6319 0.0000 0.0000
# 5 0.0000 0.0000 0.0000 0.0000 28.9651 0.0000
# 6 0.0000 0.0000 0.0000 0.0000 0.0000 60.0920
#
#
#
# Elastic Compliance Matrix: (Units=1/GPa)
#
#
# Indices 1 2 3 4 5 6 
#
# 1 0.018701 -0.002031 -0.000654 0.000000 0.000000 0.000000
# 2 -0.002031 0.006870 -0.003385 0.000000 0.000000 0.000000
# 3 -0.000654 -0.003385 0.017177 0.000000 0.000000 0.000000
# 4 0.000000 0.000000 0.000000 0.024020 0.000000 0.000000
# 5 0.000000 0.000000 0.000000 0.000000 0.034524 0.000000
# 6 0.000000 0.000000 0.000000 0.000000 0.000000 0.016641
#
#
# Mechanical properties :
#
#
# Convention : Reuss Voigt Hill
#
# Bulk Modulus (GPa) = 32.67218 45.25888 38.96553
# Shear Modulus (GPa) = 35.64372 41.44802 38.54587
#
# Velocity S-wave (km/s) = 3.59533 3.87703 3.73883
# Velocity P-wave (km/s) = 5.39295 6.03782 5.72447
#
# Compressibility (1/GPa) = 0.03060708
#
# Stress axis : x y z
#
# Youngs Moduli (GPa) = 53.47213 145.55540 58.21863
#
# Poissons Ratio (x) = 0.29569 0.03809
# Poissons Ratio (y) = 0.10863 0.19706
# Poissons Ratio (z) = 0.03498 0.49268
#
# Static dielectric constant tensor:
#      x y z
#    x 2.258830 0.000000 0.000000 
#    y 0.000000 2.263120 0.000000 
#    z 0.000000 0.000000 2.189760 
# 
# From -- ./inp_files/3732.got.cif
#   From: 2010.05.17/outbox.cif.g08.bks.cpg/sg33_2_cif.got.tgz:3732.got - 2010.06.03 17:15:25.
