data_PCOD9344736
_publ_section_title
;
Structure prediction by ZEFSAII (Michael W. Deem and Ramdas Pophale) SiO2 
 PCOD9344736
Probable space group: P N A 21
;
_chemical_formula_sum "Si O2"
_cell_formula_units_Z 24
_cell_length_a 10.029760
_cell_length_b 13.736435
_cell_length_c 7.407850
_cell_angle_alpha 90.000000
_cell_angle_beta 90.000000
_cell_angle_gamma 90.000000
_cell_volume 1020.602802
_symmetry_space_group_name_H-M "P N A 21"
_symmetry_group_IT_number 33
_symmetry_cell_setting 'orthorhombic'
loop_
_space_group_symop_operation_xyz
x,y,z
-x,-y,1/2+z
1/2-x,1/2+y,1/2+z
1/2+x,1/2-y,z
loop_
_atom_site_type_symbol
_atom_site_label
_atom_site_fract_x
_atom_site_fract_y
_atom_site_fract_z
Si Si1 0.688918 0.024335 0.729690
Si Si2 0.518428 0.891011 0.980802
Si Si3 0.064558 0.032004 0.014642
Si Si4 0.234345 0.637313 0.272209
Si Si5 0.472331 0.682197 0.048104
Si Si6 0.351161 0.321461 0.911778
O O1 0.621816 0.065551 0.547604
O O2 0.723504 0.111780 0.867771
O O3 0.830997 0.978564 0.677285
O O4 0.591998 0.949140 0.825570
O O5 0.608458 0.901076 0.163238
O O6 0.504364 0.777245 0.932374
O O7 0.160053 0.060341 0.847555
O O8 0.000177 0.926457 0.982030
O O9 0.952906 0.116237 0.033139
O O10 0.322098 0.692917 0.120873
O O11 0.195529 0.710305 0.436188
O O12 0.567213 0.690091 0.224097
#
# Coordination Sequence:
#
# PCOD9344736 Si02
#       6
#     4   4   4   4   4   4
#     4  11  22  40  61  96 130 164 224 269 329 396
#     4  11  22  38  64  91 129 177 215 276 335 392
#     4  10  21  39  64  96 126 169 220 279 322 394
#     4  10  19  39  66  91 124 175 221 264 337 402
#     4   9  19  37  64  90 124 174 221 261 335 401
#     4   9  19  37  65  86 123 171 215 263 326 399
#
# _framework density 23.515514
#
# number of rings (size 3 to 8) (size 9 to 14) (size 15 to 20)
#    0.000    2.000    1.667    2.000    0.000    0.000 
#    0.000    8.333    0.000    0.000    0.000    0.000 
#    0.000    0.000    0.000    0.000    0.000    0.000 
#
# Total GULP energy -134004.692453 kJ/mol
# GULP energy per Si atom -5583.528852 kJ/mol
# Density = 2.346199 g / cm^3
# Si number density = 23.515514 Si / 1000 Ang^3
#
#
#
# Elastic Constant Matrix: (Units=GPa)
#
#
# Indices 1 2 3 4 5 6 
#
# 1 104.5382 56.1693 12.7360 0.0000 0.0000 0.0000
# 2 56.1693 136.7776 39.5104 0.0000 0.0000 0.0000
# 3 12.7360 39.5104 28.3748 0.0000 0.0000 0.0000
# 4 0.0000 0.0000 0.0000 29.2514 0.0000 0.0000
# 5 0.0000 0.0000 0.0000 0.0000 48.2657 0.0000
# 6 0.0000 0.0000 0.0000 0.0000 0.0000 33.2935
#
#
#
# Elastic Compliance Matrix: (Units=1/GPa)
#
#
# Indices 1 2 3 4 5 6 
#
# 1 0.012383 -0.005821 0.002548 0.000000 0.000000 0.000000
# 2 -0.005821 0.014967 -0.018228 0.000000 0.000000 0.000000
# 3 0.002548 -0.018228 0.059481 0.000000 0.000000 0.000000
# 4 0.000000 0.000000 0.000000 0.034186 0.000000 0.000000
# 5 0.000000 0.000000 0.000000 0.000000 0.020719 0.000000
# 6 0.000000 0.000000 0.000000 0.000000 0.000000 0.030036
#
#
# Mechanical properties :
#
#
# Convention : Reuss Voigt Hill
#
# Bulk Modulus (GPa) = 22.81668 54.05802 38.43735
# Shear Modulus (GPa) = 21.79739 32.91377 27.35558
#
# Velocity S-wave (km/s) = 3.04787 3.74526 3.41442
# Velocity P-wave (km/s) = 4.70211 6.46071 5.65025
#
# Compressibility (1/GPa) = 0.04382759
#
# Stress axis : x y z
#
# Youngs Moduli (GPa) = 80.75374 66.81280 16.81213
#
# Poissons Ratio (x) = 0.38893 -0.04283
# Poissons Ratio (y) = 0.47009 0.30645
# Poissons Ratio (z) = -0.20572 1.21787
#
# Static dielectric constant tensor:
#      x y z
#    x 1.914720 0.000000 0.000000 
#    y 0.000000 1.983800 0.000000 
#    z 0.000000 0.000000 1.913760 
# 
# From -- ./inp_files/3773.got.cif
#   From: 2010.05.17/outbox.cif.g08.bks.cpg/sg33_2_cif.got.tgz:3773.got - 2010.06.03 17:15:25.
