data_PCOD9344397
_publ_section_title
;
Structure prediction by ZEFSAII (Michael W. Deem and Ramdas Pophale) SiO2 
 PCOD9344397
Probable space group: P N A 21
;
_chemical_formula_sum "Si O2"
_cell_formula_units_Z 32
_cell_length_a 14.253960
_cell_length_b 18.608935
_cell_length_c 6.122980
_cell_angle_alpha 90.000000
_cell_angle_beta 90.000000
_cell_angle_gamma 90.000000
_cell_volume 1624.126661
_symmetry_space_group_name_H-M "P N A 21"
_symmetry_group_IT_number 33
_symmetry_cell_setting 'orthorhombic'
loop_
_space_group_symop_operation_xyz
x,y,z
-x,-y,1/2+z
1/2-x,1/2+y,1/2+z
1/2+x,1/2-y,z
loop_
_atom_site_type_symbol
_atom_site_label
_atom_site_fract_x
_atom_site_fract_y
_atom_site_fract_z
Si Si1 0.124704 0.381526 0.757390
Si Si2 0.710016 0.295447 0.386272
Si Si3 0.016398 0.410591 0.145608
Si Si4 0.149553 0.734355 0.253886
Si Si5 0.182006 0.602530 0.565765
Si Si6 0.523764 0.226771 0.434896
Si Si7 0.208273 0.459638 0.370861
Si Si8 0.275287 0.336415 0.091693
O O1 0.079452 0.323029 0.604060
O O2 0.197343 0.425562 0.611146
O O3 0.042527 0.420001 0.891445
O O4 0.182889 0.345014 0.947421
O O5 0.753914 0.285111 0.626382
O O6 0.752078 0.362253 0.250047
O O7 0.597025 0.290107 0.382554
O O8 0.751001 0.225411 0.262974
O O9 0.012080 0.327498 0.231396
O O10 0.102821 0.448547 0.271178
O O11 0.909173 0.434180 0.177791
O O12 0.140393 0.665700 0.412602
O O13 0.152111 0.803232 0.416452
O O14 0.072091 0.743655 0.063289
O O15 0.229175 0.542831 0.411111
O O16 0.278940 0.411819 0.223497
#
# Coordination Sequence:
#
# PCOD9344397 Si02
#       8
#     4   4   4   4   4   4   4   4
#     4  10  17  34  55  75 113 158 190 234 293 364
#     4  11  21  37  55  82 125 151 201 255 304 362
#     4  10  20  33  51  81 120 163 195 239 299 388
#     4  11  22  34  58  83 123 153 204 260 307 359
#     4  11  24  34  51  90 125 160 196 256 303 377
#     4  11  19  35  55  83 118 158 199 254 304 362
#     4  10  22  34  54  81 124 167 200 234 313 385
#     4  10  19  37  55  79 114 158 201 244 293 377
#
# _framework density 19.702895999999999
#
# number of rings (size 3 to 8) (size 9 to 14) (size 15 to 20)
#    0.000    1.500    7.500    0.000    1.750    2.000 
#    0.000    0.000    0.000    0.000    0.000    0.000 
#   37.500    0.000    0.000    0.000    0.000    0.000 
#
# Total GULP energy -178171.760309 kJ/mol
# GULP energy per Si atom -5567.867510 kJ/mol
# Density = 1.965805 g / cm^3
# Si number density = 19.702896 Si / 1000 Ang^3
#
#
#
# Elastic Constant Matrix: (Units=GPa)
#
#
# Indices 1 2 3 4 5 6 
#
# 1 49.5475 33.5872 21.3063 0.0000 0.0000 0.0000
# 2 33.5872 86.4879 40.8112 0.0000 0.0000 0.0000
# 3 21.3063 40.8112 92.4795 0.0000 0.0000 0.0000
# 4 0.0000 0.0000 0.0000 31.5495 0.0000 0.0000
# 5 0.0000 0.0000 0.0000 0.0000 38.6793 0.0000
# 6 0.0000 0.0000 0.0000 0.0000 0.0000 21.0401
#
#
#
# Elastic Compliance Matrix: (Units=1/GPa)
#
#
# Indices 1 2 3 4 5 6 
#
# 1 0.027703 -0.009784 -0.002065 0.000000 0.000000 0.000000
# 2 -0.009784 0.018059 -0.005715 0.000000 0.000000 0.000000
# 3 -0.002065 -0.005715 0.013811 0.000000 0.000000 0.000000
# 4 0.000000 0.000000 0.000000 0.031696 0.000000 0.000000
# 5 0.000000 0.000000 0.000000 0.000000 0.025854 0.000000
# 6 0.000000 0.000000 0.000000 0.000000 0.000000 0.047528
#
#
# Mechanical properties :
#
#
# Convention : Reuss Voigt Hill
#
# Bulk Modulus (GPa) = 40.90863 46.65827 43.78345
# Shear Modulus (GPa) = 24.04690 27.10779 25.57734
#
# Velocity S-wave (km/s) = 3.49732 3.71324 3.60690
# Velocity P-wave (km/s) = 6.09230 6.48972 6.29415
#
# Compressibility (1/GPa) = 0.02444472
#
# Stress axis : x y z
#
# Youngs Moduli (GPa) = 36.09727 55.37489 72.40589
#
# Poissons Ratio (x) = 0.54179 0.14950
# Poissons Ratio (y) = 0.35318 0.41381
# Poissons Ratio (z) = 0.07453 0.31648
#
# Static dielectric constant tensor:
#      x y z
#    x 1.761980 0.000000 0.000000 
#    y 0.000000 1.756960 0.000000 
#    z 0.000000 0.000000 1.738220 
# 
# From -- ./inp_files/1493.got.cif
#   From: 2010.05.17/outbox.cif.g08.bks.cpg/sg33_1_cif.got.tgz:1493.got - 2010.06.03 17:15:25.
