data_PCOD9344217
_publ_section_title
;
Structure prediction by ZEFSAII (Michael W. Deem and Ramdas Pophale) SiO2 
 PCOD9344217
Probable space group: P B A 2
;
_chemical_formula_sum "Si O2"
_cell_formula_units_Z 26
_cell_length_a 12.700040
_cell_length_b 15.459948
_cell_length_c 4.793326
_cell_angle_alpha 90.000000
_cell_angle_beta 90.000000
_cell_angle_gamma 90.000000
_cell_volume 941.131012
_symmetry_space_group_name_H-M "P B A 2"
_symmetry_group_IT_number 32
_symmetry_cell_setting 'orthorhombic'
loop_
_space_group_symop_operation_xyz
x,y,z
-x,-y,z
1/2-x,1/2+y,z
1/2+x,1/2-y,z
loop_
_atom_site_type_symbol
_atom_site_label
_atom_site_fract_x
_atom_site_fract_y
_atom_site_fract_z
Si Si1 0.562182 0.672132 0.245810
Si Si2 0.312444 0.063648 0.223560
Si Si3 0.989301 0.661349 0.404062
Si Si4 0.834889 0.556649 0.729287
Si Si5 0.225546 0.285317 0.431109
Si Si6 0.369082 0.641237 0.849668
Si Si7 0.000000 0.000000 0.525634
O O1 0.528595 0.742869 0.482625
O O2 0.679684 0.707611 0.214452
O O3 0.473509 0.676619 0.008796
O O4 0.557705 0.573077 0.342518
O O5 0.419245 0.119167 0.226222
O O6 0.191898 0.203844 0.626897
O O7 0.328930 0.980185 0.033712
O O8 0.214254 0.114424 0.091394
O O9 0.948968 0.596323 0.642855
O O10 0.878316 0.685055 0.264944
O O11 0.758037 0.634957 0.646895
O O12 0.806942 0.474710 0.533496
O O13 0.416064 0.555302 0.701870
#
# Coordination Sequence:
#
# PCOD9344217 Si02
#       7
#     4   4   4   4   4   4   2
#     4  12  28  52  87 122 172 231 294 367 448 535
#     4  12  28  50  88 122 173 222 291 366 444 530
#     4  10  27  50  83 118 172 219 283 364 440 537
#     4  10  27  52  82 124 163 229 279 360 435 535
#     4  10  27  57  79 123 177 225 288 366 450 528
#     4  12  30  51  88 126 173 231 299 364 453 537
#     4  12  26  54  84 126 172 228 296 372 424 546
#
# _framework density 27.626336999999999
#
# number of rings (size 3 to 8) (size 9 to 14) (size 15 to 20)
#    0.923    0.000    1.538    1.846   12.923    4.923 
#    0.000    0.000    0.000    0.000    0.000    0.000 
#    0.000    0.000    0.000    0.000    0.000    0.000 
#
# Total GULP energy -145382.515038 kJ/mol
# GULP energy per Si atom -5591.635194 kJ/mol
# Density = 2.756346 g / cm^3
# Si number density = 27.626337 Si / 1000 Ang^3
#
#
#
# Elastic Constant Matrix: (Units=GPa)
#
#
# Indices 1 2 3 4 5 6 
#
# 1 175.8193 62.5931 50.2373 0.0000 0.0000 0.0000
# 2 62.5931 176.6226 44.9145 0.0000 0.0000 0.0000
# 3 50.2373 44.9145 91.9680 0.0000 0.0000 0.0000
# 4 0.0000 0.0000 0.0000 44.8590 0.0000 0.0000
# 5 0.0000 0.0000 0.0000 0.0000 32.8972 0.0000
# 6 0.0000 0.0000 0.0000 0.0000 0.0000 45.9409
#
#
#
# Elastic Compliance Matrix: (Units=1/GPa)
#
#
# Indices 1 2 3 4 5 6 
#
# 1 0.007194 -0.001770 -0.003065 0.000000 0.000000 0.000000
# 2 -0.001770 0.006900 -0.002403 0.000000 0.000000 0.000000
# 3 -0.003065 -0.002403 0.013721 0.000000 0.000000 0.000000
# 4 0.000000 0.000000 0.000000 0.022292 0.000000 0.000000
# 5 0.000000 0.000000 0.000000 0.000000 0.030398 0.000000
# 6 0.000000 0.000000 0.000000 0.000000 0.000000 0.021767
#
#
# Mechanical properties :
#
#
# Convention : Reuss Voigt Hill
#
# Bulk Modulus (GPa) = 74.96888 84.43332 79.70110
# Shear Modulus (GPa) = 41.25616 43.85042 42.55329
#
# Velocity S-wave (km/s) = 3.86860 3.98838 3.92894
# Velocity P-wave (km/s) = 6.86661 7.19990 7.03523
#
# Compressibility (1/GPa) = 0.01333887
#
# Stress axis : x y z
#
# Youngs Moduli (GPa) = 139.01355 144.92566 72.87986
#
# Poissons Ratio (x) = 0.25650 0.22338
# Poissons Ratio (y) = 0.24604 0.17513
# Poissons Ratio (z) = 0.42609 0.34826
#
# Static dielectric constant tensor:
#      x y z
#    x 2.230900 0.000000 0.000000 
#    y 0.000000 2.187870 0.000000 
#    z 0.000000 0.000000 2.128210 
# 
# From -- ./inp_files/1229.got.cif
#   From: 2010.05.17/outbox.cif.g08.bks.cpg/sg32_1_cif.got.tgz:1229.got - 2010.06.03 17:12:27.
