data_PCOD9344324
_publ_section_title
;
Structure prediction by ZEFSAII (Michael W. Deem and Ramdas Pophale) SiO2 
 PCOD9344324
Probable space group: P B A 2
;
_chemical_formula_sum "Si O2"
_cell_formula_units_Z 16
_cell_length_a 8.695245
_cell_length_b 13.911068
_cell_length_c 4.941530
_cell_angle_alpha 90.000000
_cell_angle_beta 90.000000
_cell_angle_gamma 90.000000
_cell_volume 597.728183
_symmetry_space_group_name_H-M "P B A 2"
_symmetry_group_IT_number 32
_symmetry_cell_setting 'orthorhombic'
loop_
_space_group_symop_operation_xyz
x,y,z
-x,-y,z
1/2-x,1/2+y,z
1/2+x,1/2-y,z
loop_
_atom_site_type_symbol
_atom_site_label
_atom_site_fract_x
_atom_site_fract_y
_atom_site_fract_z
Si Si1 0.708414 0.633077 0.787380
Si Si2 0.160855 0.708904 0.407292
Si Si3 0.609038 0.079034 0.319233
Si Si4 0.961570 0.887407 0.163679
O O1 0.732646 0.739259 0.666361
O O2 0.770967 0.560058 0.559067
O O3 0.807322 0.621602 0.058930
O O4 0.529009 0.615725 0.856379
O O5 0.289698 0.649095 0.239036
O O6 0.019392 0.641236 0.472672
O O7 0.068470 0.800248 0.278785
O O8 0.500000 0.000000 0.196161
O O9 0.000000 0.000000 0.237169
#
# Coordination Sequence:
#
# PCOD9344324 Si02
#       4
#     4   4   4   4
#     4  12  27  54  79 125 164 224 283 353 426 518
#     4  12  28  51  86 120 175 216 293 348 433 511
#     4  12  28  55  86 122 167 226 286 357 435 515
#     4  12  28  54  86 127 175 225 287 356 438 514
#
# _framework density 26.768018999999999
#
# number of rings (size 3 to 8) (size 9 to 14) (size 15 to 20)
#    0.000    0.000    5.000    2.250    7.000    1.000 
#    4.500    0.000    0.000    0.000    0.000    0.000 
#    0.000    0.000    0.000    0.000    0.000    0.000 
#
# Total GULP energy -89202.450396 kJ/mol
# GULP energy per Si atom -5575.153150 kJ/mol
# Density = 2.670709 g / cm^3
# Si number density = 26.768019 Si / 1000 Ang^3
#
#
#
# Elastic Constant Matrix: (Units=GPa)
#
#
# Indices 1 2 3 4 5 6 
#
# 1 170.2477 39.0107 62.6173 0.0000 0.0000 0.0000
# 2 39.0107 62.8443 -18.1284 0.0000 0.0000 0.0000
# 3 62.6173 -18.1284 107.3109 0.0000 0.0000 0.0000
# 4 0.0000 0.0000 0.0000 31.8850 0.0000 0.0000
# 5 0.0000 0.0000 0.0000 0.0000 3.0894 0.0000
# 6 0.0000 0.0000 0.0000 0.0000 0.0000 57.0143
#
#
#
# Elastic Compliance Matrix: (Units=1/GPa)
#
#
# Indices 1 2 3 4 5 6 
#
# 1 0.010802 -0.008960 -0.007817 0.000000 0.000000 0.000000
# 2 -0.008960 0.024160 0.009310 0.000000 0.000000 0.000000
# 3 -0.007817 0.009310 0.015453 0.000000 0.000000 0.000000
# 4 0.000000 0.000000 0.000000 0.031363 0.000000 0.000000
# 5 0.000000 0.000000 0.000000 0.000000 0.323684 0.000000
# 6 0.000000 0.000000 0.000000 0.000000 0.000000 0.017539
#
#
# Mechanical properties :
#
#
# Convention : Reuss Voigt Hill
#
# Bulk Modulus (GPa) = 28.18470 56.37804 42.28137
# Shear Modulus (GPa) = 11.11699 35.52464 23.32082
#
# Velocity S-wave (km/s) = 2.04012 3.64693 2.95484
# Velocity P-wave (km/s) = 4.01268 6.23225 5.24130
#
# Compressibility (1/GPa) = 0.03548024
#
# Stress axis : x y z
#
# Youngs Moduli (GPa) = 92.57587 41.39084 64.71387
#
# Poissons Ratio (x) = 0.37087 0.50585
# Poissons Ratio (y) = 0.82950 -0.60247
# Poissons Ratio (z) = 0.72364 -0.38534
#
# Static dielectric constant tensor:
#      x y z
#    x 2.135440 0.000000 0.000000 
#    y 0.000000 2.295920 0.000000 
#    z 0.000000 0.000000 2.227830 
# 
# From -- ./inp_files/310.got.cif
#   From: 2010.05.17/outbox.cif.g08.bks.cpg/sg32_1_cif.got.tgz:310.got - 2010.06.03 17:12:27.
