data_PCOD9344016
_publ_section_title
;
Structure prediction by ZEFSAII (Michael W. Deem and Ramdas Pophale) SiO2 
 PCOD9344016
Probable space group: P B A 2
;
_chemical_formula_sum "Si O2"
_cell_formula_units_Z 28
_cell_length_a 15.003308
_cell_length_b 14.789208
_cell_length_c 5.331602
_cell_angle_alpha 90.000000
_cell_angle_beta 90.000000
_cell_angle_gamma 90.000000
_cell_volume 1183.013401
_symmetry_space_group_name_H-M "P B A 2"
_symmetry_group_IT_number 32
_symmetry_cell_setting 'orthorhombic'
loop_
_space_group_symop_operation_xyz
x,y,z
-x,-y,z
1/2-x,1/2+y,z
1/2+x,1/2-y,z
loop_
_atom_site_type_symbol
_atom_site_label
_atom_site_fract_x
_atom_site_fract_y
_atom_site_fract_z
Si Si1 0.500000 0.500000 0.369720
Si Si2 0.842220 0.028107 0.749927
Si Si3 0.500000 0.000000 0.549401
Si Si4 0.916968 0.861663 0.043340
Si Si5 0.583266 0.725016 0.824855
Si Si6 0.933620 0.329418 0.319128
Si Si7 0.646037 0.199689 0.280506
Si Si8 0.336467 0.900922 0.769798
O O1 0.590464 0.509863 0.523895
O O2 0.509470 0.406182 0.223391
O O3 0.864150 0.130543 0.834608
O O4 0.737404 0.024148 0.710181
O O5 0.870888 0.950117 0.937323
O O6 0.563420 0.936328 0.379171
O O7 0.435598 0.938603 0.719969
O O8 0.977357 0.804043 0.847847
O O9 0.844690 0.801341 0.184439
O O10 0.599889 0.775964 0.563820
O O11 0.604782 0.790176 0.060255
O O12 0.039097 0.308766 0.297430
O O13 0.680905 0.174063 0.553280
O O14 0.674115 0.134736 0.052164
#
# Coordination Sequence:
#
# PCOD9344016 Si02
#       8
#     2   4   2   4   4   4   4   4
#     4  12  22  40  72 106 150 178 226 292 354 436
#     4  12  25  41  68 108 145 182 232 294 359 418
#     4  10  22  50  70 100 132 192 244 282 348 396
#     4  11  22  39  72  99 138 189 219 278 354 432
#     4  11  21  40  64 106 133 174 224 276 363 411
#     4  10  22  38  74  93 132 179 231 287 332 422
#     4  10  23  44  67  97 132 186 232 279 356 402
#     4  11  27  45  71  96 144 185 237 301 335 418
#
# _framework density 23.668372000000002
#
# number of rings (size 3 to 8) (size 9 to 14) (size 15 to 20)
#    0.000    1.143    2.857    5.143    4.000    5.143 
#    2.571    1.429    6.286    0.000    0.000    0.000 
#    0.000    0.000    0.000    0.000    0.000    0.000 
#
# Total GULP energy -156491.123627 kJ/mol
# GULP energy per Si atom -5588.968701 kJ/mol
# Density = 2.361450 g / cm^3
# Si number density = 23.668372 Si / 1000 Ang^3
#
#
#
# Elastic Constant Matrix: (Units=GPa)
#
#
# Indices 1 2 3 4 5 6 
#
# 1 57.3395 -4.1401 14.3235 0.0000 0.0000 0.0000
# 2 -4.1401 96.9695 30.1241 0.0000 0.0000 0.0000
# 3 14.3235 30.1241 112.6407 0.0000 0.0000 0.0000
# 4 0.0000 0.0000 0.0000 20.5765 0.0000 0.0000
# 5 0.0000 0.0000 0.0000 0.0000 16.8771 0.0000
# 6 0.0000 0.0000 0.0000 0.0000 0.0000 10.3566
#
#
#
# Elastic Compliance Matrix: (Units=1/GPa)
#
#
# Indices 1 2 3 4 5 6 
#
# 1 0.018247 0.001636 -0.002758 0.000000 0.000000 0.000000
# 2 0.001636 0.011394 -0.003255 0.000000 0.000000 0.000000
# 3 -0.002758 -0.003255 0.010099 0.000000 0.000000 0.000000
# 4 0.000000 0.000000 0.000000 0.048599 0.000000 0.000000
# 5 0.000000 0.000000 0.000000 0.000000 0.059252 0.000000
# 6 0.000000 0.000000 0.000000 0.000000 0.000000 0.096556
#
#
# Mechanical properties :
#
#
# Convention : Reuss Voigt Hill
#
# Bulk Modulus (GPa) = 32.27320 38.61829 35.44574
# Shear Modulus (GPa) = 18.99482 24.67152 21.83317
#
# Velocity S-wave (km/s) = 2.83599 3.23210 3.04050
# Velocity P-wave (km/s) = 4.93852 5.50277 5.22826
#
# Compressibility (1/GPa) = 0.03098546
#
# Stress axis : x y z
#
# Youngs Moduli (GPa) = 54.80353 87.76886 99.01985
#
# Poissons Ratio (x) = -0.14357 0.27307
# Poissons Ratio (y) = -0.08965 0.32231
# Poissons Ratio (z) = 0.15114 0.28569
#
# Static dielectric constant tensor:
#      x y z
#    x 1.952320 0.000000 0.000000 
#    y 0.000000 1.986690 0.000000 
#    z 0.000000 0.000000 1.994480 
# 
# From -- ./inp_files/1458.got.cif
#   From: 2010.05.17/outbox.cif.g08.bks.cpg/sg32_1_cif.got.tgz:1458.got - 2010.06.03 17:12:27.
