data_PCOD9344432
_publ_section_title
;
Structure prediction by ZEFSAII (Michael W. Deem and Ramdas Pophale) SiO2 
 PCOD9344432
Probable space group: P N A 21
;
_chemical_formula_sum "Si O2"
_cell_formula_units_Z 28
_cell_length_a 12.626236
_cell_length_b 11.512676
_cell_length_c 7.484260
_cell_angle_alpha 90.000000
_cell_angle_beta 90.000000
_cell_angle_gamma 90.000000
_cell_volume 1087.925237
_symmetry_space_group_name_H-M "P N A 21"
_symmetry_group_IT_number 33
_symmetry_cell_setting 'orthorhombic'
loop_
_space_group_symop_operation_xyz
x,y,z
-x,-y,1/2+z
1/2-x,1/2+y,1/2+z
1/2+x,1/2-y,z
loop_
_atom_site_type_symbol
_atom_site_label
_atom_site_fract_x
_atom_site_fract_y
_atom_site_fract_z
Si Si1 0.988197 0.833020 0.021670
Si Si2 0.589857 0.106058 0.408177
Si Si3 0.837673 0.758206 0.585054
Si Si4 0.746989 0.655634 0.227800
Si Si5 0.598079 0.452003 0.865991
Si Si6 0.664956 0.904269 0.213019
Si Si7 0.266800 0.588758 0.852385
O O1 0.972313 0.889372 0.215832
O O2 0.997212 0.694145 0.991597
O O3 0.066960 0.916579 0.912687
O O4 0.869369 0.855371 0.943541
O O5 0.618119 0.164028 0.218892
O O6 0.681896 0.123361 0.556551
O O7 0.581392 0.971689 0.340975
O O8 0.814235 0.699297 0.397085
O O9 0.911943 0.867516 0.537495
O O10 0.740537 0.822317 0.691180
O O11 0.697630 0.534703 0.280516
O O12 0.668248 0.763839 0.207710
O O13 0.720613 0.443299 0.800764
O O14 0.681182 0.936466 0.004906
#
# Coordination Sequence:
#
# PCOD9344432 Si02
#       7
#     4   4   4   4   4   4   4
#     4  10  19  33  53  81 107 141 179 223 276 319
#     4  11  19  32  51  77 110 136 177 220 266 322
#     4  10  18  32  50  75 104 133 174 219 264 312
#     4  11  18  32  50  71 106 141 171 218 269 310
#     4  10  19  34  52  79 111 138 180 225 272 320
#     4  10  20  33  51  81 108 141 179 218 271 326
#     4  10  19  32  51  76 106 142 176 223 270 315
#
# _framework density 25.737062999999999
#
# number of rings (size 3 to 8) (size 9 to 14) (size 15 to 20)
#    0.000    1.714    7.143    3.429    0.000    0.000 
#    0.000    0.000    0.000    0.000    0.000   26.000 
#    0.000    0.000    0.000    0.000    0.000    0.000 
#
# Total GULP energy -156247.196496 kJ/mol
# GULP energy per Si atom -5580.257018 kJ/mol
# Density = 2.567848 g / cm^3
# Si number density = 25.737063 Si / 1000 Ang^3
#
#
#
# Elastic Constant Matrix: (Units=GPa)
#
#
# Indices 1 2 3 4 5 6 
#
# 1 58.5824 11.4509 17.6535 0.0000 0.0000 0.0000
# 2 11.4509 113.2738 14.2569 0.0000 0.0000 0.0000
# 3 17.6535 14.2569 120.4618 0.0000 0.0000 0.0000
# 4 0.0000 0.0000 0.0000 9.7021 0.0000 0.0000
# 5 0.0000 0.0000 0.0000 0.0000 12.3002 0.0000
# 6 0.0000 0.0000 0.0000 0.0000 0.0000 28.0489
#
#
#
# Elastic Compliance Matrix: (Units=1/GPa)
#
#
# Indices 1 2 3 4 5 6 
#
# 1 0.018113 -0.001520 -0.002475 0.000000 0.000000 0.000000
# 2 -0.001520 0.009089 -0.000853 0.000000 0.000000 0.000000
# 3 -0.002475 -0.000853 0.008765 0.000000 0.000000 0.000000
# 4 0.000000 0.000000 0.000000 0.103070 0.000000 0.000000
# 5 0.000000 0.000000 0.000000 0.000000 0.081299 0.000000
# 6 0.000000 0.000000 0.000000 0.000000 0.000000 0.035652
#
#
# Mechanical properties :
#
#
# Convention : Reuss Voigt Hill
#
# Bulk Modulus (GPa) = 38.06256 42.11562 40.08909
# Shear Modulus (GPa) = 18.21891 26.60736 22.41313
#
# Velocity S-wave (km/s) = 2.66350 3.21879 2.95422
# Velocity P-wave (km/s) = 4.92748 5.49668 5.21984
#
# Compressibility (1/GPa) = 0.02627254
#
# Stress axis : x y z
#
# Youngs Moduli (GPa) = 55.20988 110.02135 114.09029
#
# Poissons Ratio (x) = 0.16719 0.28232
# Poissons Ratio (y) = 0.08390 0.09732
# Poissons Ratio (z) = 0.13662 0.09385
#
# Static dielectric constant tensor:
#      x y z
#    x 2.100430 0.000000 0.000000 
#    y 0.000000 2.093150 0.000000 
#    z 0.000000 0.000000 2.080400 
# 
# From -- ./inp_files/4807.got.cif
#   From: 2010.05.17/outbox.cif.g08.bks.cpg/sg33_3_cif.got.tgz:4807.got - 2010.06.03 17:15:25.
