data_PCOD9344673
_publ_section_title
;
Structure prediction by ZEFSAII (Michael W. Deem and Ramdas Pophale) SiO2 
 PCOD9344673
Probable space group: P N A 21
;
_chemical_formula_sum "Si O2"
_cell_formula_units_Z 28
_cell_length_a 5.428213
_cell_length_b 24.293332
_cell_length_c 7.750654
_cell_angle_alpha 90.000000
_cell_angle_beta 90.000000
_cell_angle_gamma 90.000000
_cell_volume 1022.073942
_symmetry_space_group_name_H-M "P N A 21"
_symmetry_group_IT_number 33
_symmetry_cell_setting 'orthorhombic'
loop_
_space_group_symop_operation_xyz
x,y,z
-x,-y,1/2+z
1/2-x,1/2+y,1/2+z
1/2+x,1/2-y,z
loop_
_atom_site_type_symbol
_atom_site_label
_atom_site_fract_x
_atom_site_fract_y
_atom_site_fract_z
Si Si1 0.598790 0.392722 0.337680
Si Si2 0.207593 0.634380 0.390174
Si Si3 0.705012 0.452948 0.647402
Si Si4 0.782209 0.106617 0.022190
Si Si5 0.905830 0.765179 0.763837
Si Si6 0.289779 0.992767 0.238739
Si Si7 0.473332 0.776870 0.151948
O O1 0.594593 0.401172 0.541683
O O2 0.362307 0.405480 0.219088
O O3 0.639873 0.328628 0.308867
O O4 0.787010 0.443646 0.300345
O O5 0.246467 0.571186 0.336083
O O6 0.484628 0.644294 0.456537
O O7 0.082188 0.667226 0.231401
O O8 0.984446 0.635622 0.525454
O O9 0.467287 0.490570 0.636182
O O10 0.974083 0.479243 0.622332
O O11 0.748429 0.055600 0.884849
O O12 0.165774 0.757419 0.670943
O O13 0.944927 0.730976 0.944344
O O14 0.193935 0.764414 0.209063
#
# Coordination Sequence:
#
# PCOD9344673 Si02
#       7
#     4   4   4   4   4   4   4
#     4  12  25  45  74 103 143 187 235 304 356 414
#     4  10  21  43  64  91 133 177 219 279 347 417
#     4  10  23  41  68  98 132 183 234 275 344 435
#     4  10  24  42  66 102 137 172 221 282 357 422
#     4  10  24  42  64  98 132 173 237 295 342 403
#     4  10  24  43  66 102 144 184 229 280 355 438
#     4  10  19  36  64  92 121 168 229 279 327 407
#
# _framework density 27.395275000000002
#
# number of rings (size 3 to 8) (size 9 to 14) (size 15 to 20)
#    0.000    1.714    0.000    3.429    0.000   16.000 
#    0.000    4.286    0.000    0.000    0.000    0.000 
#    0.000    0.000    0.000    0.000    0.000    0.000 
#
# Total GULP energy -156023.179770 kJ/mol
# GULP energy per Si atom -5572.256420 kJ/mol
# Density = 2.733292 g / cm^3
# Si number density = 27.395275 Si / 1000 Ang^3
#
#
#
# Elastic Constant Matrix: (Units=GPa)
#
#
# Indices 1 2 3 4 5 6 
#
# 1 232.3421 44.6796 41.4338 0.0000 0.0000 0.0000
# 2 44.6796 91.2670 7.7782 0.0000 0.0000 0.0000
# 3 41.4338 7.7782 64.4858 0.0000 0.0000 0.0000
# 4 0.0000 0.0000 0.0000 46.0655 0.0000 0.0000
# 5 0.0000 0.0000 0.0000 0.0000 20.8679 0.0000
# 6 0.0000 0.0000 0.0000 0.0000 0.0000 35.0108
#
#
#
# Elastic Compliance Matrix: (Units=1/GPa)
#
#
# Indices 1 2 3 4 5 6 
#
# 1 0.005311 -0.002333 -0.003131 0.000000 0.000000 0.000000
# 2 -0.002333 0.012096 0.000040 0.000000 0.000000 0.000000
# 3 -0.003131 0.000040 0.017514 0.000000 0.000000 0.000000
# 4 0.000000 0.000000 0.000000 0.021708 0.000000 0.000000
# 5 0.000000 0.000000 0.000000 0.000000 0.047921 0.000000
# 6 0.000000 0.000000 0.000000 0.000000 0.000000 0.028563
#
#
# Mechanical properties :
#
#
# Convention : Reuss Voigt Hill
#
# Bulk Modulus (GPa) = 41.54069 63.98645 52.76357
# Shear Modulus (GPa) = 32.89806 40.00239 36.45023
#
# Velocity S-wave (km/s) = 3.46911 3.82539 3.65160
# Velocity P-wave (km/s) = 5.58952 6.55126 6.08940
#
# Compressibility (1/GPa) = 0.02407278
#
# Stress axis : x y z
#
# Youngs Moduli (GPa) = 188.28738 82.67446 57.09641
#
# Poissons Ratio (x) = 0.19289 0.17877
# Poissons Ratio (y) = 0.43931 -0.00229
# Poissons Ratio (z) = 0.58954 -0.00332
#
# Static dielectric constant tensor:
#      x y z
#    x 2.131650 0.000000 0.000000 
#    y 0.000000 2.231330 0.000000 
#    z 0.000000 0.000000 2.414190 
# 
# From -- ./inp_files/2811.got.cif
#   From: 2010.05.17/outbox.cif.g08.bks.cpg/sg33_2_cif.got.tgz:2811.got - 2010.06.03 17:15:25.
