data_PCOD9344593
_publ_section_title
;
Structure prediction by ZEFSAII (Michael W. Deem and Ramdas Pophale) SiO2 
 PCOD9344593
Probable space group: P N A 21
;
_chemical_formula_sum "Si O2"
_cell_formula_units_Z 32
_cell_length_a 5.138535
_cell_length_b 17.036572
_cell_length_c 18.757366
_cell_angle_alpha 90.000000
_cell_angle_beta 90.000000
_cell_angle_gamma 90.000000
_cell_volume 1642.076495
_symmetry_space_group_name_H-M "P N A 21"
_symmetry_group_IT_number 33
_symmetry_cell_setting 'orthorhombic'
loop_
_space_group_symop_operation_xyz
x,y,z
-x,-y,1/2+z
1/2-x,1/2+y,1/2+z
1/2+x,1/2-y,z
loop_
_atom_site_type_symbol
_atom_site_label
_atom_site_fract_x
_atom_site_fract_y
_atom_site_fract_z
Si Si1 0.057838 0.494566 0.879360
Si Si2 0.673688 0.455085 0.751668
Si Si3 0.605158 0.065563 0.151768
Si Si4 0.862611 0.402319 0.002900
Si Si5 0.906220 0.206941 0.778925
Si Si6 0.711800 0.398393 0.278185
Si Si7 0.145171 0.852503 0.432637
Si Si8 0.978624 0.200306 0.171678
O O1 0.151200 0.580022 0.853142
O O2 0.302527 0.437841 0.895280
O O3 0.888886 0.457595 0.814622
O O4 0.893433 0.478542 0.950895
O O5 0.811303 0.479587 0.677760
O O6 0.520791 0.374252 0.750636
O O7 0.474197 0.526493 0.766261
O O8 0.432644 0.072028 0.081882
O O9 0.441126 0.099097 0.218999
O O10 0.862543 0.118989 0.141987
O O11 0.591285 0.361898 0.986303
O O12 0.086308 0.342349 0.974964
O O13 0.112763 0.273683 0.757584
O O14 0.908582 0.201858 0.865360
O O15 0.538827 0.323223 0.255335
O O16 0.750618 0.260676 0.151152
#
# Coordination Sequence:
#
# PCOD9344593 Si02
#       8
#     4   4   4   4   4   4   4   4
#     4   9  17  34  60  79 112 140 190 245 288 322
#     4  10  19  36  54  88 109 151 196 252 278 343
#     4  10  23  35  61  80 116 156 197 239 298 336
#     4  10  20  35  57  79 112 151 194 243 278 350
#     4  12  22  35  57  82 116 154 191 234 286 335
#     4  10  19  34  64  80 109 151 190 247 288 330
#     4  10  20  36  52  76 118 142 190 237 277 337
#     4  11  22  39  53  82 116 147 188 231 281 347
#
# _framework density 19.487521999999998
#
# number of rings (size 3 to 8) (size 9 to 14) (size 15 to 20)
#    0.750    1.000    3.750    1.500    5.250    0.000 
#    0.000    3.750    0.000    0.000    0.000    1.750 
#    0.000    0.000    0.000    0.000    0.000    0.000 
#
# Total GULP energy -178200.681170 kJ/mol
# GULP energy per Si atom -5568.771287 kJ/mol
# Density = 1.944317 g / cm^3
# Si number density = 19.487522 Si / 1000 Ang^3
#
#
#
# Elastic Constant Matrix: (Units=GPa)
#
#
# Indices 1 2 3 4 5 6 
#
# 1 115.7131 15.7612 13.9983 0.0000 0.0000 0.0000
# 2 15.7612 22.3542 23.7311 0.0000 0.0000 0.0000
# 3 13.9983 23.7311 48.4037 0.0000 0.0000 0.0000
# 4 0.0000 0.0000 0.0000 20.3844 0.0000 0.0000
# 5 0.0000 0.0000 0.0000 0.0000 26.1387 0.0000
# 6 0.0000 0.0000 0.0000 0.0000 0.0000 27.3892
#
#
#
# Elastic Compliance Matrix: (Units=1/GPa)
#
#
# Indices 1 2 3 4 5 6 
#
# 1 0.009590 -0.007960 0.001129 0.000000 0.000000 0.000000
# 2 -0.007960 0.099896 -0.046675 0.000000 0.000000 0.000000
# 3 0.001129 -0.046675 0.043216 0.000000 0.000000 0.000000
# 4 0.000000 0.000000 0.000000 0.049057 0.000000 0.000000
# 5 0.000000 0.000000 0.000000 0.000000 0.038258 0.000000
# 6 0.000000 0.000000 0.000000 0.000000 0.000000 0.036511
#
#
# Mechanical properties :
#
#
# Convention : Reuss Voigt Hill
#
# Bulk Modulus (GPa) = 21.88597 32.60579 27.24588
# Shear Modulus (GPa) = 12.53857 23.64781 18.09319
#
# Velocity S-wave (km/s) = 2.53931 3.48729 3.05035
# Velocity P-wave (km/s) = 4.45563 5.74307 5.13982
#
# Compressibility (1/GPa) = 0.04569138
#
# Stress axis : x y z
#
# Youngs Moduli (GPa) = 104.27849 10.01037 23.13937
#
# Poissons Ratio (x) = 0.07969 -0.02613
# Poissons Ratio (y) = 0.83010 1.08002
# Poissons Ratio (z) = -0.11778 0.46723
#
# Static dielectric constant tensor:
#      x y z
#    x 1.770730 0.000000 0.000000 
#    y 0.000000 1.728720 0.000000 
#    z 0.000000 0.000000 1.717360 
# 
# From -- ./inp_files/8382.got.cif
#   From: 2010.05.17/outbox.cif.g08.bks.cpg/sg33_5_cif.got.tgz:8382.got - 2010.06.03 17:15:25.
