data_PCOD9344042
_publ_section_title
;
Structure prediction by ZEFSAII (Michael W. Deem and Ramdas Pophale) SiO2 
 PCOD9344042
Probable space group: P B A 2
;
_chemical_formula_sum "Si O2"
_cell_formula_units_Z 26
_cell_length_a 11.507860
_cell_length_b 9.073649
_cell_length_c 10.118684
_cell_angle_alpha 90.000000
_cell_angle_beta 90.000000
_cell_angle_gamma 90.000000
_cell_volume 1056.575603
_symmetry_space_group_name_H-M "P B A 2"
_symmetry_group_IT_number 32
_symmetry_cell_setting 'orthorhombic'
loop_
_space_group_symop_operation_xyz
x,y,z
-x,-y,z
1/2-x,1/2+y,z
1/2+x,1/2-y,z
loop_
_atom_site_type_symbol
_atom_site_label
_atom_site_fract_x
_atom_site_fract_y
_atom_site_fract_z
Si Si1 0.637132 0.154379 0.849220
Si Si2 0.612006 0.731090 0.897964
Si Si3 0.874990 0.488278 0.112228
Si Si4 0.341907 0.579473 0.288974
Si Si5 0.500000 0.500000 0.069979
Si Si6 0.210776 0.823459 0.457024
Si Si7 0.625933 0.952235 0.608394
O O1 0.514251 0.239885 0.826252
O O2 0.763384 0.225460 0.824189
O O3 0.631588 0.005353 0.761607
O O4 0.637558 0.117087 0.004312
O O5 0.623961 0.846291 0.017318
O O6 0.592178 0.576274 0.973764
O O7 0.774613 0.475181 0.215936
O O8 0.000000 0.500000 0.179210
O O9 0.432852 0.607217 0.171402
O O10 0.299980 0.720477 0.372659
O O11 0.372960 0.430620 0.371648
O O12 0.147067 0.711079 0.555293
O O13 0.282093 0.941969 0.539469
O O14 0.500000 0.000000 0.561470
#
# Coordination Sequence:
#
# PCOD9344042 Si02
#       7
#     4   4   4   4   2   4   4
#     4  11  25  44  74 104 145 184 238 295 372 438
#     4  11  24  42  68 113 146 184 232 292 379 449
#     4  10  22  40  69 103 136 183 226 291 370 441
#     4  11  23  43  67 104 143 185 240 301 359 433
#     4  12  24  36  70 104 152 180 228 298 360 444
#     4  10  27  46  70 101 138 194 254 300 357 428
#     4  11  26  49  75  99 143 195 251 308 366 433
#
# _framework density 24.607797000000001
#
# number of rings (size 3 to 8) (size 9 to 14) (size 15 to 20)
#    0.000    1.231    1.538    3.231   10.769    2.462 
#    0.000    0.000    0.000    0.000    0.000    0.000 
#    0.000    0.000    0.000    0.000    0.000    0.000 
#
# Total GULP energy -145286.827993 kJ/mol
# GULP energy per Si atom -5587.954923 kJ/mol
# Density = 2.455179 g / cm^3
# Si number density = 24.607797 Si / 1000 Ang^3
#
#
#
# Elastic Constant Matrix: (Units=GPa)
#
#
# Indices 1 2 3 4 5 6 
#
# 1 147.8632 20.5033 18.2510 0.0000 0.0000 0.0000
# 2 20.5033 101.4871 24.9177 0.0000 0.0000 0.0000
# 3 18.2510 24.9177 72.2941 0.0000 0.0000 0.0000
# 4 0.0000 0.0000 0.0000 10.2862 0.0000 0.0000
# 5 0.0000 0.0000 0.0000 0.0000 29.1892 0.0000
# 6 0.0000 0.0000 0.0000 0.0000 0.0000 34.8878
#
#
#
# Elastic Compliance Matrix: (Units=1/GPa)
#
#
# Indices 1 2 3 4 5 6 
#
# 1 0.007088 -0.001084 -0.001416 0.000000 0.000000 0.000000
# 2 -0.001084 0.010930 -0.003494 0.000000 0.000000 0.000000
# 3 -0.001416 -0.003494 0.015394 0.000000 0.000000 0.000000
# 4 0.000000 0.000000 0.000000 0.097218 0.000000 0.000000
# 5 0.000000 0.000000 0.000000 0.000000 0.034259 0.000000
# 6 0.000000 0.000000 0.000000 0.000000 0.000000 0.028663
#
#
# Mechanical properties :
#
#
# Convention : Reuss Voigt Hill
#
# Bulk Modulus (GPa) = 46.67448 49.88762 48.28105
# Shear Modulus (GPa) = 23.50932 32.07080 27.79006
#
# Velocity S-wave (km/s) = 3.09424 3.61401 3.36418
# Velocity P-wave (km/s) = 5.63687 6.14263 5.89518
#
# Compressibility (1/GPa) = 0.02142498
#
# Stress axis : x y z
#
# Youngs Moduli (GPa) = 141.08126 91.48860 64.96071
#
# Poissons Ratio (x) = 0.09921 0.09196
# Poissons Ratio (y) = 0.15299 0.22695
# Poissons Ratio (z) = 0.19972 0.31963
#
# Static dielectric constant tensor:
#      x y z
#    x 1.977870 0.000000 0.000000 
#    y 0.000000 2.004980 0.000000 
#    z 0.000000 0.000000 1.994900 
# 
# From -- ./inp_files/3839.got.cif
#   From: 2010.05.17/outbox.cif.g08.bks.cpg/sg32_2_cif.got.tgz:3839.got - 2010.06.03 17:12:27.
