data_PCOD9344633
_publ_section_title
;
Structure prediction by ZEFSAII (Michael W. Deem and Ramdas Pophale) SiO2 
 PCOD9344633
Probable space group: P N A 21
;
_chemical_formula_sum "Si O2"
_cell_formula_units_Z 32
_cell_length_a 14.072747
_cell_length_b 12.432940
_cell_length_c 9.446253
_cell_angle_alpha 90.000000
_cell_angle_beta 90.000000
_cell_angle_gamma 90.000000
_cell_volume 1652.769504
_symmetry_space_group_name_H-M "P N A 21"
_symmetry_group_IT_number 33
_symmetry_cell_setting 'orthorhombic'
loop_
_space_group_symop_operation_xyz
x,y,z
-x,-y,1/2+z
1/2-x,1/2+y,1/2+z
1/2+x,1/2-y,z
loop_
_atom_site_type_symbol
_atom_site_label
_atom_site_fract_x
_atom_site_fract_y
_atom_site_fract_z
Si Si1 0.570619 0.690664 0.255600
Si Si2 0.891653 0.937138 0.761189
Si Si3 0.711580 0.238006 0.770202
Si Si4 0.817507 0.488524 0.199548
Si Si5 0.399959 0.950860 0.929344
Si Si6 0.419032 0.712617 0.019532
Si Si7 0.926680 0.779007 0.510654
Si Si8 0.022512 0.442210 0.151054
O O1 0.580274 0.561450 0.253180
O O2 0.675626 0.738456 0.262898
O O3 0.512742 0.724554 0.116025
O O4 0.510669 0.720008 0.394895
O O5 0.930356 0.873582 0.624972
O O6 0.776524 0.932989 0.755179
O O7 0.925079 0.882173 0.906383
O O8 0.678688 0.111722 0.756198
O O9 0.663726 0.298497 0.637436
O O10 0.668406 0.281389 0.916030
O O11 0.917784 0.429107 0.224013
O O12 0.816310 0.502994 0.027854
O O13 0.409868 0.991005 0.770468
O O14 0.397262 0.822209 0.934574
O O15 0.493402 0.985256 0.018573
O O16 0.935264 0.667977 0.595318
#
# Coordination Sequence:
#
# PCOD9344633 Si02
#       8
#     4   4   4   4   4   4   4   4
#     4  10  23  40  62  81 126 164 199 246 306 361
#     4  11  21  40  59  88 127 157 202 251 293 367
#     4   9  20  40  57  85 116 159 199 248 302 363
#     4   8  20  34  59  79 122 154 188 250 309 343
#     4   9  19  35  57  88 116 151 198 252 306 353
#     4  10  20  38  61  88 115 160 203 241 305 364
#     4  11  22  36  64  90 117 163 203 248 303 368
#     4  10  19  35  61  89 119 152 200 254 308 357
#
# _framework density 19.361440999999999
#
# number of rings (size 3 to 8) (size 9 to 14) (size 15 to 20)
#    0.750    1.500    1.250    1.500    3.500    1.000 
#    0.000    0.000    8.250    0.000    0.000    0.000 
#    0.000    0.000    0.000    0.000    0.000    0.000 
#
# Total GULP energy -178361.653275 kJ/mol
# GULP energy per Si atom -5573.801665 kJ/mol
# Density = 1.931737 g / cm^3
# Si number density = 19.361441 Si / 1000 Ang^3
#
#
#
# Elastic Constant Matrix: (Units=GPa)
#
#
# Indices 1 2 3 4 5 6 
#
# 1 83.4383 -1.2880 33.1305 0.0000 0.0000 0.0000
# 2 -1.2880 23.2086 11.6119 0.0000 0.0000 0.0000
# 3 33.1305 11.6119 110.5599 0.0000 0.0000 0.0000
# 4 0.0000 0.0000 0.0000 27.7132 0.0000 0.0000
# 5 0.0000 0.0000 0.0000 0.0000 9.5343 0.0000
# 6 0.0000 0.0000 0.0000 0.0000 0.0000 22.3948
#
#
#
# Elastic Compliance Matrix: (Units=1/GPa)
#
#
# Indices 1 2 3 4 5 6 
#
# 1 0.013798 0.002992 -0.004449 0.000000 0.000000 0.000000
# 2 0.002992 0.046126 -0.005741 0.000000 0.000000 0.000000
# 3 -0.004449 -0.005741 0.010981 0.000000 0.000000 0.000000
# 4 0.000000 0.000000 0.000000 0.036084 0.000000 0.000000
# 5 0.000000 0.000000 0.000000 0.000000 0.104885 0.000000
# 6 0.000000 0.000000 0.000000 0.000000 0.000000 0.044653
#
#
# Mechanical properties :
#
#
# Convention : Reuss Voigt Hill
#
# Bulk Modulus (GPa) = 17.69661 33.79062 25.74362
# Shear Modulus (GPa) = 17.25574 23.51195 20.38384
#
# Velocity S-wave (km/s) = 2.98861 3.48856 3.24822
# Velocity P-wave (km/s) = 4.59010 5.80665 5.23384
#
# Compressibility (1/GPa) = 0.05650800
#
# Stress axis : x y z
#
# Youngs Moduli (GPa) = 72.47669 21.67982 91.06672
#
# Poissons Ratio (x) = -0.06486 0.40514
# Poissons Ratio (y) = -0.21682 0.52281
# Poissons Ratio (z) = 0.32243 0.12446
#
# Static dielectric constant tensor:
#      x y z
#    x 1.678930 0.000000 0.000000 
#    y 0.000000 1.662830 0.000000 
#    z 0.000000 0.000000 1.676960 
# 
# From -- ./inp_files/4510.got.cif
#   From: 2010.05.17/outbox.cif.g08.bks.cpg/sg33_3_cif.got.tgz:4510.got - 2010.06.03 17:15:25.
