data_PCOD9344068
_publ_section_title
;
Structure prediction by ZEFSAII (Michael W. Deem and Ramdas Pophale) SiO2 
 PCOD9344068
Probable space group: P B A 2
;
_chemical_formula_sum "Si O2"
_cell_formula_units_Z 32
_cell_length_a 8.924750
_cell_length_b 14.171956
_cell_length_c 11.220520
_cell_angle_alpha 90.000000
_cell_angle_beta 90.000000
_cell_angle_gamma 90.000000
_cell_volume 1419.184434
_symmetry_space_group_name_H-M "P B A 2"
_symmetry_group_IT_number 32
_symmetry_cell_setting 'orthorhombic'
loop_
_space_group_symop_operation_xyz
x,y,z
-x,-y,z
1/2-x,1/2+y,z
1/2+x,1/2-y,z
loop_
_atom_site_type_symbol
_atom_site_label
_atom_site_fract_x
_atom_site_fract_y
_atom_site_fract_z
Si Si1 0.835837 0.706100 0.215750
Si Si2 0.290577 0.575281 0.893993
Si Si3 0.137197 0.867476 0.857172
Si Si4 0.171673 0.618295 0.646677
Si Si5 0.387908 0.204202 0.052717
Si Si6 0.208446 0.933289 0.384359
Si Si7 0.330171 0.888275 0.628512
Si Si8 0.871051 0.859724 0.419422
O O1 0.689398 0.757904 0.170110
O O2 0.780091 0.606957 0.265312
O O3 0.882382 0.774125 0.325863
O O4 0.943411 0.694762 0.100678
O O5 0.273252 0.462266 0.894228
O O6 0.464360 0.599857 0.869719
O O7 0.218244 0.628687 0.782336
O O8 0.205875 0.614607 0.008786
O O9 0.209556 0.849616 0.725282
O O10 0.138692 0.781662 0.949368
O O11 0.173471 0.503270 0.638096
O O12 0.288066 0.658736 0.547693
O O13 0.998884 0.649413 0.641093
O O14 0.293111 0.880763 0.490826
O O15 0.039475 0.901243 0.417384
O O16 0.220694 0.046416 0.379452
#
# Coordination Sequence:
#
# PCOD9344068 Si02
#       8
#     4   4   4   4   4   4   4   4
#     4  12  26  45  64  95 136 173 226 275 315 390
#     4  10  22  43  69  96 128 176 217 269 335 394
#     4  10  22  43  69  94 131 173 219 269 335 394
#     4   9  19  36  65 102 132 160 213 277 333 395
#     4  12  26  45  64  95 136 173 226 275 315 390
#     4  10  22  43  69  96 128 176 217 269 335 394
#     4   9  19  36  65 102 132 160 213 277 333 395
#     4  10  22  43  69  94 131 173 219 269 335 394
#
# _framework density 22.548159999999999
#
# number of rings (size 3 to 8) (size 9 to 14) (size 15 to 20)
#    0.000    1.750    2.500    0.750    3.500    5.000 
#    0.000    1.250    0.000    0.000    0.000    0.000 
#    0.000    0.000    0.000    0.000    0.000    0.000 
#
# Total GULP energy -178235.124020 kJ/mol
# GULP energy per Si atom -5569.847626 kJ/mol
# Density = 2.249684 g / cm^3
# Si number density = 22.548160 Si / 1000 Ang^3
#
#
#
# Elastic Constant Matrix: (Units=GPa)
#
#
# Indices 1 2 3 4 5 6 
#
# 1 73.3355 16.3474 24.6929 0.0000 0.0000 0.0000
# 2 16.3474 65.4229 34.7994 0.0000 0.0000 0.0000
# 3 24.6929 34.7994 89.0409 0.0000 0.0000 0.0000
# 4 0.0000 0.0000 0.0000 35.5356 0.0000 0.0000
# 5 0.0000 0.0000 0.0000 0.0000 41.8181 0.0000
# 6 0.0000 0.0000 0.0000 0.0000 0.0000 19.2899
#
#
#
# Elastic Compliance Matrix: (Units=1/GPa)
#
#
# Indices 1 2 3 4 5 6 
#
# 1 0.015239 -0.001969 -0.003456 0.000000 0.000000 0.000000
# 2 -0.001969 0.019551 -0.007095 0.000000 0.000000 0.000000
# 3 -0.003456 -0.007095 0.014962 0.000000 0.000000 0.000000
# 4 0.000000 0.000000 0.000000 0.028141 0.000000 0.000000
# 5 0.000000 0.000000 0.000000 0.000000 0.023913 0.000000
# 6 0.000000 0.000000 0.000000 0.000000 0.000000 0.051841
#
#
# Mechanical properties :
#
#
# Convention : Reuss Voigt Hill
#
# Bulk Modulus (GPa) = 40.46797 42.16429 41.31613
# Shear Modulus (GPa) = 26.74873 29.45936 28.10404
#
# Velocity S-wave (km/s) = 3.44800 3.61849 3.53427
# Velocity P-wave (km/s) = 5.81703 6.01649 5.91760
#
# Compressibility (1/GPa) = 0.02471090
#
# Stress axis : x y z
#
# Youngs Moduli (GPa) = 65.62224 51.14792 66.83504
#
# Poissons Ratio (x) = 0.10072 0.23101
# Poissons Ratio (y) = 0.12923 0.47419
# Poissons Ratio (z) = 0.22682 0.36289
#
# Static dielectric constant tensor:
#      x y z
#    x 1.698080 0.000000 0.000000 
#    y 0.000000 1.616770 0.000000 
#    z 0.000000 0.000000 1.839580 
# 
# From -- ./inp_files/3765.got.cif
#   From: 2010.05.17/outbox.cif.g08.bks.cpg/sg32_2_cif.got.tgz:3765.got - 2010.06.03 17:12:27.
