data_PCOD9344604
_publ_section_title
;
Structure prediction by ZEFSAII (Michael W. Deem and Ramdas Pophale) SiO2 
 PCOD9344604
Probable space group: P N A 21
;
_chemical_formula_sum "Si O2"
_cell_formula_units_Z 32
_cell_length_a 20.611568
_cell_length_b 12.590995
_cell_length_c 5.508912
_cell_angle_alpha 90.000000
_cell_angle_beta 90.000000
_cell_angle_gamma 90.000000
_cell_volume 1429.673667
_symmetry_space_group_name_H-M "P N A 21"
_symmetry_group_IT_number 33
_symmetry_cell_setting 'orthorhombic'
loop_
_space_group_symop_operation_xyz
x,y,z
-x,-y,1/2+z
1/2-x,1/2+y,1/2+z
1/2+x,1/2-y,z
loop_
_atom_site_type_symbol
_atom_site_label
_atom_site_fract_x
_atom_site_fract_y
_atom_site_fract_z
Si Si1 0.353547 0.045387 0.871740
Si Si2 0.007159 0.564376 0.310889
Si Si3 0.492841 0.435624 0.613151
Si Si4 0.353547 0.454613 0.552300
Si Si5 0.114420 0.156503 0.392249
Si Si6 0.724128 0.084713 0.767526
Si Si7 0.614420 0.156502 0.031792
Si Si8 0.224128 0.084714 0.656514
O O1 0.421106 0.108781 0.875592
O O2 0.289753 0.111851 0.799314
O O3 0.372611 0.951846 0.682349
O O4 0.328169 0.979673 0.104387
O O5 0.998412 0.477712 0.532969
O O6 0.946172 0.639884 0.356264
O O7 0.498412 0.477712 0.891072
O O8 0.421106 0.391219 0.548447
O O9 0.553828 0.360115 0.567776
O O10 0.372611 0.548155 0.741691
O O11 0.289753 0.388150 0.624725
O O12 0.328169 0.520328 0.319652
O O13 0.099162 0.250000 0.212020
O O14 0.183171 0.174117 0.522259
O O15 0.683171 0.174116 0.901781
O O16 0.750000 1.000000 0.962020
#
# Coordination Sequence:
#
# PCOD9344604 Si02
#       8
#     4   4   4   4   4   4   4   4
#     4   9  18  33  57  82 111 155 203 244 293 366
#     4  10  19  35  56  87 114 157 198 243 300 368
#     4  10  19  35  56  87 114 157 198 243 300 368
#     4   9  18  33  57  82 111 155 203 244 293 366
#     4  10  20  33  55  89 119 152 198 255 307 356
#     4   9  17  33  55  83 106 150 200 249 290 362
#     4  10  20  33  55  89 119 152 198 255 307 356
#     4   9  17  33  55  83 106 150 200 249 290 362
#
# _framework density 22.382729000000001
#
# number of rings (size 3 to 8) (size 9 to 14) (size 15 to 20)
#    0.000    2.500    2.500    0.000    0.000    1.000 
#    0.000    0.000    0.000   16.500   13.000    0.000 
#    0.000    0.000    0.000    0.000    0.000    0.000 
#
# Total GULP energy -178248.747323 kJ/mol
# GULP energy per Si atom -5570.273354 kJ/mol
# Density = 2.233178 g / cm^3
# Si number density = 22.382729 Si / 1000 Ang^3
#
#
#
# Elastic Constant Matrix: (Units=GPa)
#
#
# Indices 1 2 3 4 5 6 
#
# 1 159.7623 3.8911 -0.1260 0.0000 0.0000 0.0000
# 2 3.8911 23.8771 -3.9667 0.0000 0.0000 0.0000
# 3 -0.1260 -3.9667 56.1063 0.0000 0.0000 0.0000
# 4 0.0000 0.0000 0.0000 33.2581 0.0000 0.0000
# 5 0.0000 0.0000 0.0000 0.0000 40.2940 0.0000
# 6 0.0000 0.0000 0.0000 0.0000 0.0000 1.8028
#
#
#
# Elastic Compliance Matrix: (Units=1/GPa)
#
#
# Indices 1 2 3 4 5 6 
#
# 1 0.006284 -0.001034 -0.000059 0.000000 0.000000 0.000000
# 2 -0.001034 0.042549 0.003006 0.000000 0.000000 0.000000
# 3 -0.000059 0.003006 0.018036 0.000000 0.000000 0.000000
# 4 0.000000 0.000000 0.000000 0.030068 0.000000 0.000000
# 5 0.000000 0.000000 0.000000 0.000000 0.024818 0.000000
# 6 0.000000 0.000000 0.000000 0.000000 0.000000 0.554701
#
#
# Mechanical properties :
#
#
# Convention : Reuss Voigt Hill
#
# Bulk Modulus (GPa) = 14.14526 26.59360 20.36943
# Shear Modulus (GPa) = 7.18190 31.06747 19.12468
#
# Velocity S-wave (km/s) = 1.79322 3.72964 2.92625
# Velocity P-wave (km/s) = 3.25898 5.51852 4.53183
#
# Compressibility (1/GPa) = 0.07069504
#
# Stress axis : x y z
#
# Youngs Moduli (GPa) = 159.12335 23.50230 55.44563
#
# Poissons Ratio (x) = 0.02430 0.00327
# Poissons Ratio (y) = 0.16452 -0.16666
# Poissons Ratio (z) = 0.00938 -0.07064
#
# Static dielectric constant tensor:
#      x y z
#    x 1.905880 0.000000 0.000000 
#    y 0.000000 1.928430 0.000000 
#    z 0.000000 0.000000 1.919030 
# 
# From -- ./inp_files/2027.got.cif
#   From: 2010.05.17/outbox.cif.g08.bks.cpg/sg33_2_cif.got.tgz:2027.got - 2010.06.03 17:15:25.
