data_PCOD9344691
_publ_section_title
;
Structure prediction by ZEFSAII (Michael W. Deem and Ramdas Pophale) SiO2 
 PCOD9344691
Probable space group: P N A 21
;
_chemical_formula_sum "Si O2"
_cell_formula_units_Z 32
_cell_length_a 9.175979
_cell_length_b 21.191620
_cell_length_c 8.492098
_cell_angle_alpha 90.000000
_cell_angle_beta 90.000000
_cell_angle_gamma 90.000000
_cell_volume 1651.321236
_symmetry_space_group_name_H-M "P N A 21"
_symmetry_group_IT_number 33
_symmetry_cell_setting 'orthorhombic'
loop_
_space_group_symop_operation_xyz
x,y,z
-x,-y,1/2+z
1/2-x,1/2+y,1/2+z
1/2+x,1/2-y,z
loop_
_atom_site_type_symbol
_atom_site_label
_atom_site_fract_x
_atom_site_fract_y
_atom_site_fract_z
Si Si1 0.085047 0.061148 0.544390
Si Si2 0.579035 0.685000 0.547869
Si Si3 0.414698 0.061103 0.667484
Si Si4 0.916257 0.687185 0.164948
Si Si5 0.414699 0.061103 0.046077
Si Si6 0.920965 0.185001 0.665691
Si Si7 0.583743 0.187186 0.048613
Si Si8 0.414953 0.561147 0.669171
O O1 0.249637 0.060966 0.607762
O O2 0.087471 0.059332 0.356780
O O3 0.003015 0.123839 0.602212
O O4 0.999999 0.000000 0.606781
O O5 0.575759 0.682722 0.356780
O O6 0.497606 0.749000 0.598448
O O7 0.747847 0.685903 0.598166
O O8 0.496985 0.623838 0.611348
O O9 0.497691 0.124685 0.614269
O O10 0.499999 1.000000 0.606781
O O11 0.414135 0.060480 0.856781
O O12 0.747848 0.685903 0.115394
O O13 0.916743 0.687296 0.356780
O O14 0.997607 0.751000 0.115112
O O15 0.497691 0.124685 0.099292
O O16 0.249638 0.060966 0.105800
#
# Coordination Sequence:
#
# PCOD9344691 Si02
#       8
#     4   4   4   4   4   4   4   4
#     4  12  25  41  60  86 117 156 201 251 304 357
#     4  10  19  37  62  89 118 154 197 243 293 356
#     4  11  22  39  62  91 123 159 199 244 294 355
#     4   9  19  35  61  90 119 155 196 238 293 360
#     4  11  22  39  62  91 123 159 199 244 294 355
#     4  10  19  37  62  89 118 154 197 243 293 356
#     4   9  19  35  61  90 119 155 196 238 293 360
#     4  12  25  41  60  86 117 156 201 251 304 357
#
# _framework density 19.378423000000002
#
# number of rings (size 3 to 8) (size 9 to 14) (size 15 to 20)
#    0.000    1.500    0.000    6.000    0.000    6.000 
#    0.000    7.500    0.000    0.000    0.000    0.000 
#    0.000    0.000    0.000    0.000    0.000    0.000 
#
# Total GULP energy -178969.336753 kJ/mol
# GULP energy per Si atom -5592.791774 kJ/mol
# Density = 1.933432 g / cm^3
# Si number density = 19.378423 Si / 1000 Ang^3
#
#
#
# Elastic Constant Matrix: (Units=GPa)
#
#
# Indices 1 2 3 4 5 6 
#
# 1 247.5301 153.5068 50.8937 0.0000 0.0000 0.0000
# 2 153.5068 247.6521 51.1858 0.0000 0.0000 0.0000
# 3 50.8937 51.1858 66.3576 0.0000 0.0000 0.0000
# 4 0.0000 0.0000 0.0000 33.2569 0.0000 0.0000
# 5 0.0000 0.0000 0.0000 0.0000 28.4481 0.0000
# 6 0.0000 0.0000 0.0000 0.0000 0.0000 47.4146
#
#
#
# Elastic Compliance Matrix: (Units=1/GPa)
#
#
# Indices 1 2 3 4 5 6 
#
# 1 0.006859 -0.003764 -0.002357 0.000000 0.000000 0.000000
# 2 -0.003764 0.006870 -0.002412 0.000000 0.000000 0.000000
# 3 -0.002357 -0.002412 0.018738 0.000000 0.000000 0.000000
# 4 0.000000 0.000000 0.000000 0.030069 0.000000 0.000000
# 5 0.000000 0.000000 0.000000 0.000000 0.035152 0.000000
# 6 0.000000 0.000000 0.000000 0.000000 0.000000 0.021091
#
#
# Mechanical properties :
#
#
# Convention : Reuss Voigt Hill
#
# Bulk Modulus (GPa) = 64.93369 119.19026 92.06197
# Shear Modulus (GPa) = 35.46653 42.22081 38.84367
#
# Velocity S-wave (km/s) = 4.28273 4.67278 4.48200
# Velocity P-wave (km/s) = 7.61818 9.52645 8.62526
#
# Compressibility (1/GPa) = 0.01540033
#
# Stress axis : x y z
#
# Youngs Moduli (GPa) = 145.79330 145.56436 53.36759
#
# Poissons Ratio (x) = 0.54797 0.12578
# Poissons Ratio (y) = 0.54883 0.12872
# Poissons Ratio (z) = 0.34361 0.35109
#
# Static dielectric constant tensor:
#      x y z
#    x 1.638680 0.000000 0.000000 
#    y 0.000000 1.640220 0.000000 
#    z 0.000000 0.000000 1.671280 
# 
# From -- ./inp_files/3463.got.cif
#   From: 2010.05.17/outbox.cif.g08.bks.cpg/sg33_2_cif.got.tgz:3463.got - 2010.06.03 17:15:25.
