data_PCOD9344565
_publ_section_title
;
Structure prediction by ZEFSAII (Michael W. Deem and Ramdas Pophale) SiO2 
 PCOD9344565
Probable space group: P N A 21
;
_chemical_formula_sum "Si O2"
_cell_formula_units_Z 32
_cell_length_a 19.370846
_cell_length_b 8.455675
_cell_length_c 7.455976
_cell_angle_alpha 90.000000
_cell_angle_beta 90.000000
_cell_angle_gamma 90.000000
_cell_volume 1221.240988
_symmetry_space_group_name_H-M "P N A 21"
_symmetry_group_IT_number 33
_symmetry_cell_setting 'orthorhombic'
loop_
_space_group_symop_operation_xyz
x,y,z
-x,-y,1/2+z
1/2-x,1/2+y,1/2+z
1/2+x,1/2-y,z
loop_
_atom_site_type_symbol
_atom_site_label
_atom_site_fract_x
_atom_site_fract_y
_atom_site_fract_z
Si Si1 0.245557 0.769774 0.201020
Si Si2 0.682517 0.796931 0.862371
Si Si3 0.858594 0.957963 0.219490
Si Si4 0.633003 0.024676 0.606891
Si Si5 0.557370 0.860596 0.351064
Si Si6 0.327781 0.585791 0.794405
Si Si7 0.039128 0.282416 0.195330
Si Si8 0.017768 0.203898 0.583650
O O1 0.298359 0.877274 0.081250
O O2 0.194365 0.904782 0.265155
O O3 0.302309 0.664716 0.306080
O O4 0.200517 0.666687 0.067095
O O5 0.655379 0.625916 0.807839
O O6 0.633511 0.935454 0.794124
O O7 0.756443 0.819959 0.764126
O O8 0.939702 0.919937 0.204105
O O9 0.845002 0.928574 0.006449
O O10 0.627008 0.887189 0.460890
O O11 0.568668 0.142795 0.603740
O O12 0.503544 0.802025 0.509183
O O13 0.551237 0.738362 0.191304
O O14 0.547985 0.035023 0.261498
O O15 0.389520 0.678462 0.690916
O O16 0.005651 0.198029 0.371932
#
# Coordination Sequence:
#
# PCOD9344565 Si02
#       8
#     4   4   4   4   4   4   4   4
#     4   9  19  36  56  83 117 156 188 237 303 368
#     4  10  19  35  58  84 115 153 187 247 301 354
#     4   9  19  35  57  78 117 153 190 238 299 362
#     4   9  19  35  56  83 122 143 196 256 286 344
#     4  11  18  33  60  84 112 157 198 243 295 345
#     4   9  20  37  54  84 123 145 190 255 295 350
#     4  10  19  33  56  89 116 148 201 248 286 352
#     4   9  19  36  57  83 114 153 198 244 291 349
#
# _framework density 26.202857000000002
#
# number of rings (size 3 to 8) (size 9 to 14) (size 15 to 20)
#    0.000    2.500    2.500    2.250    1.750    2.000 
#    6.750    0.000    8.250    0.000    0.000    0.000 
#    0.000    0.000    0.000    0.000    0.000    0.000 
#
# Total GULP energy -178353.475014 kJ/mol
# GULP energy per Si atom -5573.546094 kJ/mol
# Density = 2.614322 g / cm^3
# Si number density = 26.202857 Si / 1000 Ang^3
#
#
#
# Elastic Constant Matrix: (Units=GPa)
#
#
# Indices 1 2 3 4 5 6 
#
# 1 87.4523 39.1727 16.3956 0.0000 0.0000 0.0000
# 2 39.1727 99.9244 16.2403 0.0000 0.0000 0.0000
# 3 16.3956 16.2403 44.2954 0.0000 0.0000 0.0000
# 4 0.0000 0.0000 0.0000 32.1622 0.0000 0.0000
# 5 0.0000 0.0000 0.0000 0.0000 33.8037 0.0000
# 6 0.0000 0.0000 0.0000 0.0000 0.0000 48.6527
#
#
#
# Elastic Compliance Matrix: (Units=1/GPa)
#
#
# Indices 1 2 3 4 5 6 
#
# 1 0.014351 -0.005064 -0.003455 0.000000 0.000000 0.000000
# 2 -0.005064 0.012429 -0.002682 0.000000 0.000000 0.000000
# 3 -0.003455 -0.002682 0.024838 0.000000 0.000000 0.000000
# 4 0.000000 0.000000 0.000000 0.031092 0.000000 0.000000
# 5 0.000000 0.000000 0.000000 0.000000 0.029583 0.000000
# 6 0.000000 0.000000 0.000000 0.000000 0.000000 0.020554
#
#
# Mechanical properties :
#
#
# Convention : Reuss Voigt Hill
#
# Bulk Modulus (GPa) = 34.22988 41.69881 37.96434
# Shear Modulus (GPa) = 30.30511 33.58128 31.94319
#
# Velocity S-wave (km/s) = 3.40451 3.58381 3.49531
# Velocity P-wave (km/s) = 5.34285 5.75094 5.55065
#
# Compressibility (1/GPa) = 0.02921424
#
# Stress axis : x y z
#
# Youngs Moduli (GPa) = 69.68116 80.45783 40.26083
#
# Poissons Ratio (x) = 0.40747 0.13911
# Poissons Ratio (y) = 0.35289 0.10799
# Poissons Ratio (z) = 0.24076 0.21581
#
# Static dielectric constant tensor:
#      x y z
#    x 2.234360 0.000000 0.000000 
#    y 0.000000 2.116410 0.000000 
#    z 0.000000 0.000000 2.225230 
# 
# From -- ./inp_files/5186.got.cif
#   From: 2010.05.17/outbox.cif.g08.bks.cpg/sg33_3_cif.got.tgz:5186.got - 2010.06.03 17:15:25.
