data_PCOD9344871
_publ_section_title
;
Structure prediction by ZEFSAII (Michael W. Deem and Ramdas Pophale) SiO2 
 PCOD9344871
Probable space group: P N A 21
;
_chemical_formula_sum "Si O2"
_cell_formula_units_Z 24
_cell_length_a 26.976968
_cell_length_b 4.804230
_cell_length_c 6.451521
_cell_angle_alpha 90.000000
_cell_angle_beta 90.000000
_cell_angle_gamma 90.000000
_cell_volume 836.140082
_symmetry_space_group_name_H-M "P N A 21"
_symmetry_group_IT_number 33
_symmetry_cell_setting 'orthorhombic'
loop_
_space_group_symop_operation_xyz
x,y,z
-x,-y,1/2+z
1/2-x,1/2+y,1/2+z
1/2+x,1/2-y,z
loop_
_atom_site_type_symbol
_atom_site_label
_atom_site_fract_x
_atom_site_fract_y
_atom_site_fract_z
Si Si1 0.109744 0.800920 0.966790
Si Si2 0.851501 0.694198 0.712637
Si Si3 0.021766 0.675816 0.216262
Si Si4 0.189498 0.575481 0.707419
Si Si5 0.249559 0.028590 0.598363
Si Si6 0.439422 0.670951 0.955515
O O1 0.133269 0.664197 0.761450
O O2 0.128518 0.608641 0.156461
O O3 0.051409 0.777719 0.010096
O O4 0.130853 0.103357 0.026098
O O5 0.792997 0.652673 0.714630
O O6 0.880767 0.792456 0.917186
O O7 0.036530 0.364604 0.274905
O O8 0.042735 0.862826 0.402224
O O9 0.964370 0.729617 0.167022
O O10 0.213408 0.269649 0.685437
O O11 0.211501 0.782285 0.534904
O O12 0.216057 0.668639 0.923551
#
# Coordination Sequence:
#
# PCOD9344871 Si02
#       6
#     4   4   4   4   4   4
#     4   9  18  34  55  77 107 149 184 213 271 346
#     4   9  18  34  55  77 107 149 184 213 271 346
#     4  10  20  36  58  82 110 145 184 225 272 329
#     4  11  21  36  56  79 107 142 184 228 272 325
#     4  11  21  36  56  79 107 142 184 228 272 325
#     4  10  20  36  58  82 110 145 184 225 272 329
#
# _framework density 28.703323999999999
#
# number of rings (size 3 to 8) (size 9 to 14) (size 15 to 20)
#    0.000    2.000    0.000    6.000    0.000    0.000 
#    0.000    5.000    0.000    0.000    0.000    0.000 
#    0.000    0.000    0.000    0.000    0.000    0.000 
#
# Total GULP energy -134115.646072 kJ/mol
# GULP energy per Si atom -5588.151920 kJ/mol
# Density = 2.863799 g / cm^3
# Si number density = 28.703324 Si / 1000 Ang^3
#
#
#
# Elastic Constant Matrix: (Units=GPa)
#
#
# Indices 1 2 3 4 5 6 
#
# 1 128.5158 23.6177 32.0759 0.0000 0.0000 0.0000
# 2 23.6177 125.0829 14.2279 0.0000 0.0000 0.0000
# 3 32.0759 14.2279 51.5732 0.0000 0.0000 0.0000
# 4 0.0000 0.0000 0.0000 39.3540 0.0000 0.0000
# 5 0.0000 0.0000 0.0000 0.0000 61.8887 0.0000
# 6 0.0000 0.0000 0.0000 0.0000 0.0000 35.9715
#
#
#
# Elastic Compliance Matrix: (Units=1/GPa)
#
#
# Indices 1 2 3 4 5 6 
#
# 1 0.009366 -0.001142 -0.005510 0.000000 0.000000 0.000000
# 2 -0.001142 0.008393 -0.001605 0.000000 0.000000 0.000000
# 3 -0.005510 -0.001605 0.023260 0.000000 0.000000 0.000000
# 4 0.000000 0.000000 0.000000 0.025410 0.000000 0.000000
# 5 0.000000 0.000000 0.000000 0.000000 0.016158 0.000000
# 6 0.000000 0.000000 0.000000 0.000000 0.000000 0.027800
#
#
# Mechanical properties :
#
#
# Convention : Reuss Voigt Hill
#
# Bulk Modulus (GPa) = 40.80919 49.44611 45.12765
# Shear Modulus (GPa) = 37.01779 43.12620 40.07200
#
# Velocity S-wave (km/s) = 3.59509 3.88039 3.74046
# Velocity P-wave (km/s) = 5.61083 6.11069 5.86609
#
# Compressibility (1/GPa) = 0.02450428
#
# Stress axis : x y z
#
# Youngs Moduli (GPa) = 106.76599 119.14874 42.99237
#
# Poissons Ratio (x) = 0.13603 0.23690
# Poissons Ratio (y) = 0.12190 0.06902
# Poissons Ratio (z) = 0.58832 0.19127
#
# Static dielectric constant tensor:
#      x y z
#    x 2.291550 0.000000 0.000000 
#    y 0.000000 2.099460 0.000000 
#    z 0.000000 0.000000 2.307610 
# 
# From -- ./inp_files/5229.got.cif
#   From: 2010.05.17/outbox.cif.g08.bks.cpg/sg33_3_cif.got.tgz:5229.got - 2010.06.03 17:15:25.
