data_PCOD9344860
_publ_section_title
;
Structure prediction by ZEFSAII (Michael W. Deem and Ramdas Pophale) SiO2 
 PCOD9344860
Probable space group: P N A 21
;
_chemical_formula_sum "Si O2"
_cell_formula_units_Z 32
_cell_length_a 9.249847
_cell_length_b 22.787617
_cell_length_c 8.240897
_cell_angle_alpha 90.000000
_cell_angle_beta 90.000000
_cell_angle_gamma 90.000000
_cell_volume 1737.032510
_symmetry_space_group_name_H-M "P N A 21"
_symmetry_group_IT_number 33
_symmetry_cell_setting 'orthorhombic'
loop_
_space_group_symop_operation_xyz
x,y,z
-x,-y,1/2+z
1/2-x,1/2+y,1/2+z
1/2+x,1/2-y,z
loop_
_atom_site_type_symbol
_atom_site_label
_atom_site_fract_x
_atom_site_fract_y
_atom_site_fract_z
Si Si1 0.916297 0.808044 0.350420
Si Si2 0.344270 0.622722 0.053436
Si Si3 0.585188 0.547372 0.873426
Si Si4 0.083704 0.691956 0.446351
Si Si5 0.072558 0.075568 0.044615
Si Si6 0.072558 0.575568 0.252155
Si Si7 0.344270 0.122722 0.243335
Si Si8 0.085188 0.452628 0.423345
O O1 0.913332 0.826076 0.161710
O O2 0.750000 0.799275 0.398386
O O3 0.969302 0.865138 0.450586
O O4 0.000000 0.750000 0.398385
O O5 0.228922 0.588472 0.168469
O O6 0.470881 0.581450 0.986678
O O7 0.250000 0.643191 0.898385
O O8 0.534770 0.559241 0.690358
O O9 0.750000 0.567066 0.898385
O O10 0.577521 0.479229 0.923803
O O11 0.030698 0.634862 0.346185
O O12 0.086668 0.673924 0.635061
O O13 0.228922 0.088472 0.128301
O O14 0.077521 0.520771 0.372968
O O15 0.965229 0.559241 0.106413
O O16 0.470881 0.081450 0.310093
#
# Coordination Sequence:
#
# PCOD9344860 Si02
#       8
#     4   4   4   4   4   4   4   4
#     4  10  21  39  58  78 108 147 186 226 277 333
#     4   9  20  38  57  78 112 148 179 225 288 335
#     4  11  20  33  57  86 111 141 184 228 271 335
#     4  10  21  39  58  78 108 147 186 226 277 333
#     4  10  20  36  55  80 114 148 175 223 286 333
#     4  10  20  36  55  80 114 148 175 223 286 333
#     4   9  20  38  57  78 112 148 179 225 288 335
#     4  11  20  33  57  86 111 141 184 228 271 335
#
# _framework density 18.422222000000001
#
# number of rings (size 3 to 8) (size 9 to 14) (size 15 to 20)
#    0.000    2.000    0.000    5.250    0.000    2.000 
#    0.000   18.750    0.000    0.000    0.000    0.000 
#    0.000    0.000    0.000    0.000    0.000    0.000 
#
# Total GULP energy -178638.431367 kJ/mol
# GULP energy per Si atom -5582.450980 kJ/mol
# Density = 1.838029 g / cm^3
# Si number density = 18.422222 Si / 1000 Ang^3
#
#
#
# Elastic Constant Matrix: (Units=GPa)
#
#
# Indices 1 2 3 4 5 6 
#
# 1 81.7959 56.2912 48.6857 0.0000 0.0000 0.0000
# 2 56.2912 132.5926 91.0399 0.0000 0.0000 0.0000
# 3 48.6857 91.0399 131.6983 0.0000 0.0000 0.0000
# 4 0.0000 0.0000 0.0000 22.4127 0.0000 0.0000
# 5 0.0000 0.0000 0.0000 0.0000 27.6921 0.0000
# 6 0.0000 0.0000 0.0000 0.0000 0.0000 20.7276
#
#
#
# Elastic Compliance Matrix: (Units=1/GPa)
#
#
# Indices 1 2 3 4 5 6 
#
# 1 0.017717 -0.005757 -0.002570 0.000000 0.000000 0.000000
# 2 -0.005757 0.016227 -0.009089 0.000000 0.000000 0.000000
# 3 -0.002570 -0.009089 0.014826 0.000000 0.000000 0.000000
# 4 0.000000 0.000000 0.000000 0.044617 0.000000 0.000000
# 5 0.000000 0.000000 0.000000 0.000000 0.036111 0.000000
# 6 0.000000 0.000000 0.000000 0.000000 0.000000 0.048245
#
#
# Mechanical properties :
#
#
# Convention : Reuss Voigt Hill
#
# Bulk Modulus (GPa) = 71.74537 82.01337 76.87937
# Shear Modulus (GPa) = 23.01806 24.17116 23.59461
#
# Velocity S-wave (km/s) = 3.53862 3.62617 3.58267
# Velocity P-wave (km/s) = 7.46494 7.88337 7.67701
#
# Compressibility (1/GPa) = 0.01393818
#
# Stress axis : x y z
#
# Youngs Moduli (GPa) = 56.44228 61.62743 67.44959
#
# Poissons Ratio (x) = 0.35481 0.17333
# Poissons Ratio (y) = 0.32495 0.61303
# Poissons Ratio (z) = 0.14504 0.56011
#
# Static dielectric constant tensor:
#      x y z
#    x 1.630780 0.000000 0.000000 
#    y 0.000000 1.613060 0.000000 
#    z 0.000000 0.000000 1.672420 
# 
# From -- ./inp_files/3488.got.cif
#   From: 2010.05.17/outbox.cif.g08.bks.cpg/sg33_2_cif.got.tgz:3488.got - 2010.06.03 17:15:25.
