data_PCOD9344302
_publ_section_title
;
Structure prediction by ZEFSAII (Michael W. Deem and Ramdas Pophale) SiO2 
 PCOD9344302
Probable space group: P B A 2
;
_chemical_formula_sum "Si O2"
_cell_formula_units_Z 22
_cell_length_a 16.056051
_cell_length_b 9.446831
_cell_length_c 6.220592
_cell_angle_alpha 90.000000
_cell_angle_beta 90.000000
_cell_angle_gamma 90.000000
_cell_volume 943.531932
_symmetry_space_group_name_H-M "P B A 2"
_symmetry_group_IT_number 32
_symmetry_cell_setting 'orthorhombic'
loop_
_space_group_symop_operation_xyz
x,y,z
-x,-y,z
1/2-x,1/2+y,z
1/2+x,1/2-y,z
loop_
_atom_site_type_symbol
_atom_site_label
_atom_site_fract_x
_atom_site_fract_y
_atom_site_fract_z
Si Si1 0.000000 0.000000 0.682160
Si Si2 0.064368 0.245375 0.373306
Si Si3 0.771179 0.298723 0.805388
Si Si4 0.308302 0.559444 0.181184
Si Si5 0.580994 0.675461 0.060046
Si Si6 0.818374 0.550867 0.525110
O O1 0.042900 0.120858 0.539169
O O2 0.946916 0.097243 0.843481
O O3 0.088871 0.391727 0.484303
O O4 0.994301 0.248989 0.187735
O O5 0.155446 0.202097 0.282004
O O6 0.818819 0.399880 0.642218
O O7 0.729128 0.166772 0.680034
O O8 0.706781 0.399239 0.933793
O O9 0.836884 0.259596 0.991765
O O10 0.384257 0.450382 0.206493
O O11 0.232834 0.488483 0.308636
#
# Coordination Sequence:
#
# PCOD9344302 Si02
#       6
#     2   4   4   4   4   4
#     4  12  22  44  74 102 148 196 246 284 388 442
#     4  12  25  43  74 109 148 193 246 309 371 443
#     4  12  27  46  78 109 146 194 257 307 374 453
#     4  12  23  48  77 106 142 198 252 310 369 448
#     4  12  25  43  74 109 148 193 246 309 371 443
#     4  12  27  46  78 109 146 194 257 307 374 453
#
# _framework density 23.316645000000001
#
# number of rings (size 3 to 8) (size 9 to 14) (size 15 to 20)
#    0.000    0.000    7.273    3.273    0.000    0.000 
#    0.000    5.455    0.000    0.000    0.000    0.000 
#    0.000    0.000    0.000    0.000    0.000    0.000 
#
# Total GULP energy -122859.937385 kJ/mol
# GULP energy per Si atom -5584.542608 kJ/mol
# Density = 2.326358 g / cm^3
# Si number density = 23.316645 Si / 1000 Ang^3
#
#
#
# Elastic Constant Matrix: (Units=GPa)
#
#
# Indices 1 2 3 4 5 6 
#
# 1 67.7515 13.6180 19.6332 0.0000 0.0000 0.0000
# 2 13.6180 54.7168 5.6042 0.0000 0.0000 0.0000
# 3 19.6332 5.6042 68.2533 0.0000 0.0000 0.0000
# 4 0.0000 0.0000 0.0000 11.6057 0.0000 0.0000
# 5 0.0000 0.0000 0.0000 0.0000 98.8016 0.0000
# 6 0.0000 0.0000 0.0000 0.0000 0.0000 40.8396
#
#
#
# Elastic Compliance Matrix: (Units=1/GPa)
#
#
# Indices 1 2 3 4 5 6 
#
# 1 0.016822 -0.003722 -0.004533 0.000000 0.000000 0.000000
# 2 -0.003722 0.019255 -0.000510 0.000000 0.000000 0.000000
# 3 -0.004533 -0.000510 0.015997 0.000000 0.000000 0.000000
# 4 0.000000 0.000000 0.000000 0.086164 0.000000 0.000000
# 5 0.000000 0.000000 0.000000 0.000000 0.010121 0.000000
# 6 0.000000 0.000000 0.000000 0.000000 0.000000 0.024486
#
#
# Mechanical properties :
#
#
# Convention : Reuss Voigt Hill
#
# Bulk Modulus (GPa) = 28.95026 29.82583 29.38804
# Shear Modulus (GPa) = 24.76591 40.37380 32.56986
#
# Velocity S-wave (km/s) = 3.26261 4.16570 3.74150
# Velocity P-wave (km/s) = 5.16100 5.99640 5.59431
#
# Compressibility (1/GPa) = 0.03454201
#
# Stress axis : x y z
#
# Youngs Moduli (GPa) = 59.44730 51.93565 62.51105
#
# Poissons Ratio (x) = 0.19332 0.28337
# Poissons Ratio (y) = 0.22128 0.03190
# Poissons Ratio (z) = 0.26948 0.02650
#
# Static dielectric constant tensor:
#      x y z
#    x 1.939920 0.000000 0.000000 
#    y 0.000000 2.218220 0.000000 
#    z 0.000000 0.000000 1.908220 
# 
# From -- ./inp_files/840.got.cif
#   From: 2010.05.17/outbox.cif.g08.bks.cpg/sg32_1_cif.got.tgz:840.got - 2010.06.03 17:12:27.
