data_PCOD9344933
_publ_section_title
;
Structure prediction by ZEFSAII (Michael W. Deem and Ramdas Pophale) SiO2 
 PCOD9344933
Probable space group: P N A 21
;
_chemical_formula_sum "Si O2"
_cell_formula_units_Z 32
_cell_length_a 15.700142
_cell_length_b 13.359538
_cell_length_c 5.788541
_cell_angle_alpha 90.000000
_cell_angle_beta 90.000000
_cell_angle_gamma 90.000000
_cell_volume 1214.127046
_symmetry_space_group_name_H-M "P N A 21"
_symmetry_group_IT_number 33
_symmetry_cell_setting 'orthorhombic'
loop_
_space_group_symop_operation_xyz
x,y,z
-x,-y,1/2+z
1/2-x,1/2+y,1/2+z
1/2+x,1/2-y,z
loop_
_atom_site_type_symbol
_atom_site_label
_atom_site_fract_x
_atom_site_fract_y
_atom_site_fract_z
Si Si1 0.691480 0.455990 0.159400
Si Si2 0.188952 0.411491 0.904631
Si Si3 0.660654 0.805460 0.549999
Si Si4 0.037466 0.120910 0.635048
Si Si5 0.781956 0.780400 0.178928
Si Si6 0.228632 0.879461 0.802595
Si Si7 0.458626 0.024381 0.165727
Si Si8 0.499791 0.386693 0.142602
O O1 0.720540 0.536269 0.349329
O O2 0.764389 0.371741 0.169324
O O3 0.601588 0.405108 0.164743
O O4 0.690750 0.526222 0.933312
O O5 0.185590 0.293039 0.881763
O O6 0.123700 0.458299 0.730041
O O7 0.187285 0.424484 0.176385
O O8 0.692344 0.818331 0.283685
O O9 0.666974 0.690890 0.642229
O O10 0.574106 0.862912 0.611232
O O11 0.136776 0.152852 0.627952
O O12 0.986658 0.156551 0.404309
O O13 0.993938 0.155797 0.878549
O O14 0.035383 0.000148 0.632615
O O15 0.760910 0.701297 0.983943
O O16 0.504168 0.015691 0.420036
#
# Coordination Sequence:
#
# PCOD9344933 Si02
#       8
#     4   4   4   4   4   4   4   4
#     4  10  20  37  65  91 126 176 221 286 342 412
#     4   9  23  41  62  97 128 173 231 286 341 414
#     4  10  22  41  68  97 128 183 235 299 353 430
#     4  10  21  37  60  90 131 164 213 256 335 406
#     4  10  20  38  66  95 129 174 224 284 343 420
#     4  10  22  38  64  98 134 166 244 287 350 418
#     4  11  27  47  72  98 141 188 241 297 367 434
#     4  10  21  37  57  94 125 166 209 263 325 408
#
# _framework density 26.356383999999998
#
# number of rings (size 3 to 8) (size 9 to 14) (size 15 to 20)
#    0.000    2.000    1.250    0.750   10.500    1.000 
#    2.250    0.000    0.000    0.000    0.000    0.000 
#    0.000    0.000    0.000    0.000    0.000    0.000 
#
# Total GULP energy -178456.036795 kJ/mol
# GULP energy per Si atom -5576.751150 kJ/mol
# Density = 2.629640 g / cm^3
# Si number density = 26.356384 Si / 1000 Ang^3
#
#
#
# Elastic Constant Matrix: (Units=GPa)
#
#
# Indices 1 2 3 4 5 6 
#
# 1 36.9408 -4.6807 41.9602 0.0000 0.0000 0.0000
# 2 -4.6807 79.6670 31.3377 0.0000 0.0000 0.0000
# 3 41.9602 31.3377 188.5231 0.0000 0.0000 0.0000
# 4 0.0000 0.0000 0.0000 40.8979 0.0000 0.0000
# 5 0.0000 0.0000 0.0000 0.0000 45.7747 0.0000
# 6 0.0000 0.0000 0.0000 0.0000 0.0000 20.1683
#
#
#
# Elastic Compliance Matrix: (Units=1/GPa)
#
#
# Indices 1 2 3 4 5 6 
#
# 1 0.038794 0.006073 -0.009644 0.000000 0.000000 0.000000
# 2 0.006073 0.014381 -0.003742 0.000000 0.000000 0.000000
# 3 -0.009644 -0.003742 0.008073 0.000000 0.000000 0.000000
# 4 0.000000 0.000000 0.000000 0.024451 0.000000 0.000000
# 5 0.000000 0.000000 0.000000 0.000000 0.021846 0.000000
# 6 0.000000 0.000000 0.000000 0.000000 0.000000 0.049583
#
#
# Mechanical properties :
#
#
# Convention : Reuss Voigt Hill
#
# Bulk Modulus (GPa) = 21.44926 49.15169 35.30048
# Shear Modulus (GPa) = 26.69575 37.13576 31.91576
#
# Velocity S-wave (km/s) = 3.18602 3.75772 3.48362
# Velocity P-wave (km/s) = 4.65727 6.12508 5.44090
#
# Compressibility (1/GPa) = 0.04662165
#
# Stress axis : x y z
#
# Youngs Moduli (GPa) = 25.77694 69.53585 123.87036
#
# Poissons Ratio (x) = -0.42228 1.19461
# Poissons Ratio (y) = -0.15654 0.46355
# Poissons Ratio (z) = 0.24859 0.26022
#
# Static dielectric constant tensor:
#      x y z
#    x 2.191130 0.000000 0.000000 
#    y 0.000000 2.012650 0.000000 
#    z 0.000000 0.000000 2.267090 
# 
# From -- ./inp_files/1849.got.cif
#   From: 2010.05.17/outbox.cif.g08.bks.cpg/sg33_1_cif.got.tgz:1849.got - 2010.06.03 17:15:25.
