data_PCOD9344718
_publ_section_title
;
Structure prediction by ZEFSAII (Michael W. Deem and Ramdas Pophale) SiO2 
 PCOD9344718
Probable space group: P N A 21
;
_chemical_formula_sum "Si O2"
_cell_formula_units_Z 28
_cell_length_a 14.258202
_cell_length_b 14.478147
_cell_length_c 5.948419
_cell_angle_alpha 90.000000
_cell_angle_beta 90.000000
_cell_angle_gamma 90.000000
_cell_volume 1227.946080
_symmetry_space_group_name_H-M "P N A 21"
_symmetry_group_IT_number 33
_symmetry_cell_setting 'orthorhombic'
loop_
_space_group_symop_operation_xyz
x,y,z
-x,-y,1/2+z
1/2-x,1/2+y,1/2+z
1/2+x,1/2-y,z
loop_
_atom_site_type_symbol
_atom_site_label
_atom_site_fract_x
_atom_site_fract_y
_atom_site_fract_z
Si Si1 0.026422 0.456919 0.092690
Si Si2 0.778562 0.793668 0.304637
Si Si3 0.519193 0.353054 0.876764
Si Si4 0.727834 0.976489 0.009124
Si Si5 0.360564 0.162855 0.186672
Si Si6 0.595171 0.545971 0.702399
Si Si7 0.648239 0.682979 0.055169
O O1 0.001544 0.496456 0.347564
O O2 0.961032 0.366274 0.089164
O O3 0.139566 0.462026 0.087519
O O4 0.886493 0.794981 0.369652
O O5 0.710488 0.790465 0.515910
O O6 0.750298 0.889782 0.177217
O O7 0.749858 0.707689 0.151306
O O8 0.546635 0.449820 0.757007
O O9 0.432546 0.313534 0.740332
O O10 0.482758 0.382083 0.120713
O O11 0.694622 0.927466 0.780295
O O12 0.825159 0.031857 0.012709
O O13 0.374896 0.232968 0.388729
O O14 0.644452 0.587941 0.920432
#
# Coordination Sequence:
#
# PCOD9344718 Si02
#       7
#     4   4   4   4   4   4   4
#     4  10  19  38  65 100 137 181 237 293 359 431
#     4  10  22  42  65  95 135 180 221 283 360 418
#     4  11  24  42  70  99 133 180 232 296 356 423
#     4   9  21  37  64  98 128 176 228 289 348 421
#     4  10  21  39  68  92 139 179 227 284 359 426
#     4  11  23  41  67  97 133 179 239 288 354 425
#     4  11  24  43  63  97 137 177 232 285 354 436
#
# _framework density 22.802302999999998
#
# number of rings (size 3 to 8) (size 9 to 14) (size 15 to 20)
#    0.000    1.714    2.857    0.857    2.000    2.286 
#    0.000    4.286    0.000    0.000    0.000    0.000 
#    0.000    0.000    0.000    0.000    0.000    0.000 
#
# Total GULP energy -156337.972433 kJ/mol
# GULP energy per Si atom -5583.499015 kJ/mol
# Density = 2.275040 g / cm^3
# Si number density = 22.802303 Si / 1000 Ang^3
#
#
#
# Elastic Constant Matrix: (Units=GPa)
#
#
# Indices 1 2 3 4 5 6 
#
# 1 127.9426 35.4707 26.0316 0.0000 0.0000 0.0000
# 2 35.4707 36.9092 18.7366 0.0000 0.0000 0.0000
# 3 26.0316 18.7366 67.3139 0.0000 0.0000 0.0000
# 4 0.0000 0.0000 0.0000 35.5124 0.0000 0.0000
# 5 0.0000 0.0000 0.0000 0.0000 28.1321 0.0000
# 6 0.0000 0.0000 0.0000 0.0000 0.0000 36.1563
#
#
#
# Elastic Compliance Matrix: (Units=1/GPa)
#
#
# Indices 1 2 3 4 5 6 
#
# 1 0.010783 -0.009603 -0.001497 0.000000 0.000000 0.000000
# 2 -0.009603 0.040103 -0.007449 0.000000 0.000000 0.000000
# 3 -0.001497 -0.007449 0.017508 0.000000 0.000000 0.000000
# 4 0.000000 0.000000 0.000000 0.028159 0.000000 0.000000
# 5 0.000000 0.000000 0.000000 0.000000 0.035547 0.000000
# 6 0.000000 0.000000 0.000000 0.000000 0.000000 0.027658
#
#
# Mechanical properties :
#
#
# Convention : Reuss Voigt Hill
#
# Bulk Modulus (GPa) = 31.95222 43.62707 37.78964
# Shear Modulus (GPa) = 24.12110 30.08862 27.10486
#
# Velocity S-wave (km/s) = 3.25597 3.63649 3.45148
# Velocity P-wave (km/s) = 5.30832 6.06683 5.70020
#
# Compressibility (1/GPa) = 0.03129673
#
# Stress axis : x y z
#
# Youngs Moduli (GPa) = 92.74012 24.93563 57.11632
#
# Poissons Ratio (x) = 0.23945 0.08551
# Poissons Ratio (y) = 0.89054 0.42546
# Poissons Ratio (z) = 0.13884 0.18575
#
# Static dielectric constant tensor:
#      x y z
#    x 1.822460 0.000000 0.000000 
#    y 0.000000 1.875750 0.000000 
#    z 0.000000 0.000000 1.880030 
# 
# From -- ./inp_files/1393.got.cif
#   From: 2010.05.17/outbox.cif.g08.bks.cpg/sg33_1_cif.got.tgz:1393.got - 2010.06.03 17:15:25.
