data_PCOD9344787
_publ_section_title
;
Structure prediction by ZEFSAII (Michael W. Deem and Ramdas Pophale) SiO2 
 PCOD9344787
Probable space group: P N A 21
;
_chemical_formula_sum "Si O2"
_cell_formula_units_Z 32
_cell_length_a 10.758004
_cell_length_b 24.901858
_cell_length_c 5.119306
_cell_angle_alpha 90.000000
_cell_angle_beta 90.000000
_cell_angle_gamma 90.000000
_cell_volume 1371.432836
_symmetry_space_group_name_H-M "P N A 21"
_symmetry_group_IT_number 33
_symmetry_cell_setting 'orthorhombic'
loop_
_space_group_symop_operation_xyz
x,y,z
-x,-y,1/2+z
1/2-x,1/2+y,1/2+z
1/2+x,1/2-y,z
loop_
_atom_site_type_symbol
_atom_site_label
_atom_site_fract_x
_atom_site_fract_y
_atom_site_fract_z
Si Si1 0.679964 0.879338 0.191900
Si Si2 0.995241 0.037142 0.154194
Si Si3 0.247915 0.432537 0.895213
Si Si4 0.450653 0.776255 0.651713
Si Si5 0.745690 0.953821 0.587818
Si Si6 0.729880 0.806562 0.697230
Si Si7 0.489299 0.963841 0.701866
Si Si8 0.594144 0.154257 0.649044
O O1 0.732791 0.938244 0.278937
O O2 0.717947 0.842365 0.438497
O O3 0.529973 0.881817 0.180929
O O4 0.726133 0.844175 0.951149
O O5 0.122536 0.069928 0.175877
O O6 0.876564 0.068851 0.051157
O O7 0.024972 0.993899 0.924042
O O8 0.249717 0.486275 0.714698
O O9 0.136417 0.437036 0.106472
O O10 0.212508 0.381742 0.719522
O O11 0.600331 0.771191 0.695389
O O12 0.357259 0.726939 0.693424
O O13 0.424720 0.799242 0.362980
O O14 0.408411 0.820810 0.863319
O O15 0.617162 0.930798 0.705945
O O16 0.479034 0.994031 0.972204
#
# Coordination Sequence:
#
# PCOD9344787 Si02
#       8
#     4   4   4   4   4   4   4   4
#     4  10  21  39  62  93 122 155 200 251 301 358
#     4  10  22  38  54  76 115 162 201 242 290 332
#     4  10  21  39  58  87 123 162 200 240 295 353
#     4  10  22  42  65  89 121 154 196 256 313 362
#     4  10  21  39  58  87 123 162 200 240 295 353
#     4  10  22  42  65  89 121 154 196 256 313 362
#     4  10  20  32  54  80 107 152 199 230 272 338
#     4  10  21  39  62  93 122 155 200 251 301 358
#
# _framework density 23.333258000000001
#
# number of rings (size 3 to 8) (size 9 to 14) (size 15 to 20)
#    0.000    2.000    1.250    1.500    0.000    8.000 
#    6.750    0.000    0.000    0.000    0.000    0.000 
#    0.000    0.000    0.000    0.000    0.000    0.000 
#
# Total GULP energy -178859.228250 kJ/mol
# GULP energy per Si atom -5589.350883 kJ/mol
# Density = 2.328015 g / cm^3
# Si number density = 23.333258 Si / 1000 Ang^3
#
#
#
# Elastic Constant Matrix: (Units=GPa)
#
#
# Indices 1 2 3 4 5 6 
#
# 1 158.5926 24.5473 25.0928 0.0000 0.0000 0.0000
# 2 24.5473 56.5386 26.2789 0.0000 0.0000 0.0000
# 3 25.0928 26.2789 120.0124 0.0000 0.0000 0.0000
# 4 0.0000 0.0000 0.0000 34.2526 0.0000 0.0000
# 5 0.0000 0.0000 0.0000 0.0000 29.8388 0.0000
# 6 0.0000 0.0000 0.0000 0.0000 0.0000 41.4599
#
#
#
# Elastic Compliance Matrix: (Units=1/GPa)
#
#
# Indices 1 2 3 4 5 6 
#
# 1 0.006840 -0.002566 -0.000868 0.000000 0.000000 0.000000
# 2 -0.002566 0.020654 -0.003986 0.000000 0.000000 0.000000
# 3 -0.000868 -0.003986 0.009387 0.000000 0.000000 0.000000
# 4 0.000000 0.000000 0.000000 0.029195 0.000000 0.000000
# 5 0.000000 0.000000 0.000000 0.000000 0.033513 0.000000
# 6 0.000000 0.000000 0.000000 0.000000 0.000000 0.024120
#
#
# Mechanical properties :
#
#
# Convention : Reuss Voigt Hill
#
# Bulk Modulus (GPa) = 45.37227 54.10906 49.74067
# Shear Modulus (GPa) = 34.27097 38.39191 36.33144
#
# Velocity S-wave (km/s) = 3.83660 4.06072 3.95025
# Velocity P-wave (km/s) = 6.25408 6.72502 6.49382
#
# Compressibility (1/GPa) = 0.02203989
#
# Stress axis : x y z
#
# Youngs Moduli (GPa) = 146.19809 48.41716 106.53246
#
# Poissons Ratio (x) = 0.12425 0.09250
# Poissons Ratio (y) = 0.37517 0.42464
# Poissons Ratio (z) = 0.12693 0.19299
#
# Static dielectric constant tensor:
#      x y z
#    x 1.944240 0.000000 0.000000 
#    y 0.000000 1.938040 0.000000 
#    z 0.000000 0.000000 1.983180 
# 
# From -- ./inp_files/1038.got.cif
#   From: 2010.05.17/outbox.cif.g08.bks.cpg/sg33_1_cif.got.tgz:1038.got - 2010.06.03 17:15:25.
