data_PCOD9344899
_publ_section_title
;
Structure prediction by ZEFSAII (Michael W. Deem and Ramdas Pophale) SiO2 
 PCOD9344899
Probable space group: P N A 21
;
_chemical_formula_sum "Si O2"
_cell_formula_units_Z 28
_cell_length_a 7.931454
_cell_length_b 9.386243
_cell_length_c 18.691428
_cell_angle_alpha 90.000000
_cell_angle_beta 90.000000
_cell_angle_gamma 90.000000
_cell_volume 1391.512415
_symmetry_space_group_name_H-M "P N A 21"
_symmetry_group_IT_number 33
_symmetry_cell_setting 'orthorhombic'
loop_
_space_group_symop_operation_xyz
x,y,z
-x,-y,1/2+z
1/2-x,1/2+y,1/2+z
1/2+x,1/2-y,z
loop_
_atom_site_type_symbol
_atom_site_label
_atom_site_fract_x
_atom_site_fract_y
_atom_site_fract_z
Si Si1 0.449242 0.122547 0.112520
Si Si2 0.746731 0.150205 0.207528
Si Si3 0.246859 0.455234 0.901283
Si Si4 0.730632 0.541429 0.013233
Si Si5 0.452468 0.619897 0.801062
Si Si6 0.454015 0.732216 0.463594
Si Si7 0.929067 0.797951 0.957264
O O1 0.604641 0.070564 0.161362
O O2 0.350418 0.247022 0.154092
O O3 0.314077 0.005627 0.087701
O O4 0.524409 0.192690 0.040343
O O5 0.644299 0.254476 0.260575
O O6 0.888418 0.071157 0.254433
O O7 0.316572 0.500802 0.824002
O O8 0.384533 0.354263 0.938538
O O9 0.084608 0.358543 0.907941
O O10 0.263030 0.600070 0.947825
O O11 0.683411 0.394483 0.973025
O O12 0.557263 0.631888 0.013635
O O13 0.865634 0.641848 0.974303
O O14 0.511174 0.680451 0.878489
#
# Coordination Sequence:
#
# PCOD9344899 Si02
#       7
#     4   4   4   4   4   4   4
#     4  11  21  35  60  89 113 153 203 240 285 350
#     4  10  20  37  57  83 116 160 203 235 268 367
#     4   9  21  34  58  89 117 145 191 248 306 347
#     4  11  21  36  57  93 120 148 191 243 311 345
#     4   9  20  36  57  85 111 153 196 236 292 340
#     4  11  19  36  59  92 114 148 190 253 307 340
#     4   9  22  36  58  91 117 147 186 249 305 347
#
# _framework density 20.12199
#
# number of rings (size 3 to 8) (size 9 to 14) (size 15 to 20)
#    0.857    1.143    2.857    0.857    2.000    0.000 
#    0.000    0.000    0.000    5.143    0.000    0.000 
#    0.000    0.000    0.000    0.000    0.000    0.000 
#
# Total GULP energy -155931.872331 kJ/mol
# GULP energy per Si atom -5568.995440 kJ/mol
# Density = 2.007619 g / cm^3
# Si number density = 20.121990 Si / 1000 Ang^3
#
#
#
# Elastic Constant Matrix: (Units=GPa)
#
#
# Indices 1 2 3 4 5 6 
#
# 1 39.1017 11.1944 -7.2541 0.0000 0.0000 0.0000
# 2 11.1944 61.0278 8.8183 0.0000 0.0000 0.0000
# 3 -7.2541 8.8183 31.2032 0.0000 0.0000 0.0000
# 4 0.0000 0.0000 0.0000 119.2619 0.0000 0.0000
# 5 0.0000 0.0000 0.0000 0.0000 45.3928 0.0000
# 6 0.0000 0.0000 0.0000 0.0000 0.0000 20.0322
#
#
#
# Elastic Compliance Matrix: (Units=1/GPa)
#
#
# Indices 1 2 3 4 5 6 
#
# 1 0.029054 -0.006574 0.008612 0.000000 0.000000 0.000000
# 2 -0.006574 0.018571 -0.006777 0.000000 0.000000 0.000000
# 3 0.008612 -0.006777 0.035965 0.000000 0.000000 0.000000
# 4 0.000000 0.000000 0.000000 0.008385 0.000000 0.000000
# 5 0.000000 0.000000 0.000000 0.000000 0.022030 0.000000
# 6 0.000000 0.000000 0.000000 0.000000 0.000000 0.049920
#
#
# Mechanical properties :
#
#
# Convention : Reuss Voigt Hill
#
# Bulk Modulus (GPa) = 13.49269 17.42775 15.46022
# Shear Modulus (GPa) = 25.23899 44.84232 35.04066
#
# Velocity S-wave (km/s) = 3.54545 4.72584 4.17755
# Velocity P-wave (km/s) = 4.84565 6.20145 5.56499
#
# Compressibility (1/GPa) = 0.07411422
#
# Stress axis : x y z
#
# Youngs Moduli (GPa) = 34.41846 53.84725 27.80454
#
# Poissons Ratio (x) = 0.35399 -0.23946
# Poissons Ratio (y) = 0.22626 0.18842
# Poissons Ratio (z) = -0.29643 0.36490
#
# Static dielectric constant tensor:
#      x y z
#    x 1.834180 0.000000 0.000000 
#    y 0.000000 1.608820 0.000000 
#    z 0.000000 0.000000 1.718310 
# 
# From -- ./inp_files/8488.got.cif
#   From: 2010.05.17/outbox.cif.g08.bks.cpg/sg33_5_cif.got.tgz:8488.got - 2010.06.03 17:15:25.
