data_PCOD9344218
_publ_section_title
;
Structure prediction by ZEFSAII (Michael W. Deem and Ramdas Pophale) SiO2 
 PCOD9344218
Probable space group: P B A 2
;
_chemical_formula_sum "Si O2"
_cell_formula_units_Z 18
_cell_length_a 15.431798
_cell_length_b 9.250998
_cell_length_c 5.073847
_cell_angle_alpha 90.000000
_cell_angle_beta 90.000000
_cell_angle_gamma 90.000000
_cell_volume 724.340025
_symmetry_space_group_name_H-M "P B A 2"
_symmetry_group_IT_number 32
_symmetry_cell_setting 'orthorhombic'
loop_
_space_group_symop_operation_xyz
x,y,z
-x,-y,z
1/2-x,1/2+y,z
1/2+x,1/2-y,z
loop_
_atom_site_type_symbol
_atom_site_label
_atom_site_fract_x
_atom_site_fract_y
_atom_site_fract_z
Si Si1 0.737624 0.617134 0.906450
Si Si2 0.069177 0.765396 0.111951
Si Si3 0.500000 0.000000 0.417450
Si Si4 0.662183 0.495297 0.398194
Si Si5 0.591120 0.241529 0.753891
O O1 0.657372 0.727795 0.944234
O O2 0.728208 0.558216 0.613107
O O3 0.829863 0.689905 0.936425
O O4 0.713449 0.495251 0.121907
O O5 0.986279 0.803000 0.933814
O O6 0.087415 0.886274 0.335201
O O7 0.053807 0.609949 0.237343
O O8 0.556571 0.101698 0.602981
O O9 0.623795 0.354524 0.534956
#
# Coordination Sequence:
#
# PCOD9344218 Si02
#       5
#     4   4   2   4   4
#     4  10  27  54  81 122 167 216 291 343 417 508
#     4  10  27  52  78 128 166 220 289 341 419 516
#     4  12  28  46  84 124 176 218 286 346 438 490
#     4  10  27  52  84 118 166 216 289 338 417 507
#     4  12  28  54  85 121 176 226 275 362 423 496
#
# _framework density 24.850207000000001
#
# number of rings (size 3 to 8) (size 9 to 14) (size 15 to 20)
#    1.333    0.000    0.000    2.000    6.222   10.667 
#    4.000    0.000    0.000    0.000    0.000    0.000 
#    0.000    0.000    0.000    0.000    0.000    0.000 
#
# Total GULP energy -100835.892943 kJ/mol
# GULP energy per Si atom -5601.994052 kJ/mol
# Density = 2.479365 g / cm^3
# Si number density = 24.850207 Si / 1000 Ang^3
#
#
#
# Elastic Constant Matrix: (Units=GPa)
#
#
# Indices 1 2 3 4 5 6 
#
# 1 101.7372 15.4504 17.7262 0.0000 0.0000 0.0000
# 2 15.4504 120.8795 25.9183 0.0000 0.0000 0.0000
# 3 17.7262 25.9183 101.4899 0.0000 0.0000 0.0000
# 4 0.0000 0.0000 0.0000 55.6839 0.0000 0.0000
# 5 0.0000 0.0000 0.0000 0.0000 21.1194 0.0000
# 6 0.0000 0.0000 0.0000 0.0000 0.0000 24.4065
#
#
#
# Elastic Compliance Matrix: (Units=1/GPa)
#
#
# Indices 1 2 3 4 5 6 
#
# 1 0.010246 -0.000980 -0.001539 0.000000 0.000000 0.000000
# 2 -0.000980 0.008846 -0.002088 0.000000 0.000000 0.000000
# 3 -0.001539 -0.002088 0.010655 0.000000 0.000000 0.000000
# 4 0.000000 0.000000 0.000000 0.017959 0.000000 0.000000
# 5 0.000000 0.000000 0.000000 0.000000 0.047350 0.000000
# 6 0.000000 0.000000 0.000000 0.000000 0.000000 0.040973
#
#
# Mechanical properties :
#
#
# Convention : Reuss Voigt Hill
#
# Bulk Modulus (GPa) = 48.70134 49.14405 48.92270
# Shear Modulus (GPa) = 32.87606 37.90940 35.39273
#
# Velocity S-wave (km/s) = 3.64121 3.91002 3.77801
# Velocity P-wave (km/s) = 6.10888 6.34062 6.22583
#
# Compressibility (1/GPa) = 0.02053332
#
# Stress axis : x y z
#
# Youngs Moduli (GPa) = 97.59681 113.05089 93.85025
#
# Poissons Ratio (x) = 0.11074 0.14448
# Poissons Ratio (y) = 0.09560 0.19595
# Poissons Ratio (z) = 0.15025 0.23604
#
# Static dielectric constant tensor:
#      x y z
#    x 1.951380 0.000000 0.000000 
#    y 0.000000 1.942740 0.000000 
#    z 0.000000 0.000000 1.959830 
# 
# From -- ./inp_files/1367.got.cif
#   From: 2010.05.17/outbox.cif.g08.bks.cpg/sg32_1_cif.got.tgz:1367.got - 2010.06.03 17:12:27.
