data_PCOD9344170
_publ_section_title
;
Structure prediction by ZEFSAII (Michael W. Deem and Ramdas Pophale) SiO2 
 PCOD9344170
Probable space group: P B A 2
;
_chemical_formula_sum "Si O2"
_cell_formula_units_Z 30
_cell_length_a 12.790378
_cell_length_b 11.901948
_cell_length_c 8.928355
_cell_angle_alpha 90.000000
_cell_angle_beta 90.000000
_cell_angle_gamma 90.000000
_cell_volume 1359.167177
_symmetry_space_group_name_H-M "P B A 2"
_symmetry_group_IT_number 32
_symmetry_cell_setting 'orthorhombic'
loop_
_space_group_symop_operation_xyz
x,y,z
-x,-y,z
1/2-x,1/2+y,z
1/2+x,1/2-y,z
loop_
_atom_site_type_symbol
_atom_site_label
_atom_site_fract_x
_atom_site_fract_y
_atom_site_fract_z
Si Si1 0.090407 0.406447 0.280310
Si Si2 0.500000 0.000000 0.855758
Si Si3 0.487043 0.367889 0.566977
Si Si4 0.558179 0.711658 0.248240
Si Si5 0.314092 0.334942 0.799559
Si Si6 0.888543 0.657282 0.619329
Si Si7 0.818586 0.362375 0.013407
Si Si8 0.692287 0.539815 0.111316
O O1 0.098583 0.401693 0.459811
O O2 0.204270 0.429719 0.209742
O O3 0.000000 0.500000 0.249719
O O4 0.047845 0.283647 0.229630
O O5 0.538176 0.100402 0.746153
O O6 0.404762 0.045774 0.958426
O O7 0.500000 0.500000 0.533183
O O8 0.430090 0.305721 0.426737
O O9 0.422651 0.356793 0.719228
O O10 0.587885 0.289452 0.593910
O O11 0.587953 0.589567 0.183392
O O12 0.636317 0.788469 0.150062
O O13 0.226910 0.360058 0.678767
O O14 0.302823 0.210672 0.865348
O O15 0.299796 0.408294 0.946683
O O16 0.710121 0.410067 0.076510
#
# Coordination Sequence:
#
# PCOD9344170 Si02
#       8
#     4   2   4   4   4   4   4   4
#     4  11  21  41  69 100 131 179 231 285 342 414
#     4  12  20  40  70 104 134 174 238 296 336 414
#     4  11  26  50  66 100 147 185 231 286 352 420
#     4  10  24  45  65  98 136 179 229 282 346 419
#     4  11  25  42  67 103 136 180 228 277 356 415
#     4  11  24  41  72  99 136 183 230 288 343 411
#     4  11  22  41  68  98 138 174 230 289 343 418
#     4  11  23  41  67 101 134 179 227 290 346 404
#
# _framework density 22.072340000000001
#
# number of rings (size 3 to 8) (size 9 to 14) (size 15 to 20)
#    0.000    1.067    4.667    1.600    1.867    0.000 
#   12.000    2.667    0.000    0.000    0.000    0.000 
#    0.000    0.000    0.000    0.000    0.000    0.000 
#
# Total GULP energy -167294.022430 kJ/mol
# GULP energy per Si atom -5576.467414 kJ/mol
# Density = 2.202210 g / cm^3
# Si number density = 22.072340 Si / 1000 Ang^3
#
#
#
# Elastic Constant Matrix: (Units=GPa)
#
#
# Indices 1 2 3 4 5 6 
#
# 1 24.9564 10.4162 20.9709 0.0000 0.0000 0.0000
# 2 10.4162 73.5035 30.7036 0.0000 0.0000 0.0000
# 3 20.9709 30.7036 106.4569 0.0000 0.0000 0.0000
# 4 0.0000 0.0000 0.0000 34.9907 0.0000 0.0000
# 5 0.0000 0.0000 0.0000 0.0000 17.3540 0.0000
# 6 0.0000 0.0000 0.0000 0.0000 0.0000 34.1355
#
#
#
# Elastic Compliance Matrix: (Units=1/GPa)
#
#
# Indices 1 2 3 4 5 6 
#
# 1 0.048709 -0.003291 -0.008646 0.000000 0.000000 0.000000
# 2 -0.003291 0.015691 -0.003877 0.000000 0.000000 0.000000
# 3 -0.008646 -0.003877 0.012215 0.000000 0.000000 0.000000
# 4 0.000000 0.000000 0.000000 0.028579 0.000000 0.000000
# 5 0.000000 0.000000 0.000000 0.000000 0.057624 0.000000
# 6 0.000000 0.000000 0.000000 0.000000 0.000000 0.029295
#
#
# Mechanical properties :
#
#
# Convention : Reuss Voigt Hill
#
# Bulk Modulus (GPa) = 22.22904 36.56647 29.39776
# Shear Modulus (GPa) = 20.94367 26.81776 23.88072
#
# Velocity S-wave (km/s) = 3.08371 3.48946 3.29284
# Velocity P-wave (km/s) = 4.77199 5.73042 5.27302
#
# Compressibility (1/GPa) = 0.04498619
#
# Stress axis : x y z
#
# Youngs Moduli (GPa) = 20.53019 63.73197 81.86756
#
# Poissons Ratio (x) = 0.20974 0.70782
# Poissons Ratio (y) = 0.06756 0.31741
# Poissons Ratio (z) = 0.17750 0.24710
#
# Static dielectric constant tensor:
#      x y z
#    x 1.818760 0.000000 0.000000 
#    y 0.000000 1.937840 0.000000 
#    z 0.000000 0.000000 1.764140 
# 
# From -- ./inp_files/3072.got.cif
#   From: 2010.05.17/outbox.cif.g08.bks.cpg/sg32_2_cif.got.tgz:3072.got - 2010.06.03 17:12:27.
