data_PCOD9344252
_publ_section_title
;
Structure prediction by ZEFSAII (Michael W. Deem and Ramdas Pophale) SiO2 
 PCOD9344252
Probable space group: P B A 2
;
_chemical_formula_sum "Si O2"
_cell_formula_units_Z 32
_cell_length_a 15.347782
_cell_length_b 15.759384
_cell_length_c 5.312456
_cell_angle_alpha 90.000000
_cell_angle_beta 90.000000
_cell_angle_gamma 90.000000
_cell_volume 1284.932180
_symmetry_space_group_name_H-M "P B A 2"
_symmetry_group_IT_number 32
_symmetry_cell_setting 'orthorhombic'
loop_
_space_group_symop_operation_xyz
x,y,z
-x,-y,z
1/2-x,1/2+y,z
1/2+x,1/2-y,z
loop_
_atom_site_type_symbol
_atom_site_label
_atom_site_fract_x
_atom_site_fract_y
_atom_site_fract_z
Si Si1 0.642291 0.146205 0.923870
Si Si2 0.180122 0.634600 0.953098
Si Si3 0.110944 0.190829 0.246085
Si Si4 0.982079 0.412679 0.653997
Si Si5 0.207892 0.975558 0.057729
Si Si6 0.743165 0.730704 0.568248
Si Si7 0.603289 0.489910 0.531519
Si Si8 0.566990 0.756144 0.339885
O O1 0.554378 0.094148 0.872349
O O2 0.716035 0.095082 0.076012
O O3 0.695728 0.156115 0.664486
O O4 0.612306 0.239765 0.008662
O O5 0.241550 0.565631 0.081331
O O6 0.234950 0.699591 0.788004
O O7 0.115009 0.586789 0.762721
O O8 0.118224 0.689426 0.132874
O O9 0.202369 0.229386 0.346054
O O10 0.117340 0.105666 0.425536
O O11 0.005036 0.191963 0.251628
O O12 0.000000 0.500000 0.509519
O O13 0.988078 0.326450 0.495965
O O14 0.156112 0.986254 0.789471
O O15 0.141739 0.961440 0.286859
O O16 0.642996 0.714343 0.504164
O O17 0.500000 0.500000 0.577325
#
# Coordination Sequence:
#
# PCOD9344252 Si02
#       8
#     4   4   4   4   4   4   4   4
#     4  12  26  44  75 110 153 193 266 324 404 477
#     4  11  23  46  71 105 145 193 251 316 391 480
#     4  12  26  47  76 109 151 204 262 334 398 472
#     4  11  23  42  66 108 151 193 237 321 395 479
#     4  12  28  50  81 114 154 212 266 327 410 480
#     4  11  24  45  68 105 144 191 252 317 383 469
#     4  12  30  54  79 113 162 215 273 333 400 483
#     4  11  25  41  74 108 142 196 257 313 397 468
#
# _framework density 24.904036000000001
#
# number of rings (size 3 to 8) (size 9 to 14) (size 15 to 20)
#    0.000    0.500    5.000    2.625    5.250    2.500 
#    0.000    0.000    0.000    0.000    0.000    0.000 
#    0.000    0.000    0.000    0.000    0.000    0.000 
#
# Total GULP energy -178141.786745 kJ/mol
# GULP energy per Si atom -5566.930836 kJ/mol
# Density = 2.484735 g / cm^3
# Si number density = 24.904036 Si / 1000 Ang^3
#
#
#
# Elastic Constant Matrix: (Units=GPa)
#
#
# Indices 1 2 3 4 5 6 
#
# 1 132.1520 18.3058 -9.3648 0.0000 0.0000 0.0000
# 2 18.3058 25.4623 52.6020 0.0000 0.0000 0.0000
# 3 -9.3648 52.6020 15.2691 0.0000 0.0000 0.0000
# 4 0.0000 0.0000 0.0000 -188.7958 0.0000 0.0000
# 5 0.0000 0.0000 0.0000 0.0000 24.1449 0.0000
# 6 0.0000 0.0000 0.0000 0.0000 0.0000 63.1956
#
#
#
# Elastic Compliance Matrix: (Units=1/GPa)
#
#
# Indices 1 2 3 4 5 6 
#
# 1 0.007002 0.002273 -0.003537 0.000000 0.000000 0.000000
# 2 0.002273 -0.005682 0.020970 0.000000 0.000000 0.000000
# 3 -0.003537 0.020970 -0.008920 0.000000 0.000000 0.000000
# 4 0.000000 0.000000 0.000000 -0.005297 0.000000 0.000000
# 5 0.000000 0.000000 0.000000 0.000000 0.041417 0.000000
# 6 0.000000 0.000000 0.000000 0.000000 0.000000 0.015824
#
#
# Mechanical properties :
#
#
# Convention : Reuss Voigt Hill
#
# Bulk Modulus (GPa) = 31.43453 32.88548 32.16000
# Shear Modulus (GPa) = 321.87462 -12.86836 154.50313
#
# Velocity S-wave (km/s) = 11.38097 -2.27561 7.88505
# Velocity P-wave (km/s) = 13.61439 2.51575 9.78981
#
# Compressibility (1/GPa) = 0.03181216
#
# Stress axis : x y z
#
# Youngs Moduli (GPa) = 142.82606 -175.98030 -112.10869
#
# Poissons Ratio (x) = 0.40003 -0.39652
# Poissons Ratio (y) = -0.32467 2.35095
# Poissons Ratio (z) = 0.50516 3.69035
#
# Static dielectric constant tensor:
#      x y z
#    x 1.703760 0.000000 0.000000 
#    y 0.000000 2.244960 0.000000 
#    z 0.000000 0.000000 2.109480 
# 
# From -- ./inp_files/1298.got.cif
#   From: 2010.05.17/outbox.cif.g08.bks.cpg/sg32_1_cif.got.tgz:1298.got - 2010.06.03 17:12:27.
