data_PCOD9344085
_publ_section_title
;
Structure prediction by ZEFSAII (Michael W. Deem and Ramdas Pophale) SiO2 
 PCOD9344085
Probable space group: P B A 2
;
_chemical_formula_sum "Si O2"
_cell_formula_units_Z 28
_cell_length_a 18.309958
_cell_length_b 10.807905
_cell_length_c 6.804023
_cell_angle_alpha 90.000000
_cell_angle_beta 90.000000
_cell_angle_gamma 90.000000
_cell_volume 1346.463670
_symmetry_space_group_name_H-M "P B A 2"
_symmetry_group_IT_number 32
_symmetry_cell_setting 'orthorhombic'
loop_
_space_group_symop_operation_xyz
x,y,z
-x,-y,z
1/2-x,1/2+y,z
1/2+x,1/2-y,z
loop_
_atom_site_type_symbol
_atom_site_label
_atom_site_fract_x
_atom_site_fract_y
_atom_site_fract_z
Si Si1 0.000000 0.500000 0.682420
Si Si2 0.596331 0.388592 0.192515
Si Si3 0.103174 0.620872 0.378843
Si Si4 0.983868 0.300426 0.001883
Si Si5 0.755349 0.324289 0.149881
Si Si6 0.611947 0.676884 0.701069
Si Si7 0.201135 0.941055 0.974975
Si Si8 0.500000 0.500000 0.531360
O O1 0.068145 0.527886 0.538068
O O2 0.982958 0.611219 0.833480
O O3 0.673365 0.322267 0.238357
O O4 0.554023 0.426693 0.387330
O O5 0.542116 0.303507 0.064857
O O6 0.625413 0.510617 0.077149
O O7 0.183423 0.612051 0.286355
O O8 0.112185 0.745635 0.504477
O O9 0.045271 0.635928 0.201250
O O10 0.910049 0.255943 0.891938
O O11 0.771636 0.183151 0.085134
O O12 0.747504 0.432064 0.982402
O O13 0.683967 0.602371 0.755011
O O14 0.545293 0.586844 0.670033
#
# Coordination Sequence:
#
# PCOD9344085 Si02
#       8
#     2   4   4   4   4   4   4   2
#     4  10  26  38  76 110 134 198 250 304 362 454
#     4  10  23  41  75  97 141 194 233 299 368 429
#     4  11  22  46  71 101 145 191 240 297 374 436
#     4  11  21  45  70 102 144 186 243 306 361 430
#     4  10  24  45  72  99 144 197 226 298 378 436
#     4  11  22  38  73 102 133 179 243 301 349 428
#     4  10  22  46  68 101 140 193 236 289 373 431
#     4  12  20  40  68 110 128 176 252 300 346 434
#
# _framework density 20.795213
#
# number of rings (size 3 to 8) (size 9 to 14) (size 15 to 20)
#    0.857    0.571    2.857    3.000    0.000    2.286 
#    2.571    0.000    3.143    0.000    0.000    0.000 
#    0.000    0.000    0.000    0.000    0.000    0.000 
#
# Total GULP energy -155885.493925 kJ/mol
# GULP energy per Si atom -5567.339069 kJ/mol
# Density = 2.074788 g / cm^3
# Si number density = 20.795213 Si / 1000 Ang^3
#
#
#
# Elastic Constant Matrix: (Units=GPa)
#
#
# Indices 1 2 3 4 5 6 
#
# 1 83.0481 11.1190 17.9583 0.0000 0.0000 0.0000
# 2 11.1190 60.8213 19.6044 0.0000 0.0000 0.0000
# 3 17.9583 19.6044 88.3849 0.0000 0.0000 0.0000
# 4 0.0000 0.0000 0.0000 16.9080 0.0000 0.0000
# 5 0.0000 0.0000 0.0000 0.0000 18.0770 0.0000
# 6 0.0000 0.0000 0.0000 0.0000 0.0000 25.9693
#
#
#
# Elastic Compliance Matrix: (Units=1/GPa)
#
#
# Indices 1 2 3 4 5 6 
#
# 1 0.012739 -0.001610 -0.002231 0.000000 0.000000 0.000000
# 2 -0.001610 0.017911 -0.003646 0.000000 0.000000 0.000000
# 3 -0.002231 -0.003646 0.012576 0.000000 0.000000 0.000000
# 4 0.000000 0.000000 0.000000 0.059144 0.000000 0.000000
# 5 0.000000 0.000000 0.000000 0.000000 0.055319 0.000000
# 6 0.000000 0.000000 0.000000 0.000000 0.000000 0.038507
#
#
# Mechanical properties :
#
#
# Convention : Reuss Voigt Hill
#
# Bulk Modulus (GPa) = 35.39463 36.62418 36.00941
# Shear Modulus (GPa) = 22.66678 24.42903 23.54790
#
# Velocity S-wave (km/s) = 3.30510 3.43117 3.36872
# Velocity P-wave (km/s) = 5.62338 5.77471 5.69955
#
# Compressibility (1/GPa) = 0.02825287
#
# Stress axis : x y z
#
# Youngs Moduli (GPa) = 78.49760 55.83164 79.51549
#
# Poissons Ratio (x) = 0.08987 0.17743
# Poissons Ratio (y) = 0.12636 0.28989
# Poissons Ratio (z) = 0.17516 0.20355
#
# Static dielectric constant tensor:
#      x y z
#    x 1.696370 0.000000 0.000000 
#    y 0.000000 1.833000 0.000000 
#    z 0.000000 0.000000 1.745220 
# 
# From -- ./inp_files/1571.got.cif
#   From: 2010.05.17/outbox.cif.g08.bks.cpg/sg32_1_cif.got.tgz:1571.got - 2010.06.03 17:12:27.
