data_PCOD9344988
_publ_section_title
;
Structure prediction by ZEFSAII (Michael W. Deem and Ramdas Pophale) SiO2 
 PCOD9344988
Probable space group: P N A 21
;
_chemical_formula_sum "Si O2"
_cell_formula_units_Z 32
_cell_length_a 7.776720
_cell_length_b 20.387762
_cell_length_c 9.535380
_cell_angle_alpha 90.000000
_cell_angle_beta 90.000000
_cell_angle_gamma 90.000000
_cell_volume 1511.833703
_symmetry_space_group_name_H-M "P N A 21"
_symmetry_group_IT_number 33
_symmetry_cell_setting 'orthorhombic'
loop_
_space_group_symop_operation_xyz
x,y,z
-x,-y,1/2+z
1/2-x,1/2+y,1/2+z
1/2+x,1/2-y,z
loop_
_atom_site_type_symbol
_atom_site_label
_atom_site_fract_x
_atom_site_fract_y
_atom_site_fract_z
Si Si1 0.865269 0.744047 0.845020
Si Si2 0.889071 0.150099 0.448115
Si Si3 0.911931 0.638884 0.431419
Si Si4 0.368168 0.179952 0.165829
Si Si5 0.892996 0.094710 0.755885
Si Si6 0.684467 0.460049 0.138578
Si Si7 0.791777 0.065950 0.174573
Si Si8 0.272758 0.057767 0.836649
O O1 0.746794 0.709287 0.957815
O O2 0.768328 0.763290 0.700607
O O3 0.939810 0.811739 0.902227
O O4 0.006657 0.691933 0.796981
O O5 0.907819 0.113060 0.592565
O O6 0.826033 0.107204 0.316266
O O7 0.742342 0.642705 0.333652
O O8 0.832554 0.599236 0.563688
O O9 0.031210 0.689968 0.519275
O O10 0.058703 0.602022 0.342234
O O11 0.280978 0.108304 0.172566
O O12 0.087246 0.093464 0.816982
O O13 0.816887 0.019559 0.750844
O O14 0.482957 0.444718 0.115204
O O15 0.762627 0.478253 0.987810
O O16 0.716353 0.996137 0.217052
#
# Coordination Sequence:
#
# PCOD9344988 Si02
#       8
#     4   4   4   4   4   4   4   4
#     4  10  22  41  67  96 127 173 241 269 335 401
#     4  11  22  42  68  94 127 175 221 289 329 397
#     4  11  24  40  63  98 134 174 224 272 337 402
#     4  10  21  39  66  98 125 170 229 284 323 404
#     4  11  24  43  64  98 143 174 218 279 353 405
#     4  10  20  38  64  97 135 172 218 277 340 399
#     4  11  20  39  65  95 128 176 220 272 329 395
#     4  10  23  38  61  98 135 176 213 266 342 403
#
# _framework density 21.166346999999998
#
# number of rings (size 3 to 8) (size 9 to 14) (size 15 to 20)
#    0.000    1.500    5.000    0.000    3.500    0.000 
#    4.500    1.250    0.000    0.000    0.000    0.000 
#    0.000    0.000    0.000    0.000    0.000    0.000 
#
# Total GULP energy -178273.404309 kJ/mol
# GULP energy per Si atom -5571.043885 kJ/mol
# Density = 2.111817 g / cm^3
# Si number density = 21.166347 Si / 1000 Ang^3
#
#
#
# Elastic Constant Matrix: (Units=GPa)
#
#
# Indices 1 2 3 4 5 6 
#
# 1 59.4788 4.3033 7.1068 0.0000 0.0000 0.0000
# 2 4.3033 32.1344 2.2866 0.0000 0.0000 0.0000
# 3 7.1068 2.2866 61.1947 0.0000 0.0000 0.0000
# 4 0.0000 0.0000 0.0000 26.0404 0.0000 0.0000
# 5 0.0000 0.0000 0.0000 0.0000 25.9600 0.0000
# 6 0.0000 0.0000 0.0000 0.0000 0.0000 17.4151
#
#
#
# Elastic Compliance Matrix: (Units=1/GPa)
#
#
# Indices 1 2 3 4 5 6 
#
# 1 0.017198 -0.002167 -0.001916 0.000000 0.000000 0.000000
# 2 -0.002167 0.031475 -0.000924 0.000000 0.000000 0.000000
# 3 -0.001916 -0.000924 0.016598 0.000000 0.000000 0.000000
# 4 0.000000 0.000000 0.000000 0.038402 0.000000 0.000000
# 5 0.000000 0.000000 0.000000 0.000000 0.038521 0.000000
# 6 0.000000 0.000000 0.000000 0.000000 0.000000 0.057422
#
#
# Mechanical properties :
#
#
# Convention : Reuss Voigt Hill
#
# Bulk Modulus (GPa) = 18.09727 20.02234 19.05980
# Shear Modulus (GPa) = 21.92497 23.15717 22.54107
#
# Velocity S-wave (km/s) = 3.22194 3.31124 3.26690
# Velocity P-wave (km/s) = 4.73390 4.90909 4.82229
#
# Compressibility (1/GPa) = 0.05525696
#
# Stress axis : x y z
#
# Youngs Moduli (GPa) = 58.14481 31.77099 60.24681
#
# Poissons Ratio (x) = 0.06884 0.11545
# Poissons Ratio (y) = 0.12599 0.05570
# Poissons Ratio (z) = 0.11143 0.02937
#
# Static dielectric constant tensor:
#      x y z
#    x 1.845580 0.000000 0.000000 
#    y 0.000000 1.800800 0.000000 
#    z 0.000000 0.000000 1.755830 
# 
# From -- ./inp_files/3442.got.cif
#   From: 2010.05.17/outbox.cif.g08.bks.cpg/sg33_2_cif.got.tgz:3442.got - 2010.06.03 17:15:25.
