data_PCOD9344640
_publ_section_title
;
Structure prediction by ZEFSAII (Michael W. Deem and Ramdas Pophale) SiO2 
 PCOD9344640
Probable space group: P N A 21
;
_chemical_formula_sum "Si O2"
_cell_formula_units_Z 24
_cell_length_a 23.952762
_cell_length_b 5.379506
_cell_length_c 7.210602
_cell_angle_alpha 90.000000
_cell_angle_beta 90.000000
_cell_angle_gamma 90.000000
_cell_volume 929.115104
_symmetry_space_group_name_H-M "P N A 21"
_symmetry_group_IT_number 33
_symmetry_cell_setting 'orthorhombic'
loop_
_space_group_symop_operation_xyz
x,y,z
-x,-y,1/2+z
1/2-x,1/2+y,1/2+z
1/2+x,1/2-y,z
loop_
_atom_site_type_symbol
_atom_site_label
_atom_site_fract_x
_atom_site_fract_y
_atom_site_fract_z
Si Si1 0.491104 0.095734 0.125000
Si Si2 0.341335 0.491938 0.328363
Si Si3 0.537387 0.615633 0.988466
Si Si4 0.626350 0.004023 0.442919
Si Si5 0.787199 0.506137 0.277811
Si Si6 0.659006 0.504156 0.374433
O O1 0.490221 0.224740 0.323930
O O2 0.427579 0.017638 0.073209
O O3 0.510322 0.342810 0.012370
O O4 0.526537 0.839673 0.135466
O O5 0.400298 0.446662 0.422500
O O6 0.304654 0.251682 0.370979
O O7 0.345591 0.496798 0.101674
O O8 0.312475 0.751545 0.377445
O O9 0.682525 0.007013 0.574895
O O10 0.631105 0.759947 0.320944
O O11 0.627432 0.253295 0.323587
O O12 0.720969 0.510887 0.294583
#
# Coordination Sequence:
#
# PCOD9344640 Si02
#       6
#     4   4   4   4   4   4
#     4  12  25  44  76 103 143 194 242 296 369 429
#     4  10  21  39  64  93 131 175 221 291 354 405
#     4  12  25  44  76 103 143 194 242 296 369 429
#     4  10  21  39  64  93 131 175 221 291 354 405
#     4  10  19  35  67  92 122 173 226 270 355 417
#     4  10  19  35  67  92 122 173 226 270 355 417
#
# _framework density 25.831030999999999
#
# number of rings (size 3 to 8) (size 9 to 14) (size 15 to 20)
#    0.000    1.333    3.333    4.000    4.667    0.000 
#    0.000    0.000   73.333    0.000    0.000    0.000 
#    0.000    0.000    0.000    0.000    0.000    0.000 
#
# Total GULP energy -134214.409565 kJ/mol
# GULP energy per Si atom -5592.267065 kJ/mol
# Density = 2.577224 g / cm^3
# Si number density = 25.831031 Si / 1000 Ang^3
#
#
#
# Elastic Constant Matrix: (Units=GPa)
#
#
# Indices 1 2 3 4 5 6 
#
# 1 140.0857 52.6630 39.5878 0.0000 0.0000 0.0000
# 2 52.6630 254.6014 18.0652 0.0000 0.0000 0.0000
# 3 39.5878 18.0652 77.9849 0.0000 0.0000 0.0000
# 4 0.0000 0.0000 0.0000 -9.9895 0.0000 0.0000
# 5 0.0000 0.0000 0.0000 0.0000 30.3111 0.0000
# 6 0.0000 0.0000 0.0000 0.0000 0.0000 50.3787
#
#
#
# Elastic Compliance Matrix: (Units=1/GPa)
#
#
# Indices 1 2 3 4 5 6 
#
# 1 0.008894 -0.001545 -0.004157 0.000000 0.000000 0.000000
# 2 -0.001545 0.004262 -0.000203 0.000000 0.000000 0.000000
# 3 -0.004157 -0.000203 0.014980 0.000000 0.000000 0.000000
# 4 0.000000 0.000000 0.000000 -0.100106 0.000000 0.000000
# 5 0.000000 0.000000 0.000000 0.000000 0.032991 0.000000
# 6 0.000000 0.000000 0.000000 0.000000 0.000000 0.019850
#
#
# Mechanical properties :
#
#
# Convention : Reuss Voigt Hill
#
# Bulk Modulus (GPa) = 61.25105 77.03379 69.14242
# Shear Modulus (GPa) = -2663.64325 38.29715 -1312.67305
#
# Velocity S-wave (km/s) = -32.14682 3.85464 -22.56723
# Velocity P-wave (km/s) = 36.79847 7.04967 25.53849
#
# Compressibility (1/GPa) = 0.01632625
#
# Stress axis : x y z
#
# Youngs Moduli (GPa) = 112.43587 234.65194 66.75442
#
# Poissons Ratio (x) = 0.36247 0.27750
# Poissons Ratio (y) = 0.17368 0.01356
# Poissons Ratio (z) = 0.46740 0.04765
#
# Static dielectric constant tensor:
#      x y z
#    x 1.965330 0.000000 0.000000 
#    y 0.000000 2.710290 0.000000 
#    z 0.000000 0.000000 2.237350 
# 
# From -- ./inp_files/2191.got.cif
#   From: 2010.05.17/outbox.cif.g08.bks.cpg/sg33_2_cif.got.tgz:2191.got - 2010.06.03 17:15:25.
