data_PCOD9344420
_publ_section_title
;
Structure prediction by ZEFSAII (Michael W. Deem and Ramdas Pophale) SiO2 
 PCOD9344420
Probable space group: P N A 21
;
_chemical_formula_sum "Si O2"
_cell_formula_units_Z 28
_cell_length_a 27.013652
_cell_length_b 11.948890
_cell_length_c 4.893758
_cell_angle_alpha 90.000000
_cell_angle_beta 90.000000
_cell_angle_gamma 90.000000
_cell_volume 1579.622653
_symmetry_space_group_name_H-M "P N A 21"
_symmetry_group_IT_number 33
_symmetry_cell_setting 'orthorhombic'
loop_
_space_group_symop_operation_xyz
x,y,z
-x,-y,1/2+z
1/2-x,1/2+y,1/2+z
1/2+x,1/2-y,z
loop_
_atom_site_type_symbol
_atom_site_label
_atom_site_fract_x
_atom_site_fract_y
_atom_site_fract_z
Si Si1 0.707017 0.910311 0.357680
Si Si2 0.396503 0.396738 0.544013
Si Si3 0.189142 0.189409 0.887829
Si Si4 0.686724 0.766755 0.843874
Si Si5 0.997762 0.923808 0.168133
Si Si6 0.892715 0.944352 0.047859
Si Si7 0.208909 0.331740 0.375368
O O1 0.764523 0.892533 0.443445
O O2 0.675773 0.831248 0.562197
O O3 0.693843 0.039877 0.363461
O O4 0.703548 0.862576 0.053680
O O5 0.355729 0.302529 0.496192
O O6 0.451165 0.356733 0.636030
O O7 0.401913 0.450378 0.245904
O O8 0.381513 0.496982 0.756666
O O9 0.148397 0.125326 0.709337
O O10 0.206462 0.287774 0.683881
O O11 0.177473 0.250942 0.173294
O O12 0.733657 0.685700 0.787991
O O13 0.945373 0.879274 0.057069
O O14 0.993242 0.965799 0.478511
#
# Coordination Sequence:
#
# PCOD9344420 Si02
#       7
#     4   4   4   4   4   4   4
#     4  10  20  33  46  66  95 123 158 198 227 270
#     4  10  18  30  48  71  99 124 152 192 237 289
#     4  10  20  31  48  69  90 126 161 185 235 283
#     4  10  20  31  48  69  90 126 161 185 235 283
#     4   8  16  28  44  68  96 122 146 184 238 286
#     4  10  18  30  48  71  99 124 152 192 237 289
#     4  10  20  33  46  66  95 123 158 198 227 270
#
# _framework density 17.725752
#
# number of rings (size 3 to 8) (size 9 to 14) (size 15 to 20)
#    0.000    2.286    0.000    3.429    0.000    4.571 
#    0.000    0.000    0.000    0.000    0.000    4.000 
#    0.000    0.000    0.000    0.000    0.000    0.000 
#
# Total GULP energy -155875.527579 kJ/mol
# GULP energy per Si atom -5566.983128 kJ/mol
# Density = 1.768541 g / cm^3
# Si number density = 17.725752 Si / 1000 Ang^3
#
#
#
# Elastic Constant Matrix: (Units=GPa)
#
#
# Indices 1 2 3 4 5 6 
#
# 1 66.5841 12.1735 -2.8651 0.0000 0.0000 0.0000
# 2 12.1735 46.8970 8.7851 0.0000 0.0000 0.0000
# 3 -2.8651 8.7851 94.0078 0.0000 0.0000 0.0000
# 4 0.0000 0.0000 0.0000 19.7187 0.0000 0.0000
# 5 0.0000 0.0000 0.0000 0.0000 22.7106 0.0000
# 6 0.0000 0.0000 0.0000 0.0000 0.0000 9.9045
#
#
#
# Elastic Compliance Matrix: (Units=1/GPa)
#
#
# Indices 1 2 3 4 5 6 
#
# 1 0.015838 -0.004277 0.000882 0.000000 0.000000 0.000000
# 2 -0.004277 0.022858 -0.002266 0.000000 0.000000 0.000000
# 3 0.000882 -0.002266 0.010876 0.000000 0.000000 0.000000
# 4 0.000000 0.000000 0.000000 0.050713 0.000000 0.000000
# 5 0.000000 0.000000 0.000000 0.000000 0.044032 0.000000
# 6 0.000000 0.000000 0.000000 0.000000 0.000000 0.100964
#
#
# Mechanical properties :
#
#
# Convention : Reuss Voigt Hill
#
# Bulk Modulus (GPa) = 26.14298 27.07511 26.60904
# Shear Modulus (GPa) = 18.56292 23.09312 20.82802
#
# Velocity S-wave (km/s) = 3.23960 3.61335 3.43157
# Velocity P-wave (km/s) = 5.36414 5.71979 5.54482
#
# Compressibility (1/GPa) = 0.03825118
#
# Stress axis : x y z
#
# Youngs Moduli (GPa) = 63.13746 43.74828 91.94468
#
# Poissons Ratio (x) = 0.18710 -0.08113
# Poissons Ratio (y) = 0.27002 0.20839
# Poissons Ratio (z) = -0.05571 0.09915
#
# Static dielectric constant tensor:
#      x y z
#    x 1.717080 0.000000 0.000000 
#    y 0.000000 1.590170 0.000000 
#    z 0.000000 0.000000 1.625280 
# 
# From -- ./inp_files/2284.got.cif
#   From: 2010.05.17/outbox.cif.g08.bks.cpg/sg33_2_cif.got.tgz:2284.got - 2010.06.03 17:15:25.
