data_PCOD9344507
_publ_section_title
;
Structure prediction by ZEFSAII (Michael W. Deem and Ramdas Pophale) SiO2 
 PCOD9344507
Probable space group: P N A 21
;
_chemical_formula_sum "Si O2"
_cell_formula_units_Z 28
_cell_length_a 10.167190
_cell_length_b 8.504755
_cell_length_c 15.436152
_cell_angle_alpha 90.000000
_cell_angle_beta 90.000000
_cell_angle_gamma 90.000000
_cell_volume 1334.755728
_symmetry_space_group_name_H-M "P N A 21"
_symmetry_group_IT_number 33
_symmetry_cell_setting 'orthorhombic'
loop_
_space_group_symop_operation_xyz
x,y,z
-x,-y,1/2+z
1/2-x,1/2+y,1/2+z
1/2+x,1/2-y,z
loop_
_atom_site_type_symbol
_atom_site_label
_atom_site_fract_x
_atom_site_fract_y
_atom_site_fract_z
Si Si1 0.276958 0.440026 0.028980
Si Si2 0.836559 0.891750 0.844694
Si Si3 0.512578 0.897917 0.011607
Si Si4 0.249194 0.568869 0.512917
Si Si5 0.414338 0.650871 0.151532
Si Si6 0.298247 0.388821 0.696006
Si Si7 0.377246 0.346369 0.376783
O O1 0.138311 0.520357 0.053443
O O2 0.249974 0.256208 0.018230
O O3 0.376236 0.487031 0.106021
O O4 0.324493 0.524471 0.939419
O O5 0.760612 0.724162 0.842257
O O6 0.992189 0.882577 0.821723
O O7 0.762907 0.998896 0.774992
O O8 0.446708 0.769476 0.072919
O O9 0.399741 0.020116 0.989335
O O10 0.568657 0.800479 0.932178
O O11 0.281904 0.483405 0.604817
O O12 0.342533 0.490611 0.440536
O O13 0.548253 0.650583 0.204220
O O14 0.291361 0.733784 0.197188
#
# Coordination Sequence:
#
# PCOD9344507 Si02
#       7
#     4   4   4   4   4   4   4
#     4  11  23  38  69  98 126 169 225 268 312 396
#     4  11  24  42  65  94 130 171 214 269 333 382
#     4  10  18  38  68  90 118 172 218 254 314 380
#     4  11  23  38  69  98 126 169 225 268 312 396
#     4  11  20  45  66  89 127 178 218 257 324 396
#     4  11  24  42  65  94 130 171 214 269 333 382
#     4  11  20  45  66  89 127 178 218 257 324 396
#
# _framework density 20.977620999999999
#
# number of rings (size 3 to 8) (size 9 to 14) (size 15 to 20)
#    0.000    1.143    5.714    1.714    4.000    2.286 
#    5.143    1.429    0.000    0.000    0.000    0.000 
#    0.000    0.000    0.000    0.000    0.000    0.000 
#
# Total GULP energy -156210.070493 kJ/mol
# GULP energy per Si atom -5578.931089 kJ/mol
# Density = 2.092988 g / cm^3
# Si number density = 20.977621 Si / 1000 Ang^3
#
#
#
# Elastic Constant Matrix: (Units=GPa)
#
#
# Indices 1 2 3 4 5 6 
#
# 1 114.3704 20.6388 9.1664 0.0000 0.0000 0.0000
# 2 20.6388 94.4513 15.3221 0.0000 0.0000 0.0000
# 3 9.1664 15.3221 22.4756 0.0000 0.0000 0.0000
# 4 0.0000 0.0000 0.0000 25.7582 0.0000 0.0000
# 5 0.0000 0.0000 0.0000 0.0000 10.7027 0.0000
# 6 0.0000 0.0000 0.0000 0.0000 0.0000 23.4116
#
#
#
# Elastic Compliance Matrix: (Units=1/GPa)
#
#
# Indices 1 2 3 4 5 6 
#
# 1 0.009245 -0.001584 -0.002691 0.000000 0.000000 0.000000
# 2 -0.001584 0.012175 -0.007654 0.000000 0.000000 0.000000
# 3 -0.002691 -0.007654 0.050808 0.000000 0.000000 0.000000
# 4 0.000000 0.000000 0.000000 0.038823 0.000000 0.000000
# 5 0.000000 0.000000 0.000000 0.000000 0.093435 0.000000
# 6 0.000000 0.000000 0.000000 0.000000 0.000000 0.042714
#
#
# Mechanical properties :
#
#
# Convention : Reuss Voigt Hill
#
# Bulk Modulus (GPa) = 20.67354 35.72798 28.20076
# Shear Modulus (GPa) = 17.41063 24.38582 20.89823
#
# Velocity S-wave (km/s) = 2.88403 3.41320 3.15971
# Velocity P-wave (km/s) = 4.57893 5.70979 5.17534
#
# Compressibility (1/GPa) = 0.04837100
#
# Stress axis : x y z
#
# Youngs Moduli (GPa) = 108.16714 82.13421 19.68183
#
# Poissons Ratio (x) = 0.13007 0.05296
# Poissons Ratio (y) = 0.17130 0.15065
# Poissons Ratio (z) = 0.29106 0.62868
#
# Static dielectric constant tensor:
#      x y z
#    x 1.812840 0.000000 0.000000 
#    y 0.000000 1.760430 0.000000 
#    z 0.000000 0.000000 1.785040 
# 
# From -- ./inp_files/8475.got.cif
#   From: 2010.05.17/outbox.cif.g08.bks.cpg/sg33_5_cif.got.tgz:8475.got - 2010.06.03 17:15:25.
