data_PCOD9344822
_publ_section_title
;
Structure prediction by ZEFSAII (Michael W. Deem and Ramdas Pophale) SiO2 
 PCOD9344822
Probable space group: P N A 21
;
_chemical_formula_sum "Si O2"
_cell_formula_units_Z 28
_cell_length_a 28.245075
_cell_length_b 10.189848
_cell_length_c 5.007308
_cell_angle_alpha 90.000000
_cell_angle_beta 90.000000
_cell_angle_gamma 90.000000
_cell_volume 1441.168443
_symmetry_space_group_name_H-M "P N A 21"
_symmetry_group_IT_number 33
_symmetry_cell_setting 'orthorhombic'
loop_
_space_group_symop_operation_xyz
x,y,z
-x,-y,1/2+z
1/2-x,1/2+y,1/2+z
1/2+x,1/2-y,z
loop_
_atom_site_type_symbol
_atom_site_label
_atom_site_fract_x
_atom_site_fract_y
_atom_site_fract_z
Si Si1 0.847033 0.261924 0.045310
Si Si2 0.289052 0.500000 0.081706
Si Si3 0.402507 0.842587 0.606811
Si Si4 0.902506 0.342590 0.556610
Si Si5 0.500000 0.908004 0.831709
Si Si6 0.652967 0.238076 0.618111
Si Si7 0.723373 0.999999 0.581705
O O1 0.821317 0.124150 0.010214
O O2 0.866582 0.283147 0.342342
O O3 0.809598 0.378715 0.996588
O O4 0.890204 0.280859 0.840375
O O5 0.321315 0.624153 0.153209
O O6 0.256099 0.463230 0.331849
O O7 0.256101 0.536768 0.831556
O O8 0.455747 0.828311 0.716359
O O9 0.390204 0.780857 0.323046
O O10 0.395573 0.999999 0.581711
O O11 0.366583 0.783144 0.821080
O O12 0.955746 0.328313 0.447059
O O13 0.516136 0.000000 0.581709
O O14 0.690401 0.121281 0.666827
#
# Coordination Sequence:
#
# PCOD9344822 Si02
#       7
#     4   4   4   4   4   4   4
#     4  12  23  39  63  86 125 158 201 250 296 363
#     4  12  26  40  58  90 120 166 206 248 304 350
#     4  11  20  38  61  92 120 154 196 247 305 352
#     4  11  20  38  61  92 120 154 196 247 305 352
#     4  10  20  34  60  96 126 146 192 256 302 354
#     4  12  23  39  63  86 125 158 201 250 296 363
#     4  12  22  42  60  86 120 160 214 254 294 344
#
# _framework density 19.428678999999999
#
# number of rings (size 3 to 8) (size 9 to 14) (size 15 to 20)
#    0.000    0.571    2.857    8.571    0.000    0.000 
#    0.000    0.000    0.000    3.429    0.000    2.000 
#    0.000    0.000    0.000    0.000    0.000    0.000 
#
# Total GULP energy -156619.659546 kJ/mol
# GULP energy per Si atom -5593.559269 kJ/mol
# Density = 1.938446 g / cm^3
# Si number density = 19.428679 Si / 1000 Ang^3
#
#
#
# Elastic Constant Matrix: (Units=GPa)
#
#
# Indices 1 2 3 4 5 6 
#
# 1 87.4668 40.9633 9.1623 0.0000 0.0000 0.0000
# 2 40.9633 86.4261 -2.5522 0.0000 0.0000 0.0000
# 3 9.1623 -2.5522 87.7837 0.0000 0.0000 0.0000
# 4 0.0000 0.0000 0.0000 16.0982 0.0000 0.0000
# 5 0.0000 0.0000 0.0000 0.0000 56.0683 0.0000
# 6 0.0000 0.0000 0.0000 0.0000 0.0000 -47.6350
#
#
#
# Elastic Compliance Matrix: (Units=1/GPa)
#
#
# Indices 1 2 3 4 5 6 
#
# 1 0.014964 -0.007145 -0.001770 0.000000 0.000000 0.000000
# 2 -0.007145 0.014992 0.001182 0.000000 0.000000 0.000000
# 3 -0.001770 0.001182 0.011611 0.000000 0.000000 0.000000
# 4 0.000000 0.000000 0.000000 0.062119 0.000000 0.000000
# 5 0.000000 0.000000 0.000000 0.000000 0.017835 0.000000
# 6 0.000000 0.000000 0.000000 0.000000 0.000000 -0.020993
#
#
# Mechanical properties :
#
#
# Convention : Reuss Voigt Hill
#
# Bulk Modulus (GPa) = 38.31243 39.64705 38.97974
# Shear Modulus (GPa) = 40.09799 19.17986 29.63893
#
# Velocity S-wave (km/s) = 4.54790 3.14537 3.91003
# Velocity P-wave (km/s) = 6.88042 5.80016 6.36326
#
# Compressibility (1/GPa) = 0.02610119
#
# Stress axis : x y z
#
# Youngs Moduli (GPa) = 66.82498 66.70248 86.12752
#
# Poissons Ratio (x) = 0.47659 0.15241
# Poissons Ratio (y) = 0.47746 -0.10177
# Poissons Ratio (z) = 0.11826 -0.07882
#
# Static dielectric constant tensor:
#      x y z
#    x 1.688980 0.000000 0.000000 
#    y 0.000000 1.639870 0.000000 
#    z 0.000000 0.000000 1.689300 
# 
# From -- ./inp_files/2420.got.cif
#   From: 2010.05.17/outbox.cif.g08.bks.cpg/sg33_2_cif.got.tgz:2420.got - 2010.06.03 17:15:25.
