data_PCOD9344825
_publ_section_title
;
Structure prediction by ZEFSAII (Michael W. Deem and Ramdas Pophale) SiO2 
 PCOD9344825
Probable space group: P N A 21
;
_chemical_formula_sum "Si O2"
_cell_formula_units_Z 32
_cell_length_a 7.813474
_cell_length_b 18.572443
_cell_length_c 8.461679
_cell_angle_alpha 90.000000
_cell_angle_beta 90.000000
_cell_angle_gamma 90.000000
_cell_volume 1227.919091
_symmetry_space_group_name_H-M "P N A 21"
_symmetry_group_IT_number 33
_symmetry_cell_setting 'orthorhombic'
loop_
_space_group_symop_operation_xyz
x,y,z
-x,-y,1/2+z
1/2-x,1/2+y,1/2+z
1/2+x,1/2-y,z
loop_
_atom_site_type_symbol
_atom_site_label
_atom_site_fract_x
_atom_site_fract_y
_atom_site_fract_z
Si Si1 0.339098 0.774330 0.510170
Si Si2 0.720859 0.508500 0.006925
Si Si3 0.660902 0.225670 0.369426
Si Si4 0.941473 0.389030 0.512390
Si Si5 0.474266 0.355305 0.875009
Si Si6 0.941473 0.389030 0.867206
Si Si7 0.025734 0.855305 0.004587
Si Si8 0.779141 0.008500 0.872671
O O1 0.278898 0.780786 0.689798
O O2 0.390791 0.693752 0.466120
O O3 0.199114 0.807912 0.394423
O O4 0.504990 0.825753 0.485530
O O5 0.779560 0.438691 0.910390
O O6 0.581219 0.565707 0.942484
O O7 0.683188 0.490718 0.189798
O O8 0.895247 0.556965 0.011010
O O9 0.495010 0.174247 0.394067
O O10 0.800886 0.192088 0.485173
O O11 0.609209 0.306248 0.413476
O O12 0.924410 0.359679 0.689798
O O13 0.779560 0.438691 0.469206
O O14 0.512685 0.360807 0.689798
O O15 0.418781 0.434293 0.937112
O O16 0.104753 0.443035 0.868587
#
# Coordination Sequence:
#
# PCOD9344825 Si02
#       8
#     4   4   4   4   4   4   4   4
#     4  11  21  33  51  76 104 133 168 208 249 295
#     4   8  15  27  45  69  95 124 161 205 246 287
#     4  11  21  33  51  76 104 133 168 208 249 295
#     4   9  16  27  45  69  97 128 162 202 247 292
#     4  10  20  35  53  74 102 135 169 205 250 300
#     4   9  16  27  45  69  97 128 162 202 247 292
#     4  10  20  35  53  74 102 135 169 205 250 300
#     4   8  15  27  45  69  95 124 161 205 246 287
#
# _framework density 26.06035
#
# number of rings (size 3 to 8) (size 9 to 14) (size 15 to 20)
#    0.000    2.500    0.000    5.250    0.000    7.000 
#    0.000    0.000    0.000    1.500    0.000    0.000 
#    0.000    0.000    0.000    0.000    0.000    0.000 
#
# Total GULP energy -179264.011947 kJ/mol
# GULP energy per Si atom -5602.000373 kJ/mol
# Density = 2.600104 g / cm^3
# Si number density = 26.060350 Si / 1000 Ang^3
#
#
#
# Elastic Constant Matrix: (Units=GPa)
#
#
# Indices 1 2 3 4 5 6 
#
# 1 90.0280 8.9158 -10.5855 0.0000 0.0000 0.0000
# 2 8.9158 150.2231 35.9514 0.0000 0.0000 0.0000
# 3 -10.5855 35.9514 104.0251 0.0000 0.0000 0.0000
# 4 0.0000 0.0000 0.0000 37.3930 0.0000 0.0000
# 5 0.0000 0.0000 0.0000 0.0000 30.0582 0.0000
# 6 0.0000 0.0000 0.0000 0.0000 0.0000 58.3744
#
#
#
# Elastic Compliance Matrix: (Units=1/GPa)
#
#
# Indices 1 2 3 4 5 6 
#
# 1 0.011389 -0.001039 0.001518 0.000000 0.000000 0.000000
# 2 -0.001039 0.007352 -0.002647 0.000000 0.000000 0.000000
# 3 0.001518 -0.002647 0.010682 0.000000 0.000000 0.000000
# 4 0.000000 0.000000 0.000000 0.026743 0.000000 0.000000
# 5 0.000000 0.000000 0.000000 0.000000 0.033269 0.000000
# 6 0.000000 0.000000 0.000000 0.000000 0.000000 0.017131
#
#
# Mechanical properties :
#
#
# Convention : Reuss Voigt Hill
#
# Bulk Modulus (GPa) = 39.86022 45.87107 42.86565
# Shear Modulus (GPa) = 41.92392 45.83142 43.87767
#
# Velocity S-wave (km/s) = 4.01524 4.19819 4.10774
# Velocity P-wave (km/s) = 6.06834 6.41404 6.24358
#
# Compressibility (1/GPa) = 0.02508767
#
# Stress axis : x y z
#
# Youngs Moduli (GPa) = 87.80346 136.02064 93.61356
#
# Poissons Ratio (x) = 0.14136 -0.14212
# Poissons Ratio (y) = 0.09125 0.24775
# Poissons Ratio (z) = -0.13330 0.35999
#
# Static dielectric constant tensor:
#      x y z
#    x 2.219550 0.000000 0.000000 
#    y 0.000000 2.044860 0.000000 
#    z 0.000000 0.000000 1.867060 
# 
# From -- ./inp_files/3448.got.cif
#   From: 2010.05.17/outbox.cif.g08.bks.cpg/sg33_2_cif.got.tgz:3448.got - 2010.06.03 17:15:25.
