data_PCOD9344607
_publ_section_title
;
Structure prediction by ZEFSAII (Michael W. Deem and Ramdas Pophale) SiO2 
 PCOD9344607
Probable space group: P N A 21
;
_chemical_formula_sum "Si O2"
_cell_formula_units_Z 28
_cell_length_a 9.389891
_cell_length_b 7.785741
_cell_length_c 14.764377
_cell_angle_alpha 90.000000
_cell_angle_beta 90.000000
_cell_angle_gamma 90.000000
_cell_volume 1079.383138
_symmetry_space_group_name_H-M "P N A 21"
_symmetry_group_IT_number 33
_symmetry_cell_setting 'orthorhombic'
loop_
_space_group_symop_operation_xyz
x,y,z
-x,-y,1/2+z
1/2-x,1/2+y,1/2+z
1/2+x,1/2-y,z
loop_
_atom_site_type_symbol
_atom_site_label
_atom_site_fract_x
_atom_site_fract_y
_atom_site_fract_z
Si Si1 0.481298 0.421431 0.628900
Si Si2 0.746441 0.066254 0.141642
Si Si3 0.852538 0.618826 0.454012
Si Si4 0.639233 0.659844 0.306348
Si Si5 0.400201 0.953831 0.881643
Si Si6 0.514686 0.784020 0.709427
Si Si7 0.913411 0.015642 0.431939
O O1 0.452618 0.621044 0.654603
O O2 0.645651 0.410965 0.662880
O O3 0.378099 0.333305 0.699519
O O4 0.465472 0.389408 0.522761
O O5 0.820692 0.231740 0.192169
O O6 0.758447 0.082100 0.033343
O O7 0.784006 0.597983 0.354278
O O8 0.920125 0.564325 0.664319
O O9 0.884171 0.819439 0.463745
O O10 0.615306 0.854002 0.340112
O O11 0.520522 0.530919 0.349712
O O12 0.238695 0.904334 0.904129
O O13 0.475439 0.822205 0.813330
O O14 0.510054 0.998205 0.961446
#
# Coordination Sequence:
#
# PCOD9344607 Si02
#       7
#     4   4   4   4   4   4   4
#     4  10  21  34  67  84 119 161 208 239 305 371
#     4  10  20  36  62  87 118 154 211 246 295 361
#     4  10  19  35  57  88 112 154 202 252 281 366
#     4  10  20  37  61  88 120 158 201 248 309 364
#     4  10  23  36  61  89 125 148 205 258 308 348
#     4  10  22  37  62  92 116 155 206 260 297 361
#     4  10  19  37  58  88 118 162 201 247 293 369
#
# _framework density 25.940745
#
# number of rings (size 3 to 8) (size 9 to 14) (size 15 to 20)
#    0.857    1.143    2.857    0.857    6.000    0.000 
#    0.000    0.000    6.286    0.000    3.714    0.000 
#    0.000    0.000    0.000    0.000    0.000    0.000 
#
# Total GULP energy -156028.157118 kJ/mol
# GULP energy per Si atom -5572.434183 kJ/mol
# Density = 2.588170 g / cm^3
# Si number density = 25.940745 Si / 1000 Ang^3
#
#
#
# Elastic Constant Matrix: (Units=GPa)
#
#
# Indices 1 2 3 4 5 6 
#
# 1 95.3222 0.1704 12.0017 0.0000 0.0000 0.0000
# 2 0.1704 43.9626 6.2690 0.0000 0.0000 0.0000
# 3 12.0017 6.2690 86.9693 0.0000 0.0000 0.0000
# 4 0.0000 0.0000 0.0000 19.7884 0.0000 0.0000
# 5 0.0000 0.0000 0.0000 0.0000 37.0290 0.0000
# 6 0.0000 0.0000 0.0000 0.0000 0.0000 23.2129
#
#
#
# Elastic Compliance Matrix: (Units=1/GPa)
#
#
# Indices 1 2 3 4 5 6 
#
# 1 0.010677 0.000170 -0.001486 0.000000 0.000000 0.000000
# 2 0.000170 0.022986 -0.001680 0.000000 0.000000 0.000000
# 3 -0.001486 -0.001680 0.011824 0.000000 0.000000 0.000000
# 4 0.000000 0.000000 0.000000 0.050535 0.000000 0.000000
# 5 0.000000 0.000000 0.000000 0.000000 0.027006 0.000000
# 6 0.000000 0.000000 0.000000 0.000000 0.000000 0.043080
#
#
# Mechanical properties :
#
#
# Convention : Reuss Voigt Hill
#
# Bulk Modulus (GPa) = 25.31889 29.23735 27.27812
# Shear Modulus (GPa) = 26.98848 29.86027 28.42438
#
# Velocity S-wave (km/s) = 3.22901 3.39646 3.31379
# Velocity P-wave (km/s) = 4.86656 5.16493 5.01797
#
# Compressibility (1/GPa) = 0.03949620
#
# Stress axis : x y z
#
# Youngs Moduli (GPa) = 93.65491 43.50553 84.57036
#
# Poissons Ratio (x) = -0.00742 0.12565
# Poissons Ratio (y) = -0.01597 0.14211
# Poissons Ratio (z) = 0.13915 0.07311
#
# Static dielectric constant tensor:
#      x y z
#    x 2.119630 0.000000 0.000000 
#    y 0.000000 2.036200 0.000000 
#    z 0.000000 0.000000 2.099160 
# 
# From -- ./inp_files/6412.got.cif
#   From: 2010.05.17/outbox.cif.g08.bks.cpg/sg33_4_cif.got.tgz:6412.got - 2010.06.03 17:15:25.
