data_PCOD9344487
_publ_section_title
;
Structure prediction by ZEFSAII (Michael W. Deem and Ramdas Pophale) SiO2 
 PCOD9344487
Probable space group: P N A 21
;
_chemical_formula_sum "Si O2"
_cell_formula_units_Z 32
_cell_length_a 8.780457
_cell_length_b 19.285206
_cell_length_c 7.746313
_cell_angle_alpha 90.000000
_cell_angle_beta 90.000000
_cell_angle_gamma 90.000000
_cell_volume 1311.705815
_symmetry_space_group_name_H-M "P N A 21"
_symmetry_group_IT_number 33
_symmetry_cell_setting 'orthorhombic'
loop_
_space_group_symop_operation_xyz
x,y,z
-x,-y,1/2+z
1/2-x,1/2+y,1/2+z
1/2+x,1/2-y,z
loop_
_atom_site_type_symbol
_atom_site_label
_atom_site_fract_x
_atom_site_fract_y
_atom_site_fract_z
Si Si1 0.715276 0.719026 0.496530
Si Si2 0.740473 0.476701 0.268131
Si Si3 0.024337 0.520231 0.087882
Si Si4 0.109415 0.379414 0.207724
Si Si5 0.933833 0.114651 0.803235
Si Si6 0.273128 0.170681 0.285978
Si Si7 0.309622 0.698256 0.170083
Si Si8 0.133608 0.344230 0.591211
O O1 0.833563 0.655918 0.531993
O O2 0.567635 0.670268 0.463011
O O3 0.749118 0.762834 0.668098
O O4 0.727194 0.774883 0.343045
O O5 0.871575 0.477792 0.417015
O O6 0.614692 0.534426 0.316889
O O7 0.674338 0.399105 0.257862
O O8 0.845895 0.494224 0.099191
O O9 0.115457 0.462204 0.193496
O O10 0.993512 0.599227 0.145265
O O11 0.175958 0.357151 0.391690
O O12 0.937854 0.354629 0.227541
O O13 0.790476 0.143624 0.693080
O O14 0.091757 0.130203 0.709713
O O15 0.271435 0.188690 0.487206
O O16 0.415495 0.765853 0.128900
#
# Coordination Sequence:
#
# PCOD9344487 Si02
#       8
#     4   4   4   4   4   4   4   4
#     4  11  23  40  67  98 123 176 215 275 323 386
#     4  10  21  40  64  92 129 163 214 276 325 396
#     4  10  18  36  60  95 121 153 208 272 331 368
#     4  11  21  39  64  96 130 163 217 274 329 388
#     4  10  23  43  63  93 131 169 220 265 327 394
#     4  11  24  43  65  95 134 170 219 268 328 396
#     4  11  25  42  61  93 135 174 214 260 323 404
#     4  10  21  35  66  92 123 168 207 272 332 370
#
# _framework density 24.395714999999999
#
# number of rings (size 3 to 8) (size 9 to 14) (size 15 to 20)
#    0.000    1.500    5.000    0.750    3.500    0.000 
#    9.000    0.000    0.000    0.000    0.000    0.000 
#    0.000    0.000    0.000    0.000    0.000    0.000 
#
# Total GULP energy -178197.126723 kJ/mol
# GULP energy per Si atom -5568.660210 kJ/mol
# Density = 2.434019 g / cm^3
# Si number density = 24.395715 Si / 1000 Ang^3
#
#
#
# Elastic Constant Matrix: (Units=GPa)
#
#
# Indices 1 2 3 4 5 6 
#
# 1 4.2777 -15.6035 -2.2332 0.0000 0.0000 0.0000
# 2 -15.6035 96.8176 13.2946 0.0000 0.0000 0.0000
# 3 -2.2332 13.2946 64.9797 0.0000 0.0000 0.0000
# 4 0.0000 0.0000 0.0000 34.2435 0.0000 0.0000
# 5 0.0000 0.0000 0.0000 0.0000 18.6525 0.0000
# 6 0.0000 0.0000 0.0000 0.0000 0.0000 26.7350
#
#
#
# Elastic Compliance Matrix: (Units=1/GPa)
#
#
# Indices 1 2 3 4 5 6 
#
# 1 0.567275 0.091312 0.000814 0.000000 0.000000 0.000000
# 2 0.091312 0.025326 -0.002043 0.000000 0.000000 0.000000
# 3 0.000814 -0.002043 0.015835 0.000000 0.000000 0.000000
# 4 0.000000 0.000000 0.000000 0.029203 0.000000 0.000000
# 5 0.000000 0.000000 0.000000 0.000000 0.053612 0.000000
# 6 0.000000 0.000000 0.000000 0.000000 0.000000 0.037404
#
#
# Mechanical properties :
#
#
# Convention : Reuss Voigt Hill
#
# Bulk Modulus (GPa) = 1.26807 17.44341 9.35574
# Shear Modulus (GPa) = 6.16252 27.30065 16.73158
#
# Velocity S-wave (km/s) = 1.59108 3.34889 2.62170
# Velocity P-wave (km/s) = 1.97391 4.70310 3.60662
#
# Compressibility (1/GPa) = 0.78860193
#
# Stress axis : x y z
#
# Youngs Moduli (GPa) = 1.76281 39.48585 63.14946
#
# Poissons Ratio (x) = -3.60555 -0.05139
# Poissons Ratio (y) = -0.16097 0.12903
# Poissons Ratio (z) = -0.00143 0.08068
#
# Static dielectric constant tensor:
#      x y z
#    x 1.969380 0.000000 0.000000 
#    y 0.000000 2.037090 0.000000 
#    z 0.000000 0.000000 2.092500 
# 
# From -- ./inp_files/3535.got.cif
#   From: 2010.05.17/outbox.cif.g08.bks.cpg/sg33_2_cif.got.tgz:3535.got - 2010.06.03 17:15:25.
