data_PCOD9344377
_publ_section_title
;
Structure prediction by ZEFSAII (Michael W. Deem and Ramdas Pophale) SiO2 
 PCOD9344377
Probable space group: P N A 21
;
_chemical_formula_sum "Si O2"
_cell_formula_units_Z 24
_cell_length_a 8.475978
_cell_length_b 16.967025
_cell_length_c 6.812146
_cell_angle_alpha 90.000000
_cell_angle_beta 90.000000
_cell_angle_gamma 90.000000
_cell_volume 979.669230
_symmetry_space_group_name_H-M "P N A 21"
_symmetry_group_IT_number 33
_symmetry_cell_setting 'orthorhombic'
loop_
_space_group_symop_operation_xyz
x,y,z
-x,-y,1/2+z
1/2-x,1/2+y,1/2+z
1/2+x,1/2-y,z
loop_
_atom_site_type_symbol
_atom_site_label
_atom_site_fract_x
_atom_site_fract_y
_atom_site_fract_z
Si Si1 0.526755 0.138304 0.047230
Si Si2 0.794900 0.788440 0.580854
Si Si3 0.265048 0.008712 0.504442
Si Si4 0.488970 0.149232 0.524082
Si Si5 0.506843 0.420913 0.238226
Si Si6 0.816252 0.199237 0.484446
O O1 0.353125 0.166741 0.992228
O O2 0.642835 0.208886 0.988774
O O3 0.511692 0.134718 0.286728
O O4 0.602840 0.058066 0.973827
O O5 0.934165 0.852270 0.592579
O O6 0.748840 0.753496 0.799170
O O7 0.130697 0.974557 0.649694
O O8 0.365126 0.082588 0.582916
O O9 0.162476 0.034676 0.315204
O O10 0.670724 0.155780 0.584714
O O11 0.418133 0.233619 0.584591
O O12 0.430862 0.369558 0.411782
#
# Coordination Sequence:
#
# PCOD9344377 Si02
#       6
#     4   4   4   4   4   4
#     4  10  18  35  61  90 116 154 214 261 293 352
#     4  10  16  35  64  89 110 164 228 252 272 369
#     4  12  24  36  58  98 134 156 200 266 328 352
#     4  10  18  35  61  90 116 154 214 261 293 352
#     4  12  22  38  62  96 128 164 202 260 314 368
#     4  10  16  35  64  89 110 164 228 252 272 369
#
# _framework density 24.498065
#
# number of rings (size 3 to 8) (size 9 to 14) (size 15 to 20)
#    0.000    1.333   11.667    0.000    0.000    1.333 
#    0.000    0.000    0.000    8.000    4.333    0.000 
#    0.000    0.000    0.000    0.000    0.000    0.000 
#
# Total GULP energy -134036.050659 kJ/mol
# GULP energy per Si atom -5584.835444 kJ/mol
# Density = 2.444231 g / cm^3
# Si number density = 24.498065 Si / 1000 Ang^3
#
#
#
# Elastic Constant Matrix: (Units=GPa)
#
#
# Indices 1 2 3 4 5 6 
#
# 1 77.4811 -0.5085 -12.0771 0.0000 0.0000 0.0000
# 2 -0.5085 90.0133 4.7104 0.0000 0.0000 0.0000
# 3 -12.0771 4.7104 75.6868 0.0000 0.0000 0.0000
# 4 0.0000 0.0000 0.0000 14.0550 0.0000 0.0000
# 5 0.0000 0.0000 0.0000 0.0000 2.8327 0.0000
# 6 0.0000 0.0000 0.0000 0.0000 0.0000 58.4350
#
#
#
# Elastic Compliance Matrix: (Units=1/GPa)
#
#
# Indices 1 2 3 4 5 6 
#
# 1 0.013236 -0.000036 0.002114 0.000000 0.000000 0.000000
# 2 -0.000036 0.011146 -0.000699 0.000000 0.000000 0.000000
# 3 0.002114 -0.000699 0.013593 0.000000 0.000000 0.000000
# 4 0.000000 0.000000 0.000000 0.071149 0.000000 0.000000
# 5 0.000000 0.000000 0.000000 0.000000 0.353021 0.000000
# 6 0.000000 0.000000 0.000000 0.000000 0.000000 0.017113
#
#
# Mechanical properties :
#
#
# Convention : Reuss Voigt Hill
#
# Bulk Modulus (GPa) = 24.55033 25.27010 24.91022
# Shear Modulus (GPa) = 10.20248 31.80164 21.00206
#
# Velocity S-wave (km/s) = 2.04295 3.60686 2.93114
# Velocity P-wave (km/s) = 3.95069 5.26151 4.65250
#
# Compressibility (1/GPa) = 0.04073265
#
# Stress axis : x y z
#
# Youngs Moduli (GPa) = 75.55337 89.71936 73.56602
#
# Poissons Ratio (x) = 0.00322 -0.15553
# Poissons Ratio (y) = 0.00271 0.05145
# Poissons Ratio (z) = -0.15974 0.06275
#
# Static dielectric constant tensor:
#      x y z
#    x 1.927370 0.000000 0.000000 
#    y 0.000000 1.889230 0.000000 
#    z 0.000000 0.000000 2.117420 
# 
# From -- ./inp_files/3139.got.cif
#   From: 2010.05.17/outbox.cif.g08.bks.cpg/sg33_2_cif.got.tgz:3139.got - 2010.06.03 17:15:25.
