data_PCOD9344992
_publ_section_title
;
Structure prediction by ZEFSAII (Michael W. Deem and Ramdas Pophale) SiO2 
 PCOD9344992
Probable space group: P N A 21
;
_chemical_formula_sum "Si O2"
_cell_formula_units_Z 24
_cell_length_a 22.439106
_cell_length_b 7.817683
_cell_length_c 5.685468
_cell_angle_alpha 90.000000
_cell_angle_beta 90.000000
_cell_angle_gamma 90.000000
_cell_volume 997.355130
_symmetry_space_group_name_H-M "P N A 21"
_symmetry_group_IT_number 33
_symmetry_cell_setting 'orthorhombic'
loop_
_space_group_symop_operation_xyz
x,y,z
-x,-y,1/2+z
1/2-x,1/2+y,1/2+z
1/2+x,1/2-y,z
loop_
_atom_site_type_symbol
_atom_site_label
_atom_site_fract_x
_atom_site_fract_y
_atom_site_fract_z
Si Si1 0.754572 0.053037 0.850550
Si Si2 0.860402 0.422301 0.525482
Si Si3 0.323951 0.731481 0.013281
Si Si4 0.546318 0.788114 0.397557
Si Si5 0.562120 0.122723 0.652745
Si Si6 0.645020 0.621207 0.658496
O O1 0.720099 0.133136 0.632248
O O2 0.704816 0.004626 0.047112
O O3 0.804816 0.172730 0.964842
O O4 0.791468 0.877057 0.810420
O O5 0.897113 0.556466 0.366516
O O6 0.850846 0.250845 0.370992
O O7 0.901276 0.362976 0.735866
O O8 0.389333 0.806901 0.967405
O O9 0.338846 0.576426 0.198476
O O10 0.488629 0.749348 0.242120
O O11 0.579189 0.643448 0.548108
O O12 0.530157 0.950527 0.561031
#
# Coordination Sequence:
#
# PCOD9344992 Si02
#       6
#     4   4   4   4   4   4
#     4   9  19  39  61  89 125 159 209 256 326 382
#     4  10  20  38  65  89 121 163 211 262 312 384
#     4   9  20  41  59  96 123 165 208 268 317 396
#     4  11  20  39  61  89 121 174 209 266 309 384
#     4  10  21  38  63  86 125 165 224 249 320 382
#     4   9  22  39  57  93 123 156 211 259 320 378
#
# _framework density 24.063642999999999
#
# number of rings (size 3 to 8) (size 9 to 14) (size 15 to 20)
#    1.000    1.333    1.667    1.000    0.000    1.333 
#   12.000    1.667    0.000    0.000    0.000    0.000 
#    0.000    0.000    0.000    0.000    0.000    0.000 
#
# Total GULP energy -133860.201520 kJ/mol
# GULP energy per Si atom -5577.508397 kJ/mol
# Density = 2.400887 g / cm^3
# Si number density = 24.063643 Si / 1000 Ang^3
#
#
#
# Elastic Constant Matrix: (Units=GPa)
#
#
# Indices 1 2 3 4 5 6 
#
# 1 130.9452 38.4911 11.0106 0.0000 0.0000 0.0000
# 2 38.4911 91.6492 17.6576 0.0000 0.0000 0.0000
# 3 11.0106 17.6576 28.0559 0.0000 0.0000 0.0000
# 4 0.0000 0.0000 0.0000 23.4722 0.0000 0.0000
# 5 0.0000 0.0000 0.0000 0.0000 28.7557 0.0000
# 6 0.0000 0.0000 0.0000 0.0000 0.0000 35.3632
#
#
#
# Elastic Compliance Matrix: (Units=1/GPa)
#
#
# Indices 1 2 3 4 5 6 
#
# 1 0.008752 -0.003430 -0.001276 0.000000 0.000000 0.000000
# 2 -0.003430 0.013761 -0.007315 0.000000 0.000000 0.000000
# 3 -0.001276 -0.007315 0.040748 0.000000 0.000000 0.000000
# 4 0.000000 0.000000 0.000000 0.042604 0.000000 0.000000
# 5 0.000000 0.000000 0.000000 0.000000 0.034776 0.000000
# 6 0.000000 0.000000 0.000000 0.000000 0.000000 0.028278
#
#
# Mechanical properties :
#
#
# Convention : Reuss Voigt Hill
#
# Bulk Modulus (GPa) = 25.49763 42.77433 34.13598
# Shear Modulus (GPa) = 24.26797 29.75095 27.00946
#
# Velocity S-wave (km/s) = 3.17912 3.51998 3.35389
# Velocity P-wave (km/s) = 4.90863 5.85956 5.40505
#
# Compressibility (1/GPa) = 0.03921933
#
# Stress axis : x y z
#
# Youngs Moduli (GPa) = 114.25546 72.66920 24.54129
#
# Poissons Ratio (x) = 0.24925 0.03132
# Poissons Ratio (y) = 0.39189 0.17951
# Poissons Ratio (z) = 0.14581 0.53155
#
# Static dielectric constant tensor:
#      x y z
#    x 1.943400 0.000000 0.000000 
#    y 0.000000 1.949310 0.000000 
#    z 0.000000 0.000000 1.989930 
# 
# From -- ./inp_files/4924.got.cif
#   From: 2010.05.17/outbox.cif.g08.bks.cpg/sg33_3_cif.got.tgz:4924.got - 2010.06.03 17:15:25.
