data_PCOD9344408
_publ_section_title
;
Structure prediction by ZEFSAII (Michael W. Deem and Ramdas Pophale) SiO2 
 PCOD9344408
Probable space group: P N A 21
;
_chemical_formula_sum "Si O2"
_cell_formula_units_Z 24
_cell_length_a 15.928172
_cell_length_b 7.041293
_cell_length_c 8.159895
_cell_angle_alpha 90.000000
_cell_angle_beta 90.000000
_cell_angle_gamma 90.000000
_cell_volume 915.172420
_symmetry_space_group_name_H-M "P N A 21"
_symmetry_group_IT_number 33
_symmetry_cell_setting 'orthorhombic'
loop_
_space_group_symop_operation_xyz
x,y,z
-x,-y,1/2+z
1/2-x,1/2+y,1/2+z
1/2+x,1/2-y,z
loop_
_atom_site_type_symbol
_atom_site_label
_atom_site_fract_x
_atom_site_fract_y
_atom_site_fract_z
Si Si1 0.837244 0.268086 0.297650
Si Si2 0.394058 0.229060 0.638706
Si Si3 0.344699 0.792868 0.678605
Si Si4 0.622566 0.213592 0.839662
Si Si5 0.421480 0.745976 0.005381
Si Si6 0.431211 0.199840 0.978387
O O1 0.837688 0.210671 0.488146
O O2 0.749879 0.191366 0.234822
O O3 0.845530 0.498126 0.313262
O O4 0.908877 0.221901 0.159051
O O5 0.484014 0.293473 0.563828
O O6 0.376256 0.280779 0.827144
O O7 0.389376 0.997382 0.649985
O O8 0.336591 0.700691 0.500201
O O9 0.395639 0.688181 0.823161
O O10 0.633070 0.310780 0.663530
O O11 0.524419 0.218330 0.900006
O O12 0.416522 0.975139 0.995441
#
# Coordination Sequence:
#
# PCOD9344408 Si02
#       6
#     4   4   4   4   4   4
#     4  10  18  26  43  73 102 123 161 209 258 298
#     4   9  17  29  46  64  99 132 158 204 250 290
#     4  10  18  26  43  73 102 123 161 209 258 298
#     4   9  17  29  46  64  99 132 158 204 250 290
#     4   9  15  28  48  66  90 132 165 197 248 289
#     4   9  15  28  48  66  90 132 165 197 248 289
#
# _framework density 26.224567
#
# number of rings (size 3 to 8) (size 9 to 14) (size 15 to 20)
#    0.000    2.667    3.333    1.000    0.000    1.333 
#    0.000    0.000    0.000    0.000    0.000    0.000 
#  200.000    0.000    0.000    0.000    0.000    0.000 
#
# Total GULP energy -133771.957265 kJ/mol
# GULP energy per Si atom -5573.831553 kJ/mol
# Density = 2.616488 g / cm^3
# Si number density = 26.224567 Si / 1000 Ang^3
#
#
#
# Elastic Constant Matrix: (Units=GPa)
#
#
# Indices 1 2 3 4 5 6 
#
# 1 53.2961 -24.1008 11.4743 0.0000 0.0000 0.0000
# 2 -24.1008 109.9154 -23.9138 0.0000 0.0000 0.0000
# 3 11.4743 -23.9138 165.5321 0.0000 0.0000 0.0000
# 4 0.0000 0.0000 0.0000 -39.7206 0.0000 0.0000
# 5 0.0000 0.0000 0.0000 0.0000 43.9531 0.0000
# 6 0.0000 0.0000 0.0000 0.0000 0.0000 -8.8437
#
#
#
# Elastic Compliance Matrix: (Units=1/GPa)
#
#
# Indices 1 2 3 4 5 6 
#
# 1 0.020934 0.004413 -0.000814 0.000000 0.000000 0.000000
# 2 0.004413 0.010323 0.001185 0.000000 0.000000 0.000000
# 3 -0.000814 0.001185 0.006269 0.000000 0.000000 0.000000
# 4 0.000000 0.000000 0.000000 -0.025176 0.000000 0.000000
# 5 0.000000 0.000000 0.000000 0.000000 0.022752 0.000000
# 6 0.000000 0.000000 0.000000 0.000000 0.000000 -0.113075
#
#
# Mechanical properties :
#
#
# Convention : Reuss Voigt Hill
#
# Bulk Modulus (GPa) = 21.23312 28.40700 24.82006
# Shear Modulus (GPa) = -69.59428 23.43003 -23.08212
#
# Velocity S-wave (km/s) = -5.15708 2.99229 -2.96999
# Velocity P-wave (km/s) = 5.22937 4.77432 1.50868
#
# Compressibility (1/GPa) = 0.04709623
#
# Stress axis : x y z
#
# Youngs Moduli (GPa) = 47.76948 96.86657 159.52069
#
# Poissons Ratio (x) = -0.42748 0.12978
# Poissons Ratio (y) = -0.21081 -0.18911
# Poissons Ratio (z) = 0.03886 -0.11483
#
# Static dielectric constant tensor:
#      x y z
#    x 1.522580 0.000000 0.000000 
#    y 0.000000 2.083590 0.000000 
#    z 0.000000 0.000000 2.168070 
# 
# From -- ./inp_files/4314.got.cif
#   From: 2010.05.17/outbox.cif.g08.bks.cpg/sg33_3_cif.got.tgz:4314.got - 2010.06.03 17:15:25.
