data_PCOD9344097
_publ_section_title
;
Structure prediction by ZEFSAII (Michael W. Deem and Ramdas Pophale) SiO2 
 PCOD9344097
Probable space group: P B A 2
;
_chemical_formula_sum "Si O2"
_cell_formula_units_Z 26
_cell_length_a 16.078024
_cell_length_b 16.343678
_cell_length_c 4.879592
_cell_angle_alpha 90.000000
_cell_angle_beta 90.000000
_cell_angle_gamma 90.000000
_cell_volume 1282.230138
_symmetry_space_group_name_H-M "P B A 2"
_symmetry_group_IT_number 32
_symmetry_cell_setting 'orthorhombic'
loop_
_space_group_symop_operation_xyz
x,y,z
-x,-y,z
1/2-x,1/2+y,z
1/2+x,1/2-y,z
loop_
_atom_site_type_symbol
_atom_site_label
_atom_site_fract_x
_atom_site_fract_y
_atom_site_fract_z
Si Si1 0.217417 0.193962 0.941440
Si Si2 0.500000 0.000000 0.303409
Si Si3 0.550486 0.237839 0.054952
Si Si4 0.063521 0.726240 0.579020
Si Si5 0.369244 0.906150 0.684810
Si Si6 0.863445 0.423064 0.911733
Si Si7 0.262312 0.288084 0.429695
O O1 0.282577 0.124005 0.021911
O O2 0.224156 0.214200 0.619315
O O3 0.252320 0.271754 0.109132
O O4 0.859614 0.217664 0.489760
O O5 0.440965 0.944010 0.491083
O O6 0.560406 0.944163 0.115044
O O7 0.508681 0.223742 0.349370
O O8 0.622580 0.306042 0.041022
O O9 0.591265 0.157329 0.905720
O O10 0.023607 0.761142 0.853654
O O11 0.100752 0.637755 0.675305
O O12 0.296391 0.862137 0.517722
O O13 0.334550 0.987916 0.820763
#
# Coordination Sequence:
#
# PCOD9344097 Si02
#       7
#     4   2   4   4   4   4   4
#     4  10  23  40  59  88 123 163 206 250 302 364
#     4  12  26  40  58 100 128 160 188 256 310 392
#     4  11  23  40  65  91 122 161 212 256 301 366
#     4  11  23  40  65  91 122 161 212 256 301 366
#     4  11  26  38  63  90 133 163 202 249 325 376
#     4  11  26  38  63  90 133 163 202 249 325 376
#     4  10  23  40  59  88 123 163 206 250 302 364
#
# _framework density 20.277172
#
# number of rings (size 3 to 8) (size 9 to 14) (size 15 to 20)
#    0.000    1.231    0.000    6.000   21.538    0.000 
#    0.000    0.000    0.000    0.923    0.000    0.000 
#    0.000    0.000    0.000    0.000    0.000    0.000 
#
# Total GULP energy -145157.293394 kJ/mol
# GULP energy per Si atom -5582.972823 kJ/mol
# Density = 2.023102 g / cm^3
# Si number density = 20.277172 Si / 1000 Ang^3
#
#
#
# Elastic Constant Matrix: (Units=GPa)
#
#
# Indices 1 2 3 4 5 6 
#
# 1 104.1619 57.6953 14.6946 0.0000 0.0000 0.0000
# 2 57.6953 77.4504 18.7068 0.0000 0.0000 0.0000
# 3 14.6946 18.7068 79.0309 0.0000 0.0000 0.0000
# 4 0.0000 0.0000 0.0000 24.0863 0.0000 0.0000
# 5 0.0000 0.0000 0.0000 0.0000 36.7134 0.0000
# 6 0.0000 0.0000 0.0000 0.0000 0.0000 50.9125
#
#
#
# Elastic Compliance Matrix: (Units=1/GPa)
#
#
# Indices 1 2 3 4 5 6 
#
# 1 0.016347 -0.012137 -0.000167 0.000000 0.000000 0.000000
# 2 -0.012137 0.022706 -0.003118 0.000000 0.000000 0.000000
# 3 -0.000167 -0.003118 0.013422 0.000000 0.000000 0.000000
# 4 0.000000 0.000000 0.000000 0.041517 0.000000 0.000000
# 5 0.000000 0.000000 0.000000 0.000000 0.027238 0.000000
# 6 0.000000 0.000000 0.000000 0.000000 0.000000 0.019642
#
#
# Mechanical properties :
#
#
# Convention : Reuss Voigt Hill
#
# Bulk Modulus (GPa) = 46.22783 49.20406 47.71595
# Shear Modulus (GPa) = 27.94474 33.64555 30.79514
#
# Velocity S-wave (km/s) = 3.71636 4.07785 3.90129
# Velocity P-wave (km/s) = 6.42359 6.81837 6.62392
#
# Compressibility (1/GPa) = 0.02163199
#
# Stress axis : x y z
#
# Youngs Moduli (GPa) = 61.17504 44.04182 74.50317
#
# Poissons Ratio (x) = 0.53453 0.01241
# Poissons Ratio (y) = 0.74247 0.23229
# Poissons Ratio (z) = 0.01019 0.13732
#
# Static dielectric constant tensor:
#      x y z
#    x 1.777030 0.000000 0.000000 
#    y 0.000000 1.736150 0.000000 
#    z 0.000000 0.000000 1.782700 
# 
# From -- ./inp_files/1255.got.cif
#   From: 2010.05.17/outbox.cif.g08.bks.cpg/sg32_1_cif.got.tgz:1255.got - 2010.06.03 17:12:27.
