data_PCOD9344060
_publ_section_title
;
Structure prediction by ZEFSAII (Michael W. Deem and Ramdas Pophale) SiO2 
 PCOD9344060
Probable space group: P B A 2
;
_chemical_formula_sum "Si O2"
_cell_formula_units_Z 20
_cell_length_a 14.497138
_cell_length_b 11.340428
_cell_length_c 6.099819
_cell_angle_alpha 90.000000
_cell_angle_beta 90.000000
_cell_angle_gamma 90.000000
_cell_volume 1002.833116
_symmetry_space_group_name_H-M "P B A 2"
_symmetry_group_IT_number 32
_symmetry_cell_setting 'orthorhombic'
loop_
_space_group_symop_operation_xyz
x,y,z
-x,-y,z
1/2-x,1/2+y,z
1/2+x,1/2-y,z
loop_
_atom_site_type_symbol
_atom_site_label
_atom_site_fract_x
_atom_site_fract_y
_atom_site_fract_z
Si Si1 0.516016 0.637154 0.181530
Si Si2 0.171116 0.737787 0.429974
Si Si3 0.472507 0.175947 0.797847
Si Si4 0.377994 0.797262 0.439570
Si Si5 0.398588 0.016936 0.177845
O O1 0.500000 0.500000 0.141303
O O2 0.617266 0.665255 0.282561
O O3 0.440317 0.689921 0.350193
O O4 0.505393 0.719699 0.968720
O O5 0.274856 0.761994 0.499274
O O6 0.106930 0.720294 0.638669
O O7 0.161900 0.615626 0.295153
O O8 0.562804 0.152888 0.646235
O O9 0.425908 0.071558 0.942933
O O10 0.138008 0.388046 0.234782
O O11 0.500000 0.000000 0.286330
#
# Coordination Sequence:
#
# PCOD9344060 Si02
#       5
#     4   4   4   4   4
#     4  10  23  43  64  87 136 171 209 263 328 381
#     4  10  24  42  62  98 128 166 220 269 323 385
#     4  10  22  42  67  94 130 166 222 260 330 385
#     4  11  24  42  69  94 131 175 213 275 326 386
#     4  11  21  42  68  91 128 174 216 271 323 385
#
# _framework density 19.943496
#
# number of rings (size 3 to 8) (size 9 to 14) (size 15 to 20)
#    0.000    1.600    6.000    0.000    5.600    6.400 
#    0.000    0.000    0.000    0.000    0.000    0.000 
#    0.000    0.000    0.000    0.000    0.000    0.000 
#
# Total GULP energy -111360.267062 kJ/mol
# GULP energy per Si atom -5568.013353 kJ/mol
# Density = 1.989810 g / cm^3
# Si number density = 19.943496 Si / 1000 Ang^3
#
#
#
# Elastic Constant Matrix: (Units=GPa)
#
#
# Indices 1 2 3 4 5 6 
#
# 1 152.7472 14.8123 49.0034 0.0000 0.0000 0.0000
# 2 14.8123 67.7722 42.6624 0.0000 0.0000 0.0000
# 3 49.0034 42.6624 114.5492 0.0000 0.0000 0.0000
# 4 0.0000 0.0000 0.0000 23.7783 0.0000 0.0000
# 5 0.0000 0.0000 0.0000 0.0000 -95.7984 0.0000
# 6 0.0000 0.0000 0.0000 0.0000 0.0000 15.6595
#
#
#
# Elastic Compliance Matrix: (Units=1/GPa)
#
#
# Indices 1 2 3 4 5 6 
#
# 1 0.007601 0.000504 -0.003439 0.000000 0.000000 0.000000
# 2 0.000504 0.019307 -0.007406 0.000000 0.000000 0.000000
# 3 -0.003439 -0.007406 0.012960 0.000000 0.000000 0.000000
# 4 0.000000 0.000000 0.000000 0.042055 0.000000 0.000000
# 5 0.000000 0.000000 0.000000 0.000000 -0.010439 0.000000
# 6 0.000000 0.000000 0.000000 0.000000 0.000000 0.063859
#
#
# Mechanical properties :
#
#
# Convention : Reuss Voigt Hill
#
# Bulk Modulus (GPa) = 52.12554 60.89162 56.50858
# Shear Modulus (GPa) = 30.78387 3.96725 17.37556
#
# Velocity S-wave (km/s) = 3.93307 1.41194 2.95488
# Velocity P-wave (km/s) = 6.84242 5.76684 6.32753
#
# Compressibility (1/GPa) = 0.01918445
#
# Stress axis : x y z
#
# Youngs Moduli (GPa) = 131.55599 51.79346 77.16274
#
# Poissons Ratio (x) = -0.02609 0.26539
# Poissons Ratio (y) = -0.06627 0.57149
# Poissons Ratio (z) = 0.45248 0.38360
#
# Static dielectric constant tensor:
#      x y z
#    x 2.009220 0.000000 0.000000 
#    y 0.000000 1.932710 0.000000 
#    z 0.000000 0.000000 1.739180 
# 
# From -- ./inp_files/767.got.cif
#   From: 2010.05.17/outbox.cif.g08.bks.cpg/sg32_1_cif.got.tgz:767.got - 2010.06.03 17:12:27.
