data_PCOD9344870
_publ_section_title
;
Structure prediction by ZEFSAII (Michael W. Deem and Ramdas Pophale) SiO2 
 PCOD9344870
Probable space group: P N A 21
;
_chemical_formula_sum "Si O2"
_cell_formula_units_Z 32
_cell_length_a 17.602266
_cell_length_b 11.366747
_cell_length_c 8.915375
_cell_angle_alpha 90.000000
_cell_angle_beta 90.000000
_cell_angle_gamma 90.000000
_cell_volume 1783.792726
_symmetry_space_group_name_H-M "P N A 21"
_symmetry_group_IT_number 33
_symmetry_cell_setting 'orthorhombic'
loop_
_space_group_symop_operation_xyz
x,y,z
-x,-y,1/2+z
1/2-x,1/2+y,1/2+z
1/2+x,1/2-y,z
loop_
_atom_site_type_symbol
_atom_site_label
_atom_site_fract_x
_atom_site_fract_y
_atom_site_fract_z
Si Si1 0.733469 0.913255 0.822950
Si Si2 0.732431 0.174223 0.845355
Si Si3 0.575668 0.600873 0.835724
Si Si4 0.598965 0.349297 0.926328
Si Si5 0.942468 0.233891 0.818414
Si Si6 0.341831 0.239759 0.576318
Si Si7 0.590230 0.452004 0.267157
Si Si8 0.658321 0.741766 0.584801
O O1 0.825472 0.919595 0.824030
O O2 0.704076 0.834371 0.684419
O O3 0.702676 0.045478 0.805901
O O4 0.699074 0.854177 0.971351
O O5 0.672578 0.272227 0.894612
O O6 0.782610 0.216929 0.703362
O O7 0.783721 0.159154 0.994560
O O8 0.598806 0.465377 0.824105
O O9 0.483913 0.602340 0.850467
O O10 0.601409 0.669442 0.688665
O O11 0.625224 0.658550 0.968105
O O12 0.527722 0.271515 0.874602
O O13 0.588408 0.402081 0.095287
O O14 0.916730 0.299603 0.668061
O O15 0.921083 0.094107 0.786905
O O16 0.892403 0.290879 0.950039
#
# Coordination Sequence:
#
# PCOD9344870 Si02
#       8
#     4   4   4   4   4   4   4   4
#     4  11  22  38  58  87 122 155 195 238 298 350
#     4  11  23  38  58  88 123 152 199 240 287 365
#     4  10  21  35  61  90 115 150 193 247 304 336
#     4  11  21  35  63  90 117 152 195 251 292 344
#     4  10  20  38  58  88 121 148 195 244 298 339
#     4  10  22  39  56  86 123 153 189 244 291 353
#     4  11  19  35  62  92 117 143 197 258 291 338
#     4  10  20  36  58  81 122 159 183 242 299 349
#
# _framework density 17.939304
#
# number of rings (size 3 to 8) (size 9 to 14) (size 15 to 20)
#    0.000    1.500    6.250    0.000    1.750    1.000 
#    0.000    1.250    0.000    0.000    0.000    0.000 
#    0.000    0.000    0.000    0.000    0.000    0.000 
#
# Total GULP energy -178161.306227 kJ/mol
# GULP energy per Si atom -5567.540820 kJ/mol
# Density = 1.789847 g / cm^3
# Si number density = 17.939304 Si / 1000 Ang^3
#
#
#
# Elastic Constant Matrix: (Units=GPa)
#
#
# Indices 1 2 3 4 5 6 
#
# 1 78.4017 12.9695 10.9497 0.0000 0.0000 0.0000
# 2 12.9695 44.3491 14.7335 0.0000 0.0000 0.0000
# 3 10.9497 14.7335 77.2363 0.0000 0.0000 0.0000
# 4 0.0000 0.0000 0.0000 14.1568 0.0000 0.0000
# 5 0.0000 0.0000 0.0000 0.0000 30.5057 0.0000
# 6 0.0000 0.0000 0.0000 0.0000 0.0000 30.2698
#
#
#
# Elastic Compliance Matrix: (Units=1/GPa)
#
#
# Indices 1 2 3 4 5 6 
#
# 1 0.013514 -0.003540 -0.001241 0.000000 0.000000 0.000000
# 2 -0.003540 0.025001 -0.004267 0.000000 0.000000 0.000000
# 3 -0.001241 -0.004267 0.013937 0.000000 0.000000 0.000000
# 4 0.000000 0.000000 0.000000 0.070637 0.000000 0.000000
# 5 0.000000 0.000000 0.000000 0.000000 0.032781 0.000000
# 6 0.000000 0.000000 0.000000 0.000000 0.000000 0.033036
#
#
# Mechanical properties :
#
#
# Convention : Reuss Voigt Hill
#
# Bulk Modulus (GPa) = 29.10649 30.81028 29.95838
# Shear Modulus (GPa) = 22.88811 25.74210 24.31511
#
# Velocity S-wave (km/s) = 3.57580 3.79219 3.68558
# Velocity P-wave (km/s) = 5.77136 6.03211 5.90317
#
# Compressibility (1/GPa) = 0.03435660
#
# Stress axis : x y z
#
# Youngs Moduli (GPa) = 73.99929 39.99797 71.75048
#
# Poissons Ratio (x) = 0.14159 0.08901
# Poissons Ratio (y) = 0.26194 0.30619
# Poissons Ratio (z) = 0.09180 0.17069
#
# Static dielectric constant tensor:
#      x y z
#    x 1.646170 0.000000 0.000000 
#    y 0.000000 1.589620 0.000000 
#    z 0.000000 0.000000 1.644940 
# 
# From -- ./inp_files/4847.got.cif
#   From: 2010.05.17/outbox.cif.g08.bks.cpg/sg33_3_cif.got.tgz:4847.got - 2010.06.03 17:15:25.
