data_PCOD9344658
_publ_section_title
;
Structure prediction by ZEFSAII (Michael W. Deem and Ramdas Pophale) SiO2 
 PCOD9344658
Probable space group: P N A 21
;
_chemical_formula_sum "Si O2"
_cell_formula_units_Z 28
_cell_length_a 18.258034
_cell_length_b 5.106167
_cell_length_c 14.889720
_cell_angle_alpha 90.000000
_cell_angle_beta 90.000000
_cell_angle_gamma 90.000000
_cell_volume 1388.147314
_symmetry_space_group_name_H-M "P N A 21"
_symmetry_group_IT_number 33
_symmetry_cell_setting 'orthorhombic'
loop_
_space_group_symop_operation_xyz
x,y,z
-x,-y,1/2+z
1/2-x,1/2+y,1/2+z
1/2+x,1/2-y,z
loop_
_atom_site_type_symbol
_atom_site_label
_atom_site_fract_x
_atom_site_fract_y
_atom_site_fract_z
Si Si1 0.759991 0.109634 0.637240
Si Si2 0.485607 0.007976 0.120574
Si Si3 0.336942 0.573499 0.410527
Si Si4 0.248550 0.586412 0.959856
Si Si5 0.375417 0.680083 0.222417
Si Si6 0.915106 0.000204 0.600967
Si Si7 0.857370 0.209822 0.055468
O O1 0.770129 0.340597 0.563879
O O2 0.707214 0.206177 0.715482
O O3 0.841053 0.019982 0.659824
O O4 0.711584 0.889207 0.585941
O O5 0.433269 0.908240 0.201232
O O6 0.537114 0.762542 0.100380
O O7 0.536697 0.258024 0.133969
O O8 0.426438 0.097721 0.044759
O O9 0.272884 0.353334 0.409698
O O10 0.382854 0.555737 0.319436
O O11 0.385731 0.537566 0.499427
O O12 0.301813 0.858966 0.421465
O O13 0.330018 0.468233 0.972848
O O14 0.378744 0.478309 0.138992
#
# Coordination Sequence:
#
# PCOD9344658 Si02
#       7
#     4   4   4   4   4   4   4
#     4   9  20  37  66  90 119 159 210 261 294 380
#     4  11  23  38  63  89 125 173 210 246 308 398
#     4  11  23  37  65  97 121 158 211 273 307 368
#     4  10  19  36  61  91 119 152 205 259 304 354
#     4  10  23  40  65  95 126 162 214 257 325 367
#     4  11  21  39  63  93 117 166 217 249 311 370
#     4  10  19  41  61  93 117 168 205 255 303 385
#
# _framework density 20.170770999999998
#
# number of rings (size 3 to 8) (size 9 to 14) (size 15 to 20)
#    0.000    1.714    4.286    1.714    6.000    0.000 
#    0.000    0.000    3.143    8.571    0.000    0.000 
#    0.000    0.000    0.000    0.000    0.000    0.000 
#
# Total GULP energy -156053.890480 kJ/mol
# GULP energy per Si atom -5573.353231 kJ/mol
# Density = 2.012486 g / cm^3
# Si number density = 20.170771 Si / 1000 Ang^3
#
#
#
# Elastic Constant Matrix: (Units=GPa)
#
#
# Indices 1 2 3 4 5 6 
#
# 1 116.3693 50.3846 21.1336 0.0000 0.0000 0.0000
# 2 50.3846 130.4774 0.8570 0.0000 0.0000 0.0000
# 3 21.1336 0.8570 32.8914 0.0000 0.0000 0.0000
# 4 0.0000 0.0000 0.0000 12.8782 0.0000 0.0000
# 5 0.0000 0.0000 0.0000 0.0000 9.2588 0.0000
# 6 0.0000 0.0000 0.0000 0.0000 0.0000 40.1521
#
#
#
# Elastic Compliance Matrix: (Units=1/GPa)
#
#
# Indices 1 2 3 4 5 6 
#
# 1 0.011940 -0.004561 -0.007553 0.000000 0.000000 0.000000
# 2 -0.004561 0.009408 0.002685 0.000000 0.000000 0.000000
# 3 -0.007553 0.002685 0.035186 0.000000 0.000000 0.000000
# 4 0.000000 0.000000 0.000000 0.077651 0.000000 0.000000
# 5 0.000000 0.000000 0.000000 0.000000 0.108006 0.000000
# 6 0.000000 0.000000 0.000000 0.000000 0.000000 0.024905
#
#
# Mechanical properties :
#
#
# Convention : Reuss Voigt Hill
#
# Bulk Modulus (GPa) = 26.54152 47.16538 36.85345
# Shear Modulus (GPa) = 16.74981 26.28201 21.51591
#
# Velocity S-wave (km/s) = 2.88479 3.61359 3.26956
# Velocity P-wave (km/s) = 4.92778 6.39097 5.70647
#
# Compressibility (1/GPa) = 0.03767682
#
# Stress axis : x y z
#
# Youngs Moduli (GPa) = 83.75378 106.29506 28.42044
#
# Poissons Ratio (x) = 0.48481 0.21465
# Poissons Ratio (y) = 0.38200 -0.07632
# Poissons Ratio (z) = 0.63257 -0.28545
#
# Static dielectric constant tensor:
#      x y z
#    x 1.770440 0.000000 0.000000 
#    y 0.000000 1.783320 0.000000 
#    z 0.000000 0.000000 1.716010 
# 
# From -- ./inp_files/8217.got.cif
#   From: 2010.05.17/outbox.cif.g08.bks.cpg/sg33_5_cif.got.tgz:8217.got - 2010.06.03 17:15:25.
