data_PCOD9344505
_publ_section_title
;
Structure prediction by ZEFSAII (Michael W. Deem and Ramdas Pophale) SiO2 
 PCOD9344505
Probable space group: P N A 21
;
_chemical_formula_sum "Si O2"
_cell_formula_units_Z 16
_cell_length_a 12.251859
_cell_length_b 11.824004
_cell_length_c 4.851758
_cell_angle_alpha 90.000000
_cell_angle_beta 90.000000
_cell_angle_gamma 90.000000
_cell_volume 702.854919
_symmetry_space_group_name_H-M "P N A 21"
_symmetry_group_IT_number 33
_symmetry_cell_setting 'orthorhombic'
loop_
_space_group_symop_operation_xyz
x,y,z
-x,-y,1/2+z
1/2-x,1/2+y,1/2+z
1/2+x,1/2-y,z
loop_
_atom_site_type_symbol
_atom_site_label
_atom_site_fract_x
_atom_site_fract_y
_atom_site_fract_z
Si Si1 0.657828 0.236011 0.391740
Si Si2 0.067831 0.501286 0.573930
Si Si3 0.053341 0.054140 0.632093
Si Si4 0.251962 0.155356 0.862217
O O1 0.561264 0.320452 0.499784
O O2 0.759987 0.273759 0.582708
O O3 0.626052 0.110302 0.461838
O O4 0.685859 0.269133 0.081740
O O5 0.139635 0.608954 0.496033
O O6 0.043066 0.492501 0.895856
O O7 0.172796 0.050319 0.774856
O O8 0.030917 0.970488 0.377751
#
# Coordination Sequence:
#
# PCOD9344505 Si02
#       4
#     4   4   4   4
#     4  10  22  43  62  95 134 167 229 264 328 403
#     4  12  26  46  67 100 142 177 222 278 338 404
#     4  10  18  38  63  95 130 164 222 278 326 389
#     4  10  22  43  64  94 134 174 223 270 322 406
#
# _framework density 22.764302000000001
#
# number of rings (size 3 to 8) (size 9 to 14) (size 15 to 20)
#    1.500    0.000    2.500    3.000    0.000    0.000 
#   13.500    0.000    0.000    0.000    0.000    0.000 
#    0.000    0.000    0.000    0.000    0.000    0.000 
#
# Total GULP energy -89224.968104 kJ/mol
# GULP energy per Si atom -5576.560507 kJ/mol
# Density = 2.271249 g / cm^3
# Si number density = 22.764302 Si / 1000 Ang^3
#
#
#
# Elastic Constant Matrix: (Units=GPa)
#
#
# Indices 1 2 3 4 5 6 
#
# 1 23.1067 1.3092 -9.0690 0.0000 0.0000 0.0000
# 2 1.3092 54.8446 -3.9551 0.0000 0.0000 0.0000
# 3 -9.0690 -3.9551 99.4260 0.0000 0.0000 0.0000
# 4 0.0000 0.0000 0.0000 9.2179 0.0000 0.0000
# 5 0.0000 0.0000 0.0000 0.0000 27.8613 0.0000
# 6 0.0000 0.0000 0.0000 0.0000 0.0000 16.4228
#
#
#
# Elastic Compliance Matrix: (Units=1/GPa)
#
#
# Indices 1 2 3 4 5 6 
#
# 1 0.044918 -0.000779 0.004066 0.000000 0.000000 0.000000
# 2 -0.000779 0.018299 0.000657 0.000000 0.000000 0.000000
# 3 0.004066 0.000657 0.010455 0.000000 0.000000 0.000000
# 4 0.000000 0.000000 0.000000 0.108484 0.000000 0.000000
# 5 0.000000 0.000000 0.000000 0.000000 0.035892 0.000000
# 6 0.000000 0.000000 0.000000 0.000000 0.000000 0.060891
#
#
# Mechanical properties :
#
#
# Convention : Reuss Voigt Hill
#
# Bulk Modulus (GPa) = 12.26098 17.10527 14.68313
# Shear Modulus (GPa) = 16.76518 23.30656 20.03587
#
# Velocity S-wave (km/s) = 2.71674 3.20319 2.96994
# Velocity P-wave (km/s) = 3.90367 4.60554 4.26905
#
# Compressibility (1/GPa) = 0.08155953
#
# Stress axis : x y z
#
# Youngs Moduli (GPa) = 22.26303 54.64686 95.65033
#
# Poissons Ratio (x) = 0.04257 -0.38892
# Poissons Ratio (y) = 0.01734 -0.06283
# Poissons Ratio (z) = -0.09052 -0.03590
#
# Static dielectric constant tensor:
#      x y z
#    x 1.894370 0.000000 0.000000 
#    y 0.000000 1.840700 0.000000 
#    z 0.000000 0.000000 1.804840 
# 
# From -- ./inp_files/707.got.cif
#   From: 2010.05.17/outbox.cif.g08.bks.cpg/sg33_1_cif.got.tgz:707.got - 2010.06.03 17:15:25.
