data_PCOD9344776
_publ_section_title
;
Structure prediction by ZEFSAII (Michael W. Deem and Ramdas Pophale) SiO2 
 PCOD9344776
Probable space group: P N A 21
;
_chemical_formula_sum "Si O2"
_cell_formula_units_Z 28
_cell_length_a 19.449171
_cell_length_b 9.429691
_cell_length_c 5.520771
_cell_angle_alpha 90.000000
_cell_angle_beta 90.000000
_cell_angle_gamma 90.000000
_cell_volume 1012.507595
_symmetry_space_group_name_H-M "P N A 21"
_symmetry_group_IT_number 33
_symmetry_cell_setting 'orthorhombic'
loop_
_space_group_symop_operation_xyz
x,y,z
-x,-y,1/2+z
1/2-x,1/2+y,1/2+z
1/2+x,1/2-y,z
loop_
_atom_site_type_symbol
_atom_site_label
_atom_site_fract_x
_atom_site_fract_y
_atom_site_fract_z
Si Si1 0.909251 0.958573 0.638330
Si Si2 0.238476 0.702602 0.154807
Si Si3 0.149993 0.574236 0.508529
Si Si4 0.724761 0.276478 0.155347
Si Si5 0.049484 0.323439 0.634372
Si Si6 0.874494 0.979544 0.138790
Si Si7 0.479669 0.231594 0.136779
O O1 0.853606 0.828494 0.650137
O O2 0.892294 0.045312 0.398127
O O3 0.983821 0.886836 0.634400
O O4 0.893120 0.044369 0.879841
O O5 0.169258 0.618099 0.230704
O O6 0.257122 0.791729 0.397543
O O7 0.297436 0.580893 0.140386
O O8 0.250711 0.788110 0.907888
O O9 0.223394 0.589529 0.637992
O O10 0.110392 0.431747 0.571081
O O11 0.099934 0.696175 0.608110
O O12 0.079848 0.164865 0.643138
O O13 0.001292 0.328717 0.398583
O O14 0.013676 0.342528 0.896196
#
# Coordination Sequence:
#
# PCOD9344776 Si02
#       7
#     4   4   4   4   4   4   4
#     4   8  14  28  40  53  69 108 134 166 191 238
#     4   8  16  26  41  53  74 100 141 168 199 223
#     4  10  20  26  42  60  84 110 138 174 198 246
#     4   8  16  26  41  53  74 100 139 168 202 218
#     4  10  20  28  40  56  87 113 140 157 205 250
#     4   8  14  28  40  53  69 108 136 164 191 235
#     4  10  20  28  40  56  87 113 138 157 206 248
#
# _framework density 27.654112999999999
#
# number of rings (size 3 to 8) (size 9 to 14) (size 15 to 20)
#    0.857    2.286    0.000    0.857    4.000    0.000 
#    0.000    0.000    0.000    0.000    0.000    0.000 
#    0.000    0.000   14.571    0.000    0.000    5.429 
#
# Total GULP energy -156453.385808 kJ/mol
# GULP energy per Si atom -5587.620922 kJ/mol
# Density = 2.759117 g / cm^3
# Si number density = 27.654113 Si / 1000 Ang^3
#
#
#
# Elastic Constant Matrix: (Units=GPa)
#
#
# Indices 1 2 3 4 5 6 
#
# 1 126.1205 14.5069 42.6256 0.0000 0.0000 0.0000
# 2 14.5069 94.4595 29.3055 0.0000 0.0000 0.0000
# 3 42.6256 29.3055 258.6771 0.0000 0.0000 0.0000
# 4 0.0000 0.0000 0.0000 0.5999 0.0000 0.0000
# 5 0.0000 0.0000 0.0000 0.0000 47.8158 0.0000
# 6 0.0000 0.0000 0.0000 0.0000 0.0000 31.0484
#
#
#
# Elastic Compliance Matrix: (Units=1/GPa)
#
#
# Indices 1 2 3 4 5 6 
#
# 1 0.008470 -0.000899 -0.001294 0.000000 0.000000 0.000000
# 2 -0.000899 0.011068 -0.001106 0.000000 0.000000 0.000000
# 3 -0.001294 -0.001106 0.004204 0.000000 0.000000 0.000000
# 4 0.000000 0.000000 0.000000 1.666927 0.000000 0.000000
# 5 0.000000 0.000000 0.000000 0.000000 0.020914 0.000000
# 6 0.000000 0.000000 0.000000 0.000000 0.000000 0.032208
#
#
# Mechanical properties :
#
#
# Convention : Reuss Voigt Hill
#
# Bulk Modulus (GPa) = 58.32937 72.45924 65.39430
# Shear Modulus (GPa) = 2.84721 42.08077 22.46399
#
# Velocity S-wave (km/s) = 1.01578 3.90511 2.85321
# Velocity P-wave (km/s) = 4.74489 6.82583 5.87818
#
# Compressibility (1/GPa) = 0.01714402
#
# Stress axis : x y z
#
# Youngs Moduli (GPa) = 118.06891 90.35307 237.85324
#
# Poissons Ratio (x) = 0.08126 0.30773
# Poissons Ratio (y) = 0.10619 0.26298
# Poissons Ratio (z) = 0.15275 0.09990
#
# Static dielectric constant tensor:
#      x y z
#    x 2.104780 0.000000 0.000000 
#    y 0.000000 2.118650 0.000000 
#    z 0.000000 0.000000 2.316280 
# 
# From -- ./inp_files/1864.got.cif
#   From: 2010.05.17/outbox.cif.g08.bks.cpg/sg33_1_cif.got.tgz:1864.got - 2010.06.03 17:15:25.
