data_PCOD9344371
_publ_section_title
;
Structure prediction by ZEFSAII (Michael W. Deem and Ramdas Pophale) SiO2 
 PCOD9344371
Probable space group: P N A 21
;
_chemical_formula_sum "Si O2"
_cell_formula_units_Z 16
_cell_length_a 5.531717
_cell_length_b 7.576882
_cell_length_c 13.750966
_cell_angle_alpha 90.000000
_cell_angle_beta 90.000000
_cell_angle_gamma 90.000000
_cell_volume 576.346534
_symmetry_space_group_name_H-M "P N A 21"
_symmetry_group_IT_number 33
_symmetry_cell_setting 'orthorhombic'
loop_
_space_group_symop_operation_xyz
x,y,z
-x,-y,1/2+z
1/2-x,1/2+y,1/2+z
1/2+x,1/2-y,z
loop_
_atom_site_type_symbol
_atom_site_label
_atom_site_fract_x
_atom_site_fract_y
_atom_site_fract_z
Si Si1 0.999998 0.856815 0.168910
Si Si2 0.999996 0.447702 0.362417
Si Si3 0.500004 0.736113 0.667578
Si Si4 0.499997 0.452988 0.441279
O O1 0.749998 0.750000 0.185339
O O2 0.999996 0.046865 0.221255
O O3 1.000000 0.926718 0.057508
O O4 0.999996 0.391791 0.248409
O O5 0.752245 0.532621 0.401626
O O6 0.999995 0.252000 0.408600
O O7 0.247747 0.532620 0.401627
O O8 0.250005 0.750001 0.612097
#
# Coordination Sequence:
#
# PCOD9344371 Si02
#       4
#     4   4   4   4
#     4  12  23  38  60  94 122 156 197 256 302 354
#     4  10  16  32  59  84 101 150 218 232 257 355
#     4  12  23  38  60  94 122 156 197 256 302 354
#     4  10  16  32  59  84 101 150 218 232 257 355
#
# _framework density 27.761078999999999
#
# number of rings (size 3 to 8) (size 9 to 14) (size 15 to 20)
#    0.000    1.000   10.000    1.500    0.000    0.000 
#    0.000    0.000    0.000    3.000    0.000    0.000 
#    0.000    0.000    0.000    0.000    0.000    0.000 
#
# Total GULP energy -89413.828385 kJ/mol
# GULP energy per Si atom -5588.364274 kJ/mol
# Density = 2.769789 g / cm^3
# Si number density = 27.761079 Si / 1000 Ang^3
#
#
#
# Elastic Constant Matrix: (Units=GPa)
#
#
# Indices 1 2 3 4 5 6 
#
# 1 377.4667 69.1719 13.8300 0.0000 0.0000 0.0000
# 2 69.1719 125.1416 6.1905 0.0000 0.0000 0.0000
# 3 13.8300 6.1905 85.4725 0.0000 0.0000 0.0000
# 4 0.0000 0.0000 0.0000 18.5217 0.0000 0.0000
# 5 0.0000 0.0000 0.0000 0.0000 15.9140 0.0000
# 6 0.0000 0.0000 0.0000 0.0000 0.0000 23.9571
#
#
#
# Elastic Compliance Matrix: (Units=1/GPa)
#
#
# Indices 1 2 3 4 5 6 
#
# 1 0.002959 -0.001618 -0.000362 0.000000 0.000000 0.000000
# 2 -0.001618 0.008904 -0.000383 0.000000 0.000000 0.000000
# 3 -0.000362 -0.000383 0.011786 0.000000 0.000000 0.000000
# 4 0.000000 0.000000 0.000000 0.053991 0.000000 0.000000
# 5 0.000000 0.000000 0.000000 0.000000 0.062838 0.000000
# 6 0.000000 0.000000 0.000000 0.000000 0.000000 0.041741
#
#
# Mechanical properties :
#
#
# Convention : Reuss Voigt Hill
#
# Bulk Modulus (GPa) = 52.84269 85.16283 69.00276
# Shear Modulus (GPa) = 25.87302 44.93779 35.40540
#
# Velocity S-wave (km/s) = 3.05616 4.02771 3.57509
# Velocity P-wave (km/s) = 5.61513 7.23696 6.47701
#
# Compressibility (1/GPa) = 0.01892409
#
# Stress axis : x y z
#
# Youngs Moduli (GPa) = 337.96008 112.30838 84.84694
#
# Poissons Ratio (x) = 0.18168 0.03068
# Poissons Ratio (y) = 0.54670 0.03251
# Poissons Ratio (z) = 0.12221 0.04303
#
# Static dielectric constant tensor:
#      x y z
#    x 2.320320 0.000000 0.000000 
#    y 0.000000 2.136580 0.000000 
#    z 0.000000 0.000000 2.238940 
# 
# From -- ./inp_files/7364.got.cif
#   From: 2010.05.17/outbox.cif.g08.bks.cpg/sg33_4_cif.got.tgz:7364.got - 2010.06.03 17:15:25.
