data_PCOD9344195
_publ_section_title
;
Structure prediction by ZEFSAII (Michael W. Deem and Ramdas Pophale) SiO2 
 PCOD9344195
Probable space group: P B A 2
;
_chemical_formula_sum "Si O2"
_cell_formula_units_Z 20
_cell_length_a 11.304724
_cell_length_b 7.755272
_cell_length_c 9.186427
_cell_angle_alpha 90.000000
_cell_angle_beta 90.000000
_cell_angle_gamma 90.000000
_cell_volume 805.385166
_symmetry_space_group_name_H-M "P B A 2"
_symmetry_group_IT_number 32
_symmetry_cell_setting 'orthorhombic'
loop_
_space_group_symop_operation_xyz
x,y,z
-x,-y,z
1/2-x,1/2+y,z
1/2+x,1/2-y,z
loop_
_atom_site_type_symbol
_atom_site_label
_atom_site_fract_x
_atom_site_fract_y
_atom_site_fract_z
Si Si1 0.810735 0.489942 0.653270
Si Si2 0.365861 0.029331 0.346073
Si Si3 0.491069 0.700724 0.697159
Si Si4 0.295351 0.322558 0.143707
Si Si5 0.844222 0.905178 0.933045
O O1 0.777013 0.469762 0.483648
O O2 0.896713 0.323733 0.674663
O O3 0.718625 0.485226 0.787223
O O4 0.881740 0.672756 0.652932
O O5 0.318537 0.889743 0.232252
O O6 0.500000 0.000000 0.396210
O O7 0.364659 0.204620 0.254935
O O8 0.500000 0.500000 0.639202
O O9 0.537799 0.321693 0.868459
O O10 0.364006 0.480548 0.075027
O O11 0.249386 0.226903 0.000020
#
# Coordination Sequence:
#
# PCOD9344195 Si02
#       5
#     4   4   4   4   4
#     4  11  25  46  72 106 144 182 242 306 349 418
#     4  11  25  48  68 102 147 188 231 303 360 427
#     4  11  24  41  73 107 135 181 241 290 365 413
#     4  10  25  42  70 101 140 192 231 281 372 425
#     4  11  22  46  69 102 138 184 238 296 343 427
#
# _framework density 24.832840000000001
#
# number of rings (size 3 to 8) (size 9 to 14) (size 15 to 20)
#    0.000    1.200    4.000    1.200    2.800    4.800 
#    3.600    3.000    0.000    0.000    0.000    0.000 
#    0.000    0.000    0.000    0.000    0.000    0.000 
#
# Total GULP energy -111607.271606 kJ/mol
# GULP energy per Si atom -5580.363580 kJ/mol
# Density = 2.477632 g / cm^3
# Si number density = 24.832840 Si / 1000 Ang^3
#
#
#
# Elastic Constant Matrix: (Units=GPa)
#
#
# Indices 1 2 3 4 5 6 
#
# 1 72.1080 17.2546 20.7677 0.0000 0.0000 0.0000
# 2 17.2546 138.5880 32.7011 0.0000 0.0000 0.0000
# 3 20.7677 32.7011 146.5175 0.0000 0.0000 0.0000
# 4 0.0000 0.0000 0.0000 36.6890 0.0000 0.0000
# 5 0.0000 0.0000 0.0000 0.0000 36.2548 0.0000
# 6 0.0000 0.0000 0.0000 0.0000 0.0000 22.6694
#
#
#
# Elastic Compliance Matrix: (Units=1/GPa)
#
#
# Indices 1 2 3 4 5 6 
#
# 1 0.014716 -0.001415 -0.001770 0.000000 0.000000 0.000000
# 2 -0.001415 0.007753 -0.001530 0.000000 0.000000 0.000000
# 3 -0.001770 -0.001530 0.007417 0.000000 0.000000 0.000000
# 4 0.000000 0.000000 0.000000 0.027256 0.000000 0.000000
# 5 0.000000 0.000000 0.000000 0.000000 0.027583 0.000000
# 6 0.000000 0.000000 0.000000 0.000000 0.000000 0.044112
#
#
# Mechanical properties :
#
#
# Convention : Reuss Voigt Hill
#
# Bulk Modulus (GPa) = 48.88198 55.40671 52.14435
# Shear Modulus (GPa) = 34.46235 38.22198 36.34217
#
# Velocity S-wave (km/s) = 3.72932 3.92748 3.82969
# Velocity P-wave (km/s) = 6.18635 6.55188 6.37174
#
# Compressibility (1/GPa) = 0.02045744
#
# Stress axis : x y z
#
# Youngs Moduli (GPa) = 67.95135 128.98693 134.81665
#
# Poissons Ratio (x) = 0.18246 0.23866
# Poissons Ratio (y) = 0.09612 0.20625
# Poissons Ratio (z) = 0.12029 0.19733
#
# Static dielectric constant tensor:
#      x y z
#    x 2.175060 0.000000 0.000000 
#    y 0.000000 2.143770 0.000000 
#    z 0.000000 0.000000 1.867500 
# 
# From -- ./inp_files/2951.got.cif
#   From: 2010.05.17/outbox.cif.g08.bks.cpg/sg32_2_cif.got.tgz:2951.got - 2010.06.03 17:12:27.
