data_PCOD9344046
_publ_section_title
;
Structure prediction by ZEFSAII (Michael W. Deem and Ramdas Pophale) SiO2 
 PCOD9344046
Probable space group: P B A 2
;
_chemical_formula_sum "Si O2"
_cell_formula_units_Z 18
_cell_length_a 6.953631
_cell_length_b 18.120857
_cell_length_c 6.115470
_cell_angle_alpha 90.000000
_cell_angle_beta 90.000000
_cell_angle_gamma 90.000000
_cell_volume 770.584402
_symmetry_space_group_name_H-M "P B A 2"
_symmetry_group_IT_number 32
_symmetry_cell_setting 'orthorhombic'
loop_
_space_group_symop_operation_xyz
x,y,z
-x,-y,z
1/2-x,1/2+y,z
1/2+x,1/2-y,z
loop_
_atom_site_type_symbol
_atom_site_label
_atom_site_fract_x
_atom_site_fract_y
_atom_site_fract_z
Si Si1 0.526887 0.704080 0.079640
Si Si2 0.521569 0.363299 0.488419
Si Si3 0.269186 0.911007 0.873604
Si Si4 0.500000 0.500000 0.159262
Si Si5 0.339773 0.154856 0.836696
O O1 0.517186 0.709760 0.341121
O O2 0.713579 0.653855 0.043144
O O3 0.550547 0.770005 0.907102
O O4 0.335570 0.659758 0.008933
O O5 0.353664 0.386762 0.659381
O O6 0.534613 0.432322 0.323684
O O7 0.720801 0.350972 0.614137
O O8 0.495758 0.907080 0.839705
O O9 0.175239 0.981312 0.993002
#
# Coordination Sequence:
#
# PCOD9344046 Si02
#       5
#     4   4   4   2   4
#     4  10  22  41  62 101 142 169 221 284 346 420
#     4  10  24  43  70  98 133 189 227 285 354 408
#     4  10  22  44  68  96 137 180 224 289 337 413
#     4  10  22  48  68  94 140 182 242 286 342 410
#     4  11  22  43  65 105 137 176 225 284 347 421
#
# _framework density 23.358896000000001
#
# number of rings (size 3 to 8) (size 9 to 14) (size 15 to 20)
#    0.000    1.778    2.222    0.667    0.000    7.111 
#    0.000   26.667    0.000    0.000    0.000    0.000 
#    0.000    0.000    0.000    0.000    0.000    0.000 
#
# Total GULP energy -100288.493564 kJ/mol
# GULP energy per Si atom -5571.582976 kJ/mol
# Density = 2.330573 g / cm^3
# Si number density = 23.358896 Si / 1000 Ang^3
#
#
#
# Elastic Constant Matrix: (Units=GPa)
#
#
# Indices 1 2 3 4 5 6 
#
# 1 159.8117 31.1189 69.2844 0.0000 0.0000 0.0000
# 2 31.1189 73.2178 42.2380 0.0000 0.0000 0.0000
# 3 69.2844 42.2380 157.7936 0.0000 0.0000 0.0000
# 4 0.0000 0.0000 0.0000 39.2193 0.0000 0.0000
# 5 0.0000 0.0000 0.0000 0.0000 18.3555 0.0000
# 6 0.0000 0.0000 0.0000 0.0000 0.0000 33.2886
#
#
#
# Elastic Compliance Matrix: (Units=1/GPa)
#
#
# Indices 1 2 3 4 5 6 
#
# 1 0.007884 -0.001601 -0.003033 0.000000 0.000000 0.000000
# 2 -0.001601 0.016477 -0.003708 0.000000 0.000000 0.000000
# 3 -0.003033 -0.003708 0.008662 0.000000 0.000000 0.000000
# 4 0.000000 0.000000 0.000000 0.025498 0.000000 0.000000
# 5 0.000000 0.000000 0.000000 0.000000 0.054480 0.000000
# 6 0.000000 0.000000 0.000000 0.000000 0.000000 0.030040
#
#
# Mechanical properties :
#
#
# Convention : Reuss Voigt Hill
#
# Bulk Modulus (GPa) = 61.20238 75.12286 68.16262
# Shear Modulus (GPa) = 30.27168 34.71812 32.49490
#
# Velocity S-wave (km/s) = 3.60382 3.85943 3.73381
# Velocity P-wave (km/s) = 6.60109 7.21736 6.91610
#
# Compressibility (1/GPa) = 0.01633923
#
# Stress axis : x y z
#
# Youngs Moduli (GPa) = 126.83678 60.68986 115.45130
#
# Poissons Ratio (x) = 0.09717 0.35019
# Poissons Ratio (y) = 0.20308 0.42804
# Poissons Ratio (z) = 0.38472 0.22501
#
# Static dielectric constant tensor:
#      x y z
#    x 1.874430 0.000000 0.000000 
#    y 0.000000 2.092300 0.000000 
#    z 0.000000 0.000000 1.897430 
# 
# From -- ./inp_files/149.got.cif
#   From: 2010.05.17/outbox.cif.g08.bks.cpg/sg32_1_cif.got.tgz:149.got - 2010.06.03 17:12:27.
