data_PCOD9344472
_publ_section_title
;
Structure prediction by ZEFSAII (Michael W. Deem and Ramdas Pophale) SiO2 
 PCOD9344472
Probable space group: P N A 21
;
_chemical_formula_sum "Si O2"
_cell_formula_units_Z 32
_cell_length_a 5.138770
_cell_length_b 6.688572
_cell_length_c 41.015488
_cell_angle_alpha 90.000000
_cell_angle_beta 90.000000
_cell_angle_gamma 90.000000
_cell_volume 1409.744697
_symmetry_space_group_name_H-M "P N A 21"
_symmetry_group_IT_number 33
_symmetry_cell_setting 'orthorhombic'
loop_
_space_group_symop_operation_xyz
x,y,z
-x,-y,1/2+z
1/2-x,1/2+y,1/2+z
1/2+x,1/2-y,z
loop_
_atom_site_type_symbol
_atom_site_label
_atom_site_fract_x
_atom_site_fract_y
_atom_site_fract_z
Si Si1 0.620760 0.454622 0.953430
Si Si2 0.193607 0.612069 0.182908
Si Si3 0.679992 0.620188 0.817319
Si Si4 0.213671 0.390072 0.387094
Si Si5 0.314117 0.617636 0.251345
Si Si6 0.810462 0.121517 0.047680
Si Si7 0.807221 0.885078 0.113931
Si Si8 0.618625 0.004408 0.980057
O O1 0.736349 0.463149 0.917318
O O2 0.571648 0.237689 0.969152
O O3 0.338231 0.554896 0.954217
O O4 0.824995 0.567819 0.976679
O O5 0.403550 0.796325 0.182826
O O6 0.252254 0.505319 0.217206
O O7 0.251486 0.506451 0.148510
O O8 0.382836 0.694883 0.817520
O O9 0.743559 0.511837 0.851526
O O10 0.730498 0.501528 0.784349
O O11 0.433828 0.215982 0.388718
O O12 0.607369 0.700186 0.250993
O O13 0.107251 0.194444 0.045767
O O14 0.765447 0.014431 0.081881
O O15 0.733531 0.992654 0.016080
O O16 0.596895 0.705189 0.113405
#
# Coordination Sequence:
#
# PCOD9344472 Si02
#       8
#     4   4   4   4   4   4   4   4
#     4  10  18  35  54  75  93 136 178 211 258 332
#     4   8  16  32  55  77 111 148 177 226 277 317
#     4  10  21  38  56  79 118 156 175 220 292 337
#     4  10  21  37  54  75 108 143 176 217 273 328
#     4  10  19  35  58  86 111 143 194 233 262 320
#     4  12  21  38  60  79 114 149 179 229 286 338
#     4  10  21  38  57  84 112 147 190 225 275 332
#     4  10  19  35  56  71 101 132 173 215 281 310
#
# _framework density 22.699147
#
# number of rings (size 3 to 8) (size 9 to 14) (size 15 to 20)
#    0.000    2.000    2.500    2.250    0.000    0.000 
#    4.500    5.000    0.000    0.000    0.000    0.000 
#    0.000    0.000    0.000    0.000    0.000    0.000 
#
# Total GULP energy -178539.250769 kJ/mol
# GULP energy per Si atom -5579.351587 kJ/mol
# Density = 2.264748 g / cm^3
# Si number density = 22.699147 Si / 1000 Ang^3
#
#
#
# Elastic Constant Matrix: (Units=GPa)
#
#
# Indices 1 2 3 4 5 6 
#
# 1 116.1370 -17.0599 -10.2465 0.0000 0.0000 0.0000
# 2 -17.0599 21.4585 8.0200 0.0000 0.0000 0.0000
# 3 -10.2465 8.0200 205.8945 0.0000 0.0000 0.0000
# 4 0.0000 0.0000 0.0000 31.8739 0.0000 0.0000
# 5 0.0000 0.0000 0.0000 0.0000 35.5458 0.0000
# 6 0.0000 0.0000 0.0000 0.0000 0.0000 -4.2793
#
#
#
# Elastic Compliance Matrix: (Units=1/GPa)
#
#
# Indices 1 2 3 4 5 6 
#
# 1 0.009756 0.007687 0.000186 0.000000 0.000000 0.000000
# 2 0.007687 0.053346 -0.001695 0.000000 0.000000 0.000000
# 3 0.000186 -0.001695 0.004932 0.000000 0.000000 0.000000
# 4 0.000000 0.000000 0.000000 0.031374 0.000000 0.000000
# 5 0.000000 0.000000 0.000000 0.000000 0.028133 0.000000
# 6 0.000000 0.000000 0.000000 0.000000 0.000000 -0.233682
#
#
# Mechanical properties :
#
#
# Convention : Reuss Voigt Hill
#
# Bulk Modulus (GPa) = 12.43948 33.87969 23.15959
# Shear Modulus (GPa) = -54.52565 36.81316 -8.85625
#
# Velocity S-wave (km/s) = -4.90644 4.03151 -1.97738
# Velocity P-wave (km/s) = 5.15805 6.05216 2.23866
#
# Compressibility (1/GPa) = 0.08038920
#
# Stress axis : x y z
#
# Youngs Moduli (GPa) = 102.50030 18.74546 202.75098
#
# Poissons Ratio (x) = -0.14409 -0.03773
# Poissons Ratio (y) = -0.78789 0.34375
# Poissons Ratio (z) = -0.01908 0.03178
#
# Static dielectric constant tensor:
#      x y z
#    x 1.878100 0.000000 0.000000 
#    y 0.000000 2.213980 0.000000 
#    z 0.000000 0.000000 1.895650 
# 
# From -- ./inp_files/9366.got.cif
#   From: 2010.05.17/outbox.cif.g08.bks.cpg/sg33_5_cif.got.tgz:9366.got - 2010.06.03 17:15:25.
