data_PCOD9344157
_publ_section_title
;
Structure prediction by ZEFSAII (Michael W. Deem and Ramdas Pophale) SiO2 
 PCOD9344157
Probable space group: P B A 2
;
_chemical_formula_sum "Si O2"
_cell_formula_units_Z 18
_cell_length_a 16.106587
_cell_length_b 4.971450
_cell_length_c 8.880595
_cell_angle_alpha 90.000000
_cell_angle_beta 90.000000
_cell_angle_gamma 90.000000
_cell_volume 711.096700
_symmetry_space_group_name_H-M "P B A 2"
_symmetry_group_IT_number 32
_symmetry_cell_setting 'orthorhombic'
loop_
_space_group_symop_operation_xyz
x,y,z
-x,-y,z
1/2-x,1/2+y,z
1/2+x,1/2-y,z
loop_
_atom_site_type_symbol
_atom_site_label
_atom_site_fract_x
_atom_site_fract_y
_atom_site_fract_z
Si Si1 0.305651 0.646986 0.373990
Si Si2 0.192757 0.639205 0.901928
Si Si3 0.000000 0.500000 0.392850
Si Si4 0.923741 0.118580 0.143595
Si Si5 0.087826 0.846199 0.619484
O O1 0.272655 0.947230 0.368644
O O2 0.362551 0.584898 0.229766
O O3 0.355714 0.549030 0.520913
O O4 0.227347 0.337541 0.900251
O O5 0.136950 0.734724 0.761891
O O6 0.135795 0.693469 0.046862
O O7 0.023994 0.729719 0.272873
O O8 0.069096 0.588517 0.514343
O O9 0.000000 0.000000 0.045857
O O10 0.000000 0.000000 0.647398
#
# Coordination Sequence:
#
# PCOD9344157 Si02
#       5
#     4   4   2   4   4
#     4  11  24  41  68 102 146 189 240 303 365 437
#     4  12  29  51  76 108 154 200 246 310 381 448
#     4  10  24  42  76 102 144 188 248 308 362 430
#     4  11  26  45  74 108 147 197 256 303 376 443
#     4  11  26  45  74 108 147 197 256 303 376 443
#
# _framework density 25.313013999999999
#
# number of rings (size 3 to 8) (size 9 to 14) (size 15 to 20)
#    0.000    0.889    0.000    6.000   18.667    0.889 
#    0.000    0.000    0.000    0.000    0.000    0.000 
#    0.000    0.000    0.000    0.000    0.000    0.000 
#
# Total GULP energy -100669.778369 kJ/mol
# GULP energy per Si atom -5592.765465 kJ/mol
# Density = 2.525540 g / cm^3
# Si number density = 25.313014 Si / 1000 Ang^3
#
#
#
# Elastic Constant Matrix: (Units=GPa)
#
#
# Indices 1 2 3 4 5 6 
#
# 1 131.9173 29.3930 34.9236 0.0000 0.0000 0.0000
# 2 29.3930 72.9888 11.8403 0.0000 0.0000 0.0000
# 3 34.9236 11.8403 105.9036 0.0000 0.0000 0.0000
# 4 0.0000 0.0000 0.0000 112.1386 0.0000 0.0000
# 5 0.0000 0.0000 0.0000 0.0000-9726.9871 0.0000
# 6 0.0000 0.0000 0.0000 0.0000 0.0000 19.9867
#
#
#
# Elastic Compliance Matrix: (Units=1/GPa)
#
#
# Indices 1 2 3 4 5 6 
#
# 1 0.008982 -0.003195 -0.002605 0.000000 0.000000 0.000000
# 2 -0.003195 0.015090 -0.000634 0.000000 0.000000 0.000000
# 3 -0.002605 -0.000634 0.010372 0.000000 0.000000 0.000000
# 4 0.000000 0.000000 0.000000 0.008918 0.000000 0.000000
# 5 0.000000 0.000000 0.000000 0.000000 -0.000103 0.000000
# 6 0.000000 0.000000 0.000000 0.000000 0.000000 0.050033
#
#
# Mechanical properties :
#
#
# Convention : Reuss Voigt Hill
#
# Bulk Modulus (GPa) = 46.34276 51.45816 48.90046
# Shear Modulus (GPa) = 44.11083 -1903.32884 -929.60901
#
# Velocity S-wave (km/s) = 4.17899 -27.45086 -19.18444
# Velocity P-wave (km/s) = 6.45236 31.37451 21.71091
#
# Compressibility (1/GPa) = 0.02157834
#
# Stress axis : x y z
#
# Youngs Moduli (GPa) = 111.33530 66.26916 96.40997
#
# Poissons Ratio (x) = 0.21170 0.25113
# Poissons Ratio (y) = 0.35566 0.06109
# Poissons Ratio (z) = 0.29000 0.04199
#
# Static dielectric constant tensor:
#      x y z
#    x 2.404630 0.000000 0.000000 
#    y 0.000000 1.675460 0.000000 
#    z 0.000000 0.000000 1.970040 
# 
# From -- ./inp_files/3151.got.cif
#   From: 2010.05.17/outbox.cif.g08.bks.cpg/sg32_2_cif.got.tgz:3151.got - 2010.06.03 17:12:27.
