data_PCOD9344235
_publ_section_title
;
Structure prediction by ZEFSAII (Michael W. Deem and Ramdas Pophale) SiO2 
 PCOD9344235
Probable space group: P B A 2
;
_chemical_formula_sum "Si O2"
_cell_formula_units_Z 32
_cell_length_a 16.454674
_cell_length_b 15.045921
_cell_length_c 6.749713
_cell_angle_alpha 90.000000
_cell_angle_beta 90.000000
_cell_angle_gamma 90.000000
_cell_volume 1671.065090
_symmetry_space_group_name_H-M "P B A 2"
_symmetry_group_IT_number 32
_symmetry_cell_setting 'orthorhombic'
loop_
_space_group_symop_operation_xyz
x,y,z
-x,-y,z
1/2-x,1/2+y,z
1/2+x,1/2-y,z
loop_
_atom_site_type_symbol
_atom_site_label
_atom_site_fract_x
_atom_site_fract_y
_atom_site_fract_z
Si Si1 0.826236 0.660090 0.356510
Si Si2 0.588050 0.323820 0.586461
Si Si3 0.215342 0.778639 0.011816
Si Si4 0.027421 0.772048 0.930997
Si Si5 0.047571 0.411825 0.031235
Si Si6 0.560489 0.419038 0.190404
Si Si7 0.305629 0.925303 0.755975
Si Si8 0.207478 0.093347 0.914508
O O1 0.868477 0.742050 0.472970
O O2 0.749345 0.692384 0.226867
O O3 0.890786 0.619787 0.202296
O O4 0.802740 0.588454 0.521822
O O5 0.510057 0.292013 0.713916
O O6 0.565620 0.395543 0.420552
O O7 0.649974 0.367426 0.742159
O O8 0.121139 0.794355 0.966698
O O9 0.266155 0.837965 0.856467
O O10 0.237063 0.675313 0.983704
O O11 0.011412 0.669695 0.982456
O O12 0.974588 0.832209 0.080030
O O13 0.000000 0.500000 0.088383
O O14 0.102839 0.429888 0.838013
O O15 0.500000 0.500000 0.151472
O O16 0.648354 0.436013 0.093481
O O17 0.258105 0.010934 0.833457
#
# Coordination Sequence:
#
# PCOD9344235 Si02
#       8
#     4   4   4   4   4   4   4   4
#     4  11  21  45  66  89 133 177 217 272 335 399
#     4  11  21  43  67  88 132 175 214 271 332 390
#     4  11  23  41  65  92 129 173 216 271 337 402
#     4  11  23  41  65  93 129 172 216 270 334 399
#     4  11  23  42  65  93 130 172 218 274 334 394
#     4  11  23  41  66  94 128 170 218 273 327 395
#     4  11  23  42  65  94 129 170 219 276 331 400
#     4  11  23  41  65  93 129 170 218 271 334 393
#
# _framework density 19.149464999999999
#
# number of rings (size 3 to 8) (size 9 to 14) (size 15 to 20)
#    0.000    1.000    5.000    3.000    0.000    7.500 
#    4.500    0.000    0.000    0.000    0.000    0.000 
#    0.000    0.000    0.000    0.000    0.000    0.000 
#
# Total GULP energy -178848.746659 kJ/mol
# GULP energy per Si atom -5589.023333 kJ/mol
# Density = 1.910588 g / cm^3
# Si number density = 19.149465 Si / 1000 Ang^3
#
#
#
# Elastic Constant Matrix: (Units=GPa)
#
#
# Indices 1 2 3 4 5 6 
#
# 1 78.5626 8.7247 22.9040 0.0000 0.0000 0.0000
# 2 8.7247 85.8825 13.7296 0.0000 0.0000 0.0000
# 3 22.9040 13.7296 108.4403 0.0000 0.0000 0.0000
# 4 0.0000 0.0000 0.0000 26.4645 0.0000 0.0000
# 5 0.0000 0.0000 0.0000 0.0000 22.5060 0.0000
# 6 0.0000 0.0000 0.0000 0.0000 0.0000 38.0874
#
#
#
# Elastic Compliance Matrix: (Units=1/GPa)
#
#
# Indices 1 2 3 4 5 6 
#
# 1 0.013639 -0.000944 -0.002761 0.000000 0.000000 0.000000
# 2 -0.000944 0.011950 -0.001314 0.000000 0.000000 0.000000
# 3 -0.002761 -0.001314 0.009971 0.000000 0.000000 0.000000
# 4 0.000000 0.000000 0.000000 0.037786 0.000000 0.000000
# 5 0.000000 0.000000 0.000000 0.000000 0.044433 0.000000
# 6 0.000000 0.000000 0.000000 0.000000 0.000000 0.026255
#
#
# Mechanical properties :
#
#
# Convention : Reuss Voigt Hill
#
# Bulk Modulus (GPa) = 39.18208 40.40022 39.79115
# Shear Modulus (GPa) = 30.75435 32.58005 31.66720
#
# Velocity S-wave (km/s) = 4.01186 4.12922 4.07097
# Velocity P-wave (km/s) = 6.47809 6.62398 6.55144
#
# Compressibility (1/GPa) = 0.02552187
#
# Stress axis : x y z
#
# Youngs Moduli (GPa) = 73.32179 83.68396 100.28933
#
# Poissons Ratio (x) = 0.07901 0.27691
# Poissons Ratio (y) = 0.06922 0.13173
# Poissons Ratio (z) = 0.20245 0.10992
#
# Static dielectric constant tensor:
#      x y z
#    x 1.658370 0.000000 0.000000 
#    y 0.000000 1.654560 0.000000 
#    z 0.000000 0.000000 1.658220 
# 
# From -- ./inp_files/1471.got.cif
#   From: 2010.05.17/outbox.cif.g08.bks.cpg/sg32_1_cif.got.tgz:1471.got - 2010.06.03 17:12:27.
