data_PCOD9344764
_publ_section_title
;
Structure prediction by ZEFSAII (Michael W. Deem and Ramdas Pophale) SiO2 
 PCOD9344764
Probable space group: P N A 21
;
_chemical_formula_sum "Si O2"
_cell_formula_units_Z 32
_cell_length_a 15.336349
_cell_length_b 8.762980
_cell_length_c 10.764954
_cell_angle_alpha 90.000000
_cell_angle_beta 90.000000
_cell_angle_gamma 90.000000
_cell_volume 1446.724985
_symmetry_space_group_name_H-M "P N A 21"
_symmetry_group_IT_number 33
_symmetry_cell_setting 'orthorhombic'
loop_
_space_group_symop_operation_xyz
x,y,z
-x,-y,1/2+z
1/2-x,1/2+y,1/2+z
1/2+x,1/2-y,z
loop_
_atom_site_type_symbol
_atom_site_label
_atom_site_fract_x
_atom_site_fract_y
_atom_site_fract_z
Si Si1 0.661007 0.199295 0.939580
Si Si2 0.670276 0.531943 0.004870
Si Si3 0.854254 0.158361 0.986376
Si Si4 0.159162 0.399298 0.663299
Si Si5 0.569401 0.485192 0.261038
Si Si6 0.423230 0.599088 0.135646
Si Si7 0.018667 0.565916 0.507555
Si Si8 0.970906 0.244049 0.407733
O O1 0.752304 0.176672 0.009904
O O2 0.668266 0.099608 0.812534
O O3 0.663121 0.382626 0.918990
O O4 0.574143 0.152650 0.014640
O O5 0.765549 0.551351 0.066995
O O6 0.614988 0.491366 0.128736
O O7 0.626983 0.677099 0.932375
O O8 0.868501 0.047230 0.868347
O O9 0.909338 0.311690 0.961746
O O10 0.894865 0.070370 0.103004
O O11 0.153653 0.217541 0.643178
O O12 0.069992 0.486155 0.623187
O O13 0.488042 0.602163 0.251561
O O14 0.523206 0.326113 0.292255
O O15 0.479178 0.661609 0.020998
O O16 0.991801 0.421342 0.422277
#
# Coordination Sequence:
#
# PCOD9344764 Si02
#       8
#     4   4   4   4   4   4   4   4
#     4  12  25  43  70 100 140 189 235 295 361 426
#     4  11  22  42  68  97 137 187 234 289 354 424
#     4  11  22  41  67  99 138 180 233 293 356 427
#     4  11  23  44  68  97 139 182 235 293 352 421
#     4  10  19  42  66  93 134 187 224 283 357 411
#     4   9  20  37  65  90 128 177 218 277 346 413
#     4  11  24  43  67 100 140 176 240 295 350 422
#     4   9  21  38  65  94 128 176 225 281 344 418
#
# _framework density 22.118924
#
# number of rings (size 3 to 8) (size 9 to 14) (size 15 to 20)
#    0.000    1.500    2.500    3.750    1.750    2.000 
#    0.000    1.250    0.000    0.000    0.000    0.000 
#    0.000    0.000    0.000    0.000    0.000    0.000 
#
# Total GULP energy -178187.405150 kJ/mol
# GULP energy per Si atom -5568.356411 kJ/mol
# Density = 2.206858 g / cm^3
# Si number density = 22.118924 Si / 1000 Ang^3
#
#
#
# Elastic Constant Matrix: (Units=GPa)
#
#
# Indices 1 2 3 4 5 6 
#
# 1 148.6845 49.1214 27.5956 0.0000 0.0000 0.0000
# 2 49.1214 105.1074 4.8116 0.0000 0.0000 0.0000
# 3 27.5956 4.8116 39.1094 0.0000 0.0000 0.0000
# 4 0.0000 0.0000 0.0000 25.2799 0.0000 0.0000
# 5 0.0000 0.0000 0.0000 0.0000 31.3595 0.0000
# 6 0.0000 0.0000 0.0000 0.0000 0.0000 32.3295
#
#
#
# Elastic Compliance Matrix: (Units=1/GPa)
#
#
# Indices 1 2 3 4 5 6 
#
# 1 0.009157 -0.004006 -0.005968 0.000000 0.000000 0.000000
# 2 -0.004006 0.011321 0.001434 0.000000 0.000000 0.000000
# 3 -0.005968 0.001434 0.029604 0.000000 0.000000 0.000000
# 4 0.000000 0.000000 0.000000 0.039557 0.000000 0.000000
# 5 0.000000 0.000000 0.000000 0.000000 0.031888 0.000000
# 6 0.000000 0.000000 0.000000 0.000000 0.000000 0.030931
#
#
# Mechanical properties :
#
#
# Convention : Reuss Voigt Hill
#
# Bulk Modulus (GPa) = 30.30227 50.66206 40.48217
# Shear Modulus (GPa) = 27.69475 31.88530 29.79003
#
# Velocity S-wave (km/s) = 3.54232 3.80088 3.67387
# Velocity P-wave (km/s) = 5.51907 6.49741 6.02812
#
# Compressibility (1/GPa) = 0.03300083
#
# Stress axis : x y z
#
# Youngs Moduli (GPa) = 109.20732 88.33360 33.77913
#
# Poissons Ratio (x) = 0.35388 0.20160
# Poissons Ratio (y) = 0.43751 -0.04844
# Poissons Ratio (z) = 0.65178 -0.12667
#
# Static dielectric constant tensor:
#      x y z
#    x 1.837160 0.000000 0.000000 
#    y 0.000000 1.852740 0.000000 
#    z 0.000000 0.000000 1.851490 
# 
# From -- ./inp_files/6760.got.cif
#   From: 2010.05.17/outbox.cif.g08.bks.cpg/sg33_4_cif.got.tgz:6760.got - 2010.06.03 17:15:25.
