data_PCOD9344945
_publ_section_title
;
Structure prediction by ZEFSAII (Michael W. Deem and Ramdas Pophale) SiO2 
 PCOD9344945
Probable space group: P N A 21
;
_chemical_formula_sum "Si O2"
_cell_formula_units_Z 28
_cell_length_a 5.361670
_cell_length_b 9.284663
_cell_length_c 22.908148
_cell_angle_alpha 90.000000
_cell_angle_beta 90.000000
_cell_angle_gamma 90.000000
_cell_volume 1140.397367
_symmetry_space_group_name_H-M "P N A 21"
_symmetry_group_IT_number 33
_symmetry_cell_setting 'orthorhombic'
loop_
_space_group_symop_operation_xyz
x,y,z
-x,-y,1/2+z
1/2-x,1/2+y,1/2+z
1/2+x,1/2-y,z
loop_
_atom_site_type_symbol
_atom_site_label
_atom_site_fract_x
_atom_site_fract_y
_atom_site_fract_z
Si Si1 0.069059 0.084032 0.582480
Si Si2 0.214567 0.930222 0.909969
Si Si3 0.673846 0.165467 0.290551
Si Si4 0.548591 0.093822 0.162487
Si Si5 0.779840 0.325284 0.056693
Si Si6 0.716348 0.897806 0.957492
Si Si7 0.927736 0.706773 0.190959
O O1 0.213291 0.133276 0.524433
O O2 0.016895 0.210343 0.629116
O O3 0.258621 0.980449 0.617483
O O4 0.834549 0.987567 0.560111
O O5 0.265540 0.947645 0.841476
O O6 0.455526 0.976696 0.946529
O O7 0.196107 0.758184 0.926001
O O8 0.946875 0.984804 0.930048
O O9 0.391125 0.217149 0.300426
O O10 0.684185 0.133621 0.222140
O O11 0.358291 0.193559 0.126008
O O12 0.373473 0.959872 0.182595
O O13 0.548824 0.229281 0.032895
O O14 0.694931 0.780088 0.221418
#
# Coordination Sequence:
#
# PCOD9344945 Si02
#       7
#     4   4   4   4   4   4   4
#     4  11  25  40  64  97 134 176 213 278 342 405
#     4  10  20  38  57  95 121 170 211 281 335 374
#     4  12  23  40  61  89 136 175 227 273 333 399
#     4  11  25  38  61  95 131 187 210 271 337 398
#     4  12  24  41  57  88 132 173 222 254 329 397
#     4  10  21  34  62  88 125 159 214 264 340 382
#     4  10  22  37  56  86 129 158 213 249 328 391
#
# _framework density 24.552848000000001
#
# number of rings (size 3 to 8) (size 9 to 14) (size 15 to 20)
#    0.000    1.143    5.714    0.857   12.000    0.000 
#    0.000    0.000    0.000    0.000    0.000   12.000 
#    0.000    0.000    0.000    0.000    0.000    0.000 
#
# Total GULP energy -156185.960422 kJ/mol
# GULP energy per Si atom -5578.070015 kJ/mol
# Density = 2.449697 g / cm^3
# Si number density = 24.552848 Si / 1000 Ang^3
#
#
#
# Elastic Constant Matrix: (Units=GPa)
#
#
# Indices 1 2 3 4 5 6 
#
# 1 142.0499 -8.3979 5.1428 0.0000 0.0000 0.0000
# 2 -8.3979 32.4649 -5.2791 0.0000 0.0000 0.0000
# 3 5.1428 -5.2791 114.9319 0.0000 0.0000 0.0000
# 4 0.0000 0.0000 0.0000 18.2274 0.0000 0.0000
# 5 0.0000 0.0000 0.0000 0.0000 31.6992 0.0000
# 6 0.0000 0.0000 0.0000 0.0000 0.0000 19.7658
#
#
#
# Elastic Compliance Matrix: (Units=1/GPa)
#
#
# Indices 1 2 3 4 5 6 
#
# 1 0.007156 0.001812 -0.000237 0.000000 0.000000 0.000000
# 2 0.001812 0.031493 0.001365 0.000000 0.000000 0.000000
# 3 -0.000237 0.001365 0.008774 0.000000 0.000000 0.000000
# 4 0.000000 0.000000 0.000000 0.054862 0.000000 0.000000
# 5 0.000000 0.000000 0.000000 0.000000 0.031547 0.000000
# 6 0.000000 0.000000 0.000000 0.000000 0.000000 0.050593
#
#
# Mechanical properties :
#
#
# Convention : Reuss Voigt Hill
#
# Bulk Modulus (GPa) = 18.75998 30.26426 24.51212
# Shear Modulus (GPa) = 25.46980 33.80386 29.63683
#
# Velocity S-wave (km/s) = 3.22428 3.71452 3.47805
# Velocity P-wave (km/s) = 4.63881 5.54525 5.11216
#
# Compressibility (1/GPa) = 0.05330496
#
# Stress axis : x y z
#
# Youngs Moduli (GPa) = 139.75244 31.75267 113.97149
#
# Poissons Ratio (x) = -0.05755 0.02700
# Poissons Ratio (y) = -0.25329 -0.15562
# Poissons Ratio (z) = 0.03311 -0.04336
#
# Static dielectric constant tensor:
#      x y z
#    x 2.118440 0.000000 0.000000 
#    y 0.000000 2.040980 0.000000 
#    z 0.000000 0.000000 1.993880 
# 
# From -- ./inp_files/8873.got.cif
#   From: 2010.05.17/outbox.cif.g08.bks.cpg/sg33_5_cif.got.tgz:8873.got - 2010.06.03 17:15:25.
