data_PCOD9344142
_publ_section_title
;
Structure prediction by ZEFSAII (Michael W. Deem and Ramdas Pophale) SiO2 
 PCOD9344142
Probable space group: P B A 2
;
_chemical_formula_sum "Si O2"
_cell_formula_units_Z 20
_cell_length_a 14.291295
_cell_length_b 8.895295
_cell_length_c 6.420241
_cell_angle_alpha 90.000000
_cell_angle_beta 90.000000
_cell_angle_gamma 90.000000
_cell_volume 816.174967
_symmetry_space_group_name_H-M "P B A 2"
_symmetry_group_IT_number 32
_symmetry_cell_setting 'orthorhombic'
loop_
_space_group_symop_operation_xyz
x,y,z
-x,-y,z
1/2-x,1/2+y,z
1/2+x,1/2-y,z
loop_
_atom_site_type_symbol
_atom_site_label
_atom_site_fract_x
_atom_site_fract_y
_atom_site_fract_z
Si Si1 0.000000 0.500000 0.003120
Si Si2 0.860011 0.540409 0.651415
Si Si3 0.895077 0.812449 0.414906
Si Si4 0.000000 0.000000 0.764492
Si Si5 0.559774 0.685106 0.134934
Si Si6 0.801074 0.231746 0.493123
O O1 0.945762 0.365036 0.112894
O O2 0.919974 0.572752 0.855608
O O3 0.909349 0.635050 0.467280
O O4 0.855495 0.363012 0.613084
O O5 0.756758 0.616833 0.640361
O O6 0.784603 0.821263 0.382381
O O7 0.934087 0.900840 0.614927
O O8 0.957190 0.856274 0.221966
O O9 0.063664 0.894978 0.912511
O O10 0.634952 0.655599 0.317477
#
# Coordination Sequence:
#
# PCOD9344142 Si02
#       6
#     2   4   4   2   4   4
#     4  12  24  50  72 118 150 198 266 308 382 464
#     4  10  23  47  73 106 151 202 239 318 386 446
#     4  10  25  48  70 105 154 193 240 317 383 440
#     4  12  26  46  76 108 154 194 256 308 386 450
#     4  12  25  46  79 107 146 202 251 314 373 464
#     4  10  25  46  73 105 146 197 246 305 382 446
#
# _framework density 24.504553000000001
#
# number of rings (size 3 to 8) (size 9 to 14) (size 15 to 20)
#    1.200    0.000    2.000    3.000    5.600    0.000 
#   10.800    0.000    0.000    0.000    0.000    0.000 
#    0.000    0.000    0.000    0.000    0.000    0.000 
#
# Total GULP energy -111736.572397 kJ/mol
# GULP energy per Si atom -5586.828620 kJ/mol
# Density = 2.444878 g / cm^3
# Si number density = 24.504553 Si / 1000 Ang^3
#
#
#
# Elastic Constant Matrix: (Units=GPa)
#
#
# Indices 1 2 3 4 5 6 
#
# 1 115.9040 11.1803 25.5030 0.0000 0.0000 0.0000
# 2 11.1803 107.1753 23.9461 0.0000 0.0000 0.0000
# 3 25.5030 23.9461 53.9833 0.0000 0.0000 0.0000
# 4 0.0000 0.0000 0.0000 57.0923 0.0000 0.0000
# 5 0.0000 0.0000 0.0000 0.0000 19.9762 0.0000
# 6 0.0000 0.0000 0.0000 0.0000 0.0000 49.6558
#
#
#
# Elastic Compliance Matrix: (Units=1/GPa)
#
#
# Indices 1 2 3 4 5 6 
#
# 1 0.009629 0.000013 -0.004555 0.000000 0.000000 0.000000
# 2 0.000013 0.010357 -0.004600 0.000000 0.000000 0.000000
# 3 -0.004555 -0.004600 0.022717 0.000000 0.000000 0.000000
# 4 0.000000 0.000000 0.000000 0.017515 0.000000 0.000000
# 5 0.000000 0.000000 0.000000 0.000000 0.050060 0.000000
# 6 0.000000 0.000000 0.000000 0.000000 0.000000 0.020139
#
#
# Mechanical properties :
#
#
# Convention : Reuss Voigt Hill
#
# Bulk Modulus (GPa) = 40.95245 44.25794 42.60519
# Shear Modulus (GPa) = 31.87973 39.77374 35.82674
#
# Velocity S-wave (km/s) = 3.61081 4.03316 3.82782
# Velocity P-wave (km/s) = 5.84229 6.30784 6.07953
#
# Compressibility (1/GPa) = 0.02441856
#
# Stress axis : x y z
#
# Youngs Moduli (GPa) = 103.85565 96.55308 44.02053
#
# Poissons Ratio (x) = -0.00127 0.20050
# Poissons Ratio (y) = -0.00137 0.20251
# Poissons Ratio (z) = 0.47303 0.44419
#
# Static dielectric constant tensor:
#      x y z
#    x 1.921710 0.000000 0.000000 
#    y 0.000000 2.062800 0.000000 
#    z 0.000000 0.000000 1.886640 
# 
# From -- ./inp_files/1394.got.cif
#   From: 2010.05.17/outbox.cif.g08.bks.cpg/sg32_1_cif.got.tgz:1394.got - 2010.06.03 17:12:27.
