data_PCOD9344344
_publ_section_title
;
Structure prediction by ZEFSAII (Michael W. Deem and Ramdas Pophale) SiO2 
 PCOD9344344
Probable space group: P N A 21
;
_chemical_formula_sum "Si O2"
_cell_formula_units_Z 28
_cell_length_a 11.867276
_cell_length_b 9.699578
_cell_length_c 9.728961
_cell_angle_alpha 90.000000
_cell_angle_beta 90.000000
_cell_angle_gamma 90.000000
_cell_volume 1119.877052
_symmetry_space_group_name_H-M "P N A 21"
_symmetry_group_IT_number 33
_symmetry_cell_setting 'orthorhombic'
loop_
_space_group_symop_operation_xyz
x,y,z
-x,-y,1/2+z
1/2-x,1/2+y,1/2+z
1/2+x,1/2-y,z
loop_
_atom_site_type_symbol
_atom_site_label
_atom_site_fract_x
_atom_site_fract_y
_atom_site_fract_z
Si Si1 0.514934 0.925264 0.187490
Si Si2 0.840796 0.421345 0.056683
Si Si3 0.413231 0.310433 0.838706
Si Si4 0.175779 0.700059 0.870456
Si Si5 0.890820 0.866934 0.528631
Si Si6 0.316273 0.912514 0.406766
Si Si7 0.571481 0.227402 0.305515
O O1 0.577129 0.779611 0.200942
O O2 0.415157 0.894861 0.298381
O O3 0.438350 0.965006 0.057972
O O4 0.568585 0.070002 0.240973
O O5 0.831693 0.354460 0.209470
O O6 0.884883 0.307594 0.951607
O O7 0.715106 0.468672 0.019774
O O8 0.518842 0.386869 0.908222
O O9 0.304375 0.404875 0.835063
O O10 0.175877 0.564119 0.968660
O O11 0.303798 0.758173 0.873919
O O12 0.047600 0.756667 0.884282
O O13 0.832196 0.717286 0.503319
O O14 0.937006 0.840956 0.680632
#
# Coordination Sequence:
#
# PCOD9344344 Si02
#       7
#     4   4   4   4   4   4   4
#     4   9  17  29  46  73  98 133 160 206 257 296
#     4   8  15  27  43  71  95 123 159 207 242 287
#     4  10  15  27  48  75  93 125 166 208 247 294
#     4   9  16  30  47  72 102 130 162 208 252 290
#     4   9  14  25  48  71  95 118 166 213 246 280
#     4   8  17  27  44  73 100 122 159 214 253 291
#     4   9  16  29  48  73  95 131 164 206 247 296
#
# _framework density 25.002745000000001
#
# number of rings (size 3 to 8) (size 9 to 14) (size 15 to 20)
#    0.000    3.429    2.857    0.000    0.000    0.000 
#    0.000    4.286    0.000    3.429   11.143    0.000 
#    0.000    0.000    0.000    0.000    0.000    0.000 
#
# Total GULP energy -155930.044817 kJ/mol
# GULP energy per Si atom -5568.930172 kJ/mol
# Density = 2.494584 g / cm^3
# Si number density = 25.002745 Si / 1000 Ang^3
#
#
#
# Elastic Constant Matrix: (Units=GPa)
#
#
# Indices 1 2 3 4 5 6 
#
# 1 183.7114 41.1931 -0.5502 0.0000 0.0000 0.0000
# 2 41.1931 42.3463 6.4134 0.0000 0.0000 0.0000
# 3 -0.5502 6.4134 47.1865 0.0000 0.0000 0.0000
# 4 0.0000 0.0000 0.0000 31.6695 0.0000 0.0000
# 5 0.0000 0.0000 0.0000 0.0000 17.2658 0.0000
# 6 0.0000 0.0000 0.0000 0.0000 0.0000 52.2505
#
#
#
# Elastic Compliance Matrix: (Units=1/GPa)
#
#
# Indices 1 2 3 4 5 6 
#
# 1 0.007011 -0.006976 0.001030 0.000000 0.000000 0.000000
# 2 -0.006976 0.031052 -0.004302 0.000000 0.000000 0.000000
# 3 0.001030 -0.004302 0.021789 0.000000 0.000000 0.000000
# 4 0.000000 0.000000 0.000000 0.031576 0.000000 0.000000
# 5 0.000000 0.000000 0.000000 0.000000 0.057918 0.000000
# 6 0.000000 0.000000 0.000000 0.000000 0.000000 0.019139
#
#
# Mechanical properties :
#
#
# Convention : Reuss Voigt Hill
#
# Bulk Modulus (GPa) = 25.40872 40.81742 33.11307
# Shear Modulus (GPa) = 24.74043 35.31636 30.02840
#
# Velocity S-wave (km/s) = 3.14906 3.76240 3.46931
# Velocity P-wave (km/s) = 4.83803 5.93589 5.41486
#
# Compressibility (1/GPa) = 0.03935657
#
# Stress axis : x y z
#
# Youngs Moduli (GPa) = 142.64286 32.20413 45.89426
#
# Poissons Ratio (x) = 0.22464 -0.04726
# Poissons Ratio (y) = 0.99502 0.19743
# Poissons Ratio (z) = -0.14690 0.13854
#
# Static dielectric constant tensor:
#      x y z
#    x 2.057570 0.000000 0.000000 
#    y 0.000000 2.096760 0.000000 
#    z 0.000000 0.000000 2.121470 
# 
# From -- ./inp_files/6425.got.cif
#   From: 2010.05.17/outbox.cif.g08.bks.cpg/sg33_4_cif.got.tgz:6425.got - 2010.06.03 17:15:25.
