data_PCOD9344338
_publ_section_title
;
Structure prediction by ZEFSAII (Michael W. Deem and Ramdas Pophale) SiO2 
 PCOD9344338
Probable space group: P N A 21
;
_chemical_formula_sum "Si O2"
_cell_formula_units_Z 20
_cell_length_a 5.172654
_cell_length_b 6.549964
_cell_length_c 24.679716
_cell_angle_alpha 90.000000
_cell_angle_beta 90.000000
_cell_angle_gamma 90.000000
_cell_volume 836.165992
_symmetry_space_group_name_H-M "P N A 21"
_symmetry_group_IT_number 33
_symmetry_cell_setting 'orthorhombic'
loop_
_space_group_symop_operation_xyz
x,y,z
-x,-y,1/2+z
1/2-x,1/2+y,1/2+z
1/2+x,1/2-y,z
loop_
_atom_site_type_symbol
_atom_site_label
_atom_site_fract_x
_atom_site_fract_y
_atom_site_fract_z
Si Si1 0.177301 0.389571 0.587800
Si Si2 0.773583 0.605024 0.205500
Si Si3 0.118675 0.046714 0.315750
Si Si4 0.116187 0.503286 0.359598
Si Si5 0.212341 0.890807 0.973327
O O1 0.388253 0.203572 0.587074
O O2 0.224917 0.495190 0.645598
O O3 0.235876 0.499413 0.530944
O O4 0.535888 0.764336 0.208757
O O5 0.736580 0.453142 0.255795
O O6 0.068734 0.263770 0.343565
O O7 0.321855 0.926546 0.353454
O O8 0.836299 0.946124 0.315832
O O9 0.228211 0.518069 0.419601
O O10 0.427280 0.707826 0.971770
#
# Coordination Sequence:
#
# PCOD9344338 Si02
#       5
#     4   4   4   4   4
#     4   8  16  25  41  59  85 116 136 176 217 259
#     4  10  19  32  43  63  93 123 151 174 209 267
#     4  10  18  28  44  63  96 114 144 179 219 266
#     4  10  17  28  43  70  90 113 140 185 228 260
#     4  10  14  25  41  63  92 106 135 180 229 266
#
# _framework density 23.918697999999999
#
# number of rings (size 3 to 8) (size 9 to 14) (size 15 to 20)
#    0.000    2.400    4.000    1.200    0.000    0.000 
#    0.000    0.000    0.000    0.000    0.000    0.000 
#   36.000    0.000    0.000    0.000    0.000    0.000 
#
# Total GULP energy -111472.154934 kJ/mol
# GULP energy per Si atom -5573.607747 kJ/mol
# Density = 2.386426 g / cm^3
# Si number density = 23.918698 Si / 1000 Ang^3
#
#
#
# Elastic Constant Matrix: (Units=GPa)
#
#
# Indices 1 2 3 4 5 6 
#
# 1 149.4441 -25.0985 -19.6185 0.0000 0.0000 0.0000
# 2 -25.0985 39.3839 -7.9832 0.0000 0.0000 0.0000
# 3 -19.6185 -7.9832 195.7406 0.0000 0.0000 0.0000
# 4 0.0000 0.0000 0.0000 22.8022 0.0000 0.0000
# 5 0.0000 0.0000 0.0000 0.0000 33.8127 0.0000
# 6 0.0000 0.0000 0.0000 0.0000 0.0000 -37.8457
#
#
#
# Elastic Compliance Matrix: (Units=1/GPa)
#
#
# Indices 1 2 3 4 5 6 
#
# 1 0.007674 0.005089 0.000977 0.000000 0.000000 0.000000
# 2 0.005089 0.028977 0.001692 0.000000 0.000000 0.000000
# 3 0.000977 0.001692 0.005276 0.000000 0.000000 0.000000
# 4 0.000000 0.000000 0.000000 0.043855 0.000000 0.000000
# 5 0.000000 0.000000 0.000000 0.000000 0.029575 0.000000
# 6 0.000000 0.000000 0.000000 0.000000 0.000000 -0.026423
#
#
# Mechanical properties :
#
#
# Convention : Reuss Voigt Hill
#
# Bulk Modulus (GPa) = 17.40910 31.01870 24.21390
# Shear Modulus (GPa) = 54.01506 32.90506 43.46006
#
# Velocity S-wave (km/s) = 4.75729 3.71307 4.26724
# Velocity P-wave (km/s) = 6.12127 5.60170 5.86724
#
# Compressibility (1/GPa) = 0.05744123
#
# Stress axis : x y z
#
# Youngs Moduli (GPa) = 130.30508 34.51025 189.54845
#
# Poissons Ratio (x) = -0.17561 -0.18513
# Poissons Ratio (y) = -0.66308 -0.32068
# Poissons Ratio (z) = -0.12727 -0.05839
#
# Static dielectric constant tensor:
#      x y z
#    x 1.996800 0.000000 0.000000 
#    y 0.000000 2.823210 0.000000 
#    z 0.000000 0.000000 1.974670 
# 
# From -- ./inp_files/8336.got.cif
#   From: 2010.05.17/outbox.cif.g08.bks.cpg/sg33_5_cif.got.tgz:8336.got - 2010.06.03 17:15:25.
