data_PCOD9344069
_publ_section_title
;
Structure prediction by ZEFSAII (Michael W. Deem and Ramdas Pophale) SiO2 
 PCOD9344069
Probable space group: P B A 2
;
_chemical_formula_sum "Si O2"
_cell_formula_units_Z 32
_cell_length_a 8.591012
_cell_length_b 13.855873
_cell_length_c 11.240606
_cell_angle_alpha 90.000000
_cell_angle_beta 90.000000
_cell_angle_gamma 90.000000
_cell_volume 1338.036452
_symmetry_space_group_name_H-M "P B A 2"
_symmetry_group_IT_number 32
_symmetry_cell_setting 'orthorhombic'
loop_
_space_group_symop_operation_xyz
x,y,z
-x,-y,z
1/2-x,1/2+y,z
1/2+x,1/2-y,z
loop_
_atom_site_type_symbol
_atom_site_label
_atom_site_fract_x
_atom_site_fract_y
_atom_site_fract_z
Si Si1 0.602551 0.278535 0.937580
Si Si2 0.643930 0.699643 0.774309
Si Si3 0.178723 0.312076 0.534379
Si Si4 0.361824 0.358563 0.286117
Si Si5 0.853391 0.310013 0.109321
Si Si6 0.285160 0.573358 0.292437
Si Si7 0.864008 0.918338 0.547247
Si Si8 0.424378 0.091737 0.687145
O O1 0.501592 0.342588 0.845628
O O2 0.713055 0.207156 0.863609
O O3 0.711884 0.340057 0.024182
O O4 0.494177 0.216258 0.024614
O O5 0.701560 0.669729 0.644497
O O6 0.588771 0.810336 0.758843
O O7 0.271953 0.330006 0.410242
O O8 0.119126 0.199829 0.545224
O O9 0.031907 0.378559 0.572173
O O10 0.314412 0.287036 0.182200
O O11 0.319916 0.466425 0.250608
O O12 0.552462 0.363279 0.292755
O O13 0.856149 0.384265 0.217692
O O14 0.258021 0.563636 0.431714
O O15 0.751018 0.936956 0.656073
O O16 0.000000 0.000000 0.539900
O O17 0.500000 0.000000 0.747945
#
# Coordination Sequence:
#
# PCOD9344069 Si02
#       8
#     4   4   4   4   4   4   4   4
#     4  10  22  43  71  97 132 185 252 299 349 434
#     4  10  22  44  70  99 132 191 243 297 361 430
#     4  11  24  41  74 100 147 193 238 291 386 435
#     4  11  23  40  69 108 144 187 232 301 364 452
#     4  11  22  42  72  97 139 189 237 301 370 419
#     4  11  23  40  65 106 145 182 241 286 368 438
#     4  11  24  40  66 102 148 188 231 295 362 456
#     4  11  25  41  63 103 146 188 238 298 357 444
#
# _framework density 23.915641000000001
#
# number of rings (size 3 to 8) (size 9 to 14) (size 15 to 20)
#    0.000    1.250    5.000    0.750    3.500    1.000 
#    0.000    4.375    2.750    0.000    0.000    0.000 
#    0.000    0.000    0.000    0.000    0.000    0.000 
#
# Total GULP energy -178539.604796 kJ/mol
# GULP energy per Si atom -5579.362650 kJ/mol
# Density = 2.386121 g / cm^3
# Si number density = 23.915641 Si / 1000 Ang^3
#
#
#
# Elastic Constant Matrix: (Units=GPa)
#
#
# Indices 1 2 3 4 5 6 
#
# 1 85.6279 23.0922 49.2331 0.0000 0.0000 0.0000
# 2 23.0922 93.0739 10.8678 0.0000 0.0000 0.0000
# 3 49.2331 10.8678 110.1112 0.0000 0.0000 0.0000
# 4 0.0000 0.0000 0.0000 1.1524 0.0000 0.0000
# 5 0.0000 0.0000 0.0000 0.0000 47.3921 0.0000
# 6 0.0000 0.0000 0.0000 0.0000 0.0000 31.3263
#
#
#
# Elastic Compliance Matrix: (Units=1/GPa)
#
#
# Indices 1 2 3 4 5 6 
#
# 1 0.016666 -0.003303 -0.007126 0.000000 0.000000 0.000000
# 2 -0.003303 0.011524 0.000339 0.000000 0.000000 0.000000
# 3 -0.007126 0.000339 0.012234 0.000000 0.000000 0.000000
# 4 0.000000 0.000000 0.000000 0.867737 0.000000 0.000000
# 5 0.000000 0.000000 0.000000 0.000000 0.021101 0.000000
# 6 0.000000 0.000000 0.000000 0.000000 0.000000 0.031922
#
#
# Mechanical properties :
#
#
# Convention : Reuss Voigt Hill
#
# Bulk Modulus (GPa) = 49.39282 50.57769 49.98525
# Shear Modulus (GPa) = 5.06016 29.68215 17.37116
#
# Velocity S-wave (km/s) = 1.45617 3.52677 2.69801
# Velocity P-wave (km/s) = 4.85026 6.14642 5.53640
#
# Compressibility (1/GPa) = 0.02024586
#
# Stress axis : x y z
#
# Youngs Moduli (GPa) = 60.00121 86.77545 81.73697
#
# Poissons Ratio (x) = 0.28662 0.58245
# Poissons Ratio (y) = 0.19818 -0.02774
# Poissons Ratio (z) = 0.42756 -0.02945
#
# Static dielectric constant tensor:
#      x y z
#    x 2.027650 0.000000 0.000000 
#    y 0.000000 1.922880 0.000000 
#    z 0.000000 0.000000 1.920700 
# 
# From -- ./inp_files/3763.got.cif
#   From: 2010.05.17/outbox.cif.g08.bks.cpg/sg32_2_cif.got.tgz:3763.got - 2010.06.03 17:12:27.
