data_PCOD9344071
_publ_section_title
;
Structure prediction by ZEFSAII (Michael W. Deem and Ramdas Pophale) SiO2 
 PCOD9344071
Probable space group: P B A 2
;
_chemical_formula_sum "Si O2"
_cell_formula_units_Z 24
_cell_length_a 22.592129
_cell_length_b 8.994831
_cell_length_c 5.272990
_cell_angle_alpha 90.000000
_cell_angle_beta 90.000000
_cell_angle_gamma 90.000000
_cell_volume 1071.536860
_symmetry_space_group_name_H-M "P B A 2"
_symmetry_group_IT_number 32
_symmetry_cell_setting 'orthorhombic'
loop_
_space_group_symop_operation_xyz
x,y,z
-x,-y,z
1/2-x,1/2+y,z
1/2+x,1/2-y,z
loop_
_atom_site_type_symbol
_atom_site_label
_atom_site_fract_x
_atom_site_fract_y
_atom_site_fract_z
Si Si1 0.881670 0.340554 0.061560
Si Si2 0.444813 0.103125 0.555231
Si Si3 0.721045 0.019977 0.190513
Si Si4 0.177038 0.000106 0.520301
Si Si5 0.942794 0.089007 0.335296
Si Si6 0.271753 0.805472 0.688095
O O1 0.915712 0.434044 0.282920
O O2 0.813662 0.368294 0.132912
O O3 0.906562 0.175914 0.114923
O O4 0.899420 0.397637 0.787359
O O5 0.463612 0.274971 0.514289
O O6 0.500000 0.000000 0.610657
O O7 0.789824 0.992096 0.248247
O O8 0.701318 0.102547 0.449457
O O9 0.710460 0.124189 0.952499
O O10 0.207574 0.136933 0.665565
O O11 0.107412 0.002805 0.484450
O O12 0.201915 0.846247 0.643183
O O13 0.000000 0.000000 0.250200
#
# Coordination Sequence:
#
# PCOD9344071 Si02
#       6
#     4   4   4   4   4   4
#     4  10  22  43  72  96 134 176 225 283 342 403
#     4  10  23  44  70  98 130 183 230 282 337 409
#     4  10  23  41  68 102 132 176 226 284 343 412
#     4  10  24  44  64 104 139 182 222 292 340 418
#     4  10  25  45  69  99 143 181 231 284 344 407
#     4  10  24  39  71  99 133 178 226 274 359 401
#
# _framework density 22.397735999999998
#
# number of rings (size 3 to 8) (size 9 to 14) (size 15 to 20)
#    2.000    0.000    0.000    2.500    2.333    4.667 
#    0.000    0.000    0.000    0.000    0.000    0.000 
#    0.000    0.000    0.000    0.000    0.000    0.000 
#
# Total GULP energy -133821.198998 kJ/mol
# GULP energy per Si atom -5575.883292 kJ/mol
# Density = 2.234676 g / cm^3
# Si number density = 22.397736 Si / 1000 Ang^3
#
#
#
# Elastic Constant Matrix: (Units=GPa)
#
#
# Indices 1 2 3 4 5 6 
#
# 1 105.8560 59.9067 -1.7155 0.0000 0.0000 0.0000
# 2 59.9067 91.4323 32.8610 0.0000 0.0000 0.0000
# 3 -1.7155 32.8610 127.3118 0.0000 0.0000 0.0000
# 4 0.0000 0.0000 0.0000 27.7876 0.0000 0.0000
# 5 0.0000 0.0000 0.0000 0.0000 17.8779 0.0000
# 6 0.0000 0.0000 0.0000 0.0000 0.0000 45.6059
#
#
#
# Elastic Compliance Matrix: (Units=1/GPa)
#
#
# Indices 1 2 3 4 5 6 
#
# 1 0.016148 -0.011748 0.003250 0.000000 0.000000 0.000000
# 2 -0.011748 0.020603 -0.005476 0.000000 0.000000 0.000000
# 3 0.003250 -0.005476 0.009312 0.000000 0.000000 0.000000
# 4 0.000000 0.000000 0.000000 0.035987 0.000000 0.000000
# 5 0.000000 0.000000 0.000000 0.000000 0.055935 0.000000
# 6 0.000000 0.000000 0.000000 0.000000 0.000000 0.021927
#
#
# Mechanical properties :
#
#
# Convention : Reuss Voigt Hill
#
# Bulk Modulus (GPa) = 55.20633 56.30050 55.75341
# Shear Modulus (GPa) = 25.78656 33.82414 29.80535
#
# Velocity S-wave (km/s) = 3.39677 3.89029 3.65188
# Velocity P-wave (km/s) = 6.33133 6.73576 6.53667
#
# Compressibility (1/GPa) = 0.01811387
#
# Stress axis : x y z
#
# Youngs Moduli (GPa) = 61.92636 48.53704 107.38820
#
# Poissons Ratio (x) = 0.57023 -0.34901
# Poissons Ratio (y) = 0.72754 0.58808
# Poissons Ratio (z) = -0.20126 0.26580
#
# Static dielectric constant tensor:
#      x y z
#    x 1.843690 0.000000 0.000000 
#    y 0.000000 1.879760 0.000000 
#    z 0.000000 0.000000 1.869820 
# 
# From -- ./inp_files/1637.got.cif
#   From: 2010.05.17/outbox.cif.g08.bks.cpg/sg32_1_cif.got.tgz:1637.got - 2010.06.03 17:12:27.
