data_PCOD9344652
_publ_section_title
;
Structure prediction by ZEFSAII (Michael W. Deem and Ramdas Pophale) SiO2 
 PCOD9344652
Probable space group: P N A 21
;
_chemical_formula_sum "Si O2"
_cell_formula_units_Z 24
_cell_length_a 10.112986
_cell_length_b 13.222798
_cell_length_c 7.838298
_cell_angle_alpha 90.000000
_cell_angle_beta 90.000000
_cell_angle_gamma 90.000000
_cell_volume 1048.152658
_symmetry_space_group_name_H-M "P N A 21"
_symmetry_group_IT_number 33
_symmetry_cell_setting 'orthorhombic'
loop_
_space_group_symop_operation_xyz
x,y,z
-x,-y,1/2+z
1/2-x,1/2+y,1/2+z
1/2+x,1/2-y,z
loop_
_atom_site_type_symbol
_atom_site_label
_atom_site_fract_x
_atom_site_fract_y
_atom_site_fract_z
Si Si1 0.162012 0.515410 0.045320
Si Si2 0.538750 0.720443 0.495351
Si Si3 0.304198 0.809545 0.317706
Si Si4 0.805208 0.048733 0.579084
Si Si5 0.429029 0.483772 0.209724
Si Si6 0.428540 0.086360 0.213912
O O1 0.305850 0.538800 0.118206
O O2 0.052352 0.489993 0.187222
O O3 0.172051 0.413443 0.927604
O O4 0.108734 0.595956 0.911194
O O5 0.422586 0.735137 0.359427
O O6 0.673975 0.737917 0.396448
O O7 0.541256 0.615824 0.596832
O O8 0.528479 0.808313 0.635084
O O9 0.273925 0.849589 0.128709
O O10 0.871138 0.045027 0.394167
O O11 0.699260 0.959509 0.614807
O O12 0.929999 0.039652 0.709210
#
# Coordination Sequence:
#
# PCOD9344652 Si02
#       6
#     4   4   4   4   4   4
#     4   9  19  35  57  86 116 153 195 237 294 364
#     4  10  20  38  61  88 121 155 197 257 308 350
#     4   9  20  37  57  83 117 154 196 242 300 357
#     4  11  22  39  60  86 119 164 206 244 302 378
#     4  11  22  39  61  86 120 160 205 251 303 366
#     4  10  19  36  60  85 119 158 197 245 301 359
#
# _framework density 22.897428000000001
#
# number of rings (size 3 to 8) (size 9 to 14) (size 15 to 20)
#    0.000    2.000    0.000    5.000    0.000    0.000 
#    0.000   16.667    0.000    0.000    0.000    0.000 
#    0.000    0.000    0.000    0.000    0.000    0.000 
#
# Total GULP energy -134172.584686 kJ/mol
# GULP energy per Si atom -5590.524362 kJ/mol
# Density = 2.284531 g / cm^3
# Si number density = 22.897428 Si / 1000 Ang^3
#
#
#
# Elastic Constant Matrix: (Units=GPa)
#
#
# Indices 1 2 3 4 5 6 
#
# 1 145.3762 24.6431 19.9767 0.0000 0.0000 0.0000
# 2 24.6431 38.5803 20.3154 0.0000 0.0000 0.0000
# 3 19.9767 20.3154 88.8196 0.0000 0.0000 0.0000
# 4 0.0000 0.0000 0.0000 24.2451 0.0000 0.0000
# 5 0.0000 0.0000 0.0000 0.0000 45.8260 0.0000
# 6 0.0000 0.0000 0.0000 0.0000 0.0000 23.7634
#
#
#
# Elastic Compliance Matrix: (Units=1/GPa)
#
#
# Indices 1 2 3 4 5 6 
#
# 1 0.007751 -0.004585 -0.000695 0.000000 0.000000 0.000000
# 2 -0.004585 0.032182 -0.006330 0.000000 0.000000 0.000000
# 3 -0.000695 -0.006330 0.012863 0.000000 0.000000 0.000000
# 4 0.000000 0.000000 0.000000 0.041245 0.000000 0.000000
# 5 0.000000 0.000000 0.000000 0.000000 0.021822 0.000000
# 6 0.000000 0.000000 0.000000 0.000000 0.000000 0.042081
#
#
# Mechanical properties :
#
#
# Convention : Reuss Voigt Hill
#
# Bulk Modulus (GPa) = 33.81012 44.73847 39.27430
# Shear Modulus (GPa) = 26.17490 32.62298 29.39894
#
# Velocity S-wave (km/s) = 3.38470 3.77867 3.58710
# Velocity P-wave (km/s) = 5.48387 6.21441 5.86054
#
# Compressibility (1/GPa) = 0.02957694
#
# Stress axis : x y z
#
# Youngs Moduli (GPa) = 129.00819 31.07335 77.74403
#
# Poissons Ratio (x) = 0.14249 0.05400
# Poissons Ratio (y) = 0.59156 0.49208
# Poissons Ratio (z) = 0.08961 0.19668
#
# Static dielectric constant tensor:
#      x y z
#    x 1.840050 0.000000 0.000000 
#    y 0.000000 1.894930 0.000000 
#    z 0.000000 0.000000 1.882660 
# 
# From -- ./inp_files/3163.got.cif
#   From: 2010.05.17/outbox.cif.g08.bks.cpg/sg33_2_cif.got.tgz:3163.got - 2010.06.03 17:15:25.
