data_PCOD9344962
_publ_section_title
;
Structure prediction by ZEFSAII (Michael W. Deem and Ramdas Pophale) SiO2 
 PCOD9344962
Probable space group: P N A 21
;
_chemical_formula_sum "Si O2"
_cell_formula_units_Z 20
_cell_length_a 15.554994
_cell_length_b 11.737268
_cell_length_c 4.859616
_cell_angle_alpha 90.000000
_cell_angle_beta 90.000000
_cell_angle_gamma 90.000000
_cell_volume 887.235320
_symmetry_space_group_name_H-M "P N A 21"
_symmetry_group_IT_number 33
_symmetry_cell_setting 'orthorhombic'
loop_
_space_group_symop_operation_xyz
x,y,z
-x,-y,1/2+z
1/2-x,1/2+y,1/2+z
1/2+x,1/2-y,z
loop_
_atom_site_type_symbol
_atom_site_label
_atom_site_fract_x
_atom_site_fract_y
_atom_site_fract_z
Si Si1 0.856858 0.723022 0.512380
Si Si2 0.500000 0.925423 0.809729
Si Si3 0.671962 0.630046 0.589231
Si Si4 0.828039 0.869958 0.030238
Si Si5 0.356857 0.223019 0.607089
O O1 0.770764 0.646823 0.491055
O O2 0.879291 0.781350 0.223469
O O3 0.929725 0.649032 0.652994
O O4 0.834514 0.826260 0.719857
O O5 0.539837 0.999999 0.559727
O O6 0.570276 0.850971 0.966471
O O7 0.644886 0.500002 0.559734
O O8 0.620709 0.718654 0.396000
O O9 0.665487 0.673743 0.899613
O O10 0.729237 0.853180 0.128415
#
# Coordination Sequence:
#
# PCOD9344962 Si02
#       5
#     4   4   4   4   4
#     4  10  22  37  59  90 118 153 207 249 297 372
#     4  12  24  40  62  88 124 162 202 260 318 362
#     4  10  20  38  61  86 119 157 199 251 301 355
#     4  10  20  38  61  86 119 157 199 251 301 355
#     4  10  22  37  59  90 118 153 207 249 297 372
#
# _framework density 22.541934999999999
#
# number of rings (size 3 to 8) (size 9 to 14) (size 15 to 20)
#    0.000    1.600    0.000    4.800    0.000    6.400 
#    0.000    4.000    0.000    0.000    0.000    0.000 
#    0.000    0.000    0.000    0.000    0.000    0.000 
#
# Total GULP energy -111911.196952 kJ/mol
# GULP energy per Si atom -5595.559848 kJ/mol
# Density = 2.249063 g / cm^3
# Si number density = 22.541935 Si / 1000 Ang^3
#
#
#
# Elastic Constant Matrix: (Units=GPa)
#
#
# Indices 1 2 3 4 5 6 
#
# 1 61.0339 22.3450 6.4245 0.0000 0.0000 0.0000
# 2 22.3450 91.4454 17.1566 0.0000 0.0000 0.0000
# 3 6.4245 17.1566 110.3523 0.0000 0.0000 0.0000
# 4 0.0000 0.0000 0.0000 23.7573 0.0000 0.0000
# 5 0.0000 0.0000 0.0000 0.0000 31.4646 0.0000
# 6 0.0000 0.0000 0.0000 0.0000 0.0000 13.7550
#
#
#
# Elastic Compliance Matrix: (Units=1/GPa)
#
#
# Indices 1 2 3 4 5 6 
#
# 1 0.018009 -0.004330 -0.000375 0.000000 0.000000 0.000000
# 2 -0.004330 0.012305 -0.001661 0.000000 0.000000 0.000000
# 3 -0.000375 -0.001661 0.009342 0.000000 0.000000 0.000000
# 4 0.000000 0.000000 0.000000 0.042092 0.000000 0.000000
# 5 0.000000 0.000000 0.000000 0.000000 0.031782 0.000000
# 6 0.000000 0.000000 0.000000 0.000000 0.000000 0.072701
#
#
# Mechanical properties :
#
#
# Convention : Reuss Voigt Hill
#
# Bulk Modulus (GPa) = 37.14235 39.40933 38.27584
# Shear Modulus (GPa) = 24.04557 28.25576 26.15066
#
# Velocity S-wave (km/s) = 3.26959 3.54429 3.40970
# Velocity P-wave (km/s) = 5.54674 5.85405 5.70247
#
# Compressibility (1/GPa) = 0.02692344
#
# Stress axis : x y z
#
# Youngs Moduli (GPa) = 55.52734 81.26636 107.04377
#
# Poissons Ratio (x) = 0.35190 0.04017
# Poissons Ratio (y) = 0.24044 0.17780
# Poissons Ratio (z) = 0.02084 0.13498
#
# Static dielectric constant tensor:
#      x y z
#    x 1.832860 0.000000 0.000000 
#    y 0.000000 1.830170 0.000000 
#    z 0.000000 0.000000 1.828510 
# 
# From -- ./inp_files/1232.got.cif
#   From: 2010.05.17/outbox.cif.g08.bks.cpg/sg33_1_cif.got.tgz:1232.got - 2010.06.03 17:15:25.
