data_PCOD9344492
_publ_section_title
;
Structure prediction by ZEFSAII (Michael W. Deem and Ramdas Pophale) SiO2 
 PCOD9344492
Probable space group: P N A 21
;
_chemical_formula_sum "Si O2"
_cell_formula_units_Z 28
_cell_length_a 9.089432
_cell_length_b 15.650303
_cell_length_c 9.609384
_cell_angle_alpha 90.000000
_cell_angle_beta 90.000000
_cell_angle_gamma 90.000000
_cell_volume 1366.957599
_symmetry_space_group_name_H-M "P N A 21"
_symmetry_group_IT_number 33
_symmetry_cell_setting 'orthorhombic'
loop_
_space_group_symop_operation_xyz
x,y,z
-x,-y,1/2+z
1/2-x,1/2+y,1/2+z
1/2+x,1/2-y,z
loop_
_atom_site_type_symbol
_atom_site_label
_atom_site_fract_x
_atom_site_fract_y
_atom_site_fract_z
Si Si1 0.008959 0.325180 0.274980
Si Si2 0.683775 0.679925 0.669266
Si Si3 0.847506 0.061006 0.933319
Si Si4 0.590067 0.578449 0.944101
Si Si5 0.334679 0.895363 0.159175
Si Si6 0.631487 0.283460 0.535004
Si Si7 0.121888 0.578631 0.015210
O O1 0.140809 0.333455 0.166265
O O2 0.089473 0.266222 0.392789
O O3 0.873861 0.274519 0.205675
O O4 0.953175 0.406302 0.363196
O O5 0.621071 0.643579 0.526056
O O6 0.624104 0.623062 0.797556
O O7 0.758726 0.082316 0.794063
O O8 0.736803 0.997648 0.015246
O O9 0.995181 0.005702 0.914955
O O10 0.739296 0.569027 0.029447
O O11 0.493031 0.643719 0.039445
O O12 0.355598 0.792730 0.144766
O O13 0.498403 0.930347 0.132507
O O14 0.785129 0.333577 0.530945
#
# Coordination Sequence:
#
# PCOD9344492 Si02
#       7
#     4   4   4   4   4   4   4
#     4  10  18  36  65  83 110 157 208 238 277 355
#     4  11  21  40  62  89 116 157 203 249 291 355
#     4  11  26  37  55  94 128 147 189 258 311 340
#     4  10  20  39  65  82 118 157 200 233 295 365
#     4  11  20  37  60  88 117 154 197 246 291 348
#     4   9  17  36  63  87 104 153 209 235 265 356
#     4  10  20  37  62  85 113 161 204 233 284 365
#
# _framework density 20.483443000000001
#
# number of rings (size 3 to 8) (size 9 to 14) (size 15 to 20)
#    0.000    1.714    4.286    2.571    2.000    0.000 
#    5.143    0.000    0.000    0.000    0.000    0.000 
#    0.000    0.000    0.000    0.000    0.000    0.000 
#
# Total GULP energy -156173.812912 kJ/mol
# GULP energy per Si atom -5577.636175 kJ/mol
# Density = 2.043682 g / cm^3
# Si number density = 20.483443 Si / 1000 Ang^3
#
#
#
# Elastic Constant Matrix: (Units=GPa)
#
#
# Indices 1 2 3 4 5 6 
#
# 1 73.5179 -5.5218 -4.9081 0.0000 0.0000 0.0000
# 2 -5.5218 34.4761 2.7538 0.0000 0.0000 0.0000
# 3 -4.9081 2.7538 43.2455 0.0000 0.0000 0.0000
# 4 0.0000 0.0000 0.0000 20.6729 0.0000 0.0000
# 5 0.0000 0.0000 0.0000 0.0000 11.2830 0.0000
# 6 0.0000 0.0000 0.0000 0.0000 0.0000 17.5063
#
#
#
# Elastic Compliance Matrix: (Units=1/GPa)
#
#
# Indices 1 2 3 4 5 6 
#
# 1 0.013856 0.002104 0.001439 0.000000 0.000000 0.000000
# 2 0.002104 0.029474 -0.001638 0.000000 0.000000 0.000000
# 3 0.001439 -0.001638 0.023391 0.000000 0.000000 0.000000
# 4 0.000000 0.000000 0.000000 0.048372 0.000000 0.000000
# 5 0.000000 0.000000 0.000000 0.000000 0.088629 0.000000
# 6 0.000000 0.000000 0.000000 0.000000 0.000000 0.057122
#
#
# Mechanical properties :
#
#
# Convention : Reuss Voigt Hill
#
# Bulk Modulus (GPa) = 14.17815 15.09858 14.63836
# Shear Modulus (GPa) = 17.82241 20.48680 19.15461
#
# Velocity S-wave (km/s) = 2.95293 3.16597 3.06130
# Velocity P-wave (km/s) = 4.30850 4.55539 4.43366
#
# Compressibility (1/GPa) = 0.07053106
#
# Stress axis : x y z
#
# Youngs Moduli (GPa) = 72.16970 33.92877 42.75084
#
# Poissons Ratio (x) = -0.07140 -0.06150
# Poissons Ratio (y) = -0.15187 0.07002
# Poissons Ratio (z) = -0.10382 0.05557
#
# Static dielectric constant tensor:
#      x y z
#    x 1.764490 0.000000 0.000000 
#    y 0.000000 1.752340 0.000000 
#    z 0.000000 0.000000 1.728450 
# 
# From -- ./inp_files/3358.got.cif
#   From: 2010.05.17/outbox.cif.g08.bks.cpg/sg33_2_cif.got.tgz:3358.got - 2010.06.03 17:15:25.
