data_PCOD9344747
_publ_section_title
;
Structure prediction by ZEFSAII (Michael W. Deem and Ramdas Pophale) SiO2 
 PCOD9344747
Probable space group: P N A 21
;
_chemical_formula_sum "Si O2"
_cell_formula_units_Z 32
_cell_length_a 16.622657
_cell_length_b 7.268430
_cell_length_c 11.048140
_cell_angle_alpha 90.000000
_cell_angle_beta 90.000000
_cell_angle_gamma 90.000000
_cell_volume 1334.843112
_symmetry_space_group_name_H-M "P N A 21"
_symmetry_group_IT_number 33
_symmetry_cell_setting 'orthorhombic'
loop_
_space_group_symop_operation_xyz
x,y,z
-x,-y,1/2+z
1/2-x,1/2+y,1/2+z
1/2+x,1/2-y,z
loop_
_atom_site_type_symbol
_atom_site_label
_atom_site_fract_x
_atom_site_fract_y
_atom_site_fract_z
Si Si1 0.650626 0.247699 0.509020
Si Si2 0.008726 0.865566 0.627939
Si Si3 0.913497 0.516780 0.356205
Si Si4 0.038020 0.780489 0.026011
Si Si5 0.841704 0.355857 0.107315
Si Si6 0.232710 0.334650 0.285102
Si Si7 0.371692 0.597711 0.275178
Si Si8 0.567330 0.997168 0.235619
O O1 0.555586 0.272264 0.484664
O O2 0.701631 0.302836 0.390763
O O3 0.661912 0.337239 0.641733
O O4 0.670301 0.031000 0.523992
O O5 0.953326 0.003305 0.550875
O O6 0.046789 0.986067 0.739400
O O7 0.090640 0.789633 0.563559
O O8 0.960394 0.688620 0.672584
O O9 0.883136 0.441013 0.227930
O O10 0.880428 0.722876 0.358687
O O11 0.903275 0.348708 0.447902
O O12 0.009991 0.534519 0.349982
O O13 0.044138 0.672683 0.152005
O O14 0.761957 0.263349 0.161370
O O15 0.309088 0.452720 0.325761
O O16 0.160111 0.473882 0.258879
#
# Coordination Sequence:
#
# PCOD9344747 Si02
#       8
#     4   4   4   4   4   4   4   4
#     4  10  19  40  65  86 128 173 203 263 330 370
#     4   9  18  39  61  85 122 169 193 260 324 364
#     4  10  19  40  64  87 123 172 207 255 318 385
#     4  11  20  38  67  91 123 165 213 258 319 372
#     4   9  20  41  60  85 135 159 202 264 323 378
#     4  11  23  38  64  96 122 167 218 260 318 388
#     4   9  20  41  62  87 132 170 202 261 332 379
#     4  11  21  39  61  97 123 153 222 273 292 382
#
# _framework density 23.972854999999999
#
# number of rings (size 3 to 8) (size 9 to 14) (size 15 to 20)
#    0.000    2.000    6.250    0.000    0.000    2.000 
#   13.500    8.750    0.000    0.000    0.000    0.000 
#    0.000    0.000    0.000    0.000    0.000    0.000 
#
# Total GULP energy -178523.264409 kJ/mol
# GULP energy per Si atom -5578.852013 kJ/mol
# Density = 2.391829 g / cm^3
# Si number density = 23.972855 Si / 1000 Ang^3
#
#
#
# Elastic Constant Matrix: (Units=GPa)
#
#
# Indices 1 2 3 4 5 6 
#
# 1 64.3226 13.5139 5.8604 0.0000 0.0000 0.0000
# 2 13.5139 105.4575 16.9640 0.0000 0.0000 0.0000
# 3 5.8604 16.9640 40.6680 0.0000 0.0000 0.0000
# 4 0.0000 0.0000 0.0000 33.5271 0.0000 0.0000
# 5 0.0000 0.0000 0.0000 0.0000 17.2435 0.0000
# 6 0.0000 0.0000 0.0000 0.0000 0.0000 10.3398
#
#
#
# Elastic Compliance Matrix: (Units=1/GPa)
#
#
# Indices 1 2 3 4 5 6 
#
# 1 0.016069 -0.001808 -0.001561 0.000000 0.000000 0.000000
# 2 -0.001808 0.010368 -0.004064 0.000000 0.000000 0.000000
# 3 -0.001561 -0.004064 0.026510 0.000000 0.000000 0.000000
# 4 0.000000 0.000000 0.000000 0.029827 0.000000 0.000000
# 5 0.000000 0.000000 0.000000 0.000000 0.057993 0.000000
# 6 0.000000 0.000000 0.000000 0.000000 0.000000 0.096714
#
#
# Mechanical properties :
#
#
# Convention : Reuss Voigt Hill
#
# Bulk Modulus (GPa) = 26.26112 31.45829 28.85971
# Shear Modulus (GPa) = 18.86506 23.82939 21.34723
#
# Velocity S-wave (km/s) = 2.80828 3.15622 2.98732
# Velocity P-wave (km/s) = 4.63611 5.14133 4.89524
#
# Compressibility (1/GPa) = 0.03807910
#
# Stress axis : x y z
#
# Youngs Moduli (GPa) = 62.23262 96.45095 37.72199
#
# Poissons Ratio (x) = 0.17438 0.05890
# Poissons Ratio (y) = 0.11251 0.15331
# Poissons Ratio (z) = 0.09717 0.39200
#
# Static dielectric constant tensor:
#      x y z
#    x 1.938020 0.000000 0.000000 
#    y 0.000000 1.948480 0.000000 
#    z 0.000000 0.000000 2.036940 
# 
# From -- ./inp_files/7080.got.cif
#   From: 2010.05.17/outbox.cif.g08.bks.cpg/sg33_4_cif.got.tgz:7080.got - 2010.06.03 17:15:25.
