data_PCOD9344924
_publ_section_title
;
Structure prediction by ZEFSAII (Michael W. Deem and Ramdas Pophale) SiO2 
 PCOD9344924
Probable space group: P N A 21
;
_chemical_formula_sum "Si O2"
_cell_formula_units_Z 32
_cell_length_a 8.093833
_cell_length_b 15.536242
_cell_length_c 10.722228
_cell_angle_alpha 90.000000
_cell_angle_beta 90.000000
_cell_angle_gamma 90.000000
_cell_volume 1348.296027
_symmetry_space_group_name_H-M "P N A 21"
_symmetry_group_IT_number 33
_symmetry_cell_setting 'orthorhombic'
loop_
_space_group_symop_operation_xyz
x,y,z
-x,-y,1/2+z
1/2-x,1/2+y,1/2+z
1/2+x,1/2-y,z
loop_
_atom_site_type_symbol
_atom_site_label
_atom_site_fract_x
_atom_site_fract_y
_atom_site_fract_z
Si Si1 0.286235 0.617855 0.861210
Si Si2 0.483901 0.182813 0.041532
Si Si3 0.011060 0.509725 0.059985
Si Si4 0.268402 0.448813 0.709721
Si Si5 0.154973 0.835424 0.447469
Si Si6 0.987322 0.001646 0.494944
Si Si7 0.818534 0.550261 0.816463
Si Si8 0.617635 0.721184 0.795199
O O1 0.252665 0.548209 0.753706
O O2 0.455750 0.668548 0.831628
O O3 0.163031 0.696814 0.880749
O O4 0.338626 0.550487 0.968328
O O5 0.430727 0.084968 0.040676
O O6 0.420534 0.232996 0.163000
O O7 0.679004 0.176769 0.024742
O O8 0.420718 0.242021 0.929045
O O9 0.138690 0.487834 0.178051
O O10 0.892156 0.575115 0.132114
O O11 0.976546 0.539891 0.912913
O O12 0.299371 0.386370 0.823225
O O13 0.416991 0.451243 0.613998
O O14 0.028416 0.901443 0.513859
O O15 0.846461 0.010509 0.385801
O O16 0.764455 0.650292 0.799124
#
# Coordination Sequence:
#
# PCOD9344924 Si02
#       8
#     4   4   4   4   4   4   4   4
#     4  10  20  37  63  91 129 173 230 291 345 415
#     4  12  24  39  69 103 137 177 245 304 356 424
#     4  11  22  41  67 105 142 187 241 303 359 437
#     4  10  21  42  64  96 138 186 232 288 368 434
#     4  11  25  41  68 104 137 184 241 303 366 430
#     4   9  22  43  67  91 139 193 235 289 369 444
#     4  10  23  40  68 104 144 190 241 298 373 438
#     4  11  21  37  64 100 128 174 239 298 348 412
#
# _framework density 23.733657999999998
#
# number of rings (size 3 to 8) (size 9 to 14) (size 15 to 20)
#    0.000    1.500    1.250    3.750    3.500    2.000 
#    0.000    5.000    0.000    0.000    0.000    0.000 
#    0.000    0.000    0.000    0.000    0.000    0.000 
#
# Total GULP energy -178281.179037 kJ/mol
# GULP energy per Si atom -5571.286845 kJ/mol
# Density = 2.367964 g / cm^3
# Si number density = 23.733658 Si / 1000 Ang^3
#
#
#
# Elastic Constant Matrix: (Units=GPa)
#
#
# Indices 1 2 3 4 5 6 
#
# 1 54.6916 20.6254 41.7950 0.0000 0.0000 0.0000
# 2 20.6254 103.2089 53.3597 0.0000 0.0000 0.0000
# 3 41.7950 53.3597 102.9477 0.0000 0.0000 0.0000
# 4 0.0000 0.0000 0.0000 23.9663 0.0000 0.0000
# 5 0.0000 0.0000 0.0000 0.0000 41.4811 0.0000
# 6 0.0000 0.0000 0.0000 0.0000 0.0000 45.2091
#
#
#
# Elastic Compliance Matrix: (Units=1/GPa)
#
#
# Indices 1 2 3 4 5 6 
#
# 1 0.026519 0.000364 -0.010955 0.000000 0.000000 0.000000
# 2 0.000364 0.013241 -0.007011 0.000000 0.000000 0.000000
# 3 -0.010955 -0.007011 0.017795 0.000000 0.000000 0.000000
# 4 0.000000 0.000000 0.000000 0.041725 0.000000 0.000000
# 5 0.000000 0.000000 0.000000 0.000000 0.024107 0.000000
# 6 0.000000 0.000000 0.000000 0.000000 0.000000 0.022119
#
#
# Mechanical properties :
#
#
# Convention : Reuss Voigt Hill
#
# Bulk Modulus (GPa) = 44.73967 54.71205 49.72586
# Shear Modulus (GPa) = 26.57306 31.80250 29.18778
#
# Velocity S-wave (km/s) = 3.34973 3.66454 3.51066
# Velocity P-wave (km/s) = 5.81829 6.40372 6.11801
#
# Compressibility (1/GPa) = 0.02235153
#
# Stress axis : x y z
#
# Youngs Moduli (GPa) = 37.70928 75.52295 56.19535
#
# Poissons Ratio (x) = -0.02751 0.61561
# Poissons Ratio (y) = -0.01373 0.39398
# Poissons Ratio (z) = 0.41310 0.52949
#
# Static dielectric constant tensor:
#      x y z
#    x 2.050860 0.000000 0.000000 
#    y 0.000000 1.904940 0.000000 
#    z 0.000000 0.000000 2.003930 
# 
# From -- ./inp_files/6025.got.cif
#   From: 2010.05.17/outbox.cif.g08.bks.cpg/sg33_4_cif.got.tgz:6025.got - 2010.06.03 17:15:25.
