data_PCOD9344806
_publ_section_title
;
Structure prediction by ZEFSAII (Michael W. Deem and Ramdas Pophale) SiO2 
 PCOD9344806
Probable space group: P N A 21
;
_chemical_formula_sum "Si O2"
_cell_formula_units_Z 32
_cell_length_a 5.771699
_cell_length_b 12.366128
_cell_length_c 17.794537
_cell_angle_alpha 90.000000
_cell_angle_beta 90.000000
_cell_angle_gamma 90.000000
_cell_volume 1270.059607
_symmetry_space_group_name_H-M "P N A 21"
_symmetry_group_IT_number 33
_symmetry_cell_setting 'orthorhombic'
loop_
_space_group_symop_operation_xyz
x,y,z
-x,-y,1/2+z
1/2-x,1/2+y,1/2+z
1/2+x,1/2-y,z
loop_
_atom_site_type_symbol
_atom_site_label
_atom_site_fract_x
_atom_site_fract_y
_atom_site_fract_z
Si Si1 0.927212 0.194264 0.879210
Si Si2 0.949950 0.266343 0.716990
Si Si3 0.159214 0.441674 0.548120
Si Si4 0.465464 0.221350 0.236627
Si Si5 0.039010 0.903167 0.619599
Si Si6 0.259184 0.980403 0.478384
Si Si7 0.805500 0.769969 0.954325
Si Si8 0.411629 0.012222 0.699723
O O1 0.683195 0.257708 0.901196
O O2 0.936691 0.189870 0.789154
O O3 0.878541 0.076641 0.912787
O O4 0.697892 0.254737 0.678739
O O5 0.948427 0.386978 0.752547
O O6 0.346384 0.522785 0.581728
O O7 0.212690 0.321994 0.519216
O O8 0.034998 0.502646 0.478468
O O9 0.985206 0.436631 0.619287
O O10 0.221096 0.258960 0.270966
O O11 0.499190 0.287819 0.157513
O O12 0.446982 0.093838 0.220624
O O13 0.218247 0.902493 0.550520
O O14 0.151826 0.972153 0.687256
O O15 0.179989 0.106043 0.482839
O O16 0.551818 0.758225 0.916153
#
# Coordination Sequence:
#
# PCOD9344806 Si02
#       8
#     4   4   4   4   4   4   4   4
#     4  10  24  44  65  92 120 161 223 282 328 370
#     4  10  24  44  65  92 120 161 223 282 328 370
#     4  10  20  35  53  90 133 170 202 244 312 405
#     4  10  20  34  52  82 123 161 201 237 298 382
#     4  10  20  35  53  90 133 170 202 244 312 405
#     4  10  22  36  59  87 126 173 206 262 318 379
#     4  10  20  34  52  82 123 161 201 237 298 382
#     4  10  22  36  59  87 126 173 206 262 318 379
#
# _framework density 25.195668999999999
#
# number of rings (size 3 to 8) (size 9 to 14) (size 15 to 20)
#    0.000    2.000    2.500    0.000    3.500    6.000 
#    0.000    0.000    0.000    0.000    0.000   84.000 
#    0.000    0.000    0.000    0.000    0.000    0.000 
#
# Total GULP energy -178250.847400 kJ/mol
# GULP energy per Si atom -5570.338981 kJ/mol
# Density = 2.513832 g / cm^3
# Si number density = 25.195669 Si / 1000 Ang^3
#
#
#
# Elastic Constant Matrix: (Units=GPa)
#
#
# Indices 1 2 3 4 5 6 
#
# 1 192.3636 58.9391 27.1129 0.0000 0.0000 0.0000
# 2 58.9391 69.7868 5.3462 0.0000 0.0000 0.0000
# 3 27.1129 5.3462 39.5484 0.0000 0.0000 0.0000
# 4 0.0000 0.0000 0.0000 9.3083 0.0000 0.0000
# 5 0.0000 0.0000 0.0000 0.0000 27.8823 0.0000
# 6 0.0000 0.0000 0.0000 0.0000 0.0000 50.6572
#
#
#
# Elastic Compliance Matrix: (Units=1/GPa)
#
#
# Indices 1 2 3 4 5 6 
#
# 1 0.007720 -0.006178 -0.004457 0.000000 0.000000 0.000000
# 2 -0.006178 0.019424 0.001610 0.000000 0.000000 0.000000
# 3 -0.004457 0.001610 0.028124 0.000000 0.000000 0.000000
# 4 0.000000 0.000000 0.000000 0.107431 0.000000 0.000000
# 5 0.000000 0.000000 0.000000 0.000000 0.035865 0.000000
# 6 0.000000 0.000000 0.000000 0.000000 0.000000 0.019741
#
#
# Mechanical properties :
#
#
# Convention : Reuss Voigt Hill
#
# Bulk Modulus (GPa) = 26.87018 53.83281 40.35150
# Shear Modulus (GPa) = 20.09964 31.58959 25.84462
#
# Velocity S-wave (km/s) = 2.82750 3.54470 3.20622
# Velocity P-wave (km/s) = 4.62033 6.17782 5.45495
#
# Compressibility (1/GPa) = 0.03721598
#
# Stress axis : x y z
#
# Youngs Moduli (GPa) = 129.53878 51.48284 35.55741
#
# Poissons Ratio (x) = 0.31808 0.15848
# Poissons Ratio (y) = 0.80033 -0.05724
# Poissons Ratio (z) = 0.57737 -0.08288
#
# Static dielectric constant tensor:
#      x y z
#    x 2.163080 0.000000 0.000000 
#    y 0.000000 2.013130 0.000000 
#    z 0.000000 0.000000 2.038330 
# 
# From -- ./inp_files/8890.got.cif
#   From: 2010.05.17/outbox.cif.g08.bks.cpg/sg33_5_cif.got.tgz:8890.got - 2010.06.03 17:15:25.
