data_PCOD9344713
_publ_section_title
;
Structure prediction by ZEFSAII (Michael W. Deem and Ramdas Pophale) SiO2 
 PCOD9344713
Probable space group: P N A 21
;
_chemical_formula_sum "Si O2"
_cell_formula_units_Z 32
_cell_length_a 17.849623
_cell_length_b 5.156997
_cell_length_c 16.370812
_cell_angle_alpha 90.000000
_cell_angle_beta 90.000000
_cell_angle_gamma 90.000000
_cell_volume 1506.940648
_symmetry_space_group_name_H-M "P N A 21"
_symmetry_group_IT_number 33
_symmetry_cell_setting 'orthorhombic'
loop_
_space_group_symop_operation_xyz
x,y,z
-x,-y,1/2+z
1/2-x,1/2+y,1/2+z
1/2+x,1/2-y,z
loop_
_atom_site_type_symbol
_atom_site_label
_atom_site_fract_x
_atom_site_fract_y
_atom_site_fract_z
Si Si1 0.543257 0.625762 0.828470
Si Si2 0.904710 0.482901 0.463673
Si Si3 0.247414 0.556257 0.016366
Si Si4 0.084050 0.541663 0.691733
Si Si5 0.675372 0.251513 0.809180
Si Si6 0.104149 0.059897 0.590793
Si Si7 0.951093 0.203496 0.935050
Si Si8 0.295590 0.053409 0.918802
O O1 0.568006 0.726476 0.917618
O O2 0.530370 0.861963 0.766006
O O3 0.615207 0.477604 0.792063
O O4 0.477546 0.429126 0.850605
O O5 0.841713 0.434094 0.531569
O O6 0.857499 0.625285 0.392025
O O7 0.977995 0.654365 0.476774
O O8 0.268833 0.267455 0.985777
O O9 0.266337 0.772754 0.946959
O O10 0.306926 0.620140 0.086826
O O11 0.160565 0.456382 0.738668
O O12 0.062865 0.291809 0.637700
O O13 0.092627 0.783519 0.632594
O O14 0.755349 0.362534 0.834464
O O15 0.078269 0.014239 0.497803
O O16 0.884540 0.406670 0.918196
#
# Coordination Sequence:
#
# PCOD9344713 Si02
#       8
#     4   4   4   4   4   4   4   4
#     4  10  19  38  63  91 122 166 219 257 317 387
#     4   9  19  34  62  90 122 154 207 261 317 372
#     4  10  20  37  58  88 119 157 199 261 312 370
#     4  11  22  39  61  87 123 172 215 262 321 397
#     4   9  18  37  61  87 112 157 209 257 307 377
#     4  11  23  38  61  90 128 166 220 267 325 380
#     4  10  23  36  62  99 128 166 213 277 325 384
#     4  10  20  35  60  92 118 146 204 264 316 359
#
# _framework density 21.235075999999999
#
# number of rings (size 3 to 8) (size 9 to 14) (size 15 to 20)
#    0.000    2.000    2.500    1.500    5.250    0.000 
#    0.000    0.000    2.750    3.000    0.000    0.000 
#    0.000    0.000    0.000    0.000    0.000    0.000 
#
# Total GULP energy -178321.120744 kJ/mol
# GULP energy per Si atom -5572.535023 kJ/mol
# Density = 2.118674 g / cm^3
# Si number density = 21.235076 Si / 1000 Ang^3
#
#
#
# Elastic Constant Matrix: (Units=GPa)
#
#
# Indices 1 2 3 4 5 6 
#
# 1 109.2660 26.1416 16.6856 0.0000 0.0000 0.0000
# 2 26.1416 111.7492 23.4581 0.0000 0.0000 0.0000
# 3 16.6856 23.4581 47.1846 0.0000 0.0000 0.0000
# 4 0.0000 0.0000 0.0000 39.2598 0.0000 0.0000
# 5 0.0000 0.0000 0.0000 0.0000 16.3627 0.0000
# 6 0.0000 0.0000 0.0000 0.0000 0.0000 21.4216
#
#
#
# Elastic Compliance Matrix: (Units=1/GPa)
#
#
# Indices 1 2 3 4 5 6 
#
# 1 0.009982 -0.001780 -0.002645 0.000000 0.000000 0.000000
# 2 -0.001780 0.010309 -0.004496 0.000000 0.000000 0.000000
# 3 -0.002645 -0.004496 0.024364 0.000000 0.000000 0.000000
# 4 0.000000 0.000000 0.000000 0.025471 0.000000 0.000000
# 5 0.000000 0.000000 0.000000 0.000000 0.061115 0.000000
# 6 0.000000 0.000000 0.000000 0.000000 0.000000 0.046682
#
#
# Mechanical properties :
#
#
# Convention : Reuss Voigt Hill
#
# Bulk Modulus (GPa) = 37.29491 44.53006 40.91248
# Shear Modulus (GPa) = 24.42593 28.86977 26.64785
#
# Velocity S-wave (km/s) = 3.39523 3.69118 3.54630
# Velocity P-wave (km/s) = 5.74205 6.25955 6.00638
#
# Compressibility (1/GPa) = 0.02681331
#
# Stress axis : x y z
#
# Youngs Moduli (GPa) = 100.18345 97.00569 41.04472
#
# Poissons Ratio (x) = 0.17265 0.10856
# Poissons Ratio (y) = 0.17831 0.18452
# Poissons Ratio (z) = 0.26498 0.43610
#
# Static dielectric constant tensor:
#      x y z
#    x 1.821540 0.000000 0.000000 
#    y 0.000000 1.831450 0.000000 
#    z 0.000000 0.000000 1.835960 
# 
# From -- ./inp_files/8836.got.cif
#   From: 2010.05.17/outbox.cif.g08.bks.cpg/sg33_5_cif.got.tgz:8836.got - 2010.06.03 17:15:25.
