data_PCOD9344698
_publ_section_title
;
Structure prediction by ZEFSAII (Michael W. Deem and Ramdas Pophale) SiO2 
 PCOD9344698
Probable space group: P N A 21
;
_chemical_formula_sum "Si O2"
_cell_formula_units_Z 32
_cell_length_a 5.162130
_cell_length_b 13.244016
_cell_length_c 20.133452
_cell_angle_alpha 90.000000
_cell_angle_beta 90.000000
_cell_angle_gamma 90.000000
_cell_volume 1376.470404
_symmetry_space_group_name_H-M "P N A 21"
_symmetry_group_IT_number 33
_symmetry_cell_setting 'orthorhombic'
loop_
_space_group_symop_operation_xyz
x,y,z
-x,-y,1/2+z
1/2-x,1/2+y,1/2+z
1/2+x,1/2-y,z
loop_
_atom_site_type_symbol
_atom_site_label
_atom_site_fract_x
_atom_site_fract_y
_atom_site_fract_z
Si Si1 0.871147 0.638693 0.165610
Si Si2 0.872622 0.866257 0.107562
Si Si3 0.433708 0.921586 0.312426
Si Si4 0.441445 0.458770 0.331947
Si Si5 0.952962 0.819294 0.955394
Si Si6 0.311944 0.319237 0.080512
Si Si7 0.664391 0.185072 0.946461
Si Si8 0.211169 0.314406 0.222476
O O1 0.835626 0.752216 0.137231
O O2 0.598821 0.586012 0.151139
O O3 0.941536 0.637628 0.242925
O O4 0.093532 0.588304 0.121600
O O5 0.953988 0.857716 0.031351
O O6 0.310196 0.864802 0.375173
O O7 0.723946 0.953534 0.332960
O O8 0.220595 0.009751 0.302935
O O9 0.494852 0.407537 0.402913
O O10 0.298074 0.379766 0.284291
O O11 0.677064 0.764502 0.945825
O O12 0.600263 0.272909 0.079387
O O13 0.264862 0.367650 0.151904
O O14 0.242859 0.377610 0.012548
O O15 0.371714 0.224331 0.950210
O O16 0.414748 0.221125 0.223875
#
# Coordination Sequence:
#
# PCOD9344698 Si02
#       8
#     4   4   4   4   4   4   4   4
#     4  10  20  36  60  86 128 151 212 269 315 375
#     4  10  19  37  64  98 111 157 225 278 308 356
#     4  12  26  41  57  90 138 171 202 259 332 395
#     4  12  26  41  57  92 135 173 201 257 334 395
#     4  12  21  41  68  95 125 165 228 279 316 389
#     4   8  16  32  58  85 109 130 191 257 286 338
#     4  10  21  38  63  90 109 158 210 254 301 355
#     4  10  19  38  65  90 109 155 211 257 298 355
#
# _framework density 23.247868
#
# number of rings (size 3 to 8) (size 9 to 14) (size 15 to 20)
#    0.000    1.500    2.500    3.750    3.500    0.000 
#    0.000    3.750    0.000    0.000    0.000    0.000 
#    0.000    0.000    0.000    0.000    0.000    0.000 
#
# Total GULP energy -178680.426018 kJ/mol
# GULP energy per Si atom -5583.763313 kJ/mol
# Density = 2.319496 g / cm^3
# Si number density = 23.247868 Si / 1000 Ang^3
#
#
#
# Elastic Constant Matrix: (Units=GPa)
#
#
# Indices 1 2 3 4 5 6 
#
# 1 120.3399 -1.3064 -20.9853 0.0000 0.0000 0.0000
# 2 -1.3064 25.3252 19.2247 0.0000 0.0000 0.0000
# 3 -20.9853 19.2247 147.0022 0.0000 0.0000 0.0000
# 4 0.0000 0.0000 0.0000 -23.4268 0.0000 0.0000
# 5 0.0000 0.0000 0.0000 0.0000 29.7375 0.0000
# 6 0.0000 0.0000 0.0000 0.0000 0.0000 29.4017
#
#
#
# Elastic Compliance Matrix: (Units=1/GPa)
#
#
# Indices 1 2 3 4 5 6 
#
# 1 0.008529 -0.000538 0.001288 0.000000 0.000000 0.000000
# 2 -0.000538 0.043872 -0.005814 0.000000 0.000000 0.000000
# 3 0.001288 -0.005814 0.007747 0.000000 0.000000 0.000000
# 4 0.000000 0.000000 0.000000 -0.042686 0.000000 0.000000
# 5 0.000000 0.000000 0.000000 0.000000 0.033628 0.000000
# 6 0.000000 0.000000 0.000000 0.000000 0.000000 0.034012
#
#
# Mechanical properties :
#
#
# Convention : Reuss Voigt Hill
#
# Bulk Modulus (GPa) = 19.99222 31.83701 25.91462
# Shear Modulus (GPa) = 44.68188 26.85809 35.76998
#
# Velocity S-wave (km/s) = 4.38879 3.40265 3.92680
# Velocity P-wave (km/s) = 5.85664 5.40015 5.63302
#
# Compressibility (1/GPa) = 0.05001945
#
# Stress axis : x y z
#
# Youngs Moduli (GPa) = 117.25344 22.79342 129.08486
#
# Poissons Ratio (x) = 0.01225 -0.16624
# Poissons Ratio (y) = 0.06304 0.75054
# Poissons Ratio (z) = -0.15100 0.13253
#
# Static dielectric constant tensor:
#      x y z
#    x 1.912140 0.000000 0.000000 
#    y 0.000000 1.586010 0.000000 
#    z 0.000000 0.000000 1.918550 
# 
# From -- ./inp_files/8369.got.cif
#   From: 2010.05.17/outbox.cif.g08.bks.cpg/sg33_5_cif.got.tgz:8369.got - 2010.06.03 17:15:25.
