data_PCOD9344455
_publ_section_title
;
Structure prediction by ZEFSAII (Michael W. Deem and Ramdas Pophale) SiO2 
 PCOD9344455
Probable space group: P N A 21
;
_chemical_formula_sum "Si O2"
_cell_formula_units_Z 32
_cell_length_a 8.061722
_cell_length_b 13.944142
_cell_length_c 11.399843
_cell_angle_alpha 90.000000
_cell_angle_beta 90.000000
_cell_angle_gamma 90.000000
_cell_volume 1281.499629
_symmetry_space_group_name_H-M "P N A 21"
_symmetry_group_IT_number 33
_symmetry_cell_setting 'orthorhombic'
loop_
_space_group_symop_operation_xyz
x,y,z
-x,-y,1/2+z
1/2-x,1/2+y,1/2+z
1/2+x,1/2-y,z
loop_
_atom_site_type_symbol
_atom_site_label
_atom_site_fract_x
_atom_site_fract_y
_atom_site_fract_z
Si Si1 0.114394 0.114781 0.167000
Si Si2 0.531655 0.067486 0.960953
Si Si3 0.148875 0.320394 0.739199
Si Si4 0.360738 0.805314 0.974701
Si Si5 0.803230 0.384652 0.406678
Si Si6 0.595093 0.756009 0.572678
Si Si7 0.837814 0.018882 0.465116
Si Si8 0.989837 0.141864 0.834737
O O1 0.217030 0.094781 0.283009
O O2 0.233961 0.188236 0.093538
O O3 0.951563 0.181052 0.174513
O O4 0.088452 0.021697 0.086816
O O5 0.554837 0.113696 0.832677
O O6 0.350967 0.020407 0.965108
O O7 0.667473 0.984501 0.973865
O O8 0.529550 0.153588 0.053407
O O9 0.084099 0.327744 0.607908
O O10 0.131311 0.211975 0.785934
O O11 0.338909 0.352123 0.745213
O O12 0.309252 0.695232 0.967026
O O13 0.512904 0.838452 0.893526
O O14 0.195672 0.869068 0.951894
O O15 0.583267 0.692680 0.453440
O O16 0.939630 0.961975 0.366392
#
# Coordination Sequence:
#
# PCOD9344455 Si02
#       8
#     4   4   4   4   4   4   4   4
#     4  10  18  34  57  81 108 144 182 226 281 332
#     4   9  19  36  59  82 107 144 191 236 286 340
#     4  11  20  36  60  86 114 152 187 230 287 344
#     4  11  24  40  55  80 119 155 190 233 281 342
#     4  11  23  38  55  79 114 155 192 232 282 344
#     4   9  17  32  56  84 107 133 181 236 277 324
#     4   9  20  38  59  83 112 144 190 244 286 332
#     4  10  19  34  59  87 113 141 187 239 284 334
#
# _framework density 24.970744
#
# number of rings (size 3 to 8) (size 9 to 14) (size 15 to 20)
#    0.000    2.000    0.000    6.000    0.000    1.000 
#    0.000    6.250    0.000    1.500    0.000    0.000 
#    0.000    0.000    0.000    0.000    0.000    0.000 
#
# Total GULP energy -179012.183048 kJ/mol
# GULP energy per Si atom -5594.130720 kJ/mol
# Density = 2.491391 g / cm^3
# Si number density = 24.970744 Si / 1000 Ang^3
#
#
#
# Elastic Constant Matrix: (Units=GPa)
#
#
# Indices 1 2 3 4 5 6 
#
# 1 37.4386 10.7172 7.6357 0.0000 0.0000 0.0000
# 2 10.7172 78.3191 23.1154 0.0000 0.0000 0.0000
# 3 7.6357 23.1154 54.4277 0.0000 0.0000 0.0000
# 4 0.0000 0.0000 0.0000 24.7923 0.0000 0.0000
# 5 0.0000 0.0000 0.0000 0.0000 24.1285 0.0000
# 6 0.0000 0.0000 0.0000 0.0000 0.0000 33.0798
#
#
#
# Elastic Compliance Matrix: (Units=1/GPa)
#
#
# Indices 1 2 3 4 5 6 
#
# 1 0.028128 -0.003069 -0.002643 0.000000 0.000000 0.000000
# 2 -0.003069 0.014933 -0.005911 0.000000 0.000000 0.000000
# 3 -0.002643 -0.005911 0.021254 0.000000 0.000000 0.000000
# 4 0.000000 0.000000 0.000000 0.040335 0.000000 0.000000
# 5 0.000000 0.000000 0.000000 0.000000 0.041445 0.000000
# 6 0.000000 0.000000 0.000000 0.000000 0.000000 0.030230
#
#
# Mechanical properties :
#
#
# Convention : Reuss Voigt Hill
#
# Bulk Modulus (GPa) = 24.34937 28.12468 26.23702
# Shear Modulus (GPa) = 23.44545 24.98126 24.21336
#
# Velocity S-wave (km/s) = 3.06750 3.16637 3.11733
# Velocity P-wave (km/s) = 4.72423 4.96542 4.84633
#
# Compressibility (1/GPa) = 0.04106883
#
# Stress axis : x y z
#
# Youngs Moduli (GPa) = 35.55190 66.96588 47.04919
#
# Poissons Ratio (x) = 0.20552 0.12434
# Poissons Ratio (y) = 0.10911 0.27813
# Poissons Ratio (z) = 0.09395 0.39587
#
# Static dielectric constant tensor:
#      x y z
#    x 1.988440 0.000000 0.000000 
#    y 0.000000 2.004500 0.000000 
#    z 0.000000 0.000000 1.969130 
# 
# From -- ./inp_files/5946.got.cif
#   From: 2010.05.17/outbox.cif.g08.bks.cpg/sg33_3_cif.got.tgz:5946.got - 2010.06.03 17:15:25.
