data_PCOD9344116
_publ_section_title
;
Structure prediction by ZEFSAII (Michael W. Deem and Ramdas Pophale) SiO2 
 PCOD9344116
Probable space group: P B A 2
;
_chemical_formula_sum "Si O2"
_cell_formula_units_Z 26
_cell_length_a 8.931359
_cell_length_b 19.368098
_cell_length_c 5.748785
_cell_angle_alpha 90.000000
_cell_angle_beta 90.000000
_cell_angle_gamma 90.000000
_cell_volume 994.444584
_symmetry_space_group_name_H-M "P B A 2"
_symmetry_group_IT_number 32
_symmetry_cell_setting 'orthorhombic'
loop_
_space_group_symop_operation_xyz
x,y,z
-x,-y,z
1/2-x,1/2+y,z
1/2+x,1/2-y,z
loop_
_atom_site_type_symbol
_atom_site_label
_atom_site_fract_x
_atom_site_fract_y
_atom_site_fract_z
Si Si1 0.500000 0.500000 0.306890
Si Si2 0.544266 0.782128 0.285476
Si Si3 0.003553 0.180190 0.673992
Si Si4 0.817353 0.932429 0.935893
Si Si5 0.766428 0.536917 0.610449
Si Si6 0.573484 0.897880 0.642907
Si Si7 0.216853 0.283218 0.959050
O O1 0.626718 0.543030 0.443909
O O2 0.590841 0.441088 0.166832
O O3 0.602998 0.831199 0.491196
O O4 0.677088 0.766246 0.110277
O O5 0.399127 0.813469 0.152152
O O6 0.506762 0.709053 0.412698
O O7 0.105135 0.238772 0.799968
O O8 0.840062 0.178452 0.797852
O O9 0.089730 0.110540 0.744211
O O10 0.647429 0.966193 0.530038
O O11 0.798791 0.011963 0.856585
O O12 0.849151 0.401835 0.897478
O O13 0.896548 0.591451 0.644564
#
# Coordination Sequence:
#
# PCOD9344116 Si02
#       7
#     2   4   4   4   4   4   4
#     4  12  24  42  72  96 132 178 234 288 336 402
#     4  11  22  43  68  93 141 179 221 293 341 399
#     4  11  23  43  65  98 135 176 225 285 345 405
#     4  10  23  43  66  97 135 173 219 288 339 412
#     4   9  23  46  65  97 131 177 226 277 344 409
#     4   9  21  46  66  90 135 174 225 276 346 413
#     4  10  24  39  63 104 125 176 239 262 345 423
#
# _framework density 26.145246
#
# number of rings (size 3 to 8) (size 9 to 14) (size 15 to 20)
#    0.923    0.923    0.000    3.231    4.308    1.231 
#   13.846    0.000    0.000    0.000    0.000    0.000 
#    0.000    0.000    0.000    0.000    0.000    0.000 
#
# Total GULP energy -145250.557465 kJ/mol
# GULP energy per Si atom -5586.559902 kJ/mol
# Density = 2.608574 g / cm^3
# Si number density = 26.145246 Si / 1000 Ang^3
#
#
#
# Elastic Constant Matrix: (Units=GPa)
#
#
# Indices 1 2 3 4 5 6 
#
# 1 207.2133 28.3788 65.2560 0.0000 0.0000 0.0000
# 2 28.3788 35.0730 -1.3532 0.0000 0.0000 0.0000
# 3 65.2560 -1.3532 68.2494 0.0000 0.0000 0.0000
# 4 0.0000 0.0000 0.0000 35.7293 0.0000 0.0000
# 5 0.0000 0.0000 0.0000 0.0000 54.6917 0.0000
# 6 0.0000 0.0000 0.0000 0.0000 0.0000 54.2806
#
#
#
# Elastic Compliance Matrix: (Units=1/GPa)
#
#
# Indices 1 2 3 4 5 6 
#
# 1 0.008354 -0.007074 -0.008128 0.000000 0.000000 0.000000
# 2 -0.007074 0.034523 0.007448 0.000000 0.000000 0.000000
# 3 -0.008128 0.007448 0.022572 0.000000 0.000000 0.000000
# 4 0.000000 0.000000 0.000000 0.027988 0.000000 0.000000
# 5 0.000000 0.000000 0.000000 0.000000 0.018284 0.000000
# 6 0.000000 0.000000 0.000000 0.000000 0.000000 0.018423
#
#
# Mechanical properties :
#
#
# Convention : Reuss Voigt Hill
#
# Bulk Modulus (GPa) = 20.02373 55.01100 37.51736
# Shear Modulus (GPa) = 30.80731 43.49060 37.14895
#
# Velocity S-wave (km/s) = 3.43638 4.08293 3.77353
# Velocity P-wave (km/s) = 4.83945 6.58129 5.77640
#
# Compressibility (1/GPa) = 0.04994076
#
# Stress axis : x y z
#
# Youngs Moduli (GPa) = 119.69621 28.96641 44.30344
#
# Poissons Ratio (x) = 0.20489 0.36011
# Poissons Ratio (y) = 0.84667 -0.32996
# Poissons Ratio (z) = 0.97293 -0.21574
#
# Static dielectric constant tensor:
#      x y z
#    x 2.097980 0.000000 0.000000 
#    y 0.000000 2.105860 0.000000 
#    z 0.000000 0.000000 2.052460 
# 
# From -- ./inp_files/523.got.cif
#   From: 2010.05.17/outbox.cif.g08.bks.cpg/sg32_1_cif.got.tgz:523.got - 2010.06.03 17:12:27.
