data_PCOD9344914
_publ_section_title
;
Structure prediction by ZEFSAII (Michael W. Deem and Ramdas Pophale) SiO2 
 PCOD9344914
Probable space group: P N A 21
;
_chemical_formula_sum "Si O2"
_cell_formula_units_Z 28
_cell_length_a 10.285008
_cell_length_b 25.750245
_cell_length_c 4.919596
_cell_angle_alpha 90.000000
_cell_angle_beta 90.000000
_cell_angle_gamma 90.000000
_cell_volume 1302.913065
_symmetry_space_group_name_H-M "P N A 21"
_symmetry_group_IT_number 33
_symmetry_cell_setting 'orthorhombic'
loop_
_space_group_symop_operation_xyz
x,y,z
-x,-y,1/2+z
1/2-x,1/2+y,1/2+z
1/2+x,1/2-y,z
loop_
_atom_site_type_symbol
_atom_site_label
_atom_site_fract_x
_atom_site_fract_y
_atom_site_fract_z
Si Si1 0.456102 0.626907 0.492230
Si Si2 0.517278 0.071050 0.890742
Si Si3 0.277573 0.223978 0.597617
Si Si4 0.992263 0.194017 0.492030
Si Si5 0.655478 0.031636 0.388444
Si Si6 0.550476 0.526332 0.806508
Si Si7 0.671586 0.843784 0.589639
O O1 0.493904 0.675190 0.684742
O O2 0.518149 0.577119 0.631325
O O3 0.300240 0.622737 0.519225
O O4 0.497792 0.644050 0.191551
O O5 0.575954 0.069162 0.590397
O O6 0.452315 0.123320 0.998860
O O7 0.410556 0.024933 0.911897
O O8 0.632501 0.052981 0.087602
O O9 0.121933 0.227434 0.562300
O O10 0.360956 0.274290 0.530184
O O11 0.311886 0.206591 0.901069
O O12 0.321577 0.176672 0.397330
O O13 0.807333 0.028246 0.437185
O O14 0.542492 0.482898 0.566796
#
# Coordination Sequence:
#
# PCOD9344914 Si02
#       7
#     4   4   4   4   4   4   4
#     4  10  22  39  62  87 121 156 196 246 301 352
#     4  10  20  38  58  83 121 156 195 247 297 343
#     4  10  21  38  61  87 116 151 202 242 305 359
#     4  10  21  41  60  87 121 157 197 253 301 365
#     4  10  22  37  57  85 123 159 195 247 297 350
#     4  12  24  40  62  90 121 159 208 243 298 365
#     4  10  20  37  62  87 111 154 203 236 291 368
#
# _framework density 21.490307999999999
#
# number of rings (size 3 to 8) (size 9 to 14) (size 15 to 20)
#    0.000    1.714    0.000    4.286    0.000    4.571 
#    7.714    0.000    0.000    0.000    0.000    0.000 
#    0.000    0.000    0.000    0.000    0.000    0.000 
#
# Total GULP energy -156450.092457 kJ/mol
# GULP energy per Si atom -5587.503302 kJ/mol
# Density = 2.144140 g / cm^3
# Si number density = 21.490308 Si / 1000 Ang^3
#
#
#
# Elastic Constant Matrix: (Units=GPa)
#
#
# Indices 1 2 3 4 5 6 
#
# 1 57.5101 17.6060 3.0896 0.0000 0.0000 0.0000
# 2 17.6060 30.7416 -4.1384 0.0000 0.0000 0.0000
# 3 3.0896 -4.1384 68.9288 0.0000 0.0000 0.0000
# 4 0.0000 0.0000 0.0000 12.6830 0.0000 0.0000
# 5 0.0000 0.0000 0.0000 0.0000 17.1106 0.0000
# 6 0.0000 0.0000 0.0000 0.0000 0.0000 13.4645
#
#
#
# Elastic Compliance Matrix: (Units=1/GPa)
#
#
# Indices 1 2 3 4 5 6 
#
# 1 0.021281 -0.012416 -0.001699 0.000000 0.000000 0.000000
# 2 -0.012416 0.040039 0.002960 0.000000 0.000000 0.000000
# 3 -0.001699 0.002960 0.014762 0.000000 0.000000 0.000000
# 4 0.000000 0.000000 0.000000 0.078846 0.000000 0.000000
# 5 0.000000 0.000000 0.000000 0.000000 0.058443 0.000000
# 6 0.000000 0.000000 0.000000 0.000000 0.000000 0.074269
#
#
# Mechanical properties :
#
#
# Convention : Reuss Voigt Hill
#
# Bulk Modulus (GPa) = 18.59759 21.14387 19.87073
# Shear Modulus (GPa) = 15.24979 18.02651 16.63815
#
# Velocity S-wave (km/s) = 2.66674 2.89938 2.78549
# Velocity P-wave (km/s) = 4.26084 4.59007 4.42851
#
# Compressibility (1/GPa) = 0.05377041
#
# Stress axis : x y z
#
# Youngs Moduli (GPa) = 46.99097 24.97580 67.74317
#
# Poissons Ratio (x) = 0.31011 0.11512
# Poissons Ratio (y) = 0.58346 -0.20055
# Poissons Ratio (z) = 0.07985 -0.07394
#
# Static dielectric constant tensor:
#      x y z
#    x 1.829990 0.000000 0.000000 
#    y 0.000000 1.785730 0.000000 
#    z 0.000000 0.000000 1.744140 
# 
# From -- ./inp_files/482.got.cif
#   From: 2010.05.17/outbox.cif.g08.bks.cpg/sg33_1_cif.got.tgz:482.got - 2010.06.03 17:15:25.
