data_PCOD9344026
_publ_section_title
;
Structure prediction by ZEFSAII (Michael W. Deem and Ramdas Pophale) SiO2 
 PCOD9344026
Probable space group: P B A 2
;
_chemical_formula_sum "Si O2"
_cell_formula_units_Z 28
_cell_length_a 15.669705
_cell_length_b 14.687226
_cell_length_c 5.203615
_cell_angle_alpha 90.000000
_cell_angle_beta 90.000000
_cell_angle_gamma 90.000000
_cell_volume 1197.583366
_symmetry_space_group_name_H-M "P B A 2"
_symmetry_group_IT_number 32
_symmetry_cell_setting 'orthorhombic'
loop_
_space_group_symop_operation_xyz
x,y,z
-x,-y,z
1/2-x,1/2+y,z
1/2+x,1/2-y,z
loop_
_atom_site_type_symbol
_atom_site_label
_atom_site_fract_x
_atom_site_fract_y
_atom_site_fract_z
Si Si1 0.778644 0.435909 0.264810
Si Si2 0.428023 0.919931 0.230265
Si Si3 0.175828 0.666991 0.766275
Si Si4 0.801787 0.148333 0.530240
Si Si5 0.477419 0.394263 0.710361
Si Si6 0.529007 0.196600 0.732167
Si Si7 0.821554 0.074873 0.034659
O O1 0.843854 0.518980 0.223757
O O2 0.791661 0.402077 0.550600
O O3 0.688408 0.479318 0.181495
O O4 0.802931 0.361116 0.054147
O O5 0.435759 0.856514 0.482677
O O6 0.500000 0.000000 0.231752
O O7 0.436491 0.854446 0.984440
O O8 0.218658 0.760053 0.675613
O O9 0.073740 0.679224 0.740098
O O10 0.778563 0.144637 0.234511
O O11 0.904430 0.136448 0.510929
O O12 0.778879 0.074509 0.750440
O O13 0.500000 0.500000 0.660429
O O14 0.418285 0.398896 0.966159
O O15 0.540477 0.307273 0.726770
#
# Coordination Sequence:
#
# PCOD9344026 Si02
#       7
#     4   4   4   4   4   4   4
#     4  12  23  36  62  91 132 156 202 247 325 364
#     4  12  22  37  59  93 129 161 199 256 301 375
#     4  11  20  36  63  91 115 169 201 248 288 400
#     4   9  21  39  64  86 121 155 219 241 307 370
#     4   9  23  43  69  86 122 160 217 265 304 364
#     4  11  22  38  62  94 117 164 216 241 314 369
#     4  10  22  40  60  90 115 167 199 258 312 370
#
# _framework density 23.380416
#
# number of rings (size 3 to 8) (size 9 to 14) (size 15 to 20)
#    0.857    0.571    2.857    3.000    4.000    0.571 
#    0.000    4.286    0.000    0.000    0.000    0.000 
#    0.000    0.000    0.000    0.000    0.000    0.000 
#
# Total GULP energy -156023.086825 kJ/mol
# GULP energy per Si atom -5572.253101 kJ/mol
# Density = 2.332720 g / cm^3
# Si number density = 23.380416 Si / 1000 Ang^3
#
#
#
# Elastic Constant Matrix: (Units=GPa)
#
#
# Indices 1 2 3 4 5 6 
#
# 1 7.6278 18.6701 6.5401 0.0000 0.0000 0.0000
# 2 18.6701 170.4496 34.4701 0.0000 0.0000 0.0000
# 3 6.5401 34.4701 87.3540 0.0000 0.0000 0.0000
# 4 0.0000 0.0000 0.0000 -16.8237 0.0000 0.0000
# 5 0.0000 0.0000 0.0000 0.0000 6.5513 0.0000
# 6 0.0000 0.0000 0.0000 0.0000 0.0000 28.6141
#
#
#
# Elastic Compliance Matrix: (Units=1/GPa)
#
#
# Indices 1 2 3 4 5 6 
#
# 1 0.182227 -0.018693 -0.006267 0.000000 0.000000 0.000000
# 2 -0.018693 0.008293 -0.001873 0.000000 0.000000 0.000000
# 3 -0.006267 -0.001873 0.012656 0.000000 0.000000 0.000000
# 4 0.000000 0.000000 0.000000 -0.059440 0.000000 0.000000
# 5 0.000000 0.000000 0.000000 0.000000 0.152641 0.000000
# 6 0.000000 0.000000 0.000000 0.000000 0.000000 0.034948
#
#
# Mechanical properties :
#
#
# Convention : Reuss Voigt Hill
#
# Bulk Modulus (GPa) = 6.68850 42.75468 24.72159
# Shear Modulus (GPa) = 11.49884 17.38508 14.44196
#
# Velocity S-wave (km/s) = 2.22010 2.72981 2.48804
# Velocity P-wave (km/s) = 3.07225 5.31621 4.34170
#
# Compressibility (1/GPa) = 0.14951026
#
# Stress axis : x y z
#
# Youngs Moduli (GPa) = 5.48768 120.58215 79.01420
#
# Poissons Ratio (x) = 2.25401 0.49518
# Poissons Ratio (y) = 0.10258 0.14799
# Poissons Ratio (z) = 0.03439 0.22585
#
# Static dielectric constant tensor:
#      x y z
#    x 2.006570 0.000000 0.000000 
#    y 0.000000 2.064090 0.000000 
#    z 0.000000 0.000000 1.881880 
# 
# From -- ./inp_files/1559.got.cif
#   From: 2010.05.17/outbox.cif.g08.bks.cpg/sg32_1_cif.got.tgz:1559.got - 2010.06.03 17:12:27.
