data_PCOD9344730
_publ_section_title
;
Structure prediction by ZEFSAII (Michael W. Deem and Ramdas Pophale) SiO2 
 PCOD9344730
Probable space group: P N A 21
;
_chemical_formula_sum "Si O2"
_cell_formula_units_Z 24
_cell_length_a 9.645044
_cell_length_b 13.844570
_cell_length_c 7.446412
_cell_angle_alpha 90.000000
_cell_angle_beta 90.000000
_cell_angle_gamma 90.000000
_cell_volume 994.330466
_symmetry_space_group_name_H-M "P N A 21"
_symmetry_group_IT_number 33
_symmetry_cell_setting 'orthorhombic'
loop_
_space_group_symop_operation_xyz
x,y,z
-x,-y,1/2+z
1/2-x,1/2+y,1/2+z
1/2+x,1/2-y,z
loop_
_atom_site_type_symbol
_atom_site_label
_atom_site_fract_x
_atom_site_fract_y
_atom_site_fract_z
Si Si1 0.593178 0.132879 0.725500
Si Si2 0.191423 0.920366 0.815269
Si Si3 0.940366 0.924238 0.548250
Si Si4 0.472957 0.939886 0.627880
Si Si5 0.699429 0.791726 0.685136
Si Si6 0.110532 0.792340 0.297980
O O1 0.572265 0.101826 0.934920
O O2 0.749489 0.169807 0.708077
O O3 0.479146 0.214916 0.689190
O O4 0.558106 0.038295 0.613245
O O5 0.335087 0.960471 0.739124
O O6 0.207198 0.803498 0.807517
O O7 0.074129 0.942517 0.667196
O O8 0.138205 0.980046 0.985704
O O9 0.838932 0.854259 0.662581
O O10 0.999492 0.869829 0.371931
O O11 0.571316 0.862159 0.726082
O O12 0.667263 0.755769 0.482523
#
# Coordination Sequence:
#
# PCOD9344730 Si02
#       6
#     4   4   4   4   4   4
#     4  11  22  41  67  92 127 170 220 268 331 394
#     4  11  22  40  64  98 132 175 227 277 332 400
#     4  11  22  38  67  98 127 175 228 273 332 400
#     4  11  23  39  65  96 129 172 216 271 328 396
#     4  10  20  41  67  91 129 176 224 265 333 401
#     4  10  19  39  62  91 122 172 215 262 318 403
#
# _framework density 24.136844
#
# number of rings (size 3 to 8) (size 9 to 14) (size 15 to 20)
#    0.000    1.333    5.000    4.000    2.333    0.000 
#    0.000    1.667    0.000    4.000    0.000    0.000 
#    0.000    0.000    0.000    0.000    0.000    0.000 
#
# Total GULP energy -134381.944741 kJ/mol
# GULP energy per Si atom -5599.247698 kJ/mol
# Density = 2.408191 g / cm^3
# Si number density = 24.136844 Si / 1000 Ang^3
#
#
#
# Elastic Constant Matrix: (Units=GPa)
#
#
# Indices 1 2 3 4 5 6 
#
# 1 197.5486 82.5276 41.5557 0.0000 0.0000 0.0000
# 2 82.5276 143.1445 35.6370 0.0000 0.0000 0.0000
# 3 41.5557 35.6370 63.5114 0.0000 0.0000 0.0000
# 4 0.0000 0.0000 0.0000 34.4518 0.0000 0.0000
# 5 0.0000 0.0000 0.0000 0.0000 22.5078 0.0000
# 6 0.0000 0.0000 0.0000 0.0000 0.0000 67.6684
#
#
#
# Elastic Compliance Matrix: (Units=1/GPa)
#
#
# Indices 1 2 3 4 5 6 
#
# 1 0.007048 -0.003389 -0.002710 0.000000 0.000000 0.000000
# 2 -0.003389 0.009750 -0.003253 0.000000 0.000000 0.000000
# 3 -0.002710 -0.003253 0.019344 0.000000 0.000000 0.000000
# 4 0.000000 0.000000 0.000000 0.029026 0.000000 0.000000
# 5 0.000000 0.000000 0.000000 0.000000 0.044429 0.000000
# 6 0.000000 0.000000 0.000000 0.000000 0.000000 0.014778
#
#
# Mechanical properties :
#
#
# Convention : Reuss Voigt Hill
#
# Bulk Modulus (GPa) = 57.34868 80.40503 68.87685
# Shear Modulus (GPa) = 33.58171 41.22454 37.40312
#
# Velocity S-wave (km/s) = 3.73407 4.13722 3.94080
# Velocity P-wave (km/s) = 6.51171 7.49710 7.02172
#
# Compressibility (1/GPa) = 0.01743719
#
# Stress axis : x y z
#
# Youngs Moduli (GPa) = 141.89005 102.56894 51.69587
#
# Poissons Ratio (x) = 0.34756 0.14009
# Poissons Ratio (y) = 0.48080 0.16819
# Poissons Ratio (z) = 0.38452 0.33370
#
# Static dielectric constant tensor:
#      x y z
#    x 1.874560 0.000000 0.000000 
#    y 0.000000 1.946560 0.000000 
#    z 0.000000 0.000000 1.946660 
# 
# From -- ./inp_files/3187.got.cif
#   From: 2010.05.17/outbox.cif.g08.bks.cpg/sg33_2_cif.got.tgz:3187.got - 2010.06.03 17:15:25.
