data_PCOD9344233
_publ_section_title
;
Structure prediction by ZEFSAII (Michael W. Deem and Ramdas Pophale) SiO2 
 PCOD9344233
Probable space group: P B A 2
;
_chemical_formula_sum "Si O2"
_cell_formula_units_Z 24
_cell_length_a 9.704847
_cell_length_b 14.550706
_cell_length_c 7.620140
_cell_angle_alpha 90.000000
_cell_angle_beta 90.000000
_cell_angle_gamma 90.000000
_cell_volume 1076.058071
_symmetry_space_group_name_H-M "P B A 2"
_symmetry_group_IT_number 32
_symmetry_cell_setting 'orthorhombic'
loop_
_space_group_symop_operation_xyz
x,y,z
-x,-y,z
1/2-x,1/2+y,z
1/2+x,1/2-y,z
loop_
_atom_site_type_symbol
_atom_site_label
_atom_site_fract_x
_atom_site_fract_y
_atom_site_fract_z
Si Si1 0.602198 0.758541 0.101500
Si Si2 0.630423 0.551626 0.026044
Si Si3 0.383534 0.936252 0.489422
Si Si4 0.566140 0.094768 0.881213
Si Si5 0.139909 0.252802 0.314798
Si Si6 0.141760 0.047003 0.404134
O O1 0.570956 0.651674 0.073547
O O2 0.763798 0.765993 0.143959
O O3 0.518437 0.779740 0.278510
O O4 0.525824 0.823781 0.963429
O O5 0.500000 0.500000 0.936984
O O6 0.663912 0.491170 0.202170
O O7 0.772882 0.580538 0.931732
O O8 0.443838 0.900088 0.671567
O O9 0.312041 0.848742 0.397208
O O10 0.500000 0.000000 0.396599
O O11 0.262235 0.007887 0.522610
O O12 0.500000 0.000000 0.943619
O O13 0.140962 0.156742 0.413842
O O14 0.000000 0.000000 0.457292
#
# Coordination Sequence:
#
# PCOD9344233 Si02
#       6
#     4   4   4   4   4   4
#     4  12  22  42  68  98 129 172 229 283 335 413
#     4  11  22  43  69  98 130 170 229 281 341 403
#     4  11  25  46  63  99 142 183 224 281 352 422
#     4  11  26  45  65  96 141 183 224 278 356 419
#     4  12  22  41  72 100 129 178 234 287 340 406
#     4  11  21  41  68  98 130 169 229 286 338 401
#
# _framework density 22.303629000000001
#
# number of rings (size 3 to 8) (size 9 to 14) (size 15 to 20)
#    0.000    0.667    6.667    2.000    0.000    2.000 
#   15.000    0.000    0.000    0.000    0.000    0.000 
#    0.000    0.000    0.000    0.000    0.000    0.000 
#
# Total GULP energy -133728.743188 kJ/mol
# GULP energy per Si atom -5572.030966 kJ/mol
# Density = 2.225286 g / cm^3
# Si number density = 22.303629 Si / 1000 Ang^3
#
#
#
# Elastic Constant Matrix: (Units=GPa)
#
#
# Indices 1 2 3 4 5 6 
#
# 1 103.0804 16.5027 9.8020 0.0000 0.0000 0.0000
# 2 16.5027 139.2157 24.5233 0.0000 0.0000 0.0000
# 3 9.8020 24.5233 39.0167 0.0000 0.0000 0.0000
# 4 0.0000 0.0000 0.0000 21.7067 0.0000 0.0000
# 5 0.0000 0.0000 0.0000 0.0000 16.2657 0.0000
# 6 0.0000 0.0000 0.0000 0.0000 0.0000 39.6051
#
#
#
# Elastic Compliance Matrix: (Units=1/GPa)
#
#
# Indices 1 2 3 4 5 6 
#
# 1 0.010025 -0.000837 -0.001992 0.000000 0.000000 0.000000
# 2 -0.000837 0.008147 -0.004911 0.000000 0.000000 0.000000
# 3 -0.001992 -0.004911 0.029217 0.000000 0.000000 0.000000
# 4 0.000000 0.000000 0.000000 0.046069 0.000000 0.000000
# 5 0.000000 0.000000 0.000000 0.000000 0.061479 0.000000
# 6 0.000000 0.000000 0.000000 0.000000 0.000000 0.025249
#
#
# Mechanical properties :
#
#
# Convention : Reuss Voigt Hill
#
# Bulk Modulus (GPa) = 31.33922 42.55209 36.94565
# Shear Modulus (GPa) = 24.23625 30.88113 27.55869
#
# Velocity S-wave (km/s) = 3.30001 3.72503 3.51894
# Velocity P-wave (km/s) = 5.34807 6.13360 5.75425
#
# Compressibility (1/GPa) = 0.03190890
#
# Stress axis : x y z
#
# Youngs Moduli (GPa) = 99.75401 122.73898 34.22669
#
# Poissons Ratio (x) = 0.10278 0.06818
# Poissons Ratio (y) = 0.08353 0.16807
# Poissons Ratio (z) = 0.19872 0.60271
#
# Static dielectric constant tensor:
#      x y z
#    x 1.759270 0.000000 0.000000 
#    y 0.000000 1.883400 0.000000 
#    z 0.000000 0.000000 1.864890 
# 
# From -- ./inp_files/2302.got.cif
#   From: 2010.05.17/outbox.cif.g08.bks.cpg/sg32_2_cif.got.tgz:2302.got - 2010.06.03 17:12:27.
