data_PCOD9344581
_publ_section_title
;
Structure prediction by ZEFSAII (Michael W. Deem and Ramdas Pophale) SiO2 
 PCOD9344581
Probable space group: P N A 21
;
_chemical_formula_sum "Si O2"
_cell_formula_units_Z 28
_cell_length_a 30.042182
_cell_length_b 5.543474
_cell_length_c 6.978617
_cell_angle_alpha 90.000000
_cell_angle_beta 90.000000
_cell_angle_gamma 90.000000
_cell_volume 1162.205301
_symmetry_space_group_name_H-M "P N A 21"
_symmetry_group_IT_number 33
_symmetry_cell_setting 'orthorhombic'
loop_
_space_group_symop_operation_xyz
x,y,z
-x,-y,1/2+z
1/2-x,1/2+y,1/2+z
1/2+x,1/2-y,z
loop_
_atom_site_type_symbol
_atom_site_label
_atom_site_fract_x
_atom_site_fract_y
_atom_site_fract_z
Si Si1 0.176914 0.176155 0.520890
Si Si2 0.717851 0.820499 0.570193
Si Si3 0.308556 0.478876 0.424668
Si Si4 0.491757 0.623663 0.593174
Si Si5 0.903515 0.119445 0.512322
Si Si6 0.082010 0.134879 0.596867
Si Si7 0.545696 0.989688 0.828790
O O1 0.191564 0.450059 0.479042
O O2 0.125784 0.119285 0.469305
O O3 0.206330 0.938638 0.471090
O O4 0.179458 0.167763 0.755081
O O5 0.705801 0.752058 0.791891
O O6 0.768455 0.904532 0.542016
O O7 0.351771 0.416417 0.550296
O O8 0.443551 0.505991 0.626919
O O9 0.533507 0.456972 0.541918
O O10 0.482464 0.792295 0.411209
O O11 0.511217 0.794348 0.756476
O O12 0.920768 0.392190 0.489681
O O13 0.907679 0.015277 0.293025
O O14 0.075341 0.413096 0.655376
#
# Coordination Sequence:
#
# PCOD9344581 Si02
#       7
#     4   4   4   4   4   4   4
#     4   9  21  36  61  87 116 156 200 251 304 374
#     4  10  21  36  62  87 118 154 205 256 310 366
#     4   9  21  37  62  85 120 159 207 257 308 379
#     4  10  20  33  57  87 118 151 199 249 297 373
#     4   9  18  36  55  84 110 156 201 239 302 366
#     4   9  18  34  57  81 112 151 202 237 296 361
#     4  10  19  34  58  81 114 157 194 249 299 367
#
# _framework density 24.092127999999999
#
# number of rings (size 3 to 8) (size 9 to 14) (size 15 to 20)
#    0.857    1.714    0.000    1.714    4.000    0.000 
#    0.000    1.429    9.429    0.000    0.000    0.000 
#    0.000    0.000    0.000    0.000    0.000    0.000 
#
# Total GULP energy -156001.143116 kJ/mol
# GULP energy per Si atom -5571.469397 kJ/mol
# Density = 2.403729 g / cm^3
# Si number density = 24.092128 Si / 1000 Ang^3
#
#
#
# Elastic Constant Matrix: (Units=GPa)
#
#
# Indices 1 2 3 4 5 6 
#
# 1 203.2102 59.9378 27.0444 0.0000 0.0000 0.0000
# 2 59.9378 124.2944 10.4380 0.0000 0.0000 0.0000
# 3 27.0444 10.4380 41.1597 0.0000 0.0000 0.0000
# 4 0.0000 0.0000 0.0000 20.5013 0.0000 0.0000
# 5 0.0000 0.0000 0.0000 0.0000 29.0781 0.0000
# 6 0.0000 0.0000 0.0000 0.0000 0.0000 22.9582
#
#
#
# Elastic Compliance Matrix: (Units=1/GPa)
#
#
# Indices 1 2 3 4 5 6 
#
# 1 0.006162 -0.002689 -0.003367 0.000000 0.000000 0.000000
# 2 -0.002689 0.009394 -0.000616 0.000000 0.000000 0.000000
# 3 -0.003367 -0.000616 0.026664 0.000000 0.000000 0.000000
# 4 0.000000 0.000000 0.000000 0.048777 0.000000 0.000000
# 5 0.000000 0.000000 0.000000 0.000000 0.034390 0.000000
# 6 0.000000 0.000000 0.000000 0.000000 0.000000 0.043557
#
#
# Mechanical properties :
#
#
# Convention : Reuss Voigt Hill
#
# Bulk Modulus (GPa) = 34.62937 62.61163 48.62050
# Shear Modulus (GPa) = 26.05343 32.59048 29.32195
#
# Velocity S-wave (km/s) = 3.29204 3.68196 3.49245
# Velocity P-wave (km/s) = 5.37169 6.64233 6.04051
#
# Compressibility (1/GPa) = 0.02887722
#
# Stress axis : x y z
#
# Youngs Moduli (GPa) = 162.27985 106.45424 37.50365
#
# Poissons Ratio (x) = 0.28623 0.12628
# Poissons Ratio (y) = 0.43634 0.02308
# Poissons Ratio (z) = 0.54641 0.06552
#
# Static dielectric constant tensor:
#      x y z
#    x 1.956880 0.000000 0.000000 
#    y 0.000000 1.998850 0.000000 
#    z 0.000000 0.000000 2.031120 
# 
# From -- ./inp_files/5249.got.cif
#   From: 2010.05.17/outbox.cif.g08.bks.cpg/sg33_3_cif.got.tgz:5249.got - 2010.06.03 17:15:25.
