data_PCOD9344112
_publ_section_title
;
Structure prediction by ZEFSAII (Michael W. Deem and Ramdas Pophale) SiO2 
 PCOD9344112
Probable space group: P B A 2
;
_chemical_formula_sum "Si O2"
_cell_formula_units_Z 30
_cell_length_a 21.498659
_cell_length_b 11.366044
_cell_length_c 5.310676
_cell_angle_alpha 90.000000
_cell_angle_beta 90.000000
_cell_angle_gamma 90.000000
_cell_volume 1297.688663
_symmetry_space_group_name_H-M "P B A 2"
_symmetry_group_IT_number 32
_symmetry_cell_setting 'orthorhombic'
loop_
_space_group_symop_operation_xyz
x,y,z
-x,-y,z
1/2-x,1/2+y,z
1/2+x,1/2-y,z
loop_
_atom_site_type_symbol
_atom_site_label
_atom_site_fract_x
_atom_site_fract_y
_atom_site_fract_z
Si Si1 0.000000 0.000000 0.599651
Si Si2 0.373889 0.534258 0.289551
Si Si3 0.156110 0.782946 0.372484
Si Si4 0.655859 0.135559 0.799006
Si Si5 0.913308 0.394781 0.685923
Si Si6 0.057677 0.175019 0.926787
Si Si7 0.709156 0.235925 0.313268
Si Si8 0.465391 0.183071 0.186061
O O1 0.937613 0.989603 0.439654
O O2 0.997601 0.882060 0.767259
O O3 0.332983 0.421663 0.355912
O O4 0.334703 0.650779 0.345325
O O5 0.398783 0.565950 0.009426
O O6 0.132396 0.716561 0.624439
O O7 0.219624 0.725143 0.278975
O O8 0.095876 0.764481 0.197686
O O9 0.598564 0.228215 0.788540
O O10 0.702855 0.166138 0.574707
O O11 0.628346 0.007304 0.747923
O O12 0.685560 0.160257 0.073726
O O13 0.959169 0.379814 0.919687
O O14 0.953675 0.397940 0.428190
O O15 0.027210 0.238979 0.169775
#
# Coordination Sequence:
#
# PCOD9344112 Si02
#       8
#     2   4   4   4   4   4   4   4
#     4  12  20  40  72  98 148 176 240 296 376 434
#     4  11  24  44  68 108 136 192 232 299 370 426
#     4  10  25  43  72 102 144 180 248 290 365 432
#     4  11  25  48  68 101 143 191 238 292 360 433
#     4  10  24  44  70  98 141 182 237 283 363 423
#     4  11  24  42  70 102 148 179 244 302 373 442
#     4  11  26  45  69 103 136 194 239 297 356 430
#     4  10  23  42  68 106 131 189 226 298 355 425
#
# _framework density 23.118024999999999
#
# number of rings (size 3 to 8) (size 9 to 14) (size 15 to 20)
#    0.800    0.533    1.333    3.600    5.600    0.533 
#    2.400    1.333    0.000    0.000    0.000    0.000 
#    0.000    0.000    0.000    0.000    0.000    0.000 
#
# Total GULP energy -167448.233614 kJ/mol
# GULP energy per Si atom -5581.607787 kJ/mol
# Density = 2.306541 g / cm^3
# Si number density = 23.118025 Si / 1000 Ang^3
#
#
#
# Elastic Constant Matrix: (Units=GPa)
#
#
# Indices 1 2 3 4 5 6 
#
# 1 84.1625 27.3124 17.1332 0.0000 0.0000 0.0000
# 2 27.3124 95.0104 42.7613 0.0000 0.0000 0.0000
# 3 17.1332 42.7613 115.2735 0.0000 0.0000 0.0000
# 4 0.0000 0.0000 0.0000 -1.3547 0.0000 0.0000
# 5 0.0000 0.0000 0.0000 0.0000 12.4732 0.0000
# 6 0.0000 0.0000 0.0000 0.0000 0.0000 30.2094
#
#
#
# Elastic Compliance Matrix: (Units=1/GPa)
#
#
# Indices 1 2 3 4 5 6 
#
# 1 0.013146 -0.003481 -0.000663 0.000000 0.000000 0.000000
# 2 -0.003481 0.013556 -0.004511 0.000000 0.000000 0.000000
# 3 -0.000663 -0.004511 0.010447 0.000000 0.000000 0.000000
# 4 0.000000 0.000000 0.000000 -0.738162 0.000000 0.000000
# 5 0.000000 0.000000 0.000000 0.000000 0.080172 0.000000
# 6 0.000000 0.000000 0.000000 0.000000 0.000000 0.033102
#
#
# Mechanical properties :
#
#
# Convention : Reuss Voigt Hill
#
# Bulk Modulus (GPa) = 50.40410 52.09557 51.24983
# Shear Modulus (GPa) = -8.86816 22.08155 6.60669
#
# Velocity S-wave (km/s) = -1.96071 3.09393 1.69234
# Velocity P-wave (km/s) = 4.08955 5.94531 5.10251
#
# Compressibility (1/GPa) = 0.01983966
#
# Stress axis : x y z
#
# Youngs Moduli (GPa) = 76.06709 73.76678 95.72086
#
# Poissons Ratio (x) = 0.25677 0.06343
# Poissons Ratio (y) = 0.26478 0.43183
# Poissons Ratio (z) = 0.05041 0.33279
#
# Static dielectric constant tensor:
#      x y z
#    x 1.873510 0.000000 0.000000 
#    y 0.000000 1.997830 0.000000 
#    z 0.000000 0.000000 1.911600 
# 
# From -- ./inp_files/1592.got.cif
#   From: 2010.05.17/outbox.cif.g08.bks.cpg/sg32_1_cif.got.tgz:1592.got - 2010.06.03 17:12:27.
