data_PCOD9344039
_publ_section_title
;
Structure prediction by ZEFSAII (Michael W. Deem and Ramdas Pophale) SiO2 
 PCOD9344039
Probable space group: P B A 2
;
_chemical_formula_sum "Si O2"
_cell_formula_units_Z 24
_cell_length_a 22.168055
_cell_length_b 8.711086
_cell_length_c 5.463561
_cell_angle_alpha 90.000000
_cell_angle_beta 90.000000
_cell_angle_gamma 90.000000
_cell_volume 1055.056428
_symmetry_space_group_name_H-M "P B A 2"
_symmetry_group_IT_number 32
_symmetry_cell_setting 'orthorhombic'
loop_
_space_group_symop_operation_xyz
x,y,z
-x,-y,z
1/2-x,1/2+y,z
1/2+x,1/2-y,z
loop_
_atom_site_type_symbol
_atom_site_label
_atom_site_fract_x
_atom_site_fract_y
_atom_site_fract_z
Si Si1 0.809363 0.718795 0.230590
Si Si2 0.387389 0.306590 0.744993
Si Si3 0.390908 0.980018 0.906667
Si Si4 0.000000 0.500000 0.231647
Si Si5 0.000000 0.000000 0.654889
Si Si6 0.072054 0.266581 0.533322
Si Si7 0.821976 0.085081 0.244844
O O1 0.861173 0.701266 0.435824
O O2 0.742352 0.666811 0.289684
O O3 0.812440 0.902754 0.188300
O O4 0.832324 0.597254 0.024803
O O5 0.455204 0.376182 0.781067
O O6 0.358245 0.377909 0.496821
O O7 0.382485 0.120736 0.721160
O O8 0.351806 0.348207 0.995869
O O9 0.425632 0.829929 0.806262
O O10 0.440194 0.049562 0.089470
O O11 0.977121 0.636200 0.395784
O O12 0.048474 0.097211 0.506648
#
# Coordination Sequence:
#
# PCOD9344039 Si02
#       7
#     4   4   4   2   2   4   4
#     4  11  27  48  78 106 158 200 269 321 391 472
#     4  12  29  47  82 113 156 203 260 323 401 467
#     4  11  25  45  72 112 148 206 259 321 395 467
#     4  10  22  40  68 104 148 194 254 314 394 468
#     4  12  24  48  76 112 164 200 270 328 402 484
#     4  11  24  44  73 107 153 204 254 329 388 465
#     4  12  29  51  75 118 149 210 258 324 394 467
#
# _framework density 22.747596999999999
#
# number of rings (size 3 to 8) (size 9 to 14) (size 15 to 20)
#    0.000    0.667    1.667    4.500   11.667    2.000 
#    0.000    0.000    0.000    0.000    0.000    0.000 
#    0.000    0.000    0.000    0.000    0.000    0.000 
#
# Total GULP energy -133848.225303 kJ/mol
# GULP energy per Si atom -5577.009388 kJ/mol
# Density = 2.269582 g / cm^3
# Si number density = 22.747597 Si / 1000 Ang^3
#
#
#
# Elastic Constant Matrix: (Units=GPa)
#
#
# Indices 1 2 3 4 5 6 
#
# 1 125.1646 59.4586 42.9930 0.0000 0.0000 0.0000
# 2 59.4586 120.8032 14.5170 0.0000 0.0000 0.0000
# 3 42.9930 14.5170 70.3910 0.0000 0.0000 0.0000
# 4 0.0000 0.0000 0.0000 16.9058 0.0000 0.0000
# 5 0.0000 0.0000 0.0000 0.0000 21.1348 0.0000
# 6 0.0000 0.0000 0.0000 0.0000 0.0000 41.4205
#
#
#
# Elastic Compliance Matrix: (Units=1/GPa)
#
#
# Indices 1 2 3 4 5 6 
#
# 1 0.012957 -0.005564 -0.006766 0.000000 0.000000 0.000000
# 2 -0.005564 0.010878 0.001155 0.000000 0.000000 0.000000
# 3 -0.006766 0.001155 0.018101 0.000000 0.000000 0.000000
# 4 0.000000 0.000000 0.000000 0.059151 0.000000 0.000000
# 5 0.000000 0.000000 0.000000 0.000000 0.047315 0.000000
# 6 0.000000 0.000000 0.000000 0.000000 0.000000 0.024143
#
#
# Mechanical properties :
#
#
# Convention : Reuss Voigt Hill
#
# Bulk Modulus (GPa) = 51.05991 61.14397 56.10194
# Shear Modulus (GPa) = 24.82333 29.18490 27.00412
#
# Velocity S-wave (km/s) = 3.30699 3.58577 3.44920
# Velocity P-wave (km/s) = 6.08906 6.63938 6.37016
#
# Compressibility (1/GPa) = 0.01958484
#
# Stress axis : x y z
#
# Youngs Moduli (GPa) = 77.17941 91.93058 55.24633
#
# Poissons Ratio (x) = 0.51152 0.37381
# Poissons Ratio (y) = 0.42944 -0.06381
# Poissons Ratio (z) = 0.52221 -0.10619
#
# Static dielectric constant tensor:
#      x y z
#    x 1.806720 0.000000 0.000000 
#    y 0.000000 1.969710 0.000000 
#    z 0.000000 0.000000 1.900690 
# 
# From -- ./inp_files/511.got.cif
#   From: 2010.05.17/outbox.cif.g08.bks.cpg/sg32_1_cif.got.tgz:511.got - 2010.06.03 17:12:27.
