data_PCOD9344029
_publ_section_title
;
Structure prediction by ZEFSAII (Michael W. Deem and Ramdas Pophale) SiO2 
 PCOD9344029
Probable space group: P B A 2
;
_chemical_formula_sum "Si O2"
_cell_formula_units_Z 24
_cell_length_a 8.737134
_cell_length_b 14.205302
_cell_length_c 8.844351
_cell_angle_alpha 90.000000
_cell_angle_beta 90.000000
_cell_angle_gamma 90.000000
_cell_volume 1097.704482
_symmetry_space_group_name_H-M "P B A 2"
_symmetry_group_IT_number 32
_symmetry_cell_setting 'orthorhombic'
loop_
_space_group_symop_operation_xyz
x,y,z
-x,-y,z
1/2-x,1/2+y,z
1/2+x,1/2-y,z
loop_
_atom_site_type_symbol
_atom_site_label
_atom_site_fract_x
_atom_site_fract_y
_atom_site_fract_z
Si Si1 0.472106 0.219762 0.550000
Si Si2 0.316909 0.001437 0.154570
Si Si3 0.856174 0.816029 0.093640
Si Si4 0.772808 0.666193 0.345780
Si Si5 0.883681 0.084905 0.906503
Si Si6 0.743966 0.262707 0.763482
O O1 0.364879 0.282928 0.438220
O O2 0.581335 0.154740 0.453855
O O3 0.593461 0.269790 0.661822
O O4 0.361168 0.173078 0.671489
O O5 0.237644 0.934394 0.277567
O O6 0.500000 0.000000 0.164881
O O7 0.244087 0.103412 0.170427
O O8 0.258218 0.962700 0.992869
O O9 0.841173 0.729466 0.208017
O O10 0.781177 0.791471 0.933760
O O11 0.020112 0.855667 0.035162
O O12 0.815689 0.156973 0.782029
O O13 0.000000 0.000000 0.858193
#
# Coordination Sequence:
#
# PCOD9344029 Si02
#       6
#     4   4   4   4   4   4
#     4  10  24  38  68  95 141 188 216 276 366 422
#     4  11  24  38  69 105 131 172 239 296 348 406
#     4  11  23  40  76  93 134 181 240 294 348 401
#     4  11  22  44  65  98 139 183 231 288 347 432
#     4  10  22  40  63 105 136 175 230 301 349 409
#     4  11  21  42  68 101 132 188 233 287 353 419
#
# _framework density 21.863807999999999
#
# number of rings (size 3 to 8) (size 9 to 14) (size 15 to 20)
#    0.000    1.333    3.333    2.000    4.667    0.000 
#    0.000    3.333   22.000    0.000    0.000    0.000 
#    0.000    0.000    0.000    0.000    0.000    0.000 
#
# Total GULP energy -133794.876768 kJ/mol
# GULP energy per Si atom -5574.786532 kJ/mol
# Density = 2.181405 g / cm^3
# Si number density = 21.863808 Si / 1000 Ang^3
#
#
#
# Elastic Constant Matrix: (Units=GPa)
#
#
# Indices 1 2 3 4 5 6 
#
# 1 99.8586 5.0776 21.4651 0.0000 0.0000 0.0000
# 2 5.0776 56.3099 20.5656 0.0000 0.0000 0.0000
# 3 21.4651 20.5656 100.7090 0.0000 0.0000 0.0000
# 4 0.0000 0.0000 0.0000 32.7128 0.0000 0.0000
# 5 0.0000 0.0000 0.0000 0.0000 46.0036 0.0000
# 6 0.0000 0.0000 0.0000 0.0000 0.0000 19.7318
#
#
#
# Elastic Compliance Matrix: (Units=1/GPa)
#
#
# Indices 1 2 3 4 5 6 
#
# 1 0.010496 -0.000140 -0.002209 0.000000 0.000000 0.000000
# 2 -0.000140 0.019192 -0.003889 0.000000 0.000000 0.000000
# 3 -0.002209 -0.003889 0.011195 0.000000 0.000000 0.000000
# 4 0.000000 0.000000 0.000000 0.030569 0.000000 0.000000
# 5 0.000000 0.000000 0.000000 0.000000 0.021737 0.000000
# 6 0.000000 0.000000 0.000000 0.000000 0.000000 0.050680
#
#
# Mechanical properties :
#
#
# Convention : Reuss Voigt Hill
#
# Bulk Modulus (GPa) = 35.20253 39.01045 37.10649
# Shear Modulus (GPa) = 30.15445 33.67428 31.91437
#
# Velocity S-wave (km/s) = 3.71778 3.92878 3.82473
# Velocity P-wave (km/s) = 5.87920 6.20174 6.04262
#
# Compressibility (1/GPa) = 0.02840705
#
# Stress axis : x y z
#
# Youngs Moduli (GPa) = 95.27433 52.10517 89.32903
#
# Poissons Ratio (x) = 0.00729 0.19729
# Poissons Ratio (y) = 0.01332 0.34743
# Poissons Ratio (z) = 0.21042 0.20265
#
# Static dielectric constant tensor:
#      x y z
#    x 1.897230 0.000000 0.000000 
#    y 0.000000 1.728620 0.000000 
#    z 0.000000 0.000000 1.835900 
# 
# From -- ./inp_files/2310.got.cif
#   From: 2010.05.17/outbox.cif.g08.bks.cpg/sg32_2_cif.got.tgz:2310.got - 2010.06.03 17:12:27.
