data_PCOD9344779
_publ_section_title
;
Structure prediction by ZEFSAII (Michael W. Deem and Ramdas Pophale) SiO2 
 PCOD9344779
Probable space group: P N A 21
;
_chemical_formula_sum "Si O2"
_cell_formula_units_Z 24
_cell_length_a 17.030876
_cell_length_b 6.860653
_cell_length_c 7.933123
_cell_angle_alpha 90.000000
_cell_angle_beta 90.000000
_cell_angle_gamma 90.000000
_cell_volume 926.929340
_symmetry_space_group_name_H-M "P N A 21"
_symmetry_group_IT_number 33
_symmetry_cell_setting 'orthorhombic'
loop_
_space_group_symop_operation_xyz
x,y,z
-x,-y,1/2+z
1/2-x,1/2+y,1/2+z
1/2+x,1/2-y,z
loop_
_atom_site_type_symbol
_atom_site_label
_atom_site_fract_x
_atom_site_fract_y
_atom_site_fract_z
Si Si1 0.335977 0.371718 0.365000
Si Si2 0.938069 0.201666 0.674555
Si Si3 0.332575 0.917055 0.744348
Si Si4 0.387222 0.322768 0.006110
Si Si5 0.287322 0.910372 0.384307
Si Si6 0.105872 0.358295 0.572866
O O1 0.387421 0.407653 0.531353
O O2 0.251779 0.471416 0.328097
O O3 0.309089 0.141864 0.376079
O O4 0.385011 0.408028 0.193882
O O5 0.886912 0.397463 0.709442
O O6 0.948058 0.115987 0.862531
O O7 0.021709 0.274712 0.613737
O O8 0.321423 0.828007 0.560233
O O9 0.369683 0.785137 0.888518
O O10 0.304324 0.373874 0.915520
O O11 0.398205 0.092955 0.047697
O O12 0.328823 0.828755 0.217136
#
# Coordination Sequence:
#
# PCOD9344779 Si02
#       6
#     4   4   4   4   4   4
#     4   9  18  33  51  73 104 137 177 212 258 317
#     4  10  20  30  52  80 107 132 175 225 265 297
#     4   9  19  31  49  76 103 136 171 217 259 314
#     4   9  19  31  49  76 103 136 171 217 259 314
#     4   9  18  33  51  73 104 137 177 212 258 317
#     4  10  20  30  52  80 107 132 175 225 265 297
#
# _framework density 25.891943000000001
#
# number of rings (size 3 to 8) (size 9 to 14) (size 15 to 20)
#    0.000    2.667    0.000    1.000   14.000    0.000 
#    0.000    0.000    0.000    2.000    8.667    0.000 
#    0.000    0.000    0.000    0.000    0.000    0.000 
#
# Total GULP energy -134111.445562 kJ/mol
# GULP energy per Si atom -5587.976898 kJ/mol
# Density = 2.583301 g / cm^3
# Si number density = 25.891943 Si / 1000 Ang^3
#
#
#
# Elastic Constant Matrix: (Units=GPa)
#
#
# Indices 1 2 3 4 5 6 
#
# 1 99.4347 48.2483 70.7647 0.0000 0.0000 0.0000
# 2 48.2483 111.7876 15.5528 0.0000 0.0000 0.0000
# 3 70.7647 15.5528 222.4694 0.0000 0.0000 0.0000
# 4 0.0000 0.0000 0.0000 -5.9576 0.0000 0.0000
# 5 0.0000 0.0000 0.0000 0.0000 48.8980 0.0000
# 6 0.0000 0.0000 0.0000 0.0000 0.0000 33.3666
#
#
#
# Elastic Compliance Matrix: (Units=1/GPa)
#
#
# Indices 1 2 3 4 5 6 
#
# 1 0.016670 -0.006521 -0.004847 0.000000 0.000000 0.000000
# 2 -0.006521 0.011584 0.001264 0.000000 0.000000 0.000000
# 3 -0.004847 0.001264 0.005948 0.000000 0.000000 0.000000
# 4 0.000000 0.000000 0.000000 -0.167853 0.000000 0.000000
# 5 0.000000 0.000000 0.000000 0.000000 0.020451 0.000000
# 6 0.000000 0.000000 0.000000 0.000000 0.000000 0.029970
#
#
# Mechanical properties :
#
#
# Convention : Reuss Voigt Hill
#
# Bulk Modulus (GPa) = 71.44733 78.09148 74.76941
# Shear Modulus (GPa) = -85.67750 35.20313 -25.23719
#
# Velocity S-wave (km/s) = -5.75867 3.69130 -3.12542
# Velocity P-wave (km/s) = 4.06964 6.95655 3.98946
#
# Compressibility (1/GPa) = 0.01399632
#
# Stress axis : x y z
#
# Youngs Moduli (GPa) = 59.98784 86.32612 168.11587
#
# Poissons Ratio (x) = 0.56290 0.81480
# Poissons Ratio (y) = 0.39116 -0.21255
# Poissons Ratio (z) = 0.29074 -0.10914
#
# Static dielectric constant tensor:
#      x y z
#    x 1.977090 0.000000 0.000000 
#    y 0.000000 2.106690 0.000000 
#    z 0.000000 0.000000 2.112750 
# 
# From -- ./inp_files/4312.got.cif
#   From: 2010.05.17/outbox.cif.g08.bks.cpg/sg33_3_cif.got.tgz:4312.got - 2010.06.03 17:15:25.
