data_PCOD9344391
_publ_section_title
;
Structure prediction by ZEFSAII (Michael W. Deem and Ramdas Pophale) SiO2 
 PCOD9344391
Probable space group: P N A 21
;
_chemical_formula_sum "Si O2"
_cell_formula_units_Z 32
_cell_length_a 15.268710
_cell_length_b 19.052152
_cell_length_c 5.012912
_cell_angle_alpha 90.000000
_cell_angle_beta 90.000000
_cell_angle_gamma 90.000000
_cell_volume 1458.265043
_symmetry_space_group_name_H-M "P N A 21"
_symmetry_group_IT_number 33
_symmetry_cell_setting 'orthorhombic'
loop_
_space_group_symop_operation_xyz
x,y,z
-x,-y,1/2+z
1/2-x,1/2+y,1/2+z
1/2+x,1/2-y,z
loop_
_atom_site_type_symbol
_atom_site_label
_atom_site_fract_x
_atom_site_fract_y
_atom_site_fract_z
Si Si1 0.824568 0.254441 0.100880
Si Si2 0.495943 0.593052 0.985979
Si Si3 0.599353 0.542841 0.486975
Si Si4 0.149741 0.592703 0.508411
Si Si5 0.648210 0.056703 0.648854
Si Si6 0.722564 0.118907 0.141222
Si Si7 0.032741 0.603625 0.008479
Si Si8 0.550084 0.741839 0.104462
O O1 0.797773 0.335026 0.047931
O O2 0.747217 0.198709 0.079500
O O3 0.871735 0.244437 0.385608
O O4 0.900305 0.237009 0.885624
O O5 0.570755 0.564516 0.189705
O O6 0.414443 0.540582 0.024424
O O7 0.489462 0.675117 0.047347
O O8 0.531026 0.579964 0.688618
O O9 0.692613 0.572731 0.565800
O O10 0.190681 0.519788 0.604822
O O11 0.113074 0.587344 0.208705
O O12 0.067741 0.603192 0.709104
O O13 0.697395 0.108364 0.446764
O O14 0.547908 0.052783 0.555689
O O15 0.650348 0.086501 0.945576
O O16 0.003663 0.682977 0.080250
#
# Coordination Sequence:
#
# PCOD9344391 Si02
#       8
#     4   4   4   4   4   4   4   4
#     4  10  20  35  58  83 105 150 181 232 269 340
#     4  10  17  32  53  80 106 139 190 232 270 305
#     4  10  20  31  52  77 111 146 182 229 265 328
#     4  10  21  40  62  82 109 144 202 235 279 327
#     4  12  24  37  58  85 116 153 180 239 290 343
#     4  12  22  37  55  83 121 151 189 216 288 360
#     4  10  21  37  60  84 107 142 195 252 280 317
#     4  10  17  33  58  82 107 135 191 237 281 318
#
# _framework density 21.943884000000001
#
# number of rings (size 3 to 8) (size 9 to 14) (size 15 to 20)
#    0.000    1.500    2.500    3.750    0.000    0.000 
#    0.000    2.500    0.000    0.000    0.000    0.000 
#    0.000    0.000    0.000    0.000    0.000    0.000 
#
# Total GULP energy -178816.223803 kJ/mol
# GULP energy per Si atom -5588.006994 kJ/mol
# Density = 2.189394 g / cm^3
# Si number density = 21.943884 Si / 1000 Ang^3
#
#
#
# Elastic Constant Matrix: (Units=GPa)
#
#
# Indices 1 2 3 4 5 6 
#
# 1 11.9663 -2.8577 -3.3156 0.0000 0.0000 0.0000
# 2 -2.8577 150.6905 5.1049 0.0000 0.0000 0.0000
# 3 -3.3156 5.1049 64.9634 0.0000 0.0000 0.0000
# 4 0.0000 0.0000 0.0000 21.8419 0.0000 0.0000
# 5 0.0000 0.0000 0.0000 0.0000 21.7380 0.0000
# 6 0.0000 0.0000 0.0000 0.0000 0.0000 26.2501
#
#
#
# Elastic Compliance Matrix: (Units=1/GPa)
#
#
# Indices 1 2 3 4 5 6 
#
# 1 0.085091 0.001470 0.004227 0.000000 0.000000 0.000000
# 2 0.001470 0.006679 -0.000450 0.000000 0.000000 0.000000
# 3 0.004227 -0.000450 0.015644 0.000000 0.000000 0.000000
# 4 0.000000 0.000000 0.000000 0.045784 0.000000 0.000000
# 5 0.000000 0.000000 0.000000 0.000000 0.046002 0.000000
# 6 0.000000 0.000000 0.000000 0.000000 0.000000 0.038095
#
#
# Mechanical properties :
#
#
# Convention : Reuss Voigt Hill
#
# Bulk Modulus (GPa) = 8.48104 25.05372 16.76738
# Shear Modulus (GPa) = 18.78974 29.21191 24.00082
#
# Velocity S-wave (km/s) = 2.92937 3.65253 3.31076
# Velocity P-wave (km/s) = 3.91342 5.40647 4.71937
#
# Compressibility (1/GPa) = 0.11791005
#
# Stress axis : x y z
#
# Youngs Moduli (GPa) = 11.75219 149.71761 63.92073
#
# Poissons Ratio (x) = -0.22015 -0.27021
# Poissons Ratio (y) = -0.01728 0.02875
# Poissons Ratio (z) = -0.04968 0.06735
#
# Static dielectric constant tensor:
#      x y z
#    x 1.766500 0.000000 0.000000 
#    y 0.000000 1.884140 0.000000 
#    z 0.000000 0.000000 1.774150 
# 
# From -- ./inp_files/1530.got.cif
#   From: 2010.05.17/outbox.cif.g08.bks.cpg/sg33_1_cif.got.tgz:1530.got - 2010.06.03 17:15:25.
