data_PCOD9344165
_publ_section_title
;
Structure prediction by ZEFSAII (Michael W. Deem and Ramdas Pophale) SiO2 
 PCOD9344165
Probable space group: P B A 2
;
_chemical_formula_sum "Si O2"
_cell_formula_units_Z 32
_cell_length_a 9.381446
_cell_length_b 27.253660
_cell_length_c 4.949150
_cell_angle_alpha 90.000000
_cell_angle_beta 90.000000
_cell_angle_gamma 90.000000
_cell_volume 1265.392434
_symmetry_space_group_name_H-M "P B A 2"
_symmetry_group_IT_number 32
_symmetry_cell_setting 'orthorhombic'
loop_
_space_group_symop_operation_xyz
x,y,z
-x,-y,z
1/2-x,1/2+y,z
1/2+x,1/2-y,z
loop_
_atom_site_type_symbol
_atom_site_label
_atom_site_fract_x
_atom_site_fract_y
_atom_site_fract_z
Si Si1 0.930376 0.845329 0.931320
Si Si2 0.398066 0.830973 0.785223
Si Si3 0.334211 0.278414 0.083146
Si Si4 0.647104 0.894572 0.993827
Si Si5 0.621309 0.959771 0.470945
Si Si6 0.324586 0.410491 0.659028
Si Si7 0.848797 0.024536 0.152384
Si Si8 0.283888 0.735470 0.581382
O O1 0.803354 0.874894 0.069610
O O2 0.856517 0.812265 0.700036
O O3 0.043895 0.880976 0.789926
O O4 0.021471 0.808612 0.122511
O O5 0.547492 0.851687 0.878568
O O6 0.308980 0.874291 0.644259
O O7 0.390475 0.782200 0.604463
O O8 0.298142 0.815783 0.041610
O O9 0.289060 0.237445 0.293555
O O10 0.336785 0.253286 0.792430
O O11 0.662888 0.933495 0.749025
O O12 0.573046 0.918970 0.252789
O O13 0.500000 0.000000 0.519347
O O14 0.748524 0.986398 0.309018
O O15 0.365176 0.431714 0.369252
O O16 0.288931 0.453640 0.873261
O O17 0.000000 0.000000 0.092904
#
# Coordination Sequence:
#
# PCOD9344165 Si02
#       8
#     4   4   4   4   4   4   4   4
#     4  11  26  46  71 107 144 178 245 297 348 421
#     4   9  24  42  68  97 138 182 237 266 352 413
#     4   9  24  43  69  93 136 190 230 273 356 414
#     4  12  26  42  72 106 141 179 237 304 345 421
#     4  12  26  46  69 101 142 183 229 290 373 429
#     4  11  24  41  72  94 133 179 228 283 342 427
#     4  12  24  43  68  96 133 174 227 284 356 422
#     4  10  24  43  71  96 140 187 231 282 350 425
#
# _framework density 25.288596999999999
#
# number of rings (size 3 to 8) (size 9 to 14) (size 15 to 20)
#    0.750    0.500    0.000    4.500    7.000    4.000 
#    0.000    0.000    0.000    0.000    0.000    0.000 
#    0.000    0.000    0.000    0.000    0.000    0.000 
#
# Total GULP energy -179311.361043 kJ/mol
# GULP energy per Si atom -5603.480033 kJ/mol
# Density = 2.523104 g / cm^3
# Si number density = 25.288597 Si / 1000 Ang^3
#
#
#
# Elastic Constant Matrix: (Units=GPa)
#
#
# Indices 1 2 3 4 5 6 
#
# 1 110.5085 30.3465 -0.3977 0.0000 0.0000 0.0000
# 2 30.3465 87.2197 16.9965 0.0000 0.0000 0.0000
# 3 -0.3977 16.9965 90.4616 0.0000 0.0000 0.0000
# 4 0.0000 0.0000 0.0000 17.4089 0.0000 0.0000
# 5 0.0000 0.0000 0.0000 0.0000 19.9569 0.0000
# 6 0.0000 0.0000 0.0000 0.0000 0.0000 41.1696
#
#
#
# Elastic Compliance Matrix: (Units=1/GPa)
#
#
# Indices 1 2 3 4 5 6 
#
# 1 0.010051 -0.003639 0.000728 0.000000 0.000000 0.000000
# 2 -0.003639 0.013218 -0.002500 0.000000 0.000000 0.000000
# 3 0.000728 -0.002500 0.011527 0.000000 0.000000 0.000000
# 4 0.000000 0.000000 0.000000 0.057442 0.000000 0.000000
# 5 0.000000 0.000000 0.000000 0.000000 0.050108 0.000000
# 6 0.000000 0.000000 0.000000 0.000000 0.000000 0.024290
#
#
# Mechanical properties :
#
#
# Convention : Reuss Voigt Hill
#
# Bulk Modulus (GPa) = 41.70918 42.45338 42.08128
# Shear Modulus (GPa) = 26.96157 31.79005 29.37581
#
# Velocity S-wave (km/s) = 3.26875 3.54939 3.41196
# Velocity P-wave (km/s) = 5.54755 5.79841 5.67437
#
# Compressibility (1/GPa) = 0.02397554
#
# Stress axis : x y z
#
# Youngs Moduli (GPa) = 99.49290 75.65168 86.75093
#
# Poissons Ratio (x) = 0.27529 -0.06314
# Poissons Ratio (y) = 0.36204 0.21684
# Poissons Ratio (z) = -0.07242 0.18910
#
# Static dielectric constant tensor:
#      x y z
#    x 1.973900 0.000000 0.000000 
#    y 0.000000 2.039610 0.000000 
#    z 0.000000 0.000000 1.931170 
# 
# From -- ./inp_files/633.got.cif
#   From: 2010.05.17/outbox.cif.g08.bks.cpg/sg32_1_cif.got.tgz:633.got - 2010.06.03 17:12:27.
