data_PCOD9344028
_publ_section_title
;
Structure prediction by ZEFSAII (Michael W. Deem and Ramdas Pophale) SiO2 
 PCOD9344028
Probable space group: P B A 2
;
_chemical_formula_sum "Si O2"
_cell_formula_units_Z 24
_cell_length_a 14.413112
_cell_length_b 11.994417
_cell_length_c 5.879157
_cell_angle_alpha 90.000000
_cell_angle_beta 90.000000
_cell_angle_gamma 90.000000
_cell_volume 1016.370293
_symmetry_space_group_name_H-M "P B A 2"
_symmetry_group_IT_number 32
_symmetry_cell_setting 'orthorhombic'
loop_
_space_group_symop_operation_xyz
x,y,z
-x,-y,z
1/2-x,1/2+y,z
1/2+x,1/2-y,z
loop_
_atom_site_type_symbol
_atom_site_label
_atom_site_fract_x
_atom_site_fract_y
_atom_site_fract_z
Si Si1 0.306371 0.225238 0.738590
Si Si2 0.657467 0.590073 0.351230
Si Si3 0.000000 0.500000 0.216013
Si Si4 0.164448 0.508991 0.498399
Si Si5 0.029979 0.808528 0.959945
Si Si6 0.500000 0.500000 0.600946
Si Si7 0.131575 0.345958 0.911853
O O1 0.322804 0.308009 0.525228
O O2 0.283173 0.102606 0.648438
O O3 0.403330 0.210988 0.869519
O O4 0.235131 0.292281 0.901627
O O5 0.759452 0.537876 0.318626
O O6 0.593254 0.492477 0.456361
O O7 0.588996 0.635556 0.158383
O O8 0.073224 0.562463 0.382892
O O9 0.073961 0.432796 0.066778
O O10 0.131113 0.407711 0.663242
O O11 0.928260 0.761671 0.986574
O O12 0.018579 0.896361 0.759915
#
# Coordination Sequence:
#
# PCOD9344028 Si02
#       7
#     4   4   2   4   4   2   4
#     4  10  22  40  62  91 129 170 214 268 323 386
#     4  10  22  40  63  94 129 172 220 268 327 389
#     4  12  22  38  64  96 128 170 218 266 326 392
#     4  11  23  42  64  93 133 171 216 270 328 390
#     4  11  21  40  63  92 129 169 220 270 325 389
#     4  10  22  40  64  90 128 174 220 276 324 380
#     4  11  24  40  64  95 128 169 215 270 326 384
#
# _framework density 23.613439
#
# number of rings (size 3 to 8) (size 9 to 14) (size 15 to 20)
#    0.000    1.333    0.000    6.000    0.000    1.333 
#    0.000   11.667    0.000    0.000    0.000    0.000 
#    0.000    0.000    0.000    0.000    0.000    0.000 
#
# Total GULP energy -133605.131092 kJ/mol
# GULP energy per Si atom -5566.880462 kJ/mol
# Density = 2.355969 g / cm^3
# Si number density = 23.613439 Si / 1000 Ang^3
#
#
#
# Elastic Constant Matrix: (Units=GPa)
#
#
# Indices 1 2 3 4 5 6 
#
# 1 151.1870 29.2153 52.4986 0.0000 0.0000 0.0000
# 2 29.2153 50.2091 16.7209 0.0000 0.0000 0.0000
# 3 52.4986 16.7209 51.7675 0.0000 0.0000 0.0000
# 4 0.0000 0.0000 0.0000 24.1766 0.0000 0.0000
# 5 0.0000 0.0000 0.0000 0.0000 62.6759 0.0000
# 6 0.0000 0.0000 0.0000 0.0000 0.0000 31.8039
#
#
#
# Elastic Compliance Matrix: (Units=1/GPa)
#
#
# Indices 1 2 3 4 5 6 
#
# 1 0.010572 -0.002892 -0.009787 0.000000 0.000000 0.000000
# 2 -0.002892 0.023108 -0.004531 0.000000 0.000000 0.000000
# 3 -0.009787 -0.004531 0.030706 0.000000 0.000000 0.000000
# 4 0.000000 0.000000 0.000000 0.041362 0.000000 0.000000
# 5 0.000000 0.000000 0.000000 0.000000 0.015955 0.000000
# 6 0.000000 0.000000 0.000000 0.000000 0.000000 0.031443
#
#
# Mechanical properties :
#
#
# Convention : Reuss Voigt Hill
#
# Bulk Modulus (GPa) = 33.37134 50.00371 41.68752
# Shear Modulus (GPa) = 25.30947 34.04651 29.67799
#
# Velocity S-wave (km/s) = 3.27743 3.80126 3.54902
# Velocity P-wave (km/s) = 5.33714 6.36302 5.87252
#
# Compressibility (1/GPa) = 0.02996584
#
# Stress axis : x y z
#
# Youngs Moduli (GPa) = 94.59334 43.27413 32.56724
#
# Poissons Ratio (x) = 0.12515 0.31873
# Poissons Ratio (y) = 0.27357 0.14757
# Poissons Ratio (z) = 0.92576 0.19608
#
# Static dielectric constant tensor:
#      x y z
#    x 1.857570 0.000000 0.000000 
#    y 0.000000 1.882540 0.000000 
#    z 0.000000 0.000000 1.958270 
# 
# From -- ./inp_files/1230.got.cif
#   From: 2010.05.17/outbox.cif.g08.bks.cpg/sg32_1_cif.got.tgz:1230.got - 2010.06.03 17:12:27.
