data_PCOD9344838
_publ_section_title
;
Structure prediction by ZEFSAII (Michael W. Deem and Ramdas Pophale) SiO2 
 PCOD9344838
Probable space group: P N A 21
;
_chemical_formula_sum "Si O2"
_cell_formula_units_Z 32
_cell_length_a 19.358797
_cell_length_b 12.832270
_cell_length_c 5.375952
_cell_angle_alpha 90.000000
_cell_angle_beta 90.000000
_cell_angle_gamma 90.000000
_cell_volume 1335.479534
_symmetry_space_group_name_H-M "P N A 21"
_symmetry_group_IT_number 33
_symmetry_cell_setting 'orthorhombic'
loop_
_space_group_symop_operation_xyz
x,y,z
-x,-y,1/2+z
1/2-x,1/2+y,1/2+z
1/2+x,1/2-y,z
loop_
_atom_site_type_symbol
_atom_site_label
_atom_site_fract_x
_atom_site_fract_y
_atom_site_fract_z
Si Si1 0.679832 0.262963 0.018580
Si Si2 0.966298 0.141165 0.850768
Si Si3 0.354093 0.934911 0.801023
Si Si4 0.677182 0.704976 0.452676
Si Si5 0.702903 0.574908 0.951548
Si Si6 0.432931 0.770397 0.138231
Si Si7 0.593618 0.428978 0.164359
Si Si8 0.979545 0.447367 0.866912
O O1 0.670112 0.139036 0.074424
O O2 0.643682 0.332437 0.235224
O O3 0.760338 0.286861 0.984288
O O4 0.633410 0.276360 0.775587
O O5 0.904653 0.219981 0.921168
O O6 0.009426 0.179293 0.604975
O O7 0.930871 0.027468 0.823945
O O8 0.025928 0.123067 0.050404
O O9 0.282528 0.958955 0.936941
O O10 0.400386 0.037864 0.773838
O O11 0.405408 0.854732 0.943667
O O12 0.684614 0.639302 0.705882
O O13 0.696573 0.644432 0.199132
O O14 0.645861 0.485589 0.971714
O O15 0.477737 0.842116 0.329106
O O16 0.015926 0.522832 0.658243
#
# Coordination Sequence:
#
# PCOD9344838 Si02
#       8
#     4   4   4   4   4   4   4   4
#     4  10  20  38  61  88 125 163 220 252 328 374
#     4  10  22  38  62  91 134 167 220 263 326 385
#     4  10  20  36  64  87 125 164 210 263 319 379
#     4  10  21  41  60  86 118 164 207 264 307 371
#     4  10  21  39  62  85 120 163 208 256 316 368
#     4  10  20  37  58  91 120 170 206 266 315 385
#     4  10  22  38  61  96 127 175 211 266 320 393
#     4  10  20  35  58  88 123 156 210 260 321 373
#
# _framework density 23.961428999999999
#
# number of rings (size 3 to 8) (size 9 to 14) (size 15 to 20)
#    0.000    2.000    2.500    0.750    1.750    1.000 
#    4.500    0.000    0.000    6.000    0.000    0.000 
#    0.000    0.000    0.000    0.000    0.000    0.000 
#
# Total GULP energy -178140.548350 kJ/mol
# GULP energy per Si atom -5566.892136 kJ/mol
# Density = 2.390689 g / cm^3
# Si number density = 23.961429 Si / 1000 Ang^3
#
#
#
# Elastic Constant Matrix: (Units=GPa)
#
#
# Indices 1 2 3 4 5 6 
#
# 1 181.3648 30.9192 27.7629 0.0000 0.0000 0.0000
# 2 30.9192 70.0663 16.6902 0.0000 0.0000 0.0000
# 3 27.7629 16.6902 83.8104 0.0000 0.0000 0.0000
# 4 0.0000 0.0000 0.0000 16.0528 0.0000 0.0000
# 5 0.0000 0.0000 0.0000 0.0000 13.3767 0.0000
# 6 0.0000 0.0000 0.0000 0.0000 0.0000 20.6145
#
#
#
# Elastic Compliance Matrix: (Units=1/GPa)
#
#
# Indices 1 2 3 4 5 6 
#
# 1 0.006154 -0.002341 -0.001572 0.000000 0.000000 0.000000
# 2 -0.002341 0.015873 -0.002386 0.000000 0.000000 0.000000
# 3 -0.001572 -0.002386 0.012928 0.000000 0.000000 0.000000
# 4 0.000000 0.000000 0.000000 0.062295 0.000000 0.000000
# 5 0.000000 0.000000 0.000000 0.000000 0.074757 0.000000
# 6 0.000000 0.000000 0.000000 0.000000 0.000000 0.048510
#
#
# Mechanical properties :
#
#
# Convention : Reuss Voigt Hill
#
# Bulk Modulus (GPa) = 44.72869 53.99846 49.36358
# Shear Modulus (GPa) = 20.78434 27.33340 24.05887
#
# Velocity S-wave (km/s) = 2.94837 3.38113 3.17214
# Velocity P-wave (km/s) = 5.50436 6.15038 5.83632
#
# Compressibility (1/GPa) = 0.02235701
#
# Stress axis : x y z
#
# Youngs Moduli (GPa) = 162.50899 62.99810 77.35395
#
# Poissons Ratio (x) = 0.14747 0.12162
# Poissons Ratio (y) = 0.38042 0.18454
# Poissons Ratio (z) = 0.25550 0.15029
#
# Static dielectric constant tensor:
#      x y z
#    x 1.967070 0.000000 0.000000 
#    y 0.000000 2.081200 0.000000 
#    z 0.000000 0.000000 1.961140 
# 
# From -- ./inp_files/1799.got.cif
#   From: 2010.05.17/outbox.cif.g08.bks.cpg/sg33_1_cif.got.tgz:1799.got - 2010.06.03 17:15:25.
