data_PCOD9344973
_publ_section_title
;
Structure prediction by ZEFSAII (Michael W. Deem and Ramdas Pophale) SiO2 
 PCOD9344973
Probable space group: P N A 21
;
_chemical_formula_sum "Si O2"
_cell_formula_units_Z 28
_cell_length_a 25.111367
_cell_length_b 5.580417
_cell_length_c 7.731036
_cell_angle_alpha 90.000000
_cell_angle_beta 90.000000
_cell_angle_gamma 90.000000
_cell_volume 1083.364758
_symmetry_space_group_name_H-M "P N A 21"
_symmetry_group_IT_number 33
_symmetry_cell_setting 'orthorhombic'
loop_
_space_group_symop_operation_xyz
x,y,z
-x,-y,1/2+z
1/2-x,1/2+y,1/2+z
1/2+x,1/2-y,z
loop_
_atom_site_type_symbol
_atom_site_label
_atom_site_fract_x
_atom_site_fract_y
_atom_site_fract_z
Si Si1 0.662461 0.546028 0.495300
Si Si2 0.097701 0.353955 0.475567
Si Si3 0.196187 0.729528 0.021987
Si Si4 0.261425 0.740620 0.660254
Si Si5 0.007038 0.955838 0.973413
Si Si6 0.100910 0.742562 0.781723
Si Si7 0.065057 0.749979 0.286639
O O1 0.713783 0.706036 0.521158
O O2 0.634573 0.551764 0.684695
O O3 0.620492 0.653815 0.361758
O O4 0.655716 0.266158 0.453745
O O5 0.100760 0.531276 0.640089
O O6 0.078345 0.472671 0.295039
O O7 0.047962 0.180478 0.510423
O O8 0.232550 0.713273 0.846500
O O9 0.208961 0.497023 0.138898
O O10 0.135966 0.695746 0.951758
O O11 0.208968 0.990693 0.108664
O O12 0.042091 0.829983 0.824663
O O13 0.045809 0.914371 0.132863
O O14 0.985451 0.214667 0.918001
#
# Coordination Sequence:
#
# PCOD9344973 Si02
#       7
#     4   4   4   4   4   4   4
#     4   9  22  40  66  86 130 170 226 276 359 415
#     4  10  20  38  62  92 121 181 216 277 348 428
#     4  11  26  45  74 106 142 190 241 302 370 438
#     4  11  25  46  73 103 142 186 242 300 369 435
#     4  11  21  38  59  92 131 169 225 280 343 427
#     4  10  23  40  66  92 135 178 231 287 357 428
#     4  10  21  35  58  89 123 168 217 272 342 403
#
# _framework density 25.845400999999999
#
# number of rings (size 3 to 8) (size 9 to 14) (size 15 to 20)
#    0.000    1.714    0.000    4.286   10.000    3.429 
#    0.000    0.000    0.000    0.000    0.000    0.000 
#    0.000    0.000    0.000    0.000    0.000    0.000 
#
# Total GULP energy -156187.382352 kJ/mol
# GULP energy per Si atom -5578.120798 kJ/mol
# Density = 2.578658 g / cm^3
# Si number density = 25.845401 Si / 1000 Ang^3
#
#
#
# Elastic Constant Matrix: (Units=GPa)
#
#
# Indices 1 2 3 4 5 6 
#
# 1 110.8534 20.5541 5.3840 0.0000 0.0000 0.0000
# 2 20.5541 116.0688 23.5364 0.0000 0.0000 0.0000
# 3 5.3840 23.5364 69.3223 0.0000 0.0000 0.0000
# 4 0.0000 0.0000 0.0000 37.9430 0.0000 0.0000
# 5 0.0000 0.0000 0.0000 0.0000 54.7626 0.0000
# 6 0.0000 0.0000 0.0000 0.0000 0.0000 29.4034
#
#
#
# Elastic Compliance Matrix: (Units=1/GPa)
#
#
# Indices 1 2 3 4 5 6 
#
# 1 0.009329 -0.001616 -0.000176 0.000000 0.000000 0.000000
# 2 -0.001616 0.009533 -0.003111 0.000000 0.000000 0.000000
# 3 -0.000176 -0.003111 0.015495 0.000000 0.000000 0.000000
# 4 0.000000 0.000000 0.000000 0.026355 0.000000 0.000000
# 5 0.000000 0.000000 0.000000 0.000000 0.018261 0.000000
# 6 0.000000 0.000000 0.000000 0.000000 0.000000 0.034010
#
#
# Mechanical properties :
#
#
# Convention : Reuss Voigt Hill
#
# Bulk Modulus (GPa) = 40.73196 43.91041 42.32118
# Shear Modulus (GPa) = 38.17588 40.87311 39.52449
#
# Velocity S-wave (km/s) = 3.84746 3.98105 3.91483
# Velocity P-wave (km/s) = 5.96081 6.17724 6.06999
#
# Compressibility (1/GPa) = 0.02455075
#
# Stress axis : x y z
#
# Youngs Moduli (GPa) = 107.19060 104.90238 64.53584
#
# Poissons Ratio (x) = 0.16957 0.01134
# Poissons Ratio (y) = 0.17327 0.20077
# Poissons Ratio (z) = 0.01884 0.32635
#
# Static dielectric constant tensor:
#      x y z
#    x 2.069340 0.000000 0.000000 
#    y 0.000000 2.262740 0.000000 
#    z 0.000000 0.000000 2.216830 
# 
# From -- ./inp_files/5246.got.cif
#   From: 2010.05.17/outbox.cif.g08.bks.cpg/sg33_3_cif.got.tgz:5246.got - 2010.06.03 17:15:25.
