data_PCOD9344478
_publ_section_title
;
Structure prediction by ZEFSAII (Michael W. Deem and Ramdas Pophale) SiO2 
 PCOD9344478
Probable space group: P N A 21
;
_chemical_formula_sum "Si O2"
_cell_formula_units_Z 32
_cell_length_a 10.762778
_cell_length_b 8.874797
_cell_length_c 15.171634
_cell_angle_alpha 90.000000
_cell_angle_beta 90.000000
_cell_angle_gamma 90.000000
_cell_volume 1449.156094
_symmetry_space_group_name_H-M "P N A 21"
_symmetry_group_IT_number 33
_symmetry_cell_setting 'orthorhombic'
loop_
_space_group_symop_operation_xyz
x,y,z
-x,-y,1/2+z
1/2-x,1/2+y,1/2+z
1/2+x,1/2-y,z
loop_
_atom_site_type_symbol
_atom_site_label
_atom_site_fract_x
_atom_site_fract_y
_atom_site_fract_z
Si Si1 0.370053 0.441425 0.626830
Si Si2 0.604697 0.537580 0.739301
Si Si3 0.603630 0.605043 0.926077
Si Si4 0.952503 0.341346 0.973586
Si Si5 0.671051 0.829649 0.649666
Si Si6 0.724361 0.150971 0.994014
Si Si7 0.248272 0.146971 0.601387
Si Si8 0.124731 0.316127 0.457621
O O1 0.480190 0.503096 0.685519
O O2 0.391588 0.474497 0.522117
O O3 0.243436 0.515799 0.664541
O O4 0.358159 0.260673 0.624581
O O5 0.597312 0.500242 0.841338
O O6 0.635276 0.715482 0.726393
O O7 0.705808 0.440276 0.687497
O O8 0.735235 0.692858 0.920270
O O9 0.484703 0.713634 0.920725
O O10 0.943221 0.345748 0.081304
O O11 0.849683 0.215254 0.947969
O O12 0.094391 0.319482 0.947165
O O13 0.908665 0.508541 0.948164
O O14 0.768617 0.741107 0.586513
O O15 0.729916 0.978042 0.025571
O O16 0.144668 0.256427 0.557665
#
# Coordination Sequence:
#
# PCOD9344478 Si02
#       8
#     4   4   4   4   4   4   4   4
#     4  11  21  43  69  97 134 191 225 292 357 430
#     4  11  24  40  68 101 139 179 238 295 351 431
#     4  11  24  42  70 102 140 178 245 286 357 424
#     4  10  18  35  59  96 128 170 228 277 341 412
#     4   9  20  35  62  93 128 167 223 274 345 405
#     4   9  19  30  58  97 121 164 220 277 331 420
#     4  10  20  38  67  96 130 181 231 280 359 420
#     4  11  22  41  69  98 134 184 232 293 351 426
#
# _framework density 22.081817000000001
#
# number of rings (size 3 to 8) (size 9 to 14) (size 15 to 20)
#    0.750    1.000    3.750    2.250    1.750    1.000 
#    0.000    1.250    5.500    0.000    0.000    0.000 
#    0.000    0.000    0.000    0.000    0.000    0.000 
#
# Total GULP energy -178332.525235 kJ/mol
# GULP energy per Si atom -5572.891414 kJ/mol
# Density = 2.203156 g / cm^3
# Si number density = 22.081817 Si / 1000 Ang^3
#
#
#
# Elastic Constant Matrix: (Units=GPa)
#
#
# Indices 1 2 3 4 5 6 
#
# 1 136.7277 41.2780 30.7578 0.0000 0.0000 0.0000
# 2 41.2780 116.8870 27.2122 0.0000 0.0000 0.0000
# 3 30.7578 27.2122 80.3647 0.0000 0.0000 0.0000
# 4 0.0000 0.0000 0.0000 16.4007 0.0000 0.0000
# 5 0.0000 0.0000 0.0000 0.0000 2.9090 0.0000
# 6 0.0000 0.0000 0.0000 0.0000 0.0000 27.1631
#
#
#
# Elastic Compliance Matrix: (Units=1/GPa)
#
#
# Indices 1 2 3 4 5 6 
#
# 1 0.008613 -0.002469 -0.002460 0.000000 0.000000 0.000000
# 2 -0.002469 0.009995 -0.002440 0.000000 0.000000 0.000000
# 3 -0.002460 -0.002440 0.014211 0.000000 0.000000 0.000000
# 4 0.000000 0.000000 0.000000 0.060973 0.000000 0.000000
# 5 0.000000 0.000000 0.000000 0.000000 0.343762 0.000000
# 6 0.000000 0.000000 0.000000 0.000000 0.000000 0.036815
#
#
# Mechanical properties :
#
#
# Convention : Reuss Voigt Hill
#
# Bulk Modulus (GPa) = 55.30557 59.16393 57.23475
# Shear Modulus (GPa) = 10.09831 24.94332 17.52081
#
# Velocity S-wave (km/s) = 2.14081 3.36458 2.81988
# Velocity P-wave (km/s) = 5.58667 6.47650 6.04797
#
# Compressibility (1/GPa) = 0.01808136
#
# Stress axis : x y z
#
# Youngs Moduli (GPa) = 116.10930 100.04976 70.36818
#
# Poissons Ratio (x) = 0.24699 0.17313
# Poissons Ratio (y) = 0.28664 0.17167
# Poissons Ratio (z) = 0.28567 0.24408
#
# Static dielectric constant tensor:
#      x y z
#    x 1.883190 0.000000 0.000000 
#    y 0.000000 1.885190 0.000000 
#    z 0.000000 0.000000 1.787520 
# 
# From -- ./inp_files/8718.got.cif
#   From: 2010.05.17/outbox.cif.g08.bks.cpg/sg33_5_cif.got.tgz:8718.got - 2010.06.03 17:15:25.
