data_PCOD9344715
_publ_section_title
;
Structure prediction by ZEFSAII (Michael W. Deem and Ramdas Pophale) SiO2 
 PCOD9344715
Probable space group: P N A 21
;
_chemical_formula_sum "Si O2"
_cell_formula_units_Z 24
_cell_length_a 13.725943
_cell_length_b 16.044263
_cell_length_c 5.202169
_cell_angle_alpha 90.000000
_cell_angle_beta 90.000000
_cell_angle_gamma 90.000000
_cell_volume 1145.635388
_symmetry_space_group_name_H-M "P N A 21"
_symmetry_group_IT_number 33
_symmetry_cell_setting 'orthorhombic'
loop_
_space_group_symop_operation_xyz
x,y,z
-x,-y,1/2+z
1/2-x,1/2+y,1/2+z
1/2+x,1/2-y,z
loop_
_atom_site_type_symbol
_atom_site_label
_atom_site_fract_x
_atom_site_fract_y
_atom_site_fract_z
Si Si1 0.880259 0.329016 0.936320
Si Si2 0.158682 0.164663 0.785982
Si Si3 0.561378 0.995114 0.683963
Si Si4 0.476969 0.552226 0.009934
Si Si5 0.569729 0.170248 0.568343
Si Si6 0.003703 0.795952 0.693122
O O1 0.771799 0.337428 0.836732
O O2 0.889211 0.407144 0.130953
O O3 0.967870 0.335279 0.727680
O O4 0.900552 0.237508 0.053721
O O5 0.126986 0.089343 0.598951
O O6 0.135264 0.255936 0.675744
O O7 0.080483 0.161837 0.020944
O O8 0.615846 0.079263 0.594072
O O9 0.528827 0.003745 0.978997
O O10 0.478522 0.491847 0.762556
O O11 0.528194 0.638364 0.916456
O O12 0.541724 0.208407 0.293198
#
# Coordination Sequence:
#
# PCOD9344715 Si02
#       6
#     4   4   4   4   4   4
#     4  10  21  39  66 100 130 173 221 274 331 396
#     4  10  22  40  66 100 131 173 227 273 327 394
#     4  10  19  38  64  89 124 166 213 264 329 388
#     4  11  22  43  68  90 131 183 225 273 333 390
#     4   9  20  38  63  89 133 176 211 269 333 395
#     4  10  20  40  67  90 135 179 213 277 331 391
#
# _framework density 20.949074
#
# number of rings (size 3 to 8) (size 9 to 14) (size 15 to 20)
#    0.000    2.000    3.333    0.000    0.000    2.667 
#    0.000    8.333    0.000    0.000    0.000    0.000 
#    0.000    0.000    0.000    0.000    0.000    0.000 
#
# Total GULP energy -133621.582327 kJ/mol
# GULP energy per Si atom -5567.565930 kJ/mol
# Density = 2.090139 g / cm^3
# Si number density = 20.949074 Si / 1000 Ang^3
#
#
#
# Elastic Constant Matrix: (Units=GPa)
#
#
# Indices 1 2 3 4 5 6 
#
# 1 92.1419 45.5847 20.2602 0.0000 0.0000 0.0000
# 2 45.5847 85.6052 25.7537 0.0000 0.0000 0.0000
# 3 20.2602 25.7537 76.6398 0.0000 0.0000 0.0000
# 4 0.0000 0.0000 0.0000 52.6416 0.0000 0.0000
# 5 0.0000 0.0000 0.0000 0.0000 1.2753 0.0000
# 6 0.0000 0.0000 0.0000 0.0000 0.0000 6.7132
#
#
#
# Elastic Compliance Matrix: (Units=1/GPa)
#
#
# Indices 1 2 3 4 5 6 
#
# 1 0.014871 -0.007494 -0.001413 0.000000 0.000000 0.000000
# 2 -0.007494 0.016771 -0.003655 0.000000 0.000000 0.000000
# 3 -0.001413 -0.003655 0.014650 0.000000 0.000000 0.000000
# 4 0.000000 0.000000 0.000000 0.018996 0.000000 0.000000
# 5 0.000000 0.000000 0.000000 0.000000 0.784136 0.000000
# 6 0.000000 0.000000 0.000000 0.000000 0.000000 0.148961
#
#
# Mechanical properties :
#
#
# Convention : Reuss Voigt Hill
#
# Bulk Modulus (GPa) = 47.23888 48.62045 47.92967
# Shear Modulus (GPa) = 4.85171 22.97858 13.91515
#
# Velocity S-wave (km/s) = 1.52348 3.31551 2.58008
# Velocity P-wave (km/s) = 5.06882 6.15760 5.63955
#
# Compressibility (1/GPa) = 0.02116900
#
# Stress axis : x y z
#
# Youngs Moduli (GPa) = 67.24607 59.62552 68.26049
#
# Poissons Ratio (x) = 0.44681 0.09646
# Poissons Ratio (y) = 0.50391 0.24948
# Poissons Ratio (z) = 0.09502 0.21792
#
# Static dielectric constant tensor:
#      x y z
#    x 1.707840 0.000000 0.000000 
#    y 0.000000 1.816870 0.000000 
#    z 0.000000 0.000000 1.897560 
# 
# From -- ./inp_files/874.got.cif
#   From: 2010.05.17/outbox.cif.g08.bks.cpg/sg33_1_cif.got.tgz:874.got - 2010.06.03 17:15:25.
