data_PCOD9344244
_publ_section_title
;
Structure prediction by ZEFSAII (Michael W. Deem and Ramdas Pophale) SiO2 
 PCOD9344244
Probable space group: P B A 2
;
_chemical_formula_sum "Si O2"
_cell_formula_units_Z 24
_cell_length_a 14.025016
_cell_length_b 7.853703
_cell_length_c 8.834434
_cell_angle_alpha 90.000000
_cell_angle_beta 90.000000
_cell_angle_gamma 90.000000
_cell_volume 973.097977
_symmetry_space_group_name_H-M "P B A 2"
_symmetry_group_IT_number 32
_symmetry_cell_setting 'orthorhombic'
loop_
_space_group_symop_operation_xyz
x,y,z
-x,-y,z
1/2-x,1/2+y,z
1/2+x,1/2-y,z
loop_
_atom_site_type_symbol
_atom_site_label
_atom_site_fract_x
_atom_site_fract_y
_atom_site_fract_z
Si Si1 0.275285 0.544986 0.602430
Si Si2 0.620720 0.155729 0.101352
Si Si3 0.450211 0.314257 0.597810
Si Si4 0.267718 0.139460 0.943362
Si Si5 0.616245 0.146361 0.449487
Si Si6 0.955986 0.188167 0.936624
O O1 0.340386 0.373107 0.590569
O O2 0.273804 0.612495 0.775109
O O3 0.326134 0.680929 0.493761
O O4 0.168906 0.494112 0.552159
O O5 0.629976 0.105245 0.274500
O O6 0.684776 0.321254 0.062223
O O7 0.513262 0.201545 0.057453
O O8 0.664977 0.016204 0.989974
O O9 0.500000 0.500000 0.585982
O O10 0.506274 0.193032 0.483146
O O11 0.473877 0.247375 0.765826
O O12 0.342799 0.296624 0.953377
O O13 0.000000 0.000000 0.943950
#
# Coordination Sequence:
#
# PCOD9344244 Si02
#       6
#     4   4   4   4   4   4
#     4  11  22  43  68  95 128 180 237 284 341 419
#     4  12  25  41  63  99 138 177 225 289 360 419
#     4   9  19  38  64  92 124 168 226 284 341 410
#     4  12  24  44  71  98 134 182 237 290 343 422
#     4  11  24  40  63  95 136 177 224 288 357 418
#     4  11  23  42  68  97 129 174 230 289 348 416
#
# _framework density 24.663498000000001
#
# number of rings (size 3 to 8) (size 9 to 14) (size 15 to 20)
#    0.000    1.000    0.000    9.500    0.000    3.333 
#    0.000    7.500    0.000    0.000    0.000    0.000 
#    0.000    0.000    0.000    0.000    0.000    0.000 
#
# Total GULP energy -134385.382874 kJ/mol
# GULP energy per Si atom -5599.390953 kJ/mol
# Density = 2.460736 g / cm^3
# Si number density = 24.663498 Si / 1000 Ang^3
#
#
#
# Elastic Constant Matrix: (Units=GPa)
#
#
# Indices 1 2 3 4 5 6 
#
# 1 152.1095 8.3598 16.3189 0.0000 0.0000 0.0000
# 2 8.3598 62.4524 -0.6564 0.0000 0.0000 0.0000
# 3 16.3189 -0.6564 89.2782 0.0000 0.0000 0.0000
# 4 0.0000 0.0000 0.0000 30.3048 0.0000 0.0000
# 5 0.0000 0.0000 0.0000 0.0000 32.4556 0.0000
# 6 0.0000 0.0000 0.0000 0.0000 0.0000 46.8255
#
#
#
# Elastic Compliance Matrix: (Units=1/GPa)
#
#
# Indices 1 2 3 4 5 6 
#
# 1 0.006758 -0.000918 -0.001242 0.000000 0.000000 0.000000
# 2 -0.000918 0.016138 0.000286 0.000000 0.000000 0.000000
# 3 -0.001242 0.000286 0.011430 0.000000 0.000000 0.000000
# 4 0.000000 0.000000 0.000000 0.032998 0.000000 0.000000
# 5 0.000000 0.000000 0.000000 0.000000 0.030811 0.000000
# 6 0.000000 0.000000 0.000000 0.000000 0.000000 0.021356
#
#
# Mechanical properties :
#
#
# Convention : Reuss Voigt Hill
#
# Bulk Modulus (GPa) = 32.70168 39.09829 35.89998
# Shear Modulus (GPa) = 37.47255 40.57169 39.02212
#
# Velocity S-wave (km/s) = 3.90212 4.06027 3.98198
# Velocity P-wave (km/s) = 5.79568 6.15371 5.97738
#
# Compressibility (1/GPa) = 0.03057947
#
# Stress axis : x y z
#
# Youngs Moduli (GPa) = 147.97515 61.96538 87.48853
#
# Poissons Ratio (x) = 0.05686 0.10866
# Poissons Ratio (y) = 0.13579 -0.02506
# Poissons Ratio (z) = 0.18379 -0.01775
#
# Static dielectric constant tensor:
#      x y z
#    x 2.024240 0.000000 0.000000 
#    y 0.000000 2.083670 0.000000 
#    z 0.000000 0.000000 1.809730 
# 
# From -- ./inp_files/3003.got.cif
#   From: 2010.05.17/outbox.cif.g08.bks.cpg/sg32_2_cif.got.tgz:3003.got - 2010.06.03 17:12:27.
