data_PCOD9344509
_publ_section_title
;
Structure prediction by ZEFSAII (Michael W. Deem and Ramdas Pophale) SiO2 
 PCOD9344509
Probable space group: P N A 21
;
_chemical_formula_sum "Si O2"
_cell_formula_units_Z 32
_cell_length_a 14.360557
_cell_length_b 5.183862
_cell_length_c 15.979221
_cell_angle_alpha 90.000000
_cell_angle_beta 90.000000
_cell_angle_gamma 90.000000
_cell_volume 1189.543478
_symmetry_space_group_name_H-M "P N A 21"
_symmetry_group_IT_number 33
_symmetry_cell_setting 'orthorhombic'
loop_
_space_group_symop_operation_xyz
x,y,z
-x,-y,1/2+z
1/2-x,1/2+y,1/2+z
1/2+x,1/2-y,z
loop_
_atom_site_type_symbol
_atom_site_label
_atom_site_fract_x
_atom_site_fract_y
_atom_site_fract_z
Si Si1 0.738128 0.416525 0.639040
Si Si2 0.428706 0.189157 0.507192
Si Si3 0.225346 0.061619 0.038799
Si Si4 0.907724 0.152101 0.743127
Si Si5 0.538987 0.542020 0.423625
Si Si6 0.662550 0.184738 0.892956
Si Si7 0.900695 0.611196 0.224117
Si Si8 0.012167 0.762873 0.611739
O O1 0.763703 0.691315 0.599240
O O2 0.818983 0.292529 0.699639
O O3 0.640420 0.374722 0.685984
O O4 0.724979 0.195973 0.567981
O O5 0.382615 0.453571 0.540069
O O6 0.514014 0.245775 0.445528
O O7 0.350758 0.056406 0.452670
O O8 0.455887 0.990489 0.578156
O O9 0.237400 0.143757 0.942046
O O10 0.897086 0.065556 0.841124
O O11 0.992459 0.354343 0.748702
O O12 0.953458 0.927760 0.682573
O O13 0.437376 0.662306 0.396110
O O14 0.555973 0.637235 0.520714
O O15 0.667455 0.070722 0.801588
O O16 0.904350 0.378609 0.160832
#
# Coordination Sequence:
#
# PCOD9344509 Si02
#       8
#     4   4   4   4   4   4   4   4
#     4  12  27  47  72 109 147 195 254 311 375 453
#     4  10  18  38  73 107 136 193 250 296 377 453
#     4  11  23  44  73 102 144 193 246 302 368 449
#     4  11  25  45  74 106 149 201 247 318 381 452
#     4   9  20  37  67 107 139 192 249 300 374 452
#     4   9  19  40  69 102 143 192 241 301 368 447
#     4  11  26  44  70 114 149 194 252 314 376 450
#     4  11  22  41  74 107 151 192 249 318 377 452
#
# _framework density 26.90108
#
# number of rings (size 3 to 8) (size 9 to 14) (size 15 to 20)
#    0.000    1.500    1.250    4.500    7.000    0.000 
#    2.250    0.000    0.000    0.000    0.000    0.000 
#    0.000    0.000    0.000    0.000    0.000    0.000 
#
# Total GULP energy -178208.073618 kJ/mol
# GULP energy per Si atom -5569.002301 kJ/mol
# Density = 2.683985 g / cm^3
# Si number density = 26.901080 Si / 1000 Ang^3
#
#
#
# Elastic Constant Matrix: (Units=GPa)
#
#
# Indices 1 2 3 4 5 6 
#
# 1 61.1797 23.4470 25.6215 0.0000 0.0000 0.0000
# 2 23.4470 108.7394 24.9353 0.0000 0.0000 0.0000
# 3 25.6215 24.9353 142.0844 0.0000 0.0000 0.0000
# 4 0.0000 0.0000 0.0000 20.7826 0.0000 0.0000
# 5 0.0000 0.0000 0.0000 0.0000 -14.6029 0.0000
# 6 0.0000 0.0000 0.0000 0.0000 0.0000 28.5481
#
#
#
# Elastic Compliance Matrix: (Units=1/GPa)
#
#
# Indices 1 2 3 4 5 6 
#
# 1 0.018826 -0.003418 -0.002795 0.000000 0.000000 0.000000
# 2 -0.003418 0.010203 -0.001174 0.000000 0.000000 0.000000
# 3 -0.002795 -0.001174 0.007748 0.000000 0.000000 0.000000
# 4 0.000000 0.000000 0.000000 0.048117 0.000000 0.000000
# 5 0.000000 0.000000 0.000000 0.000000 -0.068479 0.000000
# 6 0.000000 0.000000 0.000000 0.000000 0.000000 0.035029
#
#
# Mechanical properties :
#
#
# Convention : Reuss Voigt Hill
#
# Bulk Modulus (GPa) = 45.45082 51.11235 48.28158
# Shear Modulus (GPa) = 67.97943 22.81220 45.39582
#
# Velocity S-wave (km/s) = 5.03240 2.91521 4.11239
# Velocity P-wave (km/s) = 7.12032 5.51114 6.36677
#
# Compressibility (1/GPa) = 0.02200180
#
# Stress axis : x y z
#
# Youngs Moduli (GPa) = 53.11844 98.01381 129.06380
#
# Poissons Ratio (x) = 0.33505 0.36072
# Poissons Ratio (y) = 0.18158 0.15153
# Poissons Ratio (z) = 0.14846 0.11508
#
# Static dielectric constant tensor:
#      x y z
#    x 2.237220 0.000000 0.000000 
#    y 0.000000 2.218200 0.000000 
#    z 0.000000 0.000000 2.275110 
# 
# From -- ./inp_files/7360.got.cif
#   From: 2010.05.17/outbox.cif.g08.bks.cpg/sg33_4_cif.got.tgz:7360.got - 2010.06.03 17:15:25.
