data_PCOD9344544
_publ_section_title
;
Structure prediction by ZEFSAII (Michael W. Deem and Ramdas Pophale) SiO2 
 PCOD9344544
Probable space group: P N A 21
;
_chemical_formula_sum "Si O2"
_cell_formula_units_Z 32
_cell_length_a 5.389952
_cell_length_b 20.418014
_cell_length_c 11.144568
_cell_angle_alpha 90.000000
_cell_angle_beta 90.000000
_cell_angle_gamma 90.000000
_cell_volume 1226.483284
_symmetry_space_group_name_H-M "P N A 21"
_symmetry_group_IT_number 33
_symmetry_cell_setting 'orthorhombic'
loop_
_space_group_symop_operation_xyz
x,y,z
-x,-y,1/2+z
1/2-x,1/2+y,1/2+z
1/2+x,1/2-y,z
loop_
_atom_site_type_symbol
_atom_site_label
_atom_site_fract_x
_atom_site_fract_y
_atom_site_fract_z
Si Si1 0.877624 0.567203 0.449810
Si Si2 0.645315 0.440773 0.543850
Si Si3 0.881635 0.950616 0.302413
Si Si4 0.857467 0.708358 0.444511
Si Si5 0.410466 0.409967 0.334719
Si Si6 0.457383 0.160580 0.422271
Si Si7 0.963143 0.227207 0.233495
Si Si8 0.346866 0.789846 0.164188
O O1 0.829453 0.501721 0.528883
O O2 0.614469 0.572431 0.379505
O O3 0.115181 0.555913 0.364740
O O4 0.907117 0.638541 0.508788
O O5 0.628844 0.413207 0.675236
O O6 0.400734 0.451737 0.466145
O O7 0.714048 0.382008 0.448985
O O8 0.949168 0.024442 0.257480
O O9 0.082984 0.760270 0.455876
O O10 0.875327 0.688255 0.300946
O O11 0.129931 0.381764 0.337419
O O12 0.519435 0.347861 0.258430
O O13 0.425251 0.230995 0.359203
O O14 0.593937 0.164701 0.550449
O O15 0.700486 0.240764 0.172833
O O16 0.069634 0.762844 0.148102
#
# Coordination Sequence:
#
# PCOD9344544 Si02
#       8
#     4   4   4   4   4   4   4   4
#     4  11  24  45  60  95 125 159 213 260 310 373
#     4  11  24  39  64  88 125 170 208 257 314 370
#     4  11  25  40  66  89 127 171 210 257 307 378
#     4  10  21  38  60  84 118 159 196 255 314 366
#     4  10  22  39  55  90 125 161 209 246 308 368
#     4  11  20  34  55  85 121 159 196 245 318 365
#     4  10  19  32  55  81 118 160 187 248 305 369
#     4  10  21  31  49  84 117 149 191 232 298 373
#
# _framework density 26.090858000000001
#
# number of rings (size 3 to 8) (size 9 to 14) (size 15 to 20)
#    0.000    1.500    2.500    3.000    5.250    1.000 
#    0.000    0.000    0.000    3.000    0.000    0.000 
#    0.000    0.000    0.000    0.000    0.000    0.000 
#
# Total GULP energy -178442.419667 kJ/mol
# GULP energy per Si atom -5576.325615 kJ/mol
# Density = 2.603147 g / cm^3
# Si number density = 26.090858 Si / 1000 Ang^3
#
#
#
# Elastic Constant Matrix: (Units=GPa)
#
#
# Indices 1 2 3 4 5 6 
#
# 1 154.7251 37.7788 31.3597 0.0000 0.0000 0.0000
# 2 37.7788 136.8393 -17.2115 0.0000 0.0000 0.0000
# 3 31.3597 -17.2115 50.6666 0.0000 0.0000 0.0000
# 4 0.0000 0.0000 0.0000 27.8498 0.0000 0.0000
# 5 0.0000 0.0000 0.0000 0.0000 43.7513 0.0000
# 6 0.0000 0.0000 0.0000 0.0000 0.0000 81.8431
#
#
#
# Elastic Compliance Matrix: (Units=1/GPa)
#
#
# Indices 1 2 3 4 5 6 
#
# 1 0.008517 -0.003149 -0.006341 0.000000 0.000000 0.000000
# 2 -0.003149 0.008798 0.004938 0.000000 0.000000 0.000000
# 3 -0.006341 0.004938 0.025339 0.000000 0.000000 0.000000
# 4 0.000000 0.000000 0.000000 0.035907 0.000000 0.000000
# 5 0.000000 0.000000 0.000000 0.000000 0.022856 0.000000
# 6 0.000000 0.000000 0.000000 0.000000 0.000000 0.012219
#
#
# Mechanical properties :
#
#
# Convention : Reuss Voigt Hill
#
# Bulk Modulus (GPa) = 29.80658 49.56500 39.68579
# Shear Modulus (GPa) = 37.33425 50.04242 43.68834
#
# Velocity S-wave (km/s) = 3.78687 4.38426 4.09647
# Velocity P-wave (km/s) = 5.52897 6.68336 6.13338
#
# Compressibility (1/GPa) = 0.03354964
#
# Stress axis : x y z
#
# Youngs Moduli (GPa) = 117.40865 113.65798 39.46440
#
# Poissons Ratio (x) = 0.35792 0.25026
# Poissons Ratio (y) = 0.36973 -0.19487
# Poissons Ratio (z) = 0.74454 -0.56123
#
# Static dielectric constant tensor:
#      x y z
#    x 1.968190 0.000000 0.000000 
#    y 0.000000 2.164360 0.000000 
#    z 0.000000 0.000000 2.198630 
# 
# From -- ./inp_files/5569.got.cif
#   From: 2010.05.17/outbox.cif.g08.bks.cpg/sg33_3_cif.got.tgz:5569.got - 2010.06.03 17:15:25.
