data_PCOD9344215
_publ_section_title
;
Structure prediction by ZEFSAII (Michael W. Deem and Ramdas Pophale) SiO2 
 PCOD9344215
Probable space group: P B A 2
;
_chemical_formula_sum "Si O2"
_cell_formula_units_Z 16
_cell_length_a 12.707233
_cell_length_b 9.644712
_cell_length_c 5.084032
_cell_angle_alpha 90.000000
_cell_angle_beta 90.000000
_cell_angle_gamma 90.000000
_cell_volume 623.086773
_symmetry_space_group_name_H-M "P B A 2"
_symmetry_group_IT_number 32
_symmetry_cell_setting 'orthorhombic'
loop_
_space_group_symop_operation_xyz
x,y,z
-x,-y,z
1/2-x,1/2+y,z
1/2+x,1/2-y,z
loop_
_atom_site_type_symbol
_atom_site_label
_atom_site_fract_x
_atom_site_fract_y
_atom_site_fract_z
Si Si1 0.848036 0.320502 0.980710
Si Si2 0.290764 0.639271 0.470185
Si Si3 0.413327 0.407754 0.720425
Si Si4 0.520107 0.159065 0.394111
O O1 0.784554 0.372504 0.725083
O O2 0.836255 0.155645 0.933510
O O3 0.781888 0.374865 0.221854
O O4 0.968226 0.336191 0.098791
O O5 0.368358 0.511187 0.507157
O O6 0.361666 0.779226 0.428843
O O7 0.500000 0.500000 0.863321
O O8 0.457271 0.270946 0.573912
O O9 0.500000 0.000000 0.483106
#
# Coordination Sequence:
#
# PCOD9344215 Si02
#       4
#     4   4   4   4
#     4  12  27  49  78 119 155 209 271 331 406 484
#     4  11  29  48  83 112 161 211 272 328 407 496
#     4  10  26  52  80 113 159 216 272 335 412 492
#     4  11  28  51  78 119 165 206 266 341 410 480
#
# _framework density 25.678605999999998
#
# number of rings (size 3 to 8) (size 9 to 14) (size 15 to 20)
#    0.000    1.000    2.500    0.000   17.500    2.000 
#    0.000    0.000    0.000    0.000    0.000    0.000 
#    0.000    0.000    0.000    0.000    0.000    0.000 
#
# Total GULP energy -89216.170944 kJ/mol
# GULP energy per Si atom -5576.010684 kJ/mol
# Density = 2.562016 g / cm^3
# Si number density = 25.678606 Si / 1000 Ang^3
#
#
#
# Elastic Constant Matrix: (Units=GPa)
#
#
# Indices 1 2 3 4 5 6 
#
# 1 54.5911 15.0478 34.4814 0.0000 0.0000 0.0000
# 2 15.0478 172.3483 28.3357 0.0000 0.0000 0.0000
# 3 34.4814 28.3357 153.6956 0.0000 0.0000 0.0000
# 4 0.0000 0.0000 0.0000 27.3054 0.0000 0.0000
# 5 0.0000 0.0000 0.0000 0.0000 33.2869 0.0000
# 6 0.0000 0.0000 0.0000 0.0000 0.0000 34.8546
#
#
#
# Elastic Compliance Matrix: (Units=1/GPa)
#
#
# Indices 1 2 3 4 5 6 
#
# 1 0.021550 -0.001121 -0.004628 0.000000 0.000000 0.000000
# 2 -0.001121 0.006042 -0.000862 0.000000 0.000000 0.000000
# 3 -0.004628 -0.000862 0.007704 0.000000 0.000000 0.000000
# 4 0.000000 0.000000 0.000000 0.036623 0.000000 0.000000
# 5 0.000000 0.000000 0.000000 0.000000 0.030042 0.000000
# 6 0.000000 0.000000 0.000000 0.000000 0.000000 0.028691
#
#
# Mechanical properties :
#
#
# Convention : Reuss Voigt Hill
#
# Bulk Modulus (GPa) = 45.30381 59.59607 52.44994
# Shear Modulus (GPa) = 33.06195 39.27405 36.16800
#
# Velocity S-wave (km/s) = 3.59211 3.91506 3.75705
# Velocity P-wave (km/s) = 5.90637 6.61027 6.26821
#
# Compressibility (1/GPa) = 0.02207320
#
# Stress axis : x y z
#
# Youngs Moduli (GPa) = 46.40329 165.51228 129.80786
#
# Poissons Ratio (x) = 0.18548 0.60077
# Poissons Ratio (y) = 0.05200 0.11196
# Poissons Ratio (z) = 0.21476 0.14275
#
# Static dielectric constant tensor:
#      x y z
#    x 2.273710 0.000000 0.000000 
#    y 0.000000 2.050570 0.000000 
#    z 0.000000 0.000000 2.117790 
# 
# From -- ./inp_files/1095.got.cif
#   From: 2010.05.17/outbox.cif.g08.bks.cpg/sg32_1_cif.got.tgz:1095.got - 2010.06.03 17:12:27.
