data_PCOD9344908
_publ_section_title
;
Structure prediction by ZEFSAII (Michael W. Deem and Ramdas Pophale) SiO2 
 PCOD9344908
Probable space group: P N A 21
;
_chemical_formula_sum "Si O2"
_cell_formula_units_Z 32
_cell_length_a 7.997156
_cell_length_b 25.340479
_cell_length_c 6.759491
_cell_angle_alpha 90.000000
_cell_angle_beta 90.000000
_cell_angle_gamma 90.000000
_cell_volume 1369.822773
_symmetry_space_group_name_H-M "P N A 21"
_symmetry_group_IT_number 33
_symmetry_cell_setting 'orthorhombic'
loop_
_space_group_symop_operation_xyz
x,y,z
-x,-y,1/2+z
1/2-x,1/2+y,1/2+z
1/2+x,1/2-y,z
loop_
_atom_site_type_symbol
_atom_site_label
_atom_site_fract_x
_atom_site_fract_y
_atom_site_fract_z
Si Si1 0.327034 0.593256 0.847370
Si Si2 0.742410 0.994558 0.577384
Si Si3 0.440725 0.852706 0.282855
Si Si4 0.086615 0.724134 0.554119
Si Si5 0.906584 0.100985 0.646709
Si Si6 0.174733 0.701258 0.965933
Si Si7 0.096363 0.191875 0.818419
Si Si8 0.617037 0.961428 0.192081
O O1 0.311296 0.561078 0.648598
O O2 0.231524 0.648169 0.853545
O O3 0.513291 0.603024 0.927990
O O4 0.227134 0.556530 0.006065
O O5 0.855067 0.040397 0.672685
O O6 0.548797 0.005636 0.636611
O O7 0.732079 0.994100 0.341141
O O8 0.447491 0.819268 0.486506
O O9 0.261078 0.867016 0.194986
O O10 0.544389 0.907644 0.292598
O O11 0.534308 0.817129 0.119905
O O12 0.106835 0.736547 0.786073
O O13 0.255882 0.698663 0.473157
O O14 0.050338 0.774983 0.418860
O O15 0.045006 0.131888 0.774626
O O16 0.330131 0.715059 0.110819
#
# Coordination Sequence:
#
# PCOD9344908 Si02
#       8
#     4   4   4   4   4   4   4   4
#     4  10  21  39  58  89 128 168 214 265 323 380
#     4  11  21  37  62  88 124 171 222 260 320 388
#     4   9  20  40  62  91 129 164 210 272 320 385
#     4  11  21  41  71  94 120 176 215 262 342 398
#     4  10  23  41  59  92 135 171 206 273 328 376
#     4   9  21  41  65  93 126 165 213 270 325 397
#     4  10  23  42  63  93 134 161 213 275 325 391
#     4  10  20  37  60  88 124 164 215 267 315 377
#
# _framework density 23.360685
#
# number of rings (size 3 to 8) (size 9 to 14) (size 15 to 20)
#    0.000    2.000    1.250    2.250    1.750    2.000 
#    0.000    6.250    0.000    0.000    0.000    0.000 
#    0.000    0.000    0.000    0.000    0.000    0.000 
#
# Total GULP energy -178677.736903 kJ/mol
# GULP energy per Si atom -5583.679278 kJ/mol
# Density = 2.330752 g / cm^3
# Si number density = 23.360685 Si / 1000 Ang^3
#
#
#
# Elastic Constant Matrix: (Units=GPa)
#
#
# Indices 1 2 3 4 5 6 
#
# 1 94.3493 18.8545 24.8134 0.0000 0.0000 0.0000
# 2 18.8545 60.6515 28.4841 0.0000 0.0000 0.0000
# 3 24.8134 28.4841 115.9159 0.0000 0.0000 0.0000
# 4 0.0000 0.0000 0.0000 30.6983 0.0000 0.0000
# 5 0.0000 0.0000 0.0000 0.0000 20.0242 0.0000
# 6 0.0000 0.0000 0.0000 0.0000 0.0000 29.5330
#
#
#
# Elastic Compliance Matrix: (Units=1/GPa)
#
#
# Indices 1 2 3 4 5 6 
#
# 1 0.011627 -0.002765 -0.001810 0.000000 0.000000 0.000000
# 2 -0.002765 0.019296 -0.004150 0.000000 0.000000 0.000000
# 3 -0.001810 -0.004150 0.010034 0.000000 0.000000 0.000000
# 4 0.000000 0.000000 0.000000 0.032575 0.000000 0.000000
# 5 0.000000 0.000000 0.000000 0.000000 0.049940 0.000000
# 6 0.000000 0.000000 0.000000 0.000000 0.000000 0.033860
#
#
# Mechanical properties :
#
#
# Convention : Reuss Voigt Hill
#
# Bulk Modulus (GPa) = 42.53662 46.13563 44.33613
# Shear Modulus (GPa) = 27.37971 29.30208 28.34089
#
# Velocity S-wave (km/s) = 3.42722 3.54550 3.48686
# Velocity P-wave (km/s) = 5.82317 6.04590 5.93558
#
# Compressibility (1/GPa) = 0.02350915
#
# Stress axis : x y z
#
# Youngs Moduli (GPa) = 86.00438 51.82431 99.66064
#
# Poissons Ratio (x) = 0.14328 0.18035
# Poissons Ratio (y) = 0.23777 0.41357
# Poissons Ratio (z) = 0.15564 0.21506
#
# Static dielectric constant tensor:
#      x y z
#    x 1.925060 0.000000 0.000000 
#    y 0.000000 1.891930 0.000000 
#    z 0.000000 0.000000 1.889320 
# 
# From -- ./inp_files/582.got.cif
#   From: 2010.05.17/outbox.cif.g08.bks.cpg/sg33_1_cif.got.tgz:582.got - 2010.06.03 17:15:25.
