data_PCOD9344602
_publ_section_title
;
Structure prediction by ZEFSAII (Michael W. Deem and Ramdas Pophale) SiO2 
 PCOD9344602
Probable space group: P N A 21
;
_chemical_formula_sum "Si O2"
_cell_formula_units_Z 32
_cell_length_a 5.393572
_cell_length_b 16.530273
_cell_length_c 16.904881
_cell_angle_alpha 90.000000
_cell_angle_beta 90.000000
_cell_angle_gamma 90.000000
_cell_volume 1507.192154
_symmetry_space_group_name_H-M "P N A 21"
_symmetry_group_IT_number 33
_symmetry_cell_setting 'orthorhombic'
loop_
_space_group_symop_operation_xyz
x,y,z
-x,-y,1/2+z
1/2-x,1/2+y,1/2+z
1/2+x,1/2-y,z
loop_
_atom_site_type_symbol
_atom_site_label
_atom_site_fract_x
_atom_site_fract_y
_atom_site_fract_z
Si Si1 0.502463 0.975818 0.584150
Si Si2 0.502462 0.475818 0.183696
Si Si3 0.541886 0.541347 0.353076
Si Si4 0.588805 0.793189 0.526796
Si Si5 0.584517 0.728002 0.351052
Si Si6 0.541886 0.041347 0.414770
Si Si7 0.911196 0.793189 0.741050
Si Si8 0.415483 0.771998 0.916794
O O1 0.250000 0.981240 0.633923
O O2 0.531041 0.883962 0.551731
O O3 0.750000 0.993039 0.633923
O O4 0.493591 0.032868 0.507905
O O5 0.493591 0.532868 0.259941
O O6 0.531041 0.383962 0.216115
O O7 0.575479 0.634716 0.375686
O O8 0.298510 0.504431 0.394795
O O9 0.798510 0.495569 0.373051
O O10 0.360884 0.736037 0.553320
O O11 0.589946 0.782486 0.431134
O O12 0.336384 0.752319 0.306668
O O13 0.575479 0.134716 0.392160
O O14 0.639116 0.763963 0.714526
O O15 0.910055 0.782487 0.836713
O O16 0.663617 0.747681 0.961178
#
# Coordination Sequence:
#
# PCOD9344602 Si02
#       8
#     4   4   4   4   4   4   4   4
#     4  12  26  41  61  94 135 171 204 260 334 394
#     4  12  26  41  61  94 135 171 204 260 334 394
#     4  12  23  42  69  94 128 175 227 272 313 384
#     4  10  19  35  55  85 123 160 204 247 307 382
#     4  10  20  36  61  91 120 156 215 273 312 362
#     4  12  23  42  69  94 128 175 227 272 313 384
#     4  10  19  35  55  85 123 160 204 247 307 382
#     4  10  20  36  61  91 120 156 215 273 312 362
#
# _framework density 21.231532000000001
#
# number of rings (size 3 to 8) (size 9 to 14) (size 15 to 20)
#    0.000    1.000    0.000   10.500    0.000    3.000 
#    0.000    0.000    0.000    4.500    0.000    0.000 
#    0.000    0.000    0.000    0.000    0.000    0.000 
#
# Total GULP energy -179021.616255 kJ/mol
# GULP energy per Si atom -5594.425508 kJ/mol
# Density = 2.118321 g / cm^3
# Si number density = 21.231532 Si / 1000 Ang^3
#
#
#
# Elastic Constant Matrix: (Units=GPa)
#
#
# Indices 1 2 3 4 5 6 
#
# 1 202.6423 35.8010 12.6887 0.0000 0.0000 0.0000
# 2 35.8010 57.1774 2.3778 0.0000 0.0000 0.0000
# 3 12.6887 2.3778 78.3132 0.0000 0.0000 0.0000
# 4 0.0000 0.0000 0.0000 25.5482 0.0000 0.0000
# 5 0.0000 0.0000 0.0000 0.0000 26.2903 0.0000
# 6 0.0000 0.0000 0.0000 0.0000 0.0000 25.1705
#
#
#
# Elastic Compliance Matrix: (Units=1/GPa)
#
#
# Indices 1 2 3 4 5 6 
#
# 1 0.005598 -0.003472 -0.000802 0.000000 0.000000 0.000000
# 2 -0.003472 0.019665 -0.000035 0.000000 0.000000 0.000000
# 3 -0.000802 -0.000035 0.012900 0.000000 0.000000 0.000000
# 4 0.000000 0.000000 0.000000 0.039142 0.000000 0.000000
# 5 0.000000 0.000000 0.000000 0.000000 0.038037 0.000000
# 6 0.000000 0.000000 0.000000 0.000000 0.000000 0.039729
#
#
# Mechanical properties :
#
#
# Convention : Reuss Voigt Hill
#
# Bulk Modulus (GPa) = 33.84440 48.87420 41.35930
# Shear Modulus (GPa) = 28.81238 34.55282 31.68260
#
# Velocity S-wave (km/s) = 3.68782 4.03852 3.86715
# Velocity P-wave (km/s) = 5.84026 6.69446 6.28189
#
# Compressibility (1/GPa) = 0.02954698
#
# Stress axis : x y z
#
# Youngs Moduli (GPa) = 178.62214 50.85214 77.51831
#
# Poissons Ratio (x) = 0.17656 0.06214
# Poissons Ratio (y) = 0.62018 0.00268
# Poissons Ratio (z) = 0.14319 0.00176
#
# Static dielectric constant tensor:
#      x y z
#    x 1.862120 0.000000 0.000000 
#    y 0.000000 1.735700 0.000000 
#    z 0.000000 0.000000 1.776330 
# 
# From -- ./inp_files/8371.got.cif
#   From: 2010.05.17/outbox.cif.g08.bks.cpg/sg33_5_cif.got.tgz:8371.got - 2010.06.03 17:15:25.
