data_PCOD9344975
_publ_section_title
;
Structure prediction by ZEFSAII (Michael W. Deem and Ramdas Pophale) SiO2 
 PCOD9344975
Probable space group: P N A 21
;
_chemical_formula_sum "Si O2"
_cell_formula_units_Z 32
_cell_length_a 4.827635
_cell_length_b 18.935515
_cell_length_c 12.605888
_cell_angle_alpha 90.000000
_cell_angle_beta 90.000000
_cell_angle_gamma 90.000000
_cell_volume 1152.351557
_symmetry_space_group_name_H-M "P N A 21"
_symmetry_group_IT_number 33
_symmetry_cell_setting 'orthorhombic'
loop_
_space_group_symop_operation_xyz
x,y,z
-x,-y,1/2+z
1/2-x,1/2+y,1/2+z
1/2+x,1/2-y,z
loop_
_atom_site_type_symbol
_atom_site_label
_atom_site_fract_x
_atom_site_fract_y
_atom_site_fract_z
Si Si1 0.758014 0.432247 0.901760
Si Si2 0.950179 0.433537 0.126501
Si Si3 0.865195 0.938190 0.078494
Si Si4 0.131393 0.793102 0.903044
Si Si5 0.902175 0.708563 0.349319
Si Si6 0.353711 0.851130 0.123681
Si Si7 0.228838 0.799475 0.670808
Si Si8 0.772417 0.978704 0.843631
O O1 0.921583 0.361379 0.872504
O O2 0.966393 0.494621 0.870217
O O3 0.473056 0.452335 0.845203
O O4 0.738104 0.436581 0.028287
O O5 0.130694 0.362817 0.109194
O O6 0.771974 0.437269 0.234536
O O7 0.182284 0.495290 0.117129
O O8 0.670451 0.873232 0.112477
O O9 0.878259 0.939258 0.949818
O O10 0.162383 0.921654 0.129758
O O11 0.804654 0.780705 0.896815
O O12 0.230347 0.827287 0.793276
O O13 0.238413 0.820484 0.014414
O O14 0.097303 0.772664 0.389773
O O15 0.837332 0.700181 0.223459
O O16 0.923790 0.769184 0.654409
#
# Coordination Sequence:
#
# PCOD9344975 Si02
#       8
#     4   4   4   4   4   4   4   4
#     4  11  27  46  70 105 141 182 244 300 349 434
#     4  11  26  48  75 103 146 195 238 300 377 431
#     4  11  25  42  70 108 140 182 240 295 359 439
#     4  10  20  38  62  95 135 177 227 285 344 414
#     4  12  26  45  69 100 141 194 242 290 351 420
#     4  12  23  42  68 103 143 184 234 296 361 427
#     4  10  24  42  67 102 139 185 240 289 347 427
#     4  11  25  47  71 104 141 183 233 299 370 432
#
# _framework density 27.769304000000002
#
# number of rings (size 3 to 8) (size 9 to 14) (size 15 to 20)
#    0.000    1.000    0.000    6.000    0.000   13.000 
#    0.000    1.250    0.000    0.000    0.000    0.000 
#    0.000    0.000    0.000    0.000    0.000    0.000 
#
# Total GULP energy -179327.682473 kJ/mol
# GULP energy per Si atom -5603.990077 kJ/mol
# Density = 2.770610 g / cm^3
# Si number density = 27.769304 Si / 1000 Ang^3
#
#
#
# Elastic Constant Matrix: (Units=GPa)
#
#
# Indices 1 2 3 4 5 6 
#
# 1 156.2917 18.5224 27.4106 0.0000 0.0000 0.0000
# 2 18.5224 64.9708 17.4044 0.0000 0.0000 0.0000
# 3 27.4106 17.4044 130.4500 0.0000 0.0000 0.0000
# 4 0.0000 0.0000 0.0000 45.4199 0.0000 0.0000
# 5 0.0000 0.0000 0.0000 0.0000 28.2731 0.0000
# 6 0.0000 0.0000 0.0000 0.0000 0.0000 52.2195
#
#
#
# Elastic Compliance Matrix: (Units=1/GPa)
#
#
# Indices 1 2 3 4 5 6 
#
# 1 0.006802 -0.001614 -0.001214 0.000000 0.000000 0.000000
# 2 -0.001614 0.016345 -0.001842 0.000000 0.000000 0.000000
# 3 -0.001214 -0.001842 0.008167 0.000000 0.000000 0.000000
# 4 0.000000 0.000000 0.000000 0.022017 0.000000 0.000000
# 5 0.000000 0.000000 0.000000 0.000000 0.035369 0.000000
# 6 0.000000 0.000000 0.000000 0.000000 0.000000 0.019150
#
#
# Mechanical properties :
#
#
# Convention : Reuss Voigt Hill
#
# Bulk Modulus (GPa) = 45.50681 53.15412 49.33047
# Shear Modulus (GPa) = 40.15601 44.40750 42.28176
#
# Velocity S-wave (km/s) = 3.80683 4.00329 3.90629
# Velocity P-wave (km/s) = 5.97877 6.36799 6.17644
#
# Compressibility (1/GPa) = 0.02197473
#
# Stress axis : x y z
#
# Youngs Moduli (GPa) = 147.00484 61.18071 122.45053
#
# Poissons Ratio (x) = 0.09875 0.14866
# Poissons Ratio (y) = 0.23728 0.22550
# Poissons Ratio (z) = 0.17847 0.11267
#
# Static dielectric constant tensor:
#      x y z
#    x 2.016530 0.000000 0.000000 
#    y 0.000000 2.247540 0.000000 
#    z 0.000000 0.000000 2.185610 
# 
# From -- ./inp_files/5573.got.cif
#   From: 2010.05.17/outbox.cif.g08.bks.cpg/sg33_3_cif.got.tgz:5573.got - 2010.06.03 17:15:25.
