data_PCOD9344232
_publ_section_title
;
Structure prediction by ZEFSAII (Michael W. Deem and Ramdas Pophale) SiO2 
 PCOD9344232
Probable space group: P B A 2
;
_chemical_formula_sum "Si O2"
_cell_formula_units_Z 20
_cell_length_a 8.646984
_cell_length_b 12.804038
_cell_length_c 8.301643
_cell_angle_alpha 90.000000
_cell_angle_beta 90.000000
_cell_angle_gamma 90.000000
_cell_volume 919.127294
_symmetry_space_group_name_H-M "P B A 2"
_symmetry_group_IT_number 32
_symmetry_cell_setting 'orthorhombic'
loop_
_space_group_symop_operation_xyz
x,y,z
-x,-y,z
1/2-x,1/2+y,z
1/2+x,1/2-y,z
loop_
_atom_site_type_symbol
_atom_site_label
_atom_site_fract_x
_atom_site_fract_y
_atom_site_fract_z
Si Si1 0.048078 0.622884 0.186380
Si Si2 0.390668 0.194744 0.826317
Si Si3 0.165554 0.208896 0.371867
Si Si4 0.853339 0.941045 0.649259
Si Si5 0.710921 0.150567 0.656326
O O1 0.217400 0.646220 0.258880
O O2 0.000000 0.500000 0.201654
O O3 0.937677 0.706880 0.277299
O O4 0.054871 0.658173 0.000449
O O5 0.238808 0.130273 0.773565
O O6 0.535029 0.172613 0.708731
O O7 0.325827 0.311744 0.799565
O O8 0.092171 0.122642 0.491954
O O9 0.255107 0.278820 0.503958
O O10 0.731909 0.031617 0.607863
O O11 0.000000 0.000000 0.718778
#
# Coordination Sequence:
#
# PCOD9344232 Si02
#       5
#     4   4   4   4   4
#     4  12  25  44  66  99 142 181 220 284 351 406
#     4  11  24  41  67  97 131 175 225 277 341 408
#     4  11  24  40  65  96 131 174 225 273 335 409
#     4  11  22  40  65  94 126 171 227 276 329 400
#     4  11  21  41  65  92 126 171 225 280 327 397
#
# _framework density 21.75977
#
# number of rings (size 3 to 8) (size 9 to 14) (size 15 to 20)
#    0.000    0.800    0.000   10.200    0.000    0.000 
#    0.000    1.000    0.000    2.400    0.000    0.000 
#    0.000    0.000    0.000    0.000    0.000    0.000 
#
# Total GULP energy -111627.629517 kJ/mol
# GULP energy per Si atom -5581.381476 kJ/mol
# Density = 2.171024 g / cm^3
# Si number density = 21.759770 Si / 1000 Ang^3
#
#
#
# Elastic Constant Matrix: (Units=GPa)
#
#
# Indices 1 2 3 4 5 6 
#
# 1 114.9403 47.4151 36.6437 0.0000 0.0000 0.0000
# 2 47.4151 146.3098 51.1213 0.0000 0.0000 0.0000
# 3 36.6437 51.1213 100.3198 0.0000 0.0000 0.0000
# 4 0.0000 0.0000 0.0000 26.5485 0.0000 0.0000
# 5 0.0000 0.0000 0.0000 0.0000 33.6276 0.0000
# 6 0.0000 0.0000 0.0000 0.0000 0.0000 49.6137
#
#
#
# Elastic Compliance Matrix: (Units=1/GPa)
#
#
# Indices 1 2 3 4 5 6 
#
# 1 0.010561 -0.002524 -0.002571 0.000000 0.000000 0.000000
# 2 -0.002524 0.008919 -0.003623 0.000000 0.000000 0.000000
# 3 -0.002571 -0.003623 0.012753 0.000000 0.000000 0.000000
# 4 0.000000 0.000000 0.000000 0.037667 0.000000 0.000000
# 5 0.000000 0.000000 0.000000 0.000000 0.029738 0.000000
# 6 0.000000 0.000000 0.000000 0.000000 0.000000 0.020156
#
#
# Mechanical properties :
#
#
# Convention : Reuss Voigt Hill
#
# Bulk Modulus (GPa) = 67.58298 70.21446 68.89872
# Shear Modulus (GPa) = 35.17104 37.05061 36.11083
#
# Velocity S-wave (km/s) = 4.02473 4.13087 4.07814
# Velocity P-wave (km/s) = 7.26113 7.42228 7.34214
#
# Compressibility (1/GPa) = 0.01479662
#
# Stress axis : x y z
#
# Youngs Moduli (GPa) = 94.68613 112.12474 78.40991
#
# Poissons Ratio (x) = 0.28302 0.20162
# Poissons Ratio (y) = 0.23900 0.28406
# Poissons Ratio (z) = 0.24348 0.40620
#
# Static dielectric constant tensor:
#      x y z
#    x 1.848720 0.000000 0.000000 
#    y 0.000000 1.874730 0.000000 
#    z 0.000000 0.000000 1.795070 
# 
# From -- ./inp_files/2192.got.cif
#   From: 2010.05.17/outbox.cif.g08.bks.cpg/sg32_2_cif.got.tgz:2192.got - 2010.06.03 17:12:27.
