data_PCOD9344466
_publ_section_title
;
Structure prediction by ZEFSAII (Michael W. Deem and Ramdas Pophale) SiO2 
 PCOD9344466
Probable space group: P N A 21
;
_chemical_formula_sum "Si O2"
_cell_formula_units_Z 32
_cell_length_a 10.517820
_cell_length_b 11.112720
_cell_length_c 11.554927
_cell_angle_alpha 90.000000
_cell_angle_beta 90.000000
_cell_angle_gamma 90.000000
_cell_volume 1350.558225
_symmetry_space_group_name_H-M "P N A 21"
_symmetry_group_IT_number 33
_symmetry_cell_setting 'orthorhombic'
loop_
_space_group_symop_operation_xyz
x,y,z
-x,-y,1/2+z
1/2-x,1/2+y,1/2+z
1/2+x,1/2-y,z
loop_
_atom_site_type_symbol
_atom_site_label
_atom_site_fract_x
_atom_site_fract_y
_atom_site_fract_z
Si Si1 0.237338 0.497916 0.868490
Si Si2 0.887511 0.360493 0.753837
Si Si3 0.843784 0.347683 0.026128
Si Si4 0.500411 0.114820 0.244912
Si Si5 0.661206 0.591903 0.596123
Si Si6 0.639279 0.255143 0.770459
Si Si7 0.501425 0.383967 0.309828
Si Si8 0.097736 0.048323 0.972244
O O1 0.121956 0.579544 0.823432
O O2 0.196343 0.363973 0.831031
O O3 0.369798 0.536633 0.807536
O O4 0.264258 0.493350 0.006653
O O5 0.902512 0.504164 0.749258
O O6 0.012126 0.291313 0.708712
O O7 0.757178 0.311403 0.701410
O O8 0.884595 0.333306 0.892979
O O9 0.956280 0.379239 0.111921
O O10 0.783192 0.225060 0.076522
O O11 0.734121 0.447101 0.030734
O O12 0.539181 0.247187 0.285062
O O13 0.617156 0.577032 0.727655
O O14 0.517725 0.599131 0.545190
O O15 0.606920 0.357921 0.864707
O O16 0.443434 0.415754 0.434461
#
# Coordination Sequence:
#
# PCOD9344466 Si02
#       8
#     4   4   4   4   4   4   4   4
#     4  10  19  37  61  82 125 151 202 259 301 352
#     4  10  19  36  64  87 122 149 202 256 297 347
#     4  10  19  36  61  90 113 155 209 248 291 356
#     4  10  23  37  59  90 122 157 199 247 311 363
#     4  10  18  35  61  87 109 158 213 250 288 360
#     4  10  18  35  61  91 108 154 198 254 299 330
#     4  10  22  36  59  86 120 160 204 243 313 366
#     4  10  18  34  62  85 117 150 203 253 300 352
#
# _framework density 23.693905999999998
#
# number of rings (size 3 to 8) (size 9 to 14) (size 15 to 20)
#    0.000    2.000    3.750    1.500    0.000    2.000 
#    0.000    7.500   35.750    0.000    0.000    0.000 
#    0.000    0.000    0.000    0.000    0.000    0.000 
#
# Total GULP energy -178652.849451 kJ/mol
# GULP energy per Si atom -5582.901545 kJ/mol
# Density = 2.363998 g / cm^3
# Si number density = 23.693906 Si / 1000 Ang^3
#
#
#
# Elastic Constant Matrix: (Units=GPa)
#
#
# Indices 1 2 3 4 5 6 
#
# 1 108.4665 25.1695 0.8822 0.0000 0.0000 0.0000
# 2 25.1695 85.7710 23.4761 0.0000 0.0000 0.0000
# 3 0.8822 23.4761 21.1143 0.0000 0.0000 0.0000
# 4 0.0000 0.0000 0.0000 24.4920 0.0000 0.0000
# 5 0.0000 0.0000 0.0000 0.0000 11.4220 0.0000
# 6 0.0000 0.0000 0.0000 0.0000 0.0000 25.3796
#
#
#
# Elastic Compliance Matrix: (Units=1/GPa)
#
#
# Indices 1 2 3 4 5 6 
#
# 1 0.010140 -0.004110 0.004146 0.000000 0.000000 0.000000
# 2 -0.004110 0.018425 -0.020315 0.000000 0.000000 0.000000
# 3 0.004146 -0.020315 0.069775 0.000000 0.000000 0.000000
# 4 0.000000 0.000000 0.000000 0.040830 0.000000 0.000000
# 5 0.000000 0.000000 0.000000 0.000000 0.087550 0.000000
# 6 0.000000 0.000000 0.000000 0.000000 0.000000 0.039402
#
#
# Mechanical properties :
#
#
# Convention : Reuss Voigt Hill
#
# Bulk Modulus (GPa) = 17.30618 34.93414 26.12016
# Shear Modulus (GPa) = 15.34028 23.31367 19.32697
#
# Velocity S-wave (km/s) = 2.54724 3.14020 2.85913
# Velocity P-wave (km/s) = 3.99639 5.28430 4.68481
#
# Compressibility (1/GPa) = 0.05778282
#
# Stress axis : x y z
#
# Youngs Moduli (GPa) = 98.62413 54.27296 14.33178
#
# Poissons Ratio (x) = 0.22308 -0.05943
# Poissons Ratio (y) = 0.40538 0.29114
# Poissons Ratio (z) = -0.40894 1.10254
#
# Static dielectric constant tensor:
#      x y z
#    x 1.968280 0.000000 0.000000 
#    y 0.000000 1.908870 0.000000 
#    z 0.000000 0.000000 1.937160 
# 
# From -- ./inp_files/6513.got.cif
#   From: 2010.05.17/outbox.cif.g08.bks.cpg/sg33_4_cif.got.tgz:6513.got - 2010.06.03 17:15:25.
