data_PCOD9344034
_publ_section_title
;
Structure prediction by ZEFSAII (Michael W. Deem and Ramdas Pophale) SiO2 
 PCOD9344034
Probable space group: P B A 2
;
_chemical_formula_sum "Si O2"
_cell_formula_units_Z 30
_cell_length_a 20.729314
_cell_length_b 11.535570
_cell_length_c 5.419387
_cell_angle_alpha 90.000000
_cell_angle_beta 90.000000
_cell_angle_gamma 90.000000
_cell_volume 1295.907950
_symmetry_space_group_name_H-M "P B A 2"
_symmetry_group_IT_number 32
_symmetry_cell_setting 'orthorhombic'
loop_
_space_group_symop_operation_xyz
x,y,z
-x,-y,z
1/2-x,1/2+y,z
1/2+x,1/2-y,z
loop_
_atom_site_type_symbol
_atom_site_label
_atom_site_fract_x
_atom_site_fract_y
_atom_site_fract_z
Si Si1 0.500000 0.000000 0.355220
Si Si2 0.393380 0.148634 0.518036
Si Si3 0.166120 0.868727 0.778190
Si Si4 0.897727 0.664887 0.117180
Si Si5 0.200760 0.680414 0.153417
Si Si6 0.702136 0.024454 0.792879
Si Si7 0.821030 0.815003 0.457721
Si Si8 0.124356 0.100390 0.968218
O O1 0.536125 0.904786 0.523652
O O2 0.450253 0.928943 0.186371
O O3 0.375472 0.272807 0.633174
O O4 0.372498 0.159567 0.233269
O O5 0.345229 0.051014 0.623500
O O6 0.231879 0.928127 0.668672
O O7 0.118158 0.968559 0.879029
O O8 0.199953 0.796016 0.996126
O O9 0.859545 0.701005 0.368437
O O10 0.843330 0.616072 0.933231
O O11 0.923638 0.789181 0.011663
O O12 0.246561 0.697594 0.388392
O O13 0.222916 0.569090 0.001136
O O14 0.835076 0.849276 0.734861
O O15 0.846696 0.904181 0.246299
#
# Coordination Sequence:
#
# PCOD9344034 Si02
#       8
#     2   4   4   4   4   4   4   4
#     4  12  26  52  66 110 150 206 282 314 366 500
#     4  11  28  40  73 106 148 205 253 316 394 445
#     4  11  23  42  69 112 156 188 249 321 397 475
#     4  10  24  42  71  99 145 197 249 306 383 443
#     4  11  22  39  63 106 148 192 239 314 393 453
#     4  11  21  42  63 110 142 191 245 314 397 462
#     4  10  22  40  65 108 144 187 242 297 395 446
#     4  10  23  41  67 107 141 194 235 306 384 453
#
# _framework density 23.149794
#
# number of rings (size 3 to 8) (size 9 to 14) (size 15 to 20)
#    0.800    0.533    4.000    0.800    9.333    1.600 
#    0.000    0.000    0.000    4.800    0.000    0.000 
#    0.000    0.000    0.000    0.000    0.000    0.000 
#
# Total GULP energy -167147.573794 kJ/mol
# GULP energy per Si atom -5571.585793 kJ/mol
# Density = 2.309710 g / cm^3
# Si number density = 23.149794 Si / 1000 Ang^3
#
#
#
# Elastic Constant Matrix: (Units=GPa)
#
#
# Indices 1 2 3 4 5 6 
#
# 1 70.8585 49.5659 14.0053 0.0000 0.0000 0.0000
# 2 49.5659 181.0647 34.7590 0.0000 0.0000 0.0000
# 3 14.0053 34.7590 63.8295 0.0000 0.0000 0.0000
# 4 0.0000 0.0000 0.0000 33.6100 0.0000 0.0000
# 5 0.0000 0.0000 0.0000 0.0000 13.3299 0.0000
# 6 0.0000 0.0000 0.0000 0.0000 0.0000 42.7455
#
#
#
# Elastic Compliance Matrix: (Units=1/GPa)
#
#
# Indices 1 2 3 4 5 6 
#
# 1 0.017563 -0.004543 -0.001380 0.000000 0.000000 0.000000
# 2 -0.004543 0.007343 -0.003002 0.000000 0.000000 0.000000
# 3 -0.001380 -0.003002 0.017604 0.000000 0.000000 0.000000
# 4 0.000000 0.000000 0.000000 0.029753 0.000000 0.000000
# 5 0.000000 0.000000 0.000000 0.000000 0.075019 0.000000
# 6 0.000000 0.000000 0.000000 0.000000 0.000000 0.023394
#
#
# Mechanical properties :
#
#
# Convention : Reuss Voigt Hill
#
# Bulk Modulus (GPa) = 40.54973 56.93479 48.74226
# Shear Modulus (GPa) = 25.41350 32.43193 28.92272
#
# Velocity S-wave (km/s) = 3.31688 3.74700 3.53848
# Velocity P-wave (km/s) = 5.67655 6.58540 6.14779
#
# Compressibility (1/GPa) = 0.02466108
#
# Stress axis : x y z
#
# Youngs Moduli (GPa) = 56.93727 136.18847 56.80489
#
# Poissons Ratio (x) = 0.61870 0.07838
# Poissons Ratio (y) = 0.25867 0.17051
# Poissons Ratio (z) = 0.07856 0.40881
#
# Static dielectric constant tensor:
#      x y z
#    x 1.884720 0.000000 0.000000 
#    y 0.000000 1.959480 0.000000 
#    z 0.000000 0.000000 1.904710 
# 
# From -- ./inp_files/1604.got.cif
#   From: 2010.05.17/outbox.cif.g08.bks.cpg/sg32_1_cif.got.tgz:1604.got - 2010.06.03 17:12:27.
