data_PCOD9344752
_publ_section_title
;
Structure prediction by ZEFSAII (Michael W. Deem and Ramdas Pophale) SiO2 
 PCOD9344752
Probable space group: P N A 21
;
_chemical_formula_sum "Si O2"
_cell_formula_units_Z 20
_cell_length_a 7.651659
_cell_length_b 14.822247
_cell_length_c 7.760299
_cell_angle_alpha 90.000000
_cell_angle_beta 90.000000
_cell_angle_gamma 90.000000
_cell_volume 880.132601
_symmetry_space_group_name_H-M "P N A 21"
_symmetry_group_IT_number 33
_symmetry_cell_setting 'orthorhombic'
loop_
_space_group_symop_operation_xyz
x,y,z
-x,-y,1/2+z
1/2-x,1/2+y,1/2+z
1/2+x,1/2-y,z
loop_
_atom_site_type_symbol
_atom_site_label
_atom_site_fract_x
_atom_site_fract_y
_atom_site_fract_z
Si Si1 0.594279 0.389325 0.426070
Si Si2 0.501697 0.118348 0.998402
Si Si3 0.995264 0.923151 0.286172
Si Si4 0.378971 0.067977 0.651109
Si Si5 0.126952 0.200415 0.082719
O O1 0.466009 0.390196 0.591912
O O2 0.602614 0.492218 0.354767
O O3 0.786508 0.370188 0.506737
O O4 0.550455 0.326807 0.267266
O O5 0.316248 0.155031 0.065411
O O6 0.636667 0.193062 0.061002
O O7 0.535261 0.019153 0.069015
O O8 0.499000 0.115726 0.790717
O O9 0.795850 0.960436 0.259096
O O10 0.982193 0.844270 0.425671
#
# Coordination Sequence:
#
# PCOD9344752 Si02
#       5
#     4   4   4   4   4
#     4  10  19  40  67  97 129 175 217 269 337 398
#     4  11  24  44  66 100 132 178 221 281 328 400
#     4   9  20  37  67  95 128 173 216 267 336 398
#     4   9  22  42  64  93 137 181 214 263 352 399
#     4  11  23  41  64  97 134 165 232 276 323 393
#
# _framework density 22.723848
#
# number of rings (size 3 to 8) (size 9 to 14) (size 15 to 20)
#    1.200    0.800    2.000    1.200    5.600    0.000 
#    7.200    0.000    0.000    0.000    0.000    0.000 
#    0.000    0.000    0.000    0.000    0.000    0.000 
#
# Total GULP energy -111590.838973 kJ/mol
# GULP energy per Si atom -5579.541949 kJ/mol
# Density = 2.267213 g / cm^3
# Si number density = 22.723848 Si / 1000 Ang^3
#
#
#
# Elastic Constant Matrix: (Units=GPa)
#
#
# Indices 1 2 3 4 5 6 
#
# 1 27.2377 -5.8563 12.0321 0.0000 0.0000 0.0000
# 2 -5.8563 29.6529 34.4718 0.0000 0.0000 0.0000
# 3 12.0321 34.4718 178.1914 0.0000 0.0000 0.0000
# 4 0.0000 0.0000 0.0000 19.2972 0.0000 0.0000
# 5 0.0000 0.0000 0.0000 0.0000 247.5198 0.0000
# 6 0.0000 0.0000 0.0000 0.0000 0.0000 21.2483
#
#
#
# Elastic Compliance Matrix: (Units=1/GPa)
#
#
# Indices 1 2 3 4 5 6 
#
# 1 0.042533 0.015145 -0.005802 0.000000 0.000000 0.000000
# 2 0.015145 0.048901 -0.010483 0.000000 0.000000 0.000000
# 3 -0.005802 -0.010483 0.008032 0.000000 0.000000 0.000000
# 4 0.000000 0.000000 0.000000 0.051821 0.000000 0.000000
# 5 0.000000 0.000000 0.000000 0.000000 0.004040 0.000000
# 6 0.000000 0.000000 0.000000 0.000000 0.000000 0.047063
#
#
# Mechanical properties :
#
#
# Convention : Reuss Voigt Hill
#
# Bulk Modulus (GPa) = 10.28961 35.15305 22.72133
# Shear Modulus (GPa) = 21.09140 70.57536 45.83338
#
# Velocity S-wave (km/s) = 3.04988 5.57900 4.49594
# Velocity P-wave (km/s) = 4.11586 7.55007 6.08046
#
# Compressibility (1/GPa) = 0.09718538
#
# Stress axis : x y z
#
# Youngs Moduli (GPa) = 23.51126 20.44964 124.50816
#
# Poissons Ratio (x) = -0.30970 0.72236
# Poissons Ratio (y) = -0.35607 1.30517
# Poissons Ratio (z) = 0.13641 0.21437
#
# Static dielectric constant tensor:
#      x y z
#    x 1.030470 0.000000 0.000000 
#    y 0.000000 1.787560 0.000000 
#    z 0.000000 0.000000 1.881480 
# 
# From -- ./inp_files/3015.got.cif
#   From: 2010.05.17/outbox.cif.g08.bks.cpg/sg33_2_cif.got.tgz:3015.got - 2010.06.03 17:15:25.
