data_PCOD9344900
_publ_section_title
;
Structure prediction by ZEFSAII (Michael W. Deem and Ramdas Pophale) SiO2 
 PCOD9344900
Probable space group: P N A 21
;
_chemical_formula_sum "Si O2"
_cell_formula_units_Z 32
_cell_length_a 17.519313
_cell_length_b 9.296228
_cell_length_c 9.161767
_cell_angle_alpha 90.000000
_cell_angle_beta 90.000000
_cell_angle_gamma 90.000000
_cell_volume 1492.117697
_symmetry_space_group_name_H-M "P N A 21"
_symmetry_group_IT_number 33
_symmetry_cell_setting 'orthorhombic'
loop_
_space_group_symop_operation_xyz
x,y,z
-x,-y,1/2+z
1/2-x,1/2+y,1/2+z
1/2+x,1/2-y,z
loop_
_atom_site_type_symbol
_atom_site_label
_atom_site_fract_x
_atom_site_fract_y
_atom_site_fract_z
Si Si1 0.090870 0.103986 0.440780
Si Si2 0.915172 0.559734 0.898924
Si Si3 0.345542 0.148880 0.290164
Si Si4 0.495382 0.871650 0.616569
Si Si5 0.233230 0.928657 0.323039
Si Si6 0.840347 0.093284 0.517248
Si Si7 0.228179 0.633954 0.486472
Si Si8 0.487405 0.546077 0.642791
O O1 0.090999 0.275910 0.453974
O O2 0.028297 0.064664 0.314882
O O3 0.170333 0.043783 0.378444
O O4 0.066388 0.020991 0.587254
O O5 0.932086 0.567500 0.726535
O O6 0.982455 0.474863 0.983794
O O7 0.839049 0.472566 0.935575
O O8 0.428076 0.141250 0.216562
O O9 0.341013 0.275093 0.407002
O O10 0.285241 0.168172 0.157442
O O11 0.316231 0.996543 0.350887
O O12 0.477788 0.706399 0.576527
O O13 0.216762 0.888224 0.154591
O O14 0.220992 0.783735 0.408453
O O15 0.806875 0.946155 0.450687
O O16 0.922727 0.061291 0.584063
#
# Coordination Sequence:
#
# PCOD9344900 Si02
#       8
#     4   4   4   4   4   4   4   4
#     4  10  20  37  59  84 114 151 192 237 291 349
#     4  10  21  37  58  83 115 151 190 240 293 346
#     4  10  21  40  59  84 119 152 195 246 293 352
#     4  10  22  38  57  85 117 151 194 242 293 350
#     4  10  22  38  59  84 113 151 194 237 289 351
#     4  10  21  38  59  84 114 149 193 237 288 352
#     4  10  22  39  58  85 118 153 195 244 296 348
#     4  10  21  37  59  85 114 150 191 239 293 350
#
# _framework density 21.446028999999999
#
# number of rings (size 3 to 8) (size 9 to 14) (size 15 to 20)
#    0.000    2.000    0.000    3.750    0.000    7.000 
#    0.000    6.250    0.000    0.000    0.000    0.000 
#    0.000    0.000    0.000    0.000    0.000    0.000 
#
# Total GULP energy -178772.495388 kJ/mol
# GULP energy per Si atom -5586.640481 kJ/mol
# Density = 2.139722 g / cm^3
# Si number density = 21.446029 Si / 1000 Ang^3
#
#
#
# Elastic Constant Matrix: (Units=GPa)
#
#
# Indices 1 2 3 4 5 6 
#
# 1 37.3622 -2.3105 6.2714 0.0000 0.0000 0.0000
# 2 -2.3105 107.4654 42.6693 0.0000 0.0000 0.0000
# 3 6.2714 42.6693 35.5727 0.0000 0.0000 0.0000
# 4 0.0000 0.0000 0.0000 37.1062 0.0000 0.0000
# 5 0.0000 0.0000 0.0000 0.0000 28.6733 0.0000
# 6 0.0000 0.0000 0.0000 0.0000 0.0000 137.0105
#
#
#
# Elastic Compliance Matrix: (Units=1/GPa)
#
#
# Indices 1 2 3 4 5 6 
#
# 1 0.028953 0.005058 -0.011172 0.000000 0.000000 0.000000
# 2 0.005058 0.018651 -0.023263 0.000000 0.000000 0.000000
# 3 -0.011172 -0.023263 0.057985 0.000000 0.000000 0.000000
# 4 0.000000 0.000000 0.000000 0.026950 0.000000 0.000000
# 5 0.000000 0.000000 0.000000 0.000000 0.034876 0.000000
# 6 0.000000 0.000000 0.000000 0.000000 0.000000 0.007299
#
#
# Mechanical properties :
#
#
# Convention : Reuss Voigt Hill
#
# Bulk Modulus (GPa) = 21.35130 30.40674 25.87902
# Shear Modulus (GPa) = 20.07396 49.47600 34.77498
#
# Velocity S-wave (km/s) = 3.06277 4.80834 4.03117
# Velocity P-wave (km/s) = 4.74182 6.71087 5.81036
#
# Compressibility (1/GPa) = 0.04683555
#
# Stress axis : x y z
#
# Youngs Moduli (GPa) = 34.53868 53.61690 17.24572
#
# Poissons Ratio (x) = -0.27121 0.19266
# Poissons Ratio (y) = -0.17470 0.40119
# Poissons Ratio (z) = 0.38586 1.24731
#
# Static dielectric constant tensor:
#      x y z
#    x 1.787180 0.000000 0.000000 
#    y 0.000000 1.765000 0.000000 
#    z 0.000000 0.000000 1.806770 
# 
# From -- ./inp_files/5037.got.cif
#   From: 2010.05.17/outbox.cif.g08.bks.cpg/sg33_3_cif.got.tgz:5037.got - 2010.06.03 17:15:25.
