data_PCOD9344841
_publ_section_title
;
Structure prediction by ZEFSAII (Michael W. Deem and Ramdas Pophale) SiO2 
 PCOD9344841
Probable space group: P N A 21
;
_chemical_formula_sum "Si O2"
_cell_formula_units_Z 24
_cell_length_a 20.170644
_cell_length_b 5.267395
_cell_length_c 8.756322
_cell_angle_alpha 90.000000
_cell_angle_beta 90.000000
_cell_angle_gamma 90.000000
_cell_volume 930.330749
_symmetry_space_group_name_H-M "P N A 21"
_symmetry_group_IT_number 33
_symmetry_cell_setting 'orthorhombic'
loop_
_space_group_symop_operation_xyz
x,y,z
-x,-y,1/2+z
1/2-x,1/2+y,1/2+z
1/2+x,1/2-y,z
loop_
_atom_site_type_symbol
_atom_site_label
_atom_site_fract_x
_atom_site_fract_y
_atom_site_fract_z
Si Si1 0.191492 0.261263 0.708030
Si Si2 0.124046 0.089798 0.256131
Si Si3 0.081056 0.938131 0.556261
Si Si4 0.757756 0.232940 0.372093
Si Si5 0.510844 0.927672 0.771694
Si Si6 0.451734 0.294616 0.559015
O O1 0.119639 0.165064 0.643994
O O2 0.201816 0.522610 0.803648
O O3 0.236304 0.262918 0.551451
O O4 0.210941 0.030995 0.819654
O O5 0.123594 0.901773 0.403516
O O6 0.188931 0.251168 0.275974
O O7 0.058158 0.264578 0.267046
O O8 0.115687 0.926767 0.103249
O O9 0.006913 0.010180 0.503929
O O10 0.065619 0.702685 0.663688
O O11 0.484797 0.191944 0.712461
O O12 0.544457 0.926150 0.936683
#
# Coordination Sequence:
#
# PCOD9344841 Si02
#       6
#     4   4   4   4   4   4
#     4  11  25  45  68  96 131 174 221 271 327 388
#     4   9  21  40  59  83 120 161 203 256 318 377
#     4   9  21  40  59  83 120 161 203 256 318 377
#     4  11  25  45  68  96 131 174 221 271 327 388
#     4  10  20  35  59  89 119 156 202 254 316 378
#     4  10  20  35  59  89 119 156 202 254 316 378
#
# _framework density 25.797277999999999
#
# number of rings (size 3 to 8) (size 9 to 14) (size 15 to 20)
#    0.000    2.000    0.000    2.000    4.667    4.000 
#    0.000    0.000    0.000    0.000    0.000    0.000 
#    0.000    0.000    0.000    0.000    0.000    0.000 
#
# Total GULP energy -134027.851645 kJ/mol
# GULP energy per Si atom -5584.493819 kJ/mol
# Density = 2.573856 g / cm^3
# Si number density = 25.797278 Si / 1000 Ang^3
#
#
#
# Elastic Constant Matrix: (Units=GPa)
#
#
# Indices 1 2 3 4 5 6 
#
# 1 90.9826 12.3698 -3.7956 0.0000 0.0000 0.0000
# 2 12.3698 101.1553 28.9643 0.0000 0.0000 0.0000
# 3 -3.7956 28.9643 82.0542 0.0000 0.0000 0.0000
# 4 0.0000 0.0000 0.0000 28.0088 0.0000 0.0000
# 5 0.0000 0.0000 0.0000 0.0000 29.8415 0.0000
# 6 0.0000 0.0000 0.0000 0.0000 0.0000 24.2530
#
#
#
# Elastic Compliance Matrix: (Units=1/GPa)
#
#
# Indices 1 2 3 4 5 6 
#
# 1 0.011269 -0.001699 0.001121 0.000000 0.000000 0.000000
# 2 -0.001699 0.011253 -0.004051 0.000000 0.000000 0.000000
# 3 0.001121 -0.004051 0.013669 0.000000 0.000000 0.000000
# 4 0.000000 0.000000 0.000000 0.035703 0.000000 0.000000
# 5 0.000000 0.000000 0.000000 0.000000 0.033510 0.000000
# 6 0.000000 0.000000 0.000000 0.000000 0.000000 0.041232
#
#
# Mechanical properties :
#
#
# Convention : Reuss Voigt Hill
#
# Bulk Modulus (GPa) = 37.12875 38.80767 37.96821
# Shear Modulus (GPa) = 30.32649 32.19757 31.26203
#
# Velocity S-wave (km/s) = 3.43238 3.53668 3.48492
# Velocity P-wave (km/s) = 5.48927 5.63502 5.56262
#
# Compressibility (1/GPa) = 0.02693330
#
# Stress axis : x y z
#
# Youngs Moduli (GPa) = 88.74010 88.86140 73.15899
#
# Poissons Ratio (x) = 0.15097 -0.08201
# Poissons Ratio (y) = 0.15077 0.29636
# Poissons Ratio (z) = -0.09948 0.35997
#
# Static dielectric constant tensor:
#      x y z
#    x 2.049800 0.000000 0.000000 
#    y 0.000000 2.016950 0.000000 
#    z 0.000000 0.000000 2.105060 
# 
# From -- ./inp_files/5093.got.cif
#   From: 2010.05.17/outbox.cif.g08.bks.cpg/sg33_3_cif.got.tgz:5093.got - 2010.06.03 17:15:25.
