data_PCOD9344129
_publ_section_title
;
Structure prediction by ZEFSAII (Michael W. Deem and Ramdas Pophale) SiO2 
 PCOD9344129
Probable space group: P B A 2
;
_chemical_formula_sum "Si O2"
_cell_formula_units_Z 24
_cell_length_a 10.826521
_cell_length_b 18.138843
_cell_length_c 5.063713
_cell_angle_alpha 90.000000
_cell_angle_beta 90.000000
_cell_angle_gamma 90.000000
_cell_volume 994.414818
_symmetry_space_group_name_H-M "P B A 2"
_symmetry_group_IT_number 32
_symmetry_cell_setting 'orthorhombic'
loop_
_space_group_symop_operation_xyz
x,y,z
-x,-y,z
1/2-x,1/2+y,z
1/2+x,1/2-y,z
loop_
_atom_site_type_symbol
_atom_site_label
_atom_site_fract_x
_atom_site_fract_y
_atom_site_fract_z
Si Si1 0.041471 0.173907 0.377780
Si Si2 0.060309 0.581169 0.034849
Si Si3 0.523947 0.574645 0.997648
Si Si4 0.538828 0.159369 0.535839
Si Si5 0.203211 0.911038 0.568548
Si Si6 0.210627 0.070436 0.654152
O O1 0.019601 0.255421 0.472757
O O2 0.171327 0.140807 0.480475
O O3 0.919181 0.123283 0.437542
O O4 0.034136 0.155079 0.069708
O O5 0.193294 0.579971 0.892086
O O6 0.000000 0.500000 0.019207
O O7 0.988381 0.635846 0.835389
O O8 0.044427 0.611459 0.331823
O O9 0.500000 0.500000 0.172564
O O10 0.660177 0.586625 0.877308
O O11 0.421626 0.553239 0.779570
O O12 0.681692 0.138890 0.496719
O O13 0.242023 0.994925 0.499264
#
# Coordination Sequence:
#
# PCOD9344129 Si02
#       6
#     4   4   4   4   4   4
#     4  11  25  41  74 107 149 193 248 317 388 437
#     4  12  28  51  73 106 146 201 255 299 377 458
#     4   9  20  40  71 107 137 193 248 308 368 442
#     4  12  30  45  74 109 151 194 242 316 379 449
#     4  10  23  46  69 106 145 195 256 304 376 451
#     4  10  23  44  75 102 145 195 259 301 364 456
#
# _framework density 24.134799999999998
#
# number of rings (size 3 to 8) (size 9 to 14) (size 15 to 20)
#    0.000    1.333    1.667    3.000   11.667    0.000 
#    0.000    0.000    0.000    0.000    0.000    0.000 
#    0.000    0.000    0.000    0.000    0.000    0.000 
#
# Total GULP energy -133760.377932 kJ/mol
# GULP energy per Si atom -5573.349080 kJ/mol
# Density = 2.407987 g / cm^3
# Si number density = 24.134800 Si / 1000 Ang^3
#
#
#
# Elastic Constant Matrix: (Units=GPa)
#
#
# Indices 1 2 3 4 5 6 
#
# 1 85.9621 -13.7853 -19.7667 0.0000 0.0000 0.0000
# 2 -13.7853 136.2288 -1.8584 0.0000 0.0000 0.0000
# 3 -19.7667 -1.8584 35.0135 0.0000 0.0000 0.0000
# 4 0.0000 0.0000 0.0000 76.4032 0.0000 0.0000
# 5 0.0000 0.0000 0.0000 0.0000 37.2729 0.0000
# 6 0.0000 0.0000 0.0000 0.0000 0.0000 21.7561
#
#
#
# Elastic Compliance Matrix: (Units=1/GPa)
#
#
# Indices 1 2 3 4 5 6 
#
# 1 0.013664 0.001489 0.007793 0.000000 0.000000 0.000000
# 2 0.001489 0.007508 0.001239 0.000000 0.000000 0.000000
# 3 0.007793 0.001239 0.033026 0.000000 0.000000 0.000000
# 4 0.000000 0.000000 0.000000 0.013088 0.000000 0.000000
# 5 0.000000 0.000000 0.000000 0.000000 0.026829 0.000000
# 6 0.000000 0.000000 0.000000 0.000000 0.000000 0.045964
#
#
# Mechanical properties :
#
#
# Convention : Reuss Voigt Hill
#
# Bulk Modulus (GPa) = 13.29094 20.70930 17.00012
# Shear Modulus (GPa) = 34.69397 46.59408 40.64403
#
# Velocity S-wave (km/s) = 3.79556 4.39860 4.10816
# Velocity P-wave (km/s) = 4.97266 5.86483 5.43707
#
# Compressibility (1/GPa) = 0.07523920
#
# Stress axis : x y z
#
# Youngs Moduli (GPa) = 73.18638 133.18834 30.27958
#
# Poissons Ratio (x) = -0.19831 -0.23596
# Poissons Ratio (y) = -0.10897 -0.03752
# Poissons Ratio (z) = -0.57033 -0.16503
#
# Static dielectric constant tensor:
#      x y z
#    x 1.891160 0.000000 0.000000 
#    y 0.000000 1.634680 0.000000 
#    z 0.000000 0.000000 3.296120 
# 
# From -- ./inp_files/897.got.cif
#   From: 2010.05.17/outbox.cif.g08.bks.cpg/sg32_1_cif.got.tgz:897.got - 2010.06.03 17:12:27.
