data_PCOD9344978
_publ_section_title
;
Structure prediction by ZEFSAII (Michael W. Deem and Ramdas Pophale) SiO2 
 PCOD9344978
Probable space group: P N A 21
;
_chemical_formula_sum "Si O2"
_cell_formula_units_Z 24
_cell_length_a 7.732912
_cell_length_b 16.718874
_cell_length_c 7.057676
_cell_angle_alpha 90.000000
_cell_angle_beta 90.000000
_cell_angle_gamma 90.000000
_cell_volume 912.455745
_symmetry_space_group_name_H-M "P N A 21"
_symmetry_group_IT_number 33
_symmetry_cell_setting 'orthorhombic'
loop_
_space_group_symop_operation_xyz
x,y,z
-x,-y,1/2+z
1/2-x,1/2+y,1/2+z
1/2+x,1/2-y,z
loop_
_atom_site_type_symbol
_atom_site_label
_atom_site_fract_x
_atom_site_fract_y
_atom_site_fract_z
Si Si1 0.490668 0.340536 0.287830
Si Si2 0.483011 0.505093 0.180274
Si Si3 0.186726 0.505122 0.863909
Si Si4 0.098772 0.671321 0.835131
Si Si5 0.013228 0.656236 0.410598
Si Si6 0.920845 0.826680 0.360067
O O1 0.425892 0.430748 0.321906
O O2 0.694729 0.334665 0.319548
O O3 0.420443 0.263520 0.397183
O O4 0.474245 0.331214 0.059138
O O5 0.690582 0.485103 0.175484
O O6 0.481524 0.597964 0.239090
O O7 0.334130 0.496501 0.023967
O O8 0.069829 0.582344 0.917005
O O9 0.074714 0.425842 0.853231
O O10 0.992649 0.667452 0.637790
O O11 0.939430 0.734081 0.304000
O O12 0.217909 0.657638 0.381858
#
# Coordination Sequence:
#
# PCOD9344978 Si02
#       6
#     4   4   4   4   4   4
#     4   9  19  36  61  87 126 166 214 265 319 394
#     4  11  22  40  65  96 132 176 214 275 331 386
#     4  11  24  41  66  99 135 175 219 275 330 393
#     4   9  21  38  62  94 123 169 220 259 325 391
#     4  10  22  39  67  94 127 170 222 269 330 396
#     4  10  20  38  63  94 123 172 221 267 321 400
#
# _framework density 26.302644999999998
#
# number of rings (size 3 to 8) (size 9 to 14) (size 15 to 20)
#    0.000    2.000    1.667    1.000    9.333    0.000 
#    0.000    6.667    0.000    0.000    0.000    0.000 
#    0.000    0.000    0.000    0.000    0.000    0.000 
#
# Total GULP energy -133782.268835 kJ/mol
# GULP energy per Si atom -5574.261201 kJ/mol
# Density = 2.624278 g / cm^3
# Si number density = 26.302645 Si / 1000 Ang^3
#
#
#
# Elastic Constant Matrix: (Units=GPa)
#
#
# Indices 1 2 3 4 5 6 
#
# 1 49.4764 53.1287 14.4576 0.0000 0.0000 0.0000
# 2 53.1287 282.9940 15.8644 0.0000 0.0000 0.0000
# 3 14.4576 15.8644 53.1865 0.0000 0.0000 0.0000
# 4 0.0000 0.0000 0.0000 27.9977 0.0000 0.0000
# 5 0.0000 0.0000 0.0000 0.0000 24.8401 0.0000
# 6 0.0000 0.0000 0.0000 0.0000 0.0000 49.0943
#
#
#
# Elastic Compliance Matrix: (Units=1/GPa)
#
#
# Indices 1 2 3 4 5 6 
#
# 1 0.027040 -0.004744 -0.005935 0.000000 0.000000 0.000000
# 2 -0.004744 0.004426 -0.000031 0.000000 0.000000 0.000000
# 3 -0.005935 -0.000031 0.020424 0.000000 0.000000 0.000000
# 4 0.000000 0.000000 0.000000 0.035717 0.000000 0.000000
# 5 0.000000 0.000000 0.000000 0.000000 0.040257 0.000000
# 6 0.000000 0.000000 0.000000 0.000000 0.000000 0.020369
#
#
# Mechanical properties :
#
#
# Convention : Reuss Voigt Hill
#
# Bulk Modulus (GPa) = 32.81830 61.39536 47.10683
# Shear Modulus (GPa) = 27.80714 40.53351 34.17032
#
# Velocity S-wave (km/s) = 3.25499 3.92987 3.60824
# Velocity P-wave (km/s) = 5.16051 6.63207 5.94202
#
# Compressibility (1/GPa) = 0.03047080
#
# Stress axis : x y z
#
# Youngs Moduli (GPa) = 36.98243 225.94108 48.96129
#
# Poissons Ratio (x) = 1.07179 0.29060
# Poissons Ratio (y) = 0.17543 0.00150
# Poissons Ratio (z) = 0.21950 0.00693
#
# Static dielectric constant tensor:
#      x y z
#    x 1.980900 0.000000 0.000000 
#    y 0.000000 2.202240 0.000000 
#    z 0.000000 0.000000 2.444510 
# 
# From -- ./inp_files/3264.got.cif
#   From: 2010.05.17/outbox.cif.g08.bks.cpg/sg33_2_cif.got.tgz:3264.got - 2010.06.03 17:15:25.
