data_PCOD9344823
_publ_section_title
;
Structure prediction by ZEFSAII (Michael W. Deem and Ramdas Pophale) SiO2 
 PCOD9344823
Probable space group: P N A 21
;
_chemical_formula_sum "Si O2"
_cell_formula_units_Z 32
_cell_length_a 13.793907
_cell_length_b 17.334926
_cell_length_c 6.151138
_cell_angle_alpha 90.000000
_cell_angle_beta 90.000000
_cell_angle_gamma 90.000000
_cell_volume 1470.837711
_symmetry_space_group_name_H-M "P N A 21"
_symmetry_group_IT_number 33
_symmetry_cell_setting 'orthorhombic'
loop_
_space_group_symop_operation_xyz
x,y,z
-x,-y,1/2+z
1/2-x,1/2+y,1/2+z
1/2+x,1/2-y,z
loop_
_atom_site_type_symbol
_atom_site_label
_atom_site_fract_x
_atom_site_fract_y
_atom_site_fract_z
Si Si1 0.929512 0.939391 0.645740
Si Si2 0.951896 0.688952 0.239043
Si Si3 0.142439 0.201965 0.434370
Si Si4 0.852441 0.047168 0.999712
Si Si5 0.802875 0.667810 0.604785
Si Si6 0.093187 0.600421 0.511004
Si Si7 0.956055 0.569431 0.868723
Si Si8 0.711413 0.408779 0.775122
O O1 0.902816 0.867305 0.797190
O O2 0.886583 0.918112 0.411728
O O3 0.043935 0.949814 0.619827
O O4 0.877657 0.013484 0.759521
O O5 0.861255 0.699014 0.398223
O O6 0.044175 0.673142 0.390558
O O7 0.945168 0.756292 0.063340
O O8 0.939256 0.612496 0.094410
O O9 0.197491 0.264120 0.283588
O O10 0.210830 0.163315 0.614182
O O11 0.795706 0.127443 0.027160
O O12 0.785901 0.983686 0.121395
O O13 0.873815 0.602226 0.707335
O O14 0.051283 0.521119 0.407318
O O15 0.205297 0.597710 0.454757
O O16 0.057450 0.595401 0.759074
#
# Coordination Sequence:
#
# PCOD9344823 Si02
#       8
#     4   4   4   4   4   4   4   4
#     4  11  24  43  67  98 134 175 235 296 344 404
#     4  10  22  41  63  92 134 176 218 270 344 408
#     4  10  24  45  64  93 140 180 226 282 347 417
#     4  11  23  41  71  99 129 178 235 288 348 406
#     4  10  22  41  67  96 129 180 224 277 342 420
#     4  11  21  35  64  98 132 170 211 272 342 405
#     4  10  20  34  60  98 133 164 211 270 332 405
#     4  11  24  42  66  98 137 173 226 289 339 413
#
# _framework density 21.756309000000002
#
# number of rings (size 3 to 8) (size 9 to 14) (size 15 to 20)
#    0.000    1.500    3.750    0.750    1.750    3.000 
#    0.000    8.750    0.000    0.000    0.000    0.000 
#    0.000    0.000    0.000    0.000    0.000    0.000 
#
# Total GULP energy -178682.620156 kJ/mol
# GULP energy per Si atom -5583.831880 kJ/mol
# Density = 2.170679 g / cm^3
# Si number density = 21.756309 Si / 1000 Ang^3
#
#
#
# Elastic Constant Matrix: (Units=GPa)
#
#
# Indices 1 2 3 4 5 6 
#
# 1 82.9967 20.6997 12.5746 0.0000 0.0000 0.0000
# 2 20.6997 79.9701 33.4918 0.0000 0.0000 0.0000
# 3 12.5746 33.4918 78.0989 0.0000 0.0000 0.0000
# 4 0.0000 0.0000 0.0000 34.2838 0.0000 0.0000
# 5 0.0000 0.0000 0.0000 0.0000 16.8413 0.0000
# 6 0.0000 0.0000 0.0000 0.0000 0.0000 8.3676
#
#
#
# Elastic Compliance Matrix: (Units=1/GPa)
#
#
# Indices 1 2 3 4 5 6 
#
# 1 0.012920 -0.003014 -0.000788 0.000000 0.000000 0.000000
# 2 -0.003014 0.015945 -0.006353 0.000000 0.000000 0.000000
# 3 -0.000788 -0.006353 0.015655 0.000000 0.000000 0.000000
# 4 0.000000 0.000000 0.000000 0.029168 0.000000 0.000000
# 5 0.000000 0.000000 0.000000 0.000000 0.059378 0.000000
# 6 0.000000 0.000000 0.000000 0.000000 0.000000 0.119509
#
#
# Mechanical properties :
#
#
# Convention : Reuss Voigt Hill
#
# Bulk Modulus (GPa) = 41.30281 41.62199 41.46240
# Shear Modulus (GPa) = 17.79640 23.51849 20.65744
#
# Velocity S-wave (km/s) = 2.86315 3.29142 3.08473
# Velocity P-wave (km/s) = 5.47318 5.79803 5.63794
#
# Compressibility (1/GPa) = 0.02421143
#
# Stress axis : x y z
#
# Youngs Moduli (GPa) = 77.40064 62.71381 63.87595
#
# Poissons Ratio (x) = 0.18904 0.05030
# Poissons Ratio (y) = 0.23332 0.40578
# Poissons Ratio (z) = 0.06095 0.39840
#
# Static dielectric constant tensor:
#      x y z
#    x 1.783060 0.000000 0.000000 
#    y 0.000000 1.808010 0.000000 
#    z 0.000000 0.000000 1.817980 
# 
# From -- ./inp_files/1515.got.cif
#   From: 2010.05.17/outbox.cif.g08.bks.cpg/sg33_1_cif.got.tgz:1515.got - 2010.06.03 17:15:25.
