data_PCOD9344434
_publ_section_title
;
Structure prediction by ZEFSAII (Michael W. Deem and Ramdas Pophale) SiO2 
 PCOD9344434
Probable space group: P N A 21
;
_chemical_formula_sum "Si O2"
_cell_formula_units_Z 32
_cell_length_a 5.430078
_cell_length_b 22.930311
_cell_length_c 15.258003
_cell_angle_alpha 90.000000
_cell_angle_beta 90.000000
_cell_angle_gamma 90.000000
_cell_volume 1899.825484
_symmetry_space_group_name_H-M "P N A 21"
_symmetry_group_IT_number 33
_symmetry_cell_setting 'orthorhombic'
loop_
_space_group_symop_operation_xyz
x,y,z
-x,-y,1/2+z
1/2-x,1/2+y,1/2+z
1/2+x,1/2-y,z
loop_
_atom_site_type_symbol
_atom_site_label
_atom_site_fract_x
_atom_site_fract_y
_atom_site_fract_z
Si Si1 0.000002 0.024148 0.927290
Si Si2 0.000002 0.940039 0.095989
Si Si3 0.999995 0.285880 0.407091
Si Si4 0.500004 0.084080 0.167356
Si Si5 0.999992 0.284556 0.196636
Si Si6 0.500002 0.036189 0.972299
Si Si7 0.500002 0.903247 0.019249
Si Si8 0.000004 0.033383 0.244232
O O1 0.253401 0.058776 0.927547
O O2 0.746603 0.058776 0.927547
O O3 0.000000 0.980065 0.846676
O O4 0.000002 0.990425 0.020569
O O5 0.251213 0.905293 0.077097
O O6 0.748791 0.905293 0.077097
O O7 0.000003 0.973337 0.188161
O O8 0.249994 0.250000 0.428354
O O9 0.999994 0.295060 0.302013
O O10 0.999996 0.347687 0.456273
O O11 0.500000 0.152756 0.152010
O O12 0.249949 0.066628 0.217676
O O13 0.750061 0.066629 0.217675
O O14 0.500002 0.050766 0.074821
O O15 0.249988 0.249998 0.175721
O O16 0.500002 0.965071 0.965948
#
# Coordination Sequence:
#
# PCOD9344434 Si02
#       8
#     4   4   4   4   4   4   4   4
#     4  10  20  31  49  72 113 135 178 212 263 339
#     4  10  19  33  46  76 110 134 178 222 259 330
#     4  10  21  35  50  75 107 146 192 221 253 319
#     4  12  21  36  57  74 112 148 186 223 277 317
#     4  10  23  38  49  75 107 143 192 226 251 319
#     4  10  19  36  48  80 105 139 176 232 269 328
#     4  10  18  32  52  66 107 139 169 222 271 295
#     4  12  21  33  53  82 107 152 177 212 283 343
#
# _framework density 16.843651999999999
#
# number of rings (size 3 to 8) (size 9 to 14) (size 15 to 20)
#    0.000    1.500    5.000    2.250    7.000    0.000 
#    0.000    0.000    0.000    0.000    0.000    0.000 
#    0.000   20.000    0.000    0.000    0.000    0.000 
#
# Total GULP energy -178453.006172 kJ/mol
# GULP energy per Si atom -5576.656443 kJ/mol
# Density = 1.680531 g / cm^3
# Si number density = 16.843652 Si / 1000 Ang^3
#
#
#
# Elastic Constant Matrix: (Units=GPa)
#
#
# Indices 1 2 3 4 5 6 
#
# 1 177.7247 18.4876 17.3731 0.0000 0.0000 0.0000
# 2 18.4876 46.1359 26.7722 0.0000 0.0000 0.0000
# 3 17.3731 26.7722 28.8637 0.0000 0.0000 0.0000
# 4 0.0000 0.0000 0.0000 3.5580 0.0000 0.0000
# 5 0.0000 0.0000 0.0000 0.0000 6.6134 0.0000
# 6 0.0000 0.0000 0.0000 0.0000 0.0000 17.5352
#
#
#
# Elastic Compliance Matrix: (Units=1/GPa)
#
#
# Indices 1 2 3 4 5 6 
#
# 1 0.005988 -0.000667 -0.002985 0.000000 0.000000 0.000000
# 2 -0.000667 0.047015 -0.043206 0.000000 0.000000 0.000000
# 3 -0.002985 -0.043206 0.076518 0.000000 0.000000 0.000000
# 4 0.000000 0.000000 0.000000 0.281056 0.000000 0.000000
# 5 0.000000 0.000000 0.000000 0.000000 0.151209 0.000000
# 6 0.000000 0.000000 0.000000 0.000000 0.000000 0.057028
#
#
# Mechanical properties :
#
#
# Convention : Reuss Voigt Hill
#
# Bulk Modulus (GPa) = 27.93069 41.99890 34.96480
# Shear Modulus (GPa) = 6.90165 18.21409 12.55787
#
# Velocity S-wave (km/s) = 2.02642 3.29197 2.73345
# Velocity P-wave (km/s) = 4.70037 6.27998 5.54669
#
# Compressibility (1/GPa) = 0.03580291
#
# Stress axis : x y z
#
# Youngs Moduli (GPa) = 167.00341 21.26999 13.06884
#
# Poissons Ratio (x) = 0.01419 0.03902
# Poissons Ratio (y) = 0.11141 0.56466
# Poissons Ratio (z) = 0.49857 0.91900
#
# Static dielectric constant tensor:
#      x y z
#    x 1.678090 0.000000 0.000000 
#    y 0.000000 1.536340 0.000000 
#    z 0.000000 0.000000 1.550180 
# 
# From -- ./inp_files/7467.got.cif
#   From: 2010.05.17/outbox.cif.g08.bks.cpg/sg33_4_cif.got.tgz:7467.got - 2010.06.03 17:15:25.
