data_PCOD9344683
_publ_section_title
;
Structure prediction by ZEFSAII (Michael W. Deem and Ramdas Pophale) SiO2 
 PCOD9344683
Probable space group: P N A 21
;
_chemical_formula_sum "Si O2"
_cell_formula_units_Z 32
_cell_length_a 17.731559
_cell_length_b 7.677113
_cell_length_c 11.821233
_cell_angle_alpha 90.000000
_cell_angle_beta 90.000000
_cell_angle_gamma 90.000000
_cell_volume 1609.191137
_symmetry_space_group_name_H-M "P N A 21"
_symmetry_group_IT_number 33
_symmetry_cell_setting 'orthorhombic'
loop_
_space_group_symop_operation_xyz
x,y,z
-x,-y,1/2+z
1/2-x,1/2+y,1/2+z
1/2+x,1/2-y,z
loop_
_atom_site_type_symbol
_atom_site_label
_atom_site_fract_x
_atom_site_fract_y
_atom_site_fract_z
Si Si1 0.113295 0.254836 0.485340
Si Si2 0.357878 0.073489 0.729264
Si Si3 0.740339 0.380374 0.135636
Si Si4 0.065381 0.963927 0.633696
Si Si5 0.780400 0.233237 0.541926
Si Si6 0.080555 0.219905 0.225934
Si Si7 0.300901 0.387046 0.296821
Si Si8 0.133688 0.673337 0.469673
O O1 0.061888 0.150941 0.573187
O O2 0.888187 0.532759 0.990626
O O3 0.199349 0.190176 0.507867
O O4 0.094717 0.195575 0.358888
O O5 0.423210 0.929970 0.717252
O O6 0.278834 0.983007 0.771921
O O7 0.338513 0.146918 0.606812
O O8 0.374383 0.199488 0.835087
O O9 0.741263 0.586641 0.132940
O O10 0.654488 0.325718 0.152985
O O11 0.788241 0.300122 0.237621
O O12 0.781285 0.316036 0.020846
O O13 0.130161 0.971771 0.730019
O O14 0.089118 0.816891 0.541172
O O15 0.988831 0.893293 0.686320
O O16 0.811945 0.141342 0.429528
#
# Coordination Sequence:
#
# PCOD9344683 Si02
#       8
#     4   4   4   4   4   4   4   4
#     4  10  20  40  63  85 121 158 197 260 301 349
#     4  10  19  38  62  84 119 154 201 257 297 352
#     4   9  18  35  60  85 115 149 202 252 288 349
#     4  11  23  39  63  86 127 168 189 244 321 364
#     4  11  19  35  65  90 110 154 209 256 303 345
#     4  10  22  41  55  87 128 157 196 246 301 371
#     4  10  19  37  59  89 115 151 204 254 298 354
#     4   9  20  39  63  90 117 155 208 251 293 360
#
# _framework density 19.885766
#
# number of rings (size 3 to 8) (size 9 to 14) (size 15 to 20)
#    0.000    2.000    6.250    0.000    1.750    1.000 
#    6.750    0.000    2.750    0.000    0.000    0.000 
#    0.000    0.000    0.000    0.000    0.000    0.000 
#
# Total GULP energy -178326.392453 kJ/mol
# GULP energy per Si atom -5572.699764 kJ/mol
# Density = 1.984051 g / cm^3
# Si number density = 19.885766 Si / 1000 Ang^3
#
#
#
# Elastic Constant Matrix: (Units=GPa)
#
#
# Indices 1 2 3 4 5 6 
#
# 1 16.5867 -2.0597 -2.2873 0.0000 0.0000 0.0000
# 2 -2.0597 33.5462 26.1303 0.0000 0.0000 0.0000
# 3 -2.2873 26.1303 78.1974 0.0000 0.0000 0.0000
# 4 0.0000 0.0000 0.0000 2.3497 0.0000 0.0000
# 5 0.0000 0.0000 0.0000 0.0000 21.2427 0.0000
# 6 0.0000 0.0000 0.0000 0.0000 0.0000 9.5533
#
#
#
# Elastic Compliance Matrix: (Units=1/GPa)
#
#
# Indices 1 2 3 4 5 6 
#
# 1 0.060782 0.003173 0.000718 0.000000 0.000000 0.000000
# 2 0.003173 0.040465 -0.013429 0.000000 0.000000 0.000000
# 3 0.000718 -0.013429 0.017296 0.000000 0.000000 0.000000
# 4 0.000000 0.000000 0.000000 0.425580 0.000000 0.000000
# 5 0.000000 0.000000 0.000000 0.000000 0.047075 0.000000
# 6 0.000000 0.000000 0.000000 0.000000 0.000000 0.104676
#
#
# Mechanical properties :
#
#
# Convention : Reuss Voigt Hill
#
# Bulk Modulus (GPa) = 10.05357 19.09964 14.57660
# Shear Modulus (GPa) = 6.68354 13.73227 10.20790
#
# Velocity S-wave (km/s) = 1.83528 2.63070 2.26813
# Velocity P-wave (km/s) = 3.09155 4.34200 3.76899
#
# Compressibility (1/GPa) = 0.09946719
#
# Stress axis : x y z
#
# Youngs Moduli (GPa) = 16.45213 24.71298 57.81531
#
# Poissons Ratio (x) = -0.07841 -0.04149
# Poissons Ratio (y) = -0.05220 0.77639
# Poissons Ratio (z) = -0.01181 0.33186
#
# Static dielectric constant tensor:
#      x y z
#    x 1.703000 0.000000 0.000000 
#    y 0.000000 1.768390 0.000000 
#    z 0.000000 0.000000 1.722900 
# 
# From -- ./inp_files/7068.got.cif
#   From: 2010.05.17/outbox.cif.g08.bks.cpg/sg33_4_cif.got.tgz:7068.got - 2010.06.03 17:15:25.
