data_PCOD9344790
_publ_section_title
;
Structure prediction by ZEFSAII (Michael W. Deem and Ramdas Pophale) SiO2 
 PCOD9344790
Probable space group: P N A 21
;
_chemical_formula_sum "Si O2"
_cell_formula_units_Z 28
_cell_length_a 8.623825
_cell_length_b 11.883950
_cell_length_c 14.310446
_cell_angle_alpha 90.000000
_cell_angle_beta 90.000000
_cell_angle_gamma 90.000000
_cell_volume 1466.607562
_symmetry_space_group_name_H-M "P N A 21"
_symmetry_group_IT_number 33
_symmetry_cell_setting 'orthorhombic'
loop_
_space_group_symop_operation_xyz
x,y,z
-x,-y,1/2+z
1/2-x,1/2+y,1/2+z
1/2+x,1/2-y,z
loop_
_atom_site_type_symbol
_atom_site_label
_atom_site_fract_x
_atom_site_fract_y
_atom_site_fract_z
Si Si1 0.273569 0.550858 0.328720
Si Si2 0.986250 0.162560 0.284476
Si Si3 0.503329 0.024163 0.966287
Si Si4 0.657298 0.882685 0.822455
Si Si5 0.067025 0.493340 0.170175
Si Si6 0.917269 0.789969 0.472254
Si Si7 0.816882 0.186377 0.095737
O O1 0.395603 0.452365 0.306317
O O2 0.170912 0.574608 0.235896
O O3 0.357164 0.656074 0.377083
O O4 0.151374 0.505554 0.405795
O O5 0.168474 0.144322 0.292287
O O6 0.928914 0.265987 0.347507
O O7 0.930697 0.205896 0.182440
O O8 0.536746 0.158508 0.964116
O O9 0.642398 0.963778 0.911158
O O10 0.493408 0.975334 0.070856
O O11 0.562274 0.943029 0.739036
O O12 0.191444 0.399565 0.136248
O O13 0.779199 0.788426 0.549482
O O14 0.067601 0.852813 0.513374
#
# Coordination Sequence:
#
# PCOD9344790 Si02
#       7
#     4   4   4   4   4   4   4
#     4  10  22  37  59  89 123 152 196 257 299 364
#     4  11  22  37  60  89 118 152 203 252 299 350
#     4  10  21  37  61  83 120 161 197 246 301 362
#     4  11  22  37  62  86 121 155 204 251 296 353
#     4   9  21  39  57  88 120 157 199 250 298 352
#     4  11  20  35  60  90 119 153 199 244 307 349
#     4  10  20  32  59  87 115 152 198 250 288 344
#
# _framework density 19.091677000000001
#
# number of rings (size 3 to 8) (size 9 to 14) (size 15 to 20)
#    0.000    1.714    1.429    5.143    6.000    0.000 
#    0.000    0.000   12.571    0.000    0.000    0.000 
#    0.000    0.000    0.000    0.000    0.000    0.000 
#
# Total GULP energy -156032.005494 kJ/mol
# GULP energy per Si atom -5572.571625 kJ/mol
# Density = 1.904822 g / cm^3
# Si number density = 19.091677 Si / 1000 Ang^3
#
#
#
# Elastic Constant Matrix: (Units=GPa)
#
#
# Indices 1 2 3 4 5 6 
#
# 1 125.0385 21.1958 33.3956 0.0000 0.0000 0.0000
# 2 21.1958 42.9462 22.1689 0.0000 0.0000 0.0000
# 3 33.3956 22.1689 101.7885 0.0000 0.0000 0.0000
# 4 0.0000 0.0000 0.0000 27.3425 0.0000 0.0000
# 5 0.0000 0.0000 0.0000 0.0000 34.1499 0.0000
# 6 0.0000 0.0000 0.0000 0.0000 0.0000 22.7503
#
#
#
# Elastic Compliance Matrix: (Units=1/GPa)
#
#
# Indices 1 2 3 4 5 6 
#
# 1 0.009175 -0.003351 -0.002280 0.000000 0.000000 0.000000
# 2 -0.003351 0.027458 -0.004881 0.000000 0.000000 0.000000
# 3 -0.002280 -0.004881 0.011635 0.000000 0.000000 0.000000
# 4 0.000000 0.000000 0.000000 0.036573 0.000000 0.000000
# 5 0.000000 0.000000 0.000000 0.000000 0.029283 0.000000
# 6 0.000000 0.000000 0.000000 0.000000 0.000000 0.043955
#
#
# Mechanical properties :
#
#
# Convention : Reuss Voigt Hill
#
# Bulk Modulus (GPa) = 36.70506 47.03265 41.86886
# Shear Modulus (GPa) = 26.56960 29.71608 28.14284
#
# Velocity S-wave (km/s) = 3.73458 3.94952 3.84355
# Velocity P-wave (km/s) = 6.15333 6.74440 6.45564
#
# Compressibility (1/GPa) = 0.02724420
#
# Stress axis : x y z
#
# Youngs Moduli (GPa) = 108.99670 36.41885 85.94440
#
# Poissons Ratio (x) = 0.12204 0.19598
# Poissons Ratio (y) = 0.36525 0.41948
# Poissons Ratio (z) = 0.24854 0.17775
#
# Static dielectric constant tensor:
#      x y z
#    x 1.719770 0.000000 0.000000 
#    y 0.000000 1.665060 0.000000 
#    z 0.000000 0.000000 1.720900 
# 
# From -- ./inp_files/7600.got.cif
#   From: 2010.05.17/outbox.cif.g08.bks.cpg/sg33_4_cif.got.tgz:7600.got - 2010.06.03 17:15:25.
