data_PCOD9344737
_publ_section_title
;
Structure prediction by ZEFSAII (Michael W. Deem and Ramdas Pophale) SiO2 
 PCOD9344737
Probable space group: P N A 21
;
_chemical_formula_sum "Si O2"
_cell_formula_units_Z 24
_cell_length_a 10.173998
_cell_length_b 19.352035
_cell_length_c 5.826164
_cell_angle_alpha 90.000000
_cell_angle_beta 90.000000
_cell_angle_gamma 90.000000
_cell_volume 1147.099245
_symmetry_space_group_name_H-M "P N A 21"
_symmetry_group_IT_number 33
_symmetry_cell_setting 'orthorhombic'
loop_
_space_group_symop_operation_xyz
x,y,z
-x,-y,1/2+z
1/2-x,1/2+y,1/2+z
1/2+x,1/2-y,z
loop_
_atom_site_type_symbol
_atom_site_label
_atom_site_fract_x
_atom_site_fract_y
_atom_site_fract_z
Si Si1 0.338284 0.241271 0.827570
Si Si2 0.075088 0.996239 0.606068
Si Si3 0.223372 0.128665 0.492966
Si Si4 0.525474 0.701746 0.942269
Si Si5 0.532422 0.848497 0.712258
Si Si6 0.755415 0.138488 0.138966
O O1 0.259923 0.195928 0.643516
O O2 0.450968 0.288936 0.712103
O O3 0.406538 0.183347 0.982605
O O4 0.251449 0.296335 0.965361
O O5 0.157919 0.926580 0.565316
O O6 0.172390 0.061965 0.624885
O O7 0.004396 0.993353 0.860580
O O8 0.094965 0.155730 0.358114
O O9 0.350376 0.112254 0.340855
O O10 0.503052 0.778806 0.854698
O O11 0.662113 0.670822 0.849828
O O12 0.393114 0.884748 0.685934
#
# Coordination Sequence:
#
# PCOD9344737 Si02
#       6
#     4   4   4   4   4   4
#     4  10  21  37  69 102 136 179 239 298 360 423
#     4  12  28  50  75 103 141 197 253 299 365 445
#     4  11  23  42  67 100 141 185 236 301 356 431
#     4  10  19  39  67  96 134 176 233 288 348 423
#     4  10  22  38  62 103 136 174 227 292 367 419
#     4  11  23  42  68 100 138 187 238 296 358 437
#
# _framework density 20.922339999999998
#
# number of rings (size 3 to 8) (size 9 to 14) (size 15 to 20)
#    0.000    1.333    1.667    5.000    2.333    4.000 
#    3.000    0.000    0.000    0.000    0.000    0.000 
#    0.000    0.000    0.000    0.000    0.000    0.000 
#
# Total GULP energy -133741.054406 kJ/mol
# GULP energy per Si atom -5572.543934 kJ/mol
# Density = 2.087472 g / cm^3
# Si number density = 20.922340 Si / 1000 Ang^3
#
#
#
# Elastic Constant Matrix: (Units=GPa)
#
#
# Indices 1 2 3 4 5 6 
#
# 1 134.2117 30.4590 42.4410 0.0000 0.0000 0.0000
# 2 30.4590 82.2994 12.0400 0.0000 0.0000 0.0000
# 3 42.4410 12.0400 63.7319 0.0000 0.0000 0.0000
# 4 0.0000 0.0000 0.0000 47.3036 0.0000 0.0000
# 5 0.0000 0.0000 0.0000 0.0000 8.0719 0.0000
# 6 0.0000 0.0000 0.0000 0.0000 0.0000 30.3387
#
#
#
# Elastic Compliance Matrix: (Units=1/GPa)
#
#
# Indices 1 2 3 4 5 6 
#
# 1 0.010035 -0.002814 -0.006151 0.000000 0.000000 0.000000
# 2 -0.002814 0.013285 -0.000636 0.000000 0.000000 0.000000
# 3 -0.006151 -0.000636 0.019907 0.000000 0.000000 0.000000
# 4 0.000000 0.000000 0.000000 0.021140 0.000000 0.000000
# 5 0.000000 0.000000 0.000000 0.000000 0.123886 0.000000
# 6 0.000000 0.000000 0.000000 0.000000 0.000000 0.032961
#
#
# Mechanical properties :
#
#
# Convention : Reuss Voigt Hill
#
# Bulk Modulus (GPa) = 41.62256 50.01369 45.81812
# Shear Modulus (GPa) = 20.12694 30.16306 25.14500
#
# Velocity S-wave (km/s) = 3.10495 3.80105 3.47050
# Velocity P-wave (km/s) = 5.72637 6.57421 6.16488
#
# Compressibility (1/GPa) = 0.02402543
#
# Stress axis : x y z
#
# Youngs Moduli (GPa) = 99.65576 75.27158 50.23410
#
# Poissons Ratio (x) = 0.21181 0.30897
# Poissons Ratio (y) = 0.28043 0.03194
# Poissons Ratio (z) = 0.61295 0.04787
#
# Static dielectric constant tensor:
#      x y z
#    x 1.810360 0.000000 0.000000 
#    y 0.000000 1.719310 0.000000 
#    z 0.000000 0.000000 1.883540 
# 
# From -- ./inp_files/397.got.cif
#   From: 2010.05.17/outbox.cif.g08.bks.cpg/sg33_1_cif.got.tgz:397.got - 2010.06.03 17:15:25.
