data_PCOD9344921
_publ_section_title
;
Structure prediction by ZEFSAII (Michael W. Deem and Ramdas Pophale) SiO2 
 PCOD9344921
Probable space group: P N A 21
;
_chemical_formula_sum "Si O2"
_cell_formula_units_Z 24
_cell_length_a 6.982545
_cell_length_b 11.960287
_cell_length_c 9.834477
_cell_angle_alpha 90.000000
_cell_angle_beta 90.000000
_cell_angle_gamma 90.000000
_cell_volume 821.309060
_symmetry_space_group_name_H-M "P N A 21"
_symmetry_group_IT_number 33
_symmetry_cell_setting 'orthorhombic'
loop_
_space_group_symop_operation_xyz
x,y,z
-x,-y,1/2+z
1/2-x,1/2+y,1/2+z
1/2+x,1/2-y,z
loop_
_atom_site_type_symbol
_atom_site_label
_atom_site_fract_x
_atom_site_fract_y
_atom_site_fract_z
Si Si1 0.719868 0.915904 0.423390
Si Si2 0.360947 0.856269 0.052072
Si Si3 0.802811 0.123982 0.131398
Si Si4 0.802811 0.876018 0.133486
Si Si5 0.139053 0.643731 0.712811
Si Si6 0.719868 0.084095 0.841494
O O1 0.724490 0.051925 0.448698
O O2 0.823317 0.858595 0.296495
O O3 0.756825 0.867170 0.572170
O O4 0.500000 0.896881 0.382442
O O5 0.579115 0.888219 0.089231
O O6 0.372893 0.722971 0.035499
O O7 0.243175 0.867170 0.192714
O O8 0.872893 0.222971 0.229385
O O9 0.579115 0.111781 0.175652
O O10 0.886936 1.000000 0.132442
O O11 0.823318 0.141404 0.968389
O O12 0.224490 0.551926 0.816186
#
# Coordination Sequence:
#
# PCOD9344921 Si02
#       6
#     4   4   4   4   4   4
#     4   9  17  38  60  82 113 161 192 235 301 353
#     4  10  20  37  63  81 119 156 195 246 293 350
#     4  11  21  38  60  86 118 155 197 243 301 352
#     4  11  21  38  60  86 118 155 197 243 301 352
#     4  10  20  37  63  81 119 156 195 246 293 350
#     4   9  17  38  60  82 113 161 192 235 301 353
#
# _framework density 29.221641999999999
#
# number of rings (size 3 to 8) (size 9 to 14) (size 15 to 20)
#    0.000    2.000    6.667    1.000    0.000    1.333 
#    6.000    0.000    0.000    0.000    0.000    0.000 
#    0.000    0.000    0.000    0.000    0.000    0.000 
#
# Total GULP energy -134115.719663 kJ/mol
# GULP energy per Si atom -5588.154986 kJ/mol
# Density = 2.915513 g / cm^3
# Si number density = 29.221642 Si / 1000 Ang^3
#
#
#
# Elastic Constant Matrix: (Units=GPa)
#
#
# Indices 1 2 3 4 5 6 
#
# 1 91.2962 20.1450 -1.7371 0.0000 0.0000 0.0000
# 2 20.1450 217.8931 24.4500 0.0000 0.0000 0.0000
# 3 -1.7371 24.4500 89.7217 0.0000 0.0000 0.0000
# 4 0.0000 0.0000 0.0000 64.2132 0.0000 0.0000
# 5 0.0000 0.0000 0.0000 0.0000 29.4868 0.0000
# 6 0.0000 0.0000 0.0000 0.0000 0.0000 43.3757
#
#
#
# Elastic Compliance Matrix: (Units=1/GPa)
#
#
# Indices 1 2 3 4 5 6 
#
# 1 0.011204 -0.001094 0.000515 0.000000 0.000000 0.000000
# 2 -0.001094 0.004841 -0.001340 0.000000 0.000000 0.000000
# 3 0.000515 -0.001340 0.011521 0.000000 0.000000 0.000000
# 4 0.000000 0.000000 0.000000 0.015573 0.000000 0.000000
# 5 0.000000 0.000000 0.000000 0.000000 0.033914 0.000000
# 6 0.000000 0.000000 0.000000 0.000000 0.000000 0.023054
#
#
# Mechanical properties :
#
#
# Convention : Reuss Voigt Hill
#
# Bulk Modulus (GPa) = 42.14420 53.84743 47.99582
# Shear Modulus (GPa) = 44.70082 51.15201 47.92641
#
# Velocity S-wave (km/s) = 3.91540 4.18842 4.05421
# Velocity P-wave (km/s) = 5.90712 6.46975 6.19483
#
# Compressibility (1/GPa) = 0.02372806
#
# Stress axis : x y z
#
# Youngs Moduli (GPa) = 89.24997 206.57205 86.79942
#
# Poissons Ratio (x) = 0.22592 -0.04470
# Poissons Ratio (y) = 0.09761 0.11634
# Poissons Ratio (z) = -0.04596 0.27688
#
# Static dielectric constant tensor:
#      x y z
#    x 2.306720 0.000000 0.000000 
#    y 0.000000 2.412320 0.000000 
#    z 0.000000 0.000000 2.395270 
# 
# From -- ./inp_files/5824.got.cif
#   From: 2010.05.17/outbox.cif.g08.bks.cpg/sg33_3_cif.got.tgz:5824.got - 2010.06.03 17:15:25.
