data_PCOD9344893
_publ_section_title
;
Structure prediction by ZEFSAII (Michael W. Deem and Ramdas Pophale) SiO2 
 PCOD9344893
Probable space group: P N A 21
;
_chemical_formula_sum "Si O2"
_cell_formula_units_Z 32
_cell_length_a 7.636516
_cell_length_b 18.455491
_cell_length_c 9.717059
_cell_angle_alpha 90.000000
_cell_angle_beta 90.000000
_cell_angle_gamma 90.000000
_cell_volume 1369.480049
_symmetry_space_group_name_H-M "P N A 21"
_symmetry_group_IT_number 33
_symmetry_cell_setting 'orthorhombic'
loop_
_space_group_symop_operation_xyz
x,y,z
-x,-y,1/2+z
1/2-x,1/2+y,1/2+z
1/2+x,1/2-y,z
loop_
_atom_site_type_symbol
_atom_site_label
_atom_site_fract_x
_atom_site_fract_y
_atom_site_fract_z
Si Si1 0.683484 0.328783 0.764860
Si Si2 0.650095 0.605637 0.682116
Si Si3 0.726634 0.218785 0.360366
Si Si4 0.322274 0.451348 0.494882
Si Si5 0.235138 0.040526 0.562982
Si Si6 0.870366 0.363751 0.335863
Si Si7 0.809707 0.177001 0.650957
Si Si8 0.261230 0.610067 0.551018
O O1 0.767980 0.394137 0.673565
O O2 0.714944 0.247394 0.710020
O O3 0.475089 0.338334 0.746941
O O4 0.742860 0.337026 0.921481
O O5 0.708500 0.688208 0.713197
O O6 0.759815 0.543940 0.601197
O O7 0.456080 0.609304 0.619197
O O8 0.665333 0.575323 0.838157
O O9 0.716589 0.305002 0.358974
O O10 0.544614 0.177529 0.381603
O O11 0.848160 0.200798 0.492565
O O12 0.525100 0.455610 0.540232
O O13 0.228787 0.400904 0.610525
O O14 0.236897 0.529403 0.494685
O O15 0.331895 0.065804 0.424796
O O16 0.872054 0.376340 0.173978
#
# Coordination Sequence:
#
# PCOD9344893 Si02
#       8
#     4   4   4   4   4   4   4   4
#     4  11  22  39  62  98 128 166 218 278 331 394
#     4  10  20  41  65  94 129 171 216 274 324 397
#     4  11  24  42  67  95 129 175 230 270 330 407
#     4   9  19  38  65  92 121 175 224 263 316 405
#     4  10  20  36  65  93 124 166 222 270 317 388
#     4  12  24  41  67  98 129 180 221 274 332 405
#     4  10  22  39  66  93 127 172 222 267 330 397
#     4  11  23  40  67  97 133 167 219 276 340 395
#
# _framework density 23.366530999999998
#
# number of rings (size 3 to 8) (size 9 to 14) (size 15 to 20)
#    0.000    1.500    3.750    1.500    1.750    2.000 
#    4.500    0.000    0.000    0.000    0.000    0.000 
#    0.000    0.000    0.000    0.000    0.000    0.000 
#
# Total GULP energy -178450.573584 kJ/mol
# GULP energy per Si atom -5576.580425 kJ/mol
# Density = 2.331335 g / cm^3
# Si number density = 23.366531 Si / 1000 Ang^3
#
#
#
# Elastic Constant Matrix: (Units=GPa)
#
#
# Indices 1 2 3 4 5 6 
#
# 1 46.9805 4.3962 12.1656 0.0000 0.0000 0.0000
# 2 4.3962 67.0771 29.1035 0.0000 0.0000 0.0000
# 3 12.1656 29.1035 109.3887 0.0000 0.0000 0.0000
# 4 0.0000 0.0000 0.0000 47.7151 0.0000 0.0000
# 5 0.0000 0.0000 0.0000 0.0000 22.3575 0.0000
# 6 0.0000 0.0000 0.0000 0.0000 0.0000 24.5690
#
#
#
# Elastic Compliance Matrix: (Units=1/GPa)
#
#
# Indices 1 2 3 4 5 6 
#
# 1 0.021927 -0.000429 -0.002325 0.000000 0.000000 0.000000
# 2 -0.000429 0.016862 -0.004439 0.000000 0.000000 0.000000
# 3 -0.002325 -0.004439 0.010581 0.000000 0.000000 0.000000
# 4 0.000000 0.000000 0.000000 0.020958 0.000000 0.000000
# 5 0.000000 0.000000 0.000000 0.000000 0.044728 0.000000
# 6 0.000000 0.000000 0.000000 0.000000 0.000000 0.040702
#
#
# Mechanical properties :
#
#
# Convention : Reuss Voigt Hill
#
# Bulk Modulus (GPa) = 28.58183 34.97521 31.77852
# Shear Modulus (GPa) = 27.50217 30.78039 29.14128
#
# Velocity S-wave (km/s) = 3.43445 3.63338 3.53531
# Velocity P-wave (km/s) = 5.29016 5.70986 5.50401
#
# Compressibility (1/GPa) = 0.03498726
#
# Stress axis : x y z
#
# Youngs Moduli (GPa) = 45.60489 59.30445 94.50758
#
# Poissons Ratio (x) = 0.02541 0.21970
# Poissons Ratio (y) = 0.01954 0.41948
# Poissons Ratio (z) = 0.10601 0.26323
#
# Static dielectric constant tensor:
#      x y z
#    x 1.916320 0.000000 0.000000 
#    y 0.000000 2.025890 0.000000 
#    z 0.000000 0.000000 1.863410 
# 
# From -- ./inp_files/3528.got.cif
#   From: 2010.05.17/outbox.cif.g08.bks.cpg/sg33_2_cif.got.tgz:3528.got - 2010.06.03 17:15:25.
