data_PCOD9344708
_publ_section_title
;
Structure prediction by ZEFSAII (Michael W. Deem and Ramdas Pophale) SiO2 
 PCOD9344708
Probable space group: P N A 21
;
_chemical_formula_sum "Si O2"
_cell_formula_units_Z 32
_cell_length_a 16.640718
_cell_length_b 15.408586
_cell_length_c 5.063322
_cell_angle_alpha 90.000000
_cell_angle_beta 90.000000
_cell_angle_gamma 90.000000
_cell_volume 1298.286062
_symmetry_space_group_name_H-M "P N A 21"
_symmetry_group_IT_number 33
_symmetry_cell_setting 'orthorhombic'
loop_
_space_group_symop_operation_xyz
x,y,z
-x,-y,1/2+z
1/2-x,1/2+y,1/2+z
1/2+x,1/2-y,z
loop_
_atom_site_type_symbol
_atom_site_label
_atom_site_fract_x
_atom_site_fract_y
_atom_site_fract_z
Si Si1 0.296493 0.791593 0.498470
Si Si2 0.447132 0.505452 0.590987
Si Si3 0.712310 0.090482 0.489708
Si Si4 0.285733 0.103427 0.060511
Si Si5 0.524813 0.050934 0.398480
Si Si6 0.376104 0.147713 0.567033
Si Si7 0.044313 0.193830 0.971607
Si Si8 0.434777 0.320229 0.468217
O O1 0.278573 0.849943 0.245518
O O2 0.259399 0.694485 0.505750
O O3 0.392357 0.770492 0.509871
O O4 0.267166 0.850417 0.739609
O O5 0.525377 0.501100 0.395051
O O6 0.413795 0.600787 0.535875
O O7 0.403330 0.417664 0.507856
O O8 0.616066 0.072178 0.461790
O O9 0.748080 0.992755 0.505185
O O10 0.315182 0.103834 0.362662
O O11 0.360389 0.113695 0.857844
O O12 0.465709 0.129561 0.468016
O O13 0.489638 0.978265 0.598953
O O14 0.369256 0.250265 0.545589
O O15 0.970364 0.195273 0.177547
O O16 0.008046 0.189396 0.678518
#
# Coordination Sequence:
#
# PCOD9344708 Si02
#       8
#     4   4   4   4   4   4   4   4
#     4  12  26  45  69  94 131 185 233 270 330 400
#     4   8  16  31  54  81 119 156 194 255 313 362
#     4  12  25  47  73  99 137 177 229 287 339 406
#     4  12  27  47  65  97 139 176 228 280 323 411
#     4  12  21  38  68 107 134 172 218 283 366 415
#     4  12  22  41  66  98 140 168 212 280 350 412
#     4  10  19  38  60  93 124 165 223 268 313 396
#     4  10  20  35  63  93 130 163 205 269 340 390
#
# _framework density 24.647881999999999
#
# number of rings (size 3 to 8) (size 9 to 14) (size 15 to 20)
#    0.000    1.000    2.500    5.250    0.000    0.000 
#    4.500    0.000    0.000    0.000    0.000    0.000 
#    0.000    0.000    0.000    0.000    0.000    0.000 
#
# Total GULP energy -179069.372029 kJ/mol
# GULP energy per Si atom -5595.917876 kJ/mol
# Density = 2.459178 g / cm^3
# Si number density = 24.647882 Si / 1000 Ang^3
#
#
#
# Elastic Constant Matrix: (Units=GPa)
#
#
# Indices 1 2 3 4 5 6 
#
# 1 48.1349 37.2484 6.6711 0.0000 0.0000 0.0000
# 2 37.2484 198.2502 47.6858 0.0000 0.0000 0.0000
# 3 6.6711 47.6858 116.9874 0.0000 0.0000 0.0000
# 4 0.0000 0.0000 0.0000 34.7466 0.0000 0.0000
# 5 0.0000 0.0000 0.0000 0.0000 12.8940 0.0000
# 6 0.0000 0.0000 0.0000 0.0000 0.0000 49.0565
#
#
#
# Elastic Compliance Matrix: (Units=1/GPa)
#
#
# Indices 1 2 3 4 5 6 
#
# 1 0.024339 -0.004700 0.000528 0.000000 0.000000 0.000000
# 2 -0.004700 0.006500 -0.002381 0.000000 0.000000 0.000000
# 3 0.000528 -0.002381 0.009489 0.000000 0.000000 0.000000
# 4 0.000000 0.000000 0.000000 0.028780 0.000000 0.000000
# 5 0.000000 0.000000 0.000000 0.000000 0.077555 0.000000
# 6 0.000000 0.000000 0.000000 0.000000 0.000000 0.020385
#
#
# Mechanical properties :
#
#
# Convention : Reuss Voigt Hill
#
# Bulk Modulus (GPa) = 36.73737 60.73145 48.73441
# Shear Modulus (GPa) = 26.42322 37.45724 31.94023
#
# Velocity S-wave (km/s) = 3.27774 3.90255 3.60371
# Velocity P-wave (km/s) = 5.40943 6.70818 6.09351
#
# Compressibility (1/GPa) = 0.02722024
#
# Stress axis : x y z
#
# Youngs Moduli (GPa) = 41.08683 153.84624 105.39006
#
# Poissons Ratio (x) = 0.72306 -0.05563
# Poissons Ratio (y) = 0.19310 0.25099
# Poissons Ratio (z) = -0.02169 0.36638
#
# Static dielectric constant tensor:
#      x y z
#    x 1.963600 0.000000 0.000000 
#    y 0.000000 2.018750 0.000000 
#    z 0.000000 0.000000 1.867320 
# 
# From -- ./inp_files/1829.got.cif
#   From: 2010.05.17/outbox.cif.g08.bks.cpg/sg33_1_cif.got.tgz:1829.got - 2010.06.03 17:15:25.
