data_PCOD9344247
_publ_section_title
;
Structure prediction by ZEFSAII (Michael W. Deem and Ramdas Pophale) SiO2 
 PCOD9344247
Probable space group: P B A 2
;
_chemical_formula_sum "Si O2"
_cell_formula_units_Z 24
_cell_length_a 14.053023
_cell_length_b 12.061007
_cell_length_c 6.139513
_cell_angle_alpha 90.000000
_cell_angle_beta 90.000000
_cell_angle_gamma 90.000000
_cell_volume 1040.608214
_symmetry_space_group_name_H-M "P B A 2"
_symmetry_group_IT_number 32
_symmetry_cell_setting 'orthorhombic'
loop_
_space_group_symop_operation_xyz
x,y,z
-x,-y,z
1/2-x,1/2+y,z
1/2+x,1/2-y,z
loop_
_atom_site_type_symbol
_atom_site_label
_atom_site_fract_x
_atom_site_fract_y
_atom_site_fract_z
Si Si1 0.000000 0.000000 0.158240
Si Si2 0.340693 0.416115 0.869140
Si Si3 0.848149 0.503603 0.977579
Si Si4 0.000000 0.500000 0.298122
Si Si5 0.447755 0.834568 0.638341
Si Si6 0.827363 0.313365 0.636349
Si Si7 0.857159 0.893620 0.503614
O O1 0.075399 0.067381 0.306690
O O2 0.937621 0.082872 0.008140
O O3 0.253088 0.442085 0.033883
O O4 0.309983 0.306546 0.739337
O O5 0.356579 0.507649 0.680098
O O6 0.910249 0.597134 0.847313
O O7 0.816049 0.406977 0.817878
O O8 0.919943 0.447643 0.145402
O O9 0.933266 0.580216 0.439935
O O10 0.560076 0.816551 0.602159
O O11 0.400264 0.716306 0.614498
O O12 0.751183 0.352378 0.455109
#
# Coordination Sequence:
#
# PCOD9344247 Si02
#       7
#     2   4   4   2   4   4   4
#     4  12  26  46  70 112 144 188 246 288 360 428
#     4  11  26  48  73 101 147 191 234 291 358 436
#     4  11  24  45  68 105 136 183 240 291 362 419
#     4  12  24  40  70 104 138 170 236 312 344 418
#     4  12  23  45  70 103 140 184 236 299 359 421
#     4  11  22  46  74  96 139 191 231 290 360 430
#     4  11  27  47  71 105 147 189 235 294 363 427
#
# _framework density 23.063434999999998
#
# number of rings (size 3 to 8) (size 9 to 14) (size 15 to 20)
#    0.000    0.667    5.000    2.500    4.667    1.333 
#    3.000    0.000    0.000    0.000    0.000    0.000 
#    0.000    0.000    0.000    0.000    0.000    0.000 
#
# Total GULP energy -133864.463095 kJ/mol
# GULP energy per Si atom -5577.685962 kJ/mol
# Density = 2.301094 g / cm^3
# Si number density = 23.063435 Si / 1000 Ang^3
#
#
#
# Elastic Constant Matrix: (Units=GPa)
#
#
# Indices 1 2 3 4 5 6 
#
# 1 170.4663 -9.1196 5.4671 0.0000 0.0000 0.0000
# 2 -9.1196 184.7985 75.2198 0.0000 0.0000 0.0000
# 3 5.4671 75.2198 104.3192 0.0000 0.0000 0.0000
# 4 0.0000 0.0000 0.0000 4.6599 0.0000 0.0000
# 5 0.0000 0.0000 0.0000 0.0000 55.4908 0.0000
# 6 0.0000 0.0000 0.0000 0.0000 0.0000 29.2300
#
#
#
# Elastic Compliance Matrix: (Units=1/GPa)
#
#
# Indices 1 2 3 4 5 6 
#
# 1 0.005922 0.000592 -0.000738 0.000000 0.000000 0.000000
# 2 0.000592 0.007719 -0.005597 0.000000 0.000000 0.000000
# 3 -0.000738 -0.005597 0.013660 0.000000 0.000000 0.000000
# 4 0.000000 0.000000 0.000000 0.214595 0.000000 0.000000
# 5 0.000000 0.000000 0.000000 0.000000 0.018021 0.000000
# 6 0.000000 0.000000 0.000000 0.000000 0.000000 0.034211
#
#
# Mechanical properties :
#
#
# Convention : Reuss Voigt Hill
#
# Bulk Modulus (GPa) = 63.22341 66.96873 65.09607
# Shear Modulus (GPa) = 16.08319 43.74391 29.91355
#
# Velocity S-wave (km/s) = 2.64360 4.35981 3.60531
# Velocity P-wave (km/s) = 6.06552 7.37860 6.75404
#
# Compressibility (1/GPa) = 0.01581693
#
# Stress axis : x y z
#
# Youngs Moduli (GPa) = 168.87302 129.55833 73.20634
#
# Poissons Ratio (x) = -0.07675 0.05399
# Poissons Ratio (y) = -0.10004 0.40970
# Poissons Ratio (z) = 0.12454 0.72508
#
# Static dielectric constant tensor:
#      x y z
#    x 1.955090 0.000000 0.000000 
#    y 0.000000 1.963770 0.000000 
#    z 0.000000 0.000000 1.685650 
# 
# From -- ./inp_files/1175.got.cif
#   From: 2010.05.17/outbox.cif.g08.bks.cpg/sg32_1_cif.got.tgz:1175.got - 2010.06.03 17:12:27.
