data_PCOD9344613
_publ_section_title
;
Structure prediction by ZEFSAII (Michael W. Deem and Ramdas Pophale) SiO2 
 PCOD9344613
Probable space group: P N A 21
;
_chemical_formula_sum "Si O2"
_cell_formula_units_Z 20
_cell_length_a 10.497277
_cell_length_b 8.727468
_cell_length_c 9.978225
_cell_angle_alpha 90.000000
_cell_angle_beta 90.000000
_cell_angle_gamma 90.000000
_cell_volume 914.151582
_symmetry_space_group_name_H-M "P N A 21"
_symmetry_group_IT_number 33
_symmetry_cell_setting 'orthorhombic'
loop_
_space_group_symop_operation_xyz
x,y,z
-x,-y,1/2+z
1/2-x,1/2+y,1/2+z
1/2+x,1/2-y,z
loop_
_atom_site_type_symbol
_atom_site_label
_atom_site_fract_x
_atom_site_fract_y
_atom_site_fract_z
Si Si1 0.281619 0.052637 0.838650
Si Si2 0.289174 0.551533 0.629229
Si Si3 0.426907 0.862483 0.634509
Si Si4 0.577896 0.567386 0.633875
Si Si5 0.770216 0.593084 0.398740
O O1 0.395557 0.986654 0.747043
O O2 0.155559 0.994509 0.760280
O O3 0.267056 0.235046 0.853297
O O4 0.278758 0.999730 0.993119
O O5 0.313961 0.733886 0.639798
O O6 0.436868 0.493608 0.625957
O O7 0.222931 0.498451 0.762670
O O8 0.546152 0.749850 0.644544
O O9 0.400221 0.920929 0.484613
O O10 0.658738 0.536022 0.499427
#
# Coordination Sequence:
#
# PCOD9344613 Si02
#       5
#     4   4   4   4   4
#     4  10  19  36  56  85 111 141 197 236 275 336
#     4   9  19  34  57  80 106 153 183 232 287 344
#     4   8  20  35  55  77 116 154 178 238 288 336
#     4   9  19  38  58  76 118 156 178 228 301 334
#     4  10  19  35  58  84 109 142 202 234 273 340
#
# _framework density 21.878212000000001
#
# number of rings (size 3 to 8) (size 9 to 14) (size 15 to 20)
#    1.200    1.600    0.000    1.200    0.000    3.200 
#    0.000    8.000    0.000    0.000    0.000    0.000 
#    0.000    0.000    0.000    0.000    0.000    0.000 
#
# Total GULP energy -111446.735978 kJ/mol
# GULP energy per Si atom -5572.336799 kJ/mol
# Density = 2.182842 g / cm^3
# Si number density = 21.878212 Si / 1000 Ang^3
#
#
#
# Elastic Constant Matrix: (Units=GPa)
#
#
# Indices 1 2 3 4 5 6 
#
# 1 63.0426 1.3511 11.6212 0.0000 0.0000 0.0000
# 2 1.3511 23.4623 46.2616 0.0000 0.0000 0.0000
# 3 11.6212 46.2616 184.5567 0.0000 0.0000 0.0000
# 4 0.0000 0.0000 0.0000 25.7888 0.0000 0.0000
# 5 0.0000 0.0000 0.0000 0.0000 22.4724 0.0000
# 6 0.0000 0.0000 0.0000 0.0000 0.0000 27.0708
#
#
#
# Elastic Compliance Matrix: (Units=1/GPa)
#
#
# Indices 1 2 3 4 5 6 
#
# 1 0.016102 0.002119 -0.001545 0.000000 0.000000 0.000000
# 2 0.002119 0.084552 -0.021328 0.000000 0.000000 0.000000
# 3 -0.001545 -0.021328 0.010862 0.000000 0.000000 0.000000
# 4 0.000000 0.000000 0.000000 0.038777 0.000000 0.000000
# 5 0.000000 0.000000 0.000000 0.000000 0.044499 0.000000
# 6 0.000000 0.000000 0.000000 0.000000 0.000000 0.036940
#
#
# Mechanical properties :
#
#
# Convention : Reuss Voigt Hill
#
# Bulk Modulus (GPa) = 14.28389 43.28103 28.78246
# Shear Modulus (GPa) = 16.85919 29.18823 23.02371
#
# Velocity S-wave (km/s) = 2.77897 3.65653 3.24753
# Velocity P-wave (km/s) = 4.10364 6.13617 5.21979
#
# Compressibility (1/GPa) = 0.07000895
#
# Stress axis : x y z
#
# Youngs Moduli (GPa) = 62.10527 11.82704 92.06654
#
# Poissons Ratio (x) = -0.02507 0.14226
# Poissons Ratio (y) = -0.13163 1.96355
# Poissons Ratio (z) = 0.09596 0.25224
#
# Static dielectric constant tensor:
#      x y z
#    x 1.899760 0.000000 0.000000 
#    y 0.000000 1.822820 0.000000 
#    z 0.000000 0.000000 1.785260 
# 
# From -- ./inp_files/3748.got.cif
#   From: 2010.05.17/outbox.cif.g08.bks.cpg/sg33_2_cif.got.tgz:3748.got - 2010.06.03 17:15:25.
