data_PCOD9344867
_publ_section_title
;
Structure prediction by ZEFSAII (Michael W. Deem and Ramdas Pophale) SiO2 
 PCOD9344867
Probable space group: P N A 21
;
_chemical_formula_sum "Si O2"
_cell_formula_units_Z 32
_cell_length_a 11.869732
_cell_length_b 13.093310
_cell_length_c 8.702084
_cell_angle_alpha 90.000000
_cell_angle_beta 90.000000
_cell_angle_gamma 90.000000
_cell_volume 1352.426385
_symmetry_space_group_name_H-M "P N A 21"
_symmetry_group_IT_number 33
_symmetry_cell_setting 'orthorhombic'
loop_
_space_group_symop_operation_xyz
x,y,z
-x,-y,1/2+z
1/2-x,1/2+y,1/2+z
1/2+x,1/2-y,z
loop_
_atom_site_type_symbol
_atom_site_label
_atom_site_fract_x
_atom_site_fract_y
_atom_site_fract_z
Si Si1 0.869318 0.638364 0.325140
Si Si2 0.084676 0.783301 0.815298
Si Si3 0.388273 0.633631 0.947301
Si Si4 0.949713 0.861794 0.295837
Si Si5 0.153220 0.861187 0.518097
Si Si6 0.731373 0.977056 0.255059
Si Si7 0.800422 0.637177 0.984627
Si Si8 0.863261 0.425711 0.456472
O O1 0.945979 0.738664 0.313427
O O2 0.757025 0.672337 0.415030
O O3 0.909808 0.536275 0.411341
O O4 0.826786 0.606721 0.156914
O O5 0.119134 0.774013 0.638398
O O6 0.173319 0.838013 0.929778
O O7 0.074011 0.669928 0.883542
O O8 0.979624 0.860743 0.814757
O O9 0.354558 0.752380 0.963665
O O10 0.270017 0.580721 0.906363
O O11 0.448760 0.612413 0.112146
O O12 0.051526 0.896800 0.406484
O O13 0.827596 0.910220 0.337027
O O14 0.202983 0.945457 0.637762
O O15 0.664294 0.047351 0.371331
O O16 0.650653 0.914176 0.140867
#
# Coordination Sequence:
#
# PCOD9344867 Si02
#       8
#     4   4   4   4   4   4   4   4
#     4  10  21  38  56  81 115 148 186 234 284 342
#     4  10  20  36  57  81 110 147 186 233 286 336
#     4   9  19  37  57  79 109 146 184 227 283 336
#     4  10  21  37  56  82 114 147 185 234 285 335
#     4  10  22  35  55  85 112 145 191 235 281 340
#     4   9  20  36  56  82 111 148 189 234 287 336
#     4   9  19  35  56  80 109 145 186 229 283 341
#     4   9  20  38  57  80 112 146 185 234 283 340
#
# _framework density 23.661176999999999
#
# number of rings (size 3 to 8) (size 9 to 14) (size 15 to 20)
#    0.000    2.500    0.000    1.500    0.000   13.000 
#    0.000    6.250    0.000    0.000    0.000    0.000 
#    0.000    0.000    0.000    0.000    0.000    0.000 
#
# Total GULP energy -178440.466986 kJ/mol
# GULP energy per Si atom -5576.264593 kJ/mol
# Density = 2.360732 g / cm^3
# Si number density = 23.661177 Si / 1000 Ang^3
#
#
#
# Elastic Constant Matrix: (Units=GPa)
#
#
# Indices 1 2 3 4 5 6 
#
# 1 26.2369 -3.2672 28.2474 0.0000 0.0000 0.0000
# 2 -3.2672 58.4663 21.7332 0.0000 0.0000 0.0000
# 3 28.2474 21.7332 61.7807 0.0000 0.0000 0.0000
# 4 0.0000 0.0000 0.0000 34.2769 0.0000 0.0000
# 5 0.0000 0.0000 0.0000 0.0000 11.7532 0.0000
# 6 0.0000 0.0000 0.0000 0.0000 0.0000 5.6509
#
#
#
# Elastic Compliance Matrix: (Units=1/GPa)
#
#
# Indices 1 2 3 4 5 6 
#
# 1 0.101101 0.026268 -0.055466 0.000000 0.000000 0.000000
# 2 0.026268 0.026502 -0.021333 0.000000 0.000000 0.000000
# 3 -0.055466 -0.021333 0.049051 0.000000 0.000000 0.000000
# 4 0.000000 0.000000 0.000000 0.029174 0.000000 0.000000
# 5 0.000000 0.000000 0.000000 0.000000 0.085083 0.000000
# 6 0.000000 0.000000 0.000000 0.000000 0.000000 0.176962
#
#
# Mechanical properties :
#
#
# Convention : Reuss Voigt Hill
#
# Bulk Modulus (GPa) = 13.22901 26.65677 19.94289
# Shear Modulus (GPa) = 8.41563 16.98758 12.70160
#
# Velocity S-wave (km/s) = 1.88797 2.68237 2.31943
# Velocity P-wave (km/s) = 3.21804 4.56990 3.95220
#
# Compressibility (1/GPa) = 0.07559143
#
# Stress axis : x y z
#
# Youngs Moduli (GPa) = 9.89105 37.73360 20.38696
#
# Poissons Ratio (x) = -0.99117 1.13078
# Poissons Ratio (y) = -0.25981 0.43491
# Poissons Ratio (z) = 0.54862 0.80496
#
# Static dielectric constant tensor:
#      x y z
#    x 1.976120 0.000000 0.000000 
#    y 0.000000 1.956390 0.000000 
#    z 0.000000 0.000000 1.891260 
# 
# From -- ./inp_files/3967.got.cif
#   From: 2010.05.17/outbox.cif.g08.bks.cpg/sg33_2_cif.got.tgz:3967.got - 2010.06.03 17:15:25.
