data_PCOD9344883
_publ_section_title
;
Structure prediction by ZEFSAII (Michael W. Deem and Ramdas Pophale) SiO2 
 PCOD9344883
Probable space group: P N A 21
;
_chemical_formula_sum "Si O2"
_cell_formula_units_Z 28
_cell_length_a 9.159733
_cell_length_b 9.459409
_cell_length_c 17.888496
_cell_angle_alpha 90.000000
_cell_angle_beta 90.000000
_cell_angle_gamma 90.000000
_cell_volume 1549.960556
_symmetry_space_group_name_H-M "P N A 21"
_symmetry_group_IT_number 33
_symmetry_cell_setting 'orthorhombic'
loop_
_space_group_symop_operation_xyz
x,y,z
-x,-y,1/2+z
1/2-x,1/2+y,1/2+z
1/2+x,1/2-y,z
loop_
_atom_site_type_symbol
_atom_site_label
_atom_site_fract_x
_atom_site_fract_y
_atom_site_fract_z
Si Si1 0.913214 0.430748 0.144010
Si Si2 0.245423 0.346768 0.899226
Si Si3 0.805994 0.541149 0.838450
Si Si4 0.357407 0.728043 0.719283
Si Si5 0.468401 0.830849 0.258239
Si Si6 0.484012 0.473960 0.805875
Si Si7 0.438570 0.088443 0.968697
O O1 0.775627 0.345736 0.177059
O O2 0.919824 0.583897 0.184730
O O3 0.053726 0.337833 0.168376
O O4 0.907725 0.435741 0.055082
O O5 0.158276 0.324213 0.820988
O O6 0.363632 0.461538 0.871331
O O7 0.342381 0.220344 0.935268
O O8 0.110913 0.385286 0.953697
O O9 0.806786 0.684616 0.791911
O O10 0.641095 0.489313 0.843733
O O11 0.885005 0.542736 0.918142
O O12 0.902424 0.427930 0.791862
O O13 0.458406 0.604179 0.751235
O O14 0.520070 0.669342 0.256197
#
# Coordination Sequence:
#
# PCOD9344883 Si02
#       7
#     4   4   4   4   4   4   4
#     4  11  23  39  60  91 132 162 198 265 319 361
#     4  11  19  33  63  91 111 160 213 243 293 379
#     4  10  21  37  60  88 118 159 211 258 297 369
#     4  11  23  37  62  92 121 161 211 254 310 369
#     4  10  20  36  62  90 113 161 211 250 296 372
#     4  12  19  37  66  90 111 152 220 257 289 362
#     4  11  21  37  61  90 130 161 206 259 316 360
#
# _framework density 18.064975
#
# number of rings (size 3 to 8) (size 9 to 14) (size 15 to 20)
#    0.000    1.143    7.143    0.857    0.000    0.000 
#    0.000    0.000    9.429    0.000    0.000    0.000 
#    0.000    0.000    0.000    0.000    0.000    0.000 
#
# Total GULP energy -156064.223905 kJ/mol
# GULP energy per Si atom -5573.722282 kJ/mol
# Density = 1.802386 g / cm^3
# Si number density = 18.064975 Si / 1000 Ang^3
#
#
#
# Elastic Constant Matrix: (Units=GPa)
#
#
# Indices 1 2 3 4 5 6 
#
# 1 102.2593 13.8333 25.6002 0.0000 0.0000 0.0000
# 2 13.8333 70.8595 33.3437 0.0000 0.0000 0.0000
# 3 25.6002 33.3437 123.9851 0.0000 0.0000 0.0000
# 4 0.0000 0.0000 0.0000 18.3772 0.0000 0.0000
# 5 0.0000 0.0000 0.0000 0.0000 19.3183 0.0000
# 6 0.0000 0.0000 0.0000 0.0000 0.0000 26.9245
#
#
#
# Elastic Compliance Matrix: (Units=1/GPa)
#
#
# Indices 1 2 3 4 5 6 
#
# 1 0.010396 -0.001167 -0.001833 0.000000 0.000000 0.000000
# 2 -0.001167 0.016288 -0.004139 0.000000 0.000000 0.000000
# 3 -0.001833 -0.004139 0.009557 0.000000 0.000000 0.000000
# 4 0.000000 0.000000 0.000000 0.054415 0.000000 0.000000
# 5 0.000000 0.000000 0.000000 0.000000 0.051764 0.000000
# 6 0.000000 0.000000 0.000000 0.000000 0.000000 0.037141
#
#
# Mechanical properties :
#
#
# Convention : Reuss Voigt Hill
#
# Bulk Modulus (GPa) = 45.53184 49.18425 47.35805
# Shear Modulus (GPa) = 24.85577 27.87913 26.36745
#
# Velocity S-wave (km/s) = 3.71335 3.93271 3.82460
# Velocity P-wave (km/s) = 6.60640 6.92149 6.76578
#
# Compressibility (1/GPa) = 0.02196265
#
# Stress axis : x y z
#
# Youngs Moduli (GPa) = 96.19332 61.39439 104.63416
#
# Poissons Ratio (x) = 0.07165 0.19175
# Poissons Ratio (y) = 0.11227 0.43313
# Poissons Ratio (z) = 0.17629 0.25414
#
# Static dielectric constant tensor:
#      x y z
#    x 1.659560 0.000000 0.000000 
#    y 0.000000 1.642150 0.000000 
#    z 0.000000 0.000000 1.599720 
# 
# From -- ./inp_files/8459.got.cif
#   From: 2010.05.17/outbox.cif.g08.bks.cpg/sg33_5_cif.got.tgz:8459.got - 2010.06.03 17:15:25.
