data_PCOD9344403
_publ_section_title
;
Structure prediction by ZEFSAII (Michael W. Deem and Ramdas Pophale) SiO2 
 PCOD9344403
Probable space group: P N A 21
;
_chemical_formula_sum "Si O2"
_cell_formula_units_Z 28
_cell_length_a 8.914025
_cell_length_b 9.406567
_cell_length_c 17.641765
_cell_angle_alpha 90.000000
_cell_angle_beta 90.000000
_cell_angle_gamma 90.000000
_cell_volume 1479.268583
_symmetry_space_group_name_H-M "P N A 21"
_symmetry_group_IT_number 33
_symmetry_cell_setting 'orthorhombic'
loop_
_space_group_symop_operation_xyz
x,y,z
-x,-y,1/2+z
1/2-x,1/2+y,1/2+z
1/2+x,1/2-y,z
loop_
_atom_site_type_symbol
_atom_site_label
_atom_site_fract_x
_atom_site_fract_y
_atom_site_fract_z
Si Si1 0.790548 0.080163 0.446410
Si Si2 0.138661 0.126568 0.489796
Si Si3 0.678138 0.456804 0.778355
Si Si4 0.198431 0.180701 0.049710
Si Si5 0.095445 0.916930 0.623614
Si Si6 0.429107 0.225326 0.817788
Si Si7 0.323709 0.879710 0.416795
O O1 0.695054 0.215253 0.473365
O O2 0.967496 0.107139 0.462309
O O3 0.785008 0.034783 0.358008
O O4 0.741014 0.948848 0.499369
O O5 0.138125 0.057698 0.574289
O O6 0.253181 0.025640 0.443984
O O7 0.638827 0.559835 0.710050
O O8 0.536464 0.351026 0.789096
O O9 0.822749 0.358503 0.760070
O O10 0.316757 0.281904 0.089947
O O11 0.078357 0.116377 0.107722
O O12 0.121708 0.284132 0.987280
O O13 0.540602 0.114933 0.858383
O O14 0.312593 0.294352 0.877106
#
# Coordination Sequence:
#
# PCOD9344403 Si02
#       7
#     4   4   4   4   4   4   4
#     4  11  22  37  62  91 121 160 215 253 302 365
#     4  10  23  37  59  90 124 158 206 262 301 370
#     4  11  23  39  62  95 127 158 208 264 315 371
#     4  10  20  40  66  86 120 168 210 250 301 394
#     4  10  24  42  60  91 128 160 207 256 325 368
#     4  10  19  36  66  87 121 161 208 253 308 377
#     4  10  17  37  63  92 109 161 216 252 292 367
#
# _framework density 18.928273000000001
#
# number of rings (size 3 to 8) (size 9 to 14) (size 15 to 20)
#    0.000    1.714    4.286    1.714    2.000    4.571 
#    0.000    1.429    0.000    0.000    0.000    0.000 
#    0.000    0.000    0.000    0.000    0.000    0.000 
#
# Total GULP energy -156176.003073 kJ/mol
# GULP energy per Si atom -5577.714395 kJ/mol
# Density = 1.888519 g / cm^3
# Si number density = 18.928273 Si / 1000 Ang^3
#
#
#
# Elastic Constant Matrix: (Units=GPa)
#
#
# Indices 1 2 3 4 5 6 
#
# 1 71.1720 19.7962 18.2724 0.0000 0.0000 0.0000
# 2 19.7962 106.2357 31.6056 0.0000 0.0000 0.0000
# 3 18.2724 31.6056 64.9492 0.0000 0.0000 0.0000
# 4 0.0000 0.0000 0.0000 19.4310 0.0000 0.0000
# 5 0.0000 0.0000 0.0000 0.0000 13.8527 0.0000
# 6 0.0000 0.0000 0.0000 0.0000 0.0000 22.6536
#
#
#
# Elastic Compliance Matrix: (Units=1/GPa)
#
#
# Indices 1 2 3 4 5 6 
#
# 1 0.015451 -0.001854 -0.003444 0.000000 0.000000 0.000000
# 2 -0.001854 0.011229 -0.004943 0.000000 0.000000 0.000000
# 3 -0.003444 -0.004943 0.018771 0.000000 0.000000 0.000000
# 4 0.000000 0.000000 0.000000 0.051464 0.000000 0.000000
# 5 0.000000 0.000000 0.000000 0.000000 0.072188 0.000000
# 6 0.000000 0.000000 0.000000 0.000000 0.000000 0.044143
#
#
# Mechanical properties :
#
#
# Convention : Reuss Voigt Hill
#
# Bulk Modulus (GPa) = 40.05168 42.41170 41.23169
# Shear Modulus (GPa) = 20.65682 22.69964 21.67823
#
# Velocity S-wave (km/s) = 3.30710 3.46677 3.38787
# Velocity P-wave (km/s) = 5.98232 6.20321 6.09377
#
# Compressibility (1/GPa) = 0.02496774
#
# Stress axis : x y z
#
# Youngs Moduli (GPa) = 64.72257 89.05493 53.27414
#
# Poissons Ratio (x) = 0.16514 0.18350
# Poissons Ratio (y) = 0.12002 0.26331
# Poissons Ratio (z) = 0.22293 0.44016
#
# Static dielectric constant tensor:
#      x y z
#    x 1.658690 0.000000 0.000000 
#    y 0.000000 1.667640 0.000000 
#    z 0.000000 0.000000 1.656390 
# 
# From -- ./inp_files/8450.got.cif
#   From: 2010.05.17/outbox.cif.g08.bks.cpg/sg33_5_cif.got.tgz:8450.got - 2010.06.03 17:15:25.
