data_PCOD9344273
_publ_section_title
;
Structure prediction by ZEFSAII (Michael W. Deem and Ramdas Pophale) SiO2 
 PCOD9344273
Probable space group: P B A 2
;
_chemical_formula_sum "Si O2"
_cell_formula_units_Z 20
_cell_length_a 15.415725
_cell_length_b 10.051673
_cell_length_c 5.071391
_cell_angle_alpha 90.000000
_cell_angle_beta 90.000000
_cell_angle_gamma 90.000000
_cell_volume 785.831442
_symmetry_space_group_name_H-M "P B A 2"
_symmetry_group_IT_number 32
_symmetry_cell_setting 'orthorhombic'
loop_
_space_group_symop_operation_xyz
x,y,z
-x,-y,z
1/2-x,1/2+y,z
1/2+x,1/2-y,z
loop_
_atom_site_type_symbol
_atom_site_label
_atom_site_fract_x
_atom_site_fract_y
_atom_site_fract_z
Si Si1 0.760529 0.567995 0.077790
Si Si2 0.422635 0.089537 0.954407
Si Si3 0.397395 0.249507 0.476916
Si Si4 0.906343 0.991139 0.739507
Si Si5 0.213541 0.178976 0.428862
O O1 0.839863 0.505442 0.915618
O O2 0.791520 0.709748 0.197421
O O3 0.744365 0.463414 0.315937
O O4 0.671109 0.548446 0.919445
O O5 0.402898 0.195908 0.182685
O O6 0.500000 0.000000 0.057273
O O7 0.449230 0.160676 0.684496
O O8 0.420642 0.401927 0.506269
O O9 0.297962 0.232536 0.579190
O O10 0.869026 0.855131 0.610306
O O11 0.000000 0.000000 0.878966
#
# Coordination Sequence:
#
# PCOD9344273 Si02
#       5
#     4   4   4   4   4
#     4  11  25  46  74 107 152 205 263 321 401 474
#     4  11  25  46  76 109 152 204 264 326 394 479
#     4  11  24  49  71 111 155 195 270 322 390 488
#     4  12  27  46  76 116 155 205 265 341 408 481
#     4  11  24  47  76 101 154 208 256 324 396 478
#
# _framework density 25.450748000000001
#
# number of rings (size 3 to 8) (size 9 to 14) (size 15 to 20)
#    0.000    0.800    4.000    3.000    2.800    2.400 
#    0.000    0.000    0.000    0.000    0.000    0.000 
#    0.000    0.000    0.000    0.000    0.000    0.000 
#
# Total GULP energy -111795.366514 kJ/mol
# GULP energy per Si atom -5589.768326 kJ/mol
# Density = 2.539282 g / cm^3
# Si number density = 25.450748 Si / 1000 Ang^3
#
#
#
# Elastic Constant Matrix: (Units=GPa)
#
#
# Indices 1 2 3 4 5 6 
#
# 1 141.8158 33.3438 19.0917 0.0000 0.0000 0.0000
# 2 33.3438 118.5117 39.2028 0.0000 0.0000 0.0000
# 3 19.0917 39.2028 87.2633 0.0000 0.0000 0.0000
# 4 0.0000 0.0000 0.0000 39.8791 0.0000 0.0000
# 5 0.0000 0.0000 0.0000 0.0000 24.6271 0.0000
# 6 0.0000 0.0000 0.0000 0.0000 0.0000 29.1678
#
#
#
# Elastic Compliance Matrix: (Units=1/GPa)
#
#
# Indices 1 2 3 4 5 6 
#
# 1 0.007601 -0.001866 -0.000825 0.000000 0.000000 0.000000
# 2 -0.001866 0.010369 -0.004250 0.000000 0.000000 0.000000
# 3 -0.000825 -0.004250 0.013549 0.000000 0.000000 0.000000
# 4 0.000000 0.000000 0.000000 0.025076 0.000000 0.000000
# 5 0.000000 0.000000 0.000000 0.000000 0.040606 0.000000
# 6 0.000000 0.000000 0.000000 0.000000 0.000000 0.034284
#
#
# Mechanical properties :
#
#
# Convention : Reuss Voigt Hill
#
# Bulk Modulus (GPa) = 56.69527 58.98529 57.84028
# Shear Modulus (GPa) = 33.05885 35.79830 34.42858
#
# Velocity S-wave (km/s) = 3.60798 3.75450 3.68197
# Velocity P-wave (km/s) = 6.29933 6.48240 6.39152
#
# Compressibility (1/GPa) = 0.01763815
#
# Stress axis : x y z
#
# Youngs Moduli (GPa) = 131.55953 96.44329 73.80451
#
# Poissons Ratio (x) = 0.17994 0.06087
# Poissons Ratio (y) = 0.24546 0.31367
# Poissons Ratio (z) = 0.10851 0.40988
#
# Static dielectric constant tensor:
#      x y z
#    x 2.073100 0.000000 0.000000 
#    y 0.000000 2.048620 0.000000 
#    z 0.000000 0.000000 2.020700 
# 
# From -- ./inp_files/1378.got.cif
#   From: 2010.05.17/outbox.cif.g08.bks.cpg/sg32_1_cif.got.tgz:1378.got - 2010.06.03 17:12:27.
