data_PCOD9344740
_publ_section_title
;
Structure prediction by ZEFSAII (Michael W. Deem and Ramdas Pophale) SiO2 
 PCOD9344740
Probable space group: P N A 21
;
_chemical_formula_sum "Si O2"
_cell_formula_units_Z 28
_cell_length_a 5.578823
_cell_length_b 18.524427
_cell_length_c 12.955712
_cell_angle_alpha 90.000000
_cell_angle_beta 90.000000
_cell_angle_gamma 90.000000
_cell_volume 1338.901571
_symmetry_space_group_name_H-M "P N A 21"
_symmetry_group_IT_number 33
_symmetry_cell_setting 'orthorhombic'
loop_
_space_group_symop_operation_xyz
x,y,z
-x,-y,1/2+z
1/2-x,1/2+y,1/2+z
1/2+x,1/2-y,z
loop_
_atom_site_type_symbol
_atom_site_label
_atom_site_fract_x
_atom_site_fract_y
_atom_site_fract_z
Si Si1 0.102800 0.129444 0.581300
Si Si2 0.624792 0.705357 0.892641
Si Si3 0.900964 0.432880 0.856616
Si Si4 0.128658 0.936278 0.763478
Si Si5 0.247331 0.970122 0.190248
Si Si6 0.254458 0.708316 0.273203
Si Si7 0.128346 0.486294 0.048866
O O1 0.919180 0.164316 0.501204
O O2 0.245819 0.186357 0.650665
O O3 0.958486 0.085786 0.668021
O O4 0.256838 0.065252 0.528774
O O5 0.876055 0.748614 0.886222
O O6 0.639136 0.643989 0.804950
O O7 0.755706 0.507598 0.842166
O O8 0.747850 0.360597 0.850896
O O9 0.046226 0.429932 0.749898
O O10 0.094561 0.439071 0.947510
O O11 0.241038 0.949736 0.648317
O O12 0.856099 0.963587 0.754600
O O13 0.356544 0.999937 0.085567
O O14 0.503747 0.750288 0.290861
#
# Coordination Sequence:
#
# PCOD9344740 Si02
#       7
#     4   4   4   4   4   4   4
#     4  11  22  42  65 106 133 183 222 292 355 423
#     4  12  29  44  70 105 145 187 226 290 367 428
#     4  11  22  41  69  96 136 181 238 287 341 418
#     4  10  23  44  66  99 134 184 239 292 340 420
#     4  10  19  39  70  98 134 172 237 292 345 394
#     4  12  25  42  65  97 146 179 218 283 359 420
#     4  10  22  38  73 101 128 182 244 296 339 409
#
# _framework density 20.912666000000002
#
# number of rings (size 3 to 8) (size 9 to 14) (size 15 to 20)
#    0.000    1.143    4.286    3.429    8.000    1.143 
#    0.000    1.429    0.000    0.000    0.000    0.000 
#    0.000    0.000    0.000    0.000    0.000    0.000 
#
# Total GULP energy -156195.804277 kJ/mol
# GULP energy per Si atom -5578.421581 kJ/mol
# Density = 2.086507 g / cm^3
# Si number density = 20.912666 Si / 1000 Ang^3
#
#
#
# Elastic Constant Matrix: (Units=GPa)
#
#
# Indices 1 2 3 4 5 6 
#
# 1 69.8297 23.2426 6.8183 0.0000 0.0000 0.0000
# 2 23.2426 85.4580 30.7803 0.0000 0.0000 0.0000
# 3 6.8183 30.7803 54.7543 0.0000 0.0000 0.0000
# 4 0.0000 0.0000 0.0000 28.7747 0.0000 0.0000
# 5 0.0000 0.0000 0.0000 0.0000 24.1948 0.0000
# 6 0.0000 0.0000 0.0000 0.0000 0.0000 40.3626
#
#
#
# Elastic Compliance Matrix: (Units=1/GPa)
#
#
# Indices 1 2 3 4 5 6 
#
# 1 0.015760 -0.004488 0.000561 0.000000 0.000000 0.000000
# 2 -0.004488 0.015951 -0.008408 0.000000 0.000000 0.000000
# 3 0.000561 -0.008408 0.022920 0.000000 0.000000 0.000000
# 4 0.000000 0.000000 0.000000 0.034753 0.000000 0.000000
# 5 0.000000 0.000000 0.000000 0.000000 0.041331 0.000000
# 6 0.000000 0.000000 0.000000 0.000000 0.000000 0.024775
#
#
# Mechanical properties :
#
#
# Convention : Reuss Voigt Hill
#
# Bulk Modulus (GPa) = 33.37833 36.85827 35.11830
# Shear Modulus (GPa) = 26.29543 28.61315 27.45429
#
# Velocity S-wave (km/s) = 3.54982 3.70296 3.62720
# Velocity P-wave (km/s) = 5.72688 5.99547 5.86271
#
# Compressibility (1/GPa) = 0.02995955
#
# Stress axis : x y z
#
# Youngs Moduli (GPa) = 63.45299 62.69331 43.62986
#
# Poissons Ratio (x) = 0.28138 -0.02446
# Poissons Ratio (y) = 0.28479 0.36683
# Poissons Ratio (z) = -0.03557 0.52711
#
# Static dielectric constant tensor:
#      x y z
#    x 1.820160 0.000000 0.000000 
#    y 0.000000 1.815450 0.000000 
#    z 0.000000 0.000000 1.790900 
# 
# From -- ./inp_files/5488.got.cif
#   From: 2010.05.17/outbox.cif.g08.bks.cpg/sg33_3_cif.got.tgz:5488.got - 2010.06.03 17:15:25.
