data_PCOD9344047
_publ_section_title
;
Structure prediction by ZEFSAII (Michael W. Deem and Ramdas Pophale) SiO2 
 PCOD9344047
Probable space group: P B A 2
;
_chemical_formula_sum "Si O2"
_cell_formula_units_Z 20
_cell_length_a 14.387355
_cell_length_b 10.881819
_cell_length_c 5.053546
_cell_angle_alpha 90.000000
_cell_angle_beta 90.000000
_cell_angle_gamma 90.000000
_cell_volume 791.186159
_symmetry_space_group_name_H-M "P B A 2"
_symmetry_group_IT_number 32
_symmetry_cell_setting 'orthorhombic'
loop_
_space_group_symop_operation_xyz
x,y,z
-x,-y,z
1/2-x,1/2+y,z
1/2+x,1/2-y,z
loop_
_atom_site_type_symbol
_atom_site_label
_atom_site_fract_x
_atom_site_fract_y
_atom_site_fract_z
Si Si1 0.000000 0.000000 0.296371
Si Si2 0.151049 0.825747 0.055481
Si Si3 0.651049 0.174254 0.115673
Si Si4 0.100735 0.687972 0.556647
Si Si5 0.399265 0.687972 0.614507
Si Si6 0.500000 0.000000 0.874785
O O1 0.920976 0.944620 0.492214
O O2 0.059481 0.907481 0.112460
O O3 0.250000 0.892608 0.085577
O O4 0.138897 0.713451 0.266331
O O5 0.156853 0.765935 0.769188
O O6 0.656855 0.234065 0.401966
O O7 0.638897 0.286549 0.904823
O O8 0.559481 0.092519 0.058695
O O9 0.079024 0.555379 0.678941
O O10 0.999999 0.749999 0.585576
#
# Coordination Sequence:
#
# PCOD9344047 Si02
#       6
#     2   4   4   4   4   2
#     4  10  22  42  70  94 128 180 220 260 328 392
#     4  11  24  42  65  99 135 170 219 272 321 383
#     4  11  24  42  65  99 135 170 219 272 321 383
#     4  10  22  41  64  91 129 170 214 270 324 381
#     4  10  22  41  64  91 129 170 214 270 324 381
#     4  10  22  42  70  94 128 180 220 260 328 392
#
# _framework density 25.278503000000001
#
# number of rings (size 3 to 8) (size 9 to 14) (size 15 to 20)
#    0.000    1.600    0.000    6.000    0.000   16.000 
#    0.000   12.000    0.000    0.000    0.000    0.000 
#    0.000    0.000    0.000    0.000    0.000    0.000 
#
# Total GULP energy -111715.526705 kJ/mol
# GULP energy per Si atom -5585.776335 kJ/mol
# Density = 2.522097 g / cm^3
# Si number density = 25.278503 Si / 1000 Ang^3
#
#
#
# Elastic Constant Matrix: (Units=GPa)
#
#
# Indices 1 2 3 4 5 6 
#
# 1 129.9965 8.7985 8.4256 0.0000 0.0000 0.0000
# 2 8.7985 61.6626 13.0190 0.0000 0.0000 0.0000
# 3 8.4256 13.0190 103.1056 0.0000 0.0000 0.0000
# 4 0.0000 0.0000 0.0000 24.2168 0.0000 0.0000
# 5 0.0000 0.0000 0.0000 0.0000 31.5935 0.0000
# 6 0.0000 0.0000 0.0000 0.0000 0.0000 10.0351
#
#
#
# Elastic Compliance Matrix: (Units=1/GPa)
#
#
# Indices 1 2 3 4 5 6 
#
# 1 0.007794 -0.001004 -0.000510 0.000000 0.000000 0.000000
# 2 -0.001004 0.016791 -0.002038 0.000000 0.000000 0.000000
# 3 -0.000510 -0.002038 0.009998 0.000000 0.000000 0.000000
# 4 0.000000 0.000000 0.000000 0.041294 0.000000 0.000000
# 5 0.000000 0.000000 0.000000 0.000000 0.031652 0.000000
# 6 0.000000 0.000000 0.000000 0.000000 0.000000 0.099650
#
#
# Mechanical properties :
#
#
# Convention : Reuss Voigt Hill
#
# Bulk Modulus (GPa) = 36.39370 39.47231 37.93300
# Shear Modulus (GPa) = 22.37714 30.80387 26.59050
#
# Velocity S-wave (km/s) = 2.97850 3.49460 3.24682
# Velocity P-wave (km/s) = 5.12415 5.65083 5.39392
#
# Compressibility (1/GPa) = 0.02747728
#
# Stress axis : x y z
#
# Youngs Moduli (GPa) = 128.31124 59.55601 100.02173
#
# Poissons Ratio (x) = 0.05982 0.05102
# Poissons Ratio (y) = 0.12887 0.20385
# Poissons Ratio (z) = 0.06545 0.12138
#
# Static dielectric constant tensor:
#      x y z
#    x 0.899970 0.000000 0.000000 
#    y 0.000000 2.194220 0.000000 
#    z 0.000000 0.000000 2.034190 
# 
# From -- ./inp_files/781.got.cif
#   From: 2010.05.17/outbox.cif.g08.bks.cpg/sg32_1_cif.got.tgz:781.got - 2010.06.03 17:12:27.
