data_PCOD9344350
_publ_section_title
;
Structure prediction by ZEFSAII (Michael W. Deem and Ramdas Pophale) SiO2 
 PCOD9344350
Probable space group: P N A 21
;
_chemical_formula_sum "Si O2"
_cell_formula_units_Z 28
_cell_length_a 29.598505
_cell_length_b 6.676675
_cell_length_c 5.498272
_cell_angle_alpha 90.000000
_cell_angle_beta 90.000000
_cell_angle_gamma 90.000000
_cell_volume 1086.566304
_symmetry_space_group_name_H-M "P N A 21"
_symmetry_group_IT_number 33
_symmetry_cell_setting 'orthorhombic'
loop_
_space_group_symop_operation_xyz
x,y,z
-x,-y,1/2+z
1/2-x,1/2+y,1/2+z
1/2+x,1/2-y,z
loop_
_atom_site_type_symbol
_atom_site_label
_atom_site_fract_x
_atom_site_fract_y
_atom_site_fract_z
Si Si1 0.061324 0.414223 0.037800
Si Si2 0.382059 0.518410 0.038583
Si Si3 0.597340 0.998235 0.537723
Si Si4 0.354471 0.606418 0.538636
Si Si5 0.776848 0.561450 0.542367
Si Si6 0.984553 0.107674 0.051488
Si Si7 0.802593 0.339297 0.042399
O O1 0.071061 0.532666 0.284922
O O2 0.099259 0.237988 0.037660
O O3 0.070562 0.531338 0.789316
O O4 0.012636 0.313164 0.040205
O O5 0.389860 0.762590 0.037460
O O6 0.356603 0.482266 0.291750
O O7 0.357095 0.480827 0.784353
O O8 0.430674 0.414272 0.041698
O O9 0.643730 0.877352 0.540222
O O10 0.311724 0.751819 0.540404
O O11 0.725638 0.635076 0.539236
O O12 0.786781 0.442004 0.295429
O O13 0.786250 0.447113 0.793360
O O14 0.001178 0.990004 0.809587
#
# Coordination Sequence:
#
# PCOD9344350 Si02
#       7
#     4   4   4   4   4   4   4
#     4  10  16  25  41  60  96 128 168 190 255 315
#     4  10  16  25  41  60  96 128 168 190 255 315
#     4  10  16  29  44  61  91 132 167 192 254 316
#     4  10  16  29  44  61  91 132 167 192 254 316
#     4  12  23  38  57  80 105 141 187 227 269 319
#     4  12  16  20  34  62  86 130 158 200 230 312
#     4  12  23  38  57  80 105 141 187 227 269 319
#
# _framework density 25.769252000000002
#
# number of rings (size 3 to 8) (size 9 to 14) (size 15 to 20)
#    0.000    1.143   11.429    0.857    0.000    0.000 
#    0.000    0.000    0.000    0.000    0.000    0.000 
#    0.000    0.000    0.000   43.714    0.000    0.571 
#
# Total GULP energy -156940.548302 kJ/mol
# GULP energy per Si atom -5605.019582 kJ/mol
# Density = 2.571060 g / cm^3
# Si number density = 25.769252 Si / 1000 Ang^3
#
#
#
# Elastic Constant Matrix: (Units=GPa)
#
#
# Indices 1 2 3 4 5 6 
#
# 1 181.4721 26.7855 39.4130 0.0000 0.0000 0.0000
# 2 26.7855 58.4027 16.8182 0.0000 0.0000 0.0000
# 3 39.4130 16.8182 207.6299 0.0000 0.0000 0.0000
# 4 0.0000 0.0000 0.0000 45.1003 0.0000 0.0000
# 5 0.0000 0.0000 0.0000 0.0000 52.3073 0.0000
# 6 0.0000 0.0000 0.0000 0.0000 0.0000 45.9496
#
#
#
# Elastic Compliance Matrix: (Units=1/GPa)
#
#
# Indices 1 2 3 4 5 6 
#
# 1 0.006089 -0.002519 -0.000952 0.000000 0.000000 0.000000
# 2 -0.002519 0.018573 -0.001026 0.000000 0.000000 0.000000
# 3 -0.000952 -0.001026 0.005080 0.000000 0.000000 0.000000
# 4 0.000000 0.000000 0.000000 0.022173 0.000000 0.000000
# 5 0.000000 0.000000 0.000000 0.000000 0.019118 0.000000
# 6 0.000000 0.000000 0.000000 0.000000 0.000000 0.021763
#
#
# Mechanical properties :
#
#
# Convention : Reuss Voigt Hill
#
# Bulk Modulus (GPa) = 48.19567 68.17090 58.18329
# Shear Modulus (GPa) = 45.99588 52.97063 49.48325
#
# Velocity S-wave (km/s) = 4.22941 4.53876 4.38681
# Velocity P-wave (km/s) = 6.52640 7.34704 6.94884
#
# Compressibility (1/GPa) = 0.02074875
#
# Stress axis : x y z
#
# Youngs Moduli (GPa) = 164.23210 53.84125 196.84747
#
# Poissons Ratio (x) = 0.13560 0.18736
# Poissons Ratio (y) = 0.41362 0.20204
# Poissons Ratio (z) = 0.15632 0.05526
#
# Static dielectric constant tensor:
#      x y z
#    x 1.941860 0.000000 0.000000 
#    y 0.000000 2.091560 0.000000 
#    z 0.000000 0.000000 2.284660 
# 
# From -- ./inp_files/2428.got.cif
#   From: 2010.05.17/outbox.cif.g08.bks.cpg/sg33_2_cif.got.tgz:2428.got - 2010.06.03 17:15:25.
