data_PCOD9344696
_publ_section_title
;
Structure prediction by ZEFSAII (Michael W. Deem and Ramdas Pophale) SiO2 
 PCOD9344696
Probable space group: P N A 21
;
_chemical_formula_sum "Si O2"
_cell_formula_units_Z 28
_cell_length_a 27.734746
_cell_length_b 5.628305
_cell_length_c 6.876907
_cell_angle_alpha 90.000000
_cell_angle_beta 90.000000
_cell_angle_gamma 90.000000
_cell_volume 1073.482498
_symmetry_space_group_name_H-M "P N A 21"
_symmetry_group_IT_number 33
_symmetry_cell_setting 'orthorhombic'
loop_
_space_group_symop_operation_xyz
x,y,z
-x,-y,1/2+z
1/2-x,1/2+y,1/2+z
1/2+x,1/2-y,z
loop_
_atom_site_type_symbol
_atom_site_label
_atom_site_fract_x
_atom_site_fract_y
_atom_site_fract_z
Si Si1 0.072644 0.865113 0.277720
Si Si2 0.942328 0.480295 0.468287
Si Si3 0.169249 0.946444 0.624638
Si Si4 0.647686 0.058163 0.693197
Si Si5 0.983315 0.159592 0.135750
Si Si6 0.673005 0.535609 0.094410
Si Si7 0.718187 0.039138 0.046644
O O1 0.061278 0.911016 0.502051
O O2 0.121026 0.977780 0.194431
O O3 0.074771 0.603621 0.181269
O O4 0.023333 0.968966 0.186421
O O5 0.897217 0.573214 0.343193
O O6 0.962337 0.272209 0.330496
O O7 0.986899 0.650928 0.508049
O O8 0.148175 0.687040 0.573156
O O9 0.224560 0.955518 0.558736
O O10 0.148506 0.203586 0.569508
O O11 0.165611 0.951579 0.860717
O O12 0.695491 0.046014 0.829314
O O13 0.700783 0.290539 0.136732
O O14 0.698928 0.789588 0.137674
#
# Coordination Sequence:
#
# PCOD9344696 Si02
#       7
#     4   4   4   4   4   4   4
#     4  12  24  45  70 102 148 184 242 297 368 432
#     4  12  24  45  70 102 148 184 242 297 368 432
#     4  10  19  37  64  91 124 174 231 278 361 417
#     4  10  22  39  64  93 133 183 219 298 355 420
#     4  12  26  42  74 108 136 200 242 300 366 442
#     4  10  22  39  64  93 133 183 219 298 355 420
#     4  10  19  37  64  91 124 174 231 278 361 417
#
# _framework density 26.083331000000001
#
# number of rings (size 3 to 8) (size 9 to 14) (size 15 to 20)
#    0.000    1.143    5.714    2.571    0.000    0.000 
#    0.000    8.571    0.000    0.000    0.000    0.000 
#    0.000    0.000    0.000    0.000    0.000    0.000 
#
# Total GULP energy -156734.506714 kJ/mol
# GULP energy per Si atom -5597.660954 kJ/mol
# Density = 2.602396 g / cm^3
# Si number density = 26.083331 Si / 1000 Ang^3
#
#
#
# Elastic Constant Matrix: (Units=GPa)
#
#
# Indices 1 2 3 4 5 6 
#
# 1 113.3508 59.4698 7.9218 0.0000 0.0000 0.0000
# 2 59.4698 187.7467 20.2923 0.0000 0.0000 0.0000
# 3 7.9218 20.2923 89.8754 0.0000 0.0000 0.0000
# 4 0.0000 0.0000 0.0000 22.0472 0.0000 0.0000
# 5 0.0000 0.0000 0.0000 0.0000 41.9992 0.0000
# 6 0.0000 0.0000 0.0000 0.0000 0.0000 42.8849
#
#
#
# Elastic Compliance Matrix: (Units=1/GPa)
#
#
# Indices 1 2 3 4 5 6 
#
# 1 0.010583 -0.003333 -0.000180 0.000000 0.000000 0.000000
# 2 -0.003333 0.006509 -0.001176 0.000000 0.000000 0.000000
# 3 -0.000180 -0.001176 0.011408 0.000000 0.000000 0.000000
# 4 0.000000 0.000000 0.000000 0.045357 0.000000 0.000000
# 5 0.000000 0.000000 0.000000 0.000000 0.023810 0.000000
# 6 0.000000 0.000000 0.000000 0.000000 0.000000 0.023318
#
#
# Mechanical properties :
#
#
# Convention : Reuss Voigt Hill
#
# Bulk Modulus (GPa) = 52.29513 62.92675 57.61094
# Shear Modulus (GPa) = 36.56625 41.60553 39.08589
#
# Velocity S-wave (km/s) = 3.74826 3.99820 3.87525
# Velocity P-wave (km/s) = 6.23100 6.74476 6.49297
#
# Compressibility (1/GPa) = 0.01912224
#
# Stress axis : x y z
#
# Youngs Moduli (GPa) = 94.48791 153.63068 87.65856
#
# Poissons Ratio (x) = 0.51203 0.01581
# Poissons Ratio (y) = 0.31491 0.10308
# Poissons Ratio (z) = 0.01704 0.18065
#
# Static dielectric constant tensor:
#      x y z
#    x 2.004900 0.000000 0.000000 
#    y 0.000000 2.100540 0.000000 
#    z 0.000000 0.000000 2.052650 
# 
# From -- ./inp_files/5270.got.cif
#   From: 2010.05.17/outbox.cif.g08.bks.cpg/sg33_3_cif.got.tgz:5270.got - 2010.06.03 17:15:25.
