data_PCOD9344935
_publ_section_title
;
Structure prediction by ZEFSAII (Michael W. Deem and Ramdas Pophale) SiO2 
 PCOD9344935
Probable space group: P N A 21
;
_chemical_formula_sum "Si O2"
_cell_formula_units_Z 32
_cell_length_a 12.170255
_cell_length_b 12.479116
_cell_length_c 10.315010
_cell_angle_alpha 90.000000
_cell_angle_beta 90.000000
_cell_angle_gamma 90.000000
_cell_volume 1566.582075
_symmetry_space_group_name_H-M "P N A 21"
_symmetry_group_IT_number 33
_symmetry_cell_setting 'orthorhombic'
loop_
_space_group_symop_operation_xyz
x,y,z
-x,-y,1/2+z
1/2-x,1/2+y,1/2+z
1/2+x,1/2-y,z
loop_
_atom_site_type_symbol
_atom_site_label
_atom_site_fract_x
_atom_site_fract_y
_atom_site_fract_z
Si Si1 0.614957 0.745155 0.551890
Si Si2 0.546987 0.333135 0.827399
Si Si3 0.358576 0.469726 0.725440
Si Si4 0.176606 0.965445 0.931483
Si Si5 0.813008 0.648433 0.404482
Si Si6 0.494255 0.961336 0.583874
Si Si7 0.504886 0.669400 0.805396
Si Si8 0.081607 0.404732 0.359230
O O1 0.525568 0.694844 0.453873
O O2 0.732691 0.723196 0.490309
O O3 0.587407 0.869787 0.569124
O O4 0.589147 0.687216 0.686382
O O5 0.456467 0.380158 0.729044
O O6 0.630061 0.429368 0.859937
O O7 0.616262 0.224598 0.808508
O O8 0.310992 0.485281 0.583403
O O9 0.263961 0.430698 0.822869
O O10 0.415769 0.579176 0.771297
O O11 0.081455 0.876515 0.917569
O O12 0.289554 0.927109 0.869149
O O13 0.889831 0.587658 0.506868
O O14 0.467209 0.971673 0.736243
O O15 0.530171 0.060948 0.496843
O O16 0.446910 0.781810 0.831285
#
# Coordination Sequence:
#
# PCOD9344935 Si02
#       8
#     4   4   4   4   4   4   4   4
#     4   9  17  38  66  87 115 170 218 250 319 391
#     4   9  19  37  60  90 121 158 215 266 303 387
#     4  10  22  38  66  91 127 172 218 264 327 387
#     4  11  22  40  63  94 125 172 214 263 323 386
#     4  10  20  37  65  95 121 165 216 264 325 385
#     4  10  23  41  63  93 128 167 212 273 323 390
#     4  10  22  42  63  91 130 169 220 268 316 399
#     4  11  25  43  64  95 133 171 215 272 334 381
#
# _framework density 20.426635000000001
#
# number of rings (size 3 to 8) (size 9 to 14) (size 15 to 20)
#    0.000    2.000    1.250    1.500    1.750    2.000 
#    9.000    0.000    0.000    0.000    0.000    0.000 
#    0.000    0.000    0.000    0.000    0.000    0.000 
#
# Total GULP energy -178712.358044 kJ/mol
# GULP energy per Si atom -5584.761189 kJ/mol
# Density = 2.038014 g / cm^3
# Si number density = 20.426635 Si / 1000 Ang^3
#
#
#
# Elastic Constant Matrix: (Units=GPa)
#
#
# Indices 1 2 3 4 5 6 
#
# 1 70.7789 27.2757 18.5148 0.0000 0.0000 0.0000
# 2 27.2757 62.6252 23.7962 0.0000 0.0000 0.0000
# 3 18.5148 23.7962 78.3516 0.0000 0.0000 0.0000
# 4 0.0000 0.0000 0.0000 13.7218 0.0000 0.0000
# 5 0.0000 0.0000 0.0000 0.0000 15.0603 0.0000
# 6 0.0000 0.0000 0.0000 0.0000 0.0000 22.9025
#
#
#
# Elastic Compliance Matrix: (Units=1/GPa)
#
#
# Indices 1 2 3 4 5 6 
#
# 1 0.017259 -0.006746 -0.002030 0.000000 0.000000 0.000000
# 2 -0.006746 0.020688 -0.004689 0.000000 0.000000 0.000000
# 3 -0.002030 -0.004689 0.014667 0.000000 0.000000 0.000000
# 4 0.000000 0.000000 0.000000 0.072877 0.000000 0.000000
# 5 0.000000 0.000000 0.000000 0.000000 0.066400 0.000000
# 6 0.000000 0.000000 0.000000 0.000000 0.000000 0.043663
#
#
# Mechanical properties :
#
#
# Convention : Reuss Voigt Hill
#
# Bulk Modulus (GPa) = 38.93377 38.99214 38.96295
# Shear Modulus (GPa) = 18.44722 19.81486 19.13104
#
# Velocity S-wave (km/s) = 3.00842 3.11794 3.06367
# Velocity P-wave (km/s) = 5.58293 5.66501 5.62412
#
# Compressibility (1/GPa) = 0.02568464
#
# Stress axis : x y z
#
# Youngs Moduli (GPa) = 57.94074 48.33769 68.18170
#
# Poissons Ratio (x) = 0.32607 0.13838
# Poissons Ratio (y) = 0.39085 0.31971
# Poissons Ratio (z) = 0.11760 0.22666
#
# Static dielectric constant tensor:
#      x y z
#    x 1.716440 0.000000 0.000000 
#    y 0.000000 1.733290 0.000000 
#    z 0.000000 0.000000 1.713070 
# 
# From -- ./inp_files/6516.got.cif
#   From: 2010.05.17/outbox.cif.g08.bks.cpg/sg33_4_cif.got.tgz:6516.got - 2010.06.03 17:15:25.
