data_PCOD9344820
_publ_section_title
;
Structure prediction by ZEFSAII (Michael W. Deem and Ramdas Pophale) SiO2 
 PCOD9344820
Probable space group: P N A 21
;
_chemical_formula_sum "Si O2"
_cell_formula_units_Z 24
_cell_length_a 8.922402
_cell_length_b 26.001600
_cell_length_c 4.967950
_cell_angle_alpha 90.000000
_cell_angle_beta 90.000000
_cell_angle_gamma 90.000000
_cell_volume 1152.548144
_symmetry_space_group_name_H-M "P N A 21"
_symmetry_group_IT_number 33
_symmetry_cell_setting 'orthorhombic'
loop_
_space_group_symop_operation_xyz
x,y,z
-x,-y,1/2+z
1/2-x,1/2+y,1/2+z
1/2+x,1/2-y,z
loop_
_atom_site_type_symbol
_atom_site_label
_atom_site_fract_x
_atom_site_fract_y
_atom_site_fract_z
Si Si1 0.171271 0.610215 0.166110
Si Si2 0.743785 0.824809 0.631937
Si Si3 0.839995 0.611906 0.445410
Si Si4 0.107649 0.500302 0.982647
Si Si5 0.718918 0.177761 0.473738
Si Si6 0.987995 0.247798 0.274244
O O1 0.268908 0.632464 0.407324
O O2 0.003914 0.612116 0.298952
O O3 0.202766 0.646671 0.911153
O O4 0.191907 0.551429 0.076467
O O5 0.886547 0.788031 0.644741
O O6 0.601364 0.787258 0.581196
O O7 0.798585 0.551938 0.458938
O O8 0.827835 0.637709 0.737643
O O9 0.747066 0.647150 0.243712
O O10 0.021413 0.511252 0.704369
O O11 0.580301 0.217513 0.486981
O O12 0.861586 0.211511 0.396288
#
# Coordination Sequence:
#
# PCOD9344820 Si02
#       6
#     4   4   4   4   4   4
#     4  11  20  37  59  90 117 153 192 253 295 351
#     4  11  23  38  60  85 126 153 204 235 299 344
#     4  11  20  37  59  90 117 153 192 253 295 351
#     4  10  20  34  60  90 120 148 196 248 308 346
#     4  11  23  38  60  85 126 153 204 235 299 344
#     4  10  24  40  58  88 120 170 196 244 284 360
#
# _framework density 20.823425
#
# number of rings (size 3 to 8) (size 9 to 14) (size 15 to 20)
#    0.000    1.333    3.333    4.000    0.000    9.333 
#    0.000    0.000    0.000    4.000    0.000    2.333 
#    0.000    0.000    0.000    0.000    0.000    0.000 
#
# Total GULP energy -134056.583148 kJ/mol
# GULP energy per Si atom -5585.690965 kJ/mol
# Density = 2.077603 g / cm^3
# Si number density = 20.823425 Si / 1000 Ang^3
#
#
#
# Elastic Constant Matrix: (Units=GPa)
#
#
# Indices 1 2 3 4 5 6 
#
# 1 64.7225 31.5234 -6.2601 0.0000 0.0000 0.0000
# 2 31.5234 96.1513 -13.2661 0.0000 0.0000 0.0000
# 3 -6.2601 -13.2661 57.4741 0.0000 0.0000 0.0000
# 4 0.0000 0.0000 0.0000 20.5181 0.0000 0.0000
# 5 0.0000 0.0000 0.0000 0.0000 10.0837 0.0000
# 6 0.0000 0.0000 0.0000 0.0000 0.0000 -44.6937
#
#
#
# Elastic Compliance Matrix: (Units=1/GPa)
#
#
# Indices 1 2 3 4 5 6 
#
# 1 0.018409 -0.005948 0.000632 0.000000 0.000000 0.000000
# 2 -0.005948 0.012664 0.002275 0.000000 0.000000 0.000000
# 3 0.000632 0.002275 0.017993 0.000000 0.000000 0.000000
# 4 0.000000 0.000000 0.000000 0.048738 0.000000 0.000000
# 5 0.000000 0.000000 0.000000 0.000000 0.099170 0.000000
# 6 0.000000 0.000000 0.000000 0.000000 0.000000 -0.022375
#
#
# Mechanical properties :
#
#
# Convention : Reuss Voigt Hill
#
# Bulk Modulus (GPa) = 23.26400 26.92692 25.09546
# Shear Modulus (GPa) = 25.63984 10.93832 18.28908
#
# Velocity S-wave (km/s) = 3.51279 2.29441 2.96682
# Velocity P-wave (km/s) = 5.25825 4.46970 4.87993
#
# Compressibility (1/GPa) = 0.04298487
#
# Stress axis : x y z
#
# Youngs Moduli (GPa) = 54.32185 78.96205 55.57660
#
# Poissons Ratio (x) = 0.46968 -0.03513
# Poissons Ratio (y) = 0.32311 -0.12645
# Poissons Ratio (z) = -0.03434 -0.17966
#
# Static dielectric constant tensor:
#      x y z
#    x 1.762280 0.000000 0.000000 
#    y 0.000000 1.770590 0.000000 
#    z 0.000000 0.000000 1.770520 
# 
# From -- ./inp_files/451.got.cif
#   From: 2010.05.17/outbox.cif.g08.bks.cpg/sg33_1_cif.got.tgz:451.got - 2010.06.03 17:15:25.
