data_PCOD9344717
_publ_section_title
;
Structure prediction by ZEFSAII (Michael W. Deem and Ramdas Pophale) SiO2 
 PCOD9344717
Probable space group: P N A 21
;
_chemical_formula_sum "Si O2"
_cell_formula_units_Z 32
_cell_length_a 13.756621
_cell_length_b 13.063692
_cell_length_c 7.232717
_cell_angle_alpha 90.000000
_cell_angle_beta 90.000000
_cell_angle_gamma 90.000000
_cell_volume 1299.807916
_symmetry_space_group_name_H-M "P N A 21"
_symmetry_group_IT_number 33
_symmetry_cell_setting 'orthorhombic'
loop_
_space_group_symop_operation_xyz
x,y,z
-x,-y,1/2+z
1/2-x,1/2+y,1/2+z
1/2+x,1/2-y,z
loop_
_atom_site_type_symbol
_atom_site_label
_atom_site_fract_x
_atom_site_fract_y
_atom_site_fract_z
Si Si1 0.945480 0.433782 0.370480
Si Si2 0.640098 0.981348 0.229089
Si Si3 0.324922 0.163765 0.045493
Si Si4 0.555076 0.261821 0.495974
Si Si5 0.346842 0.543180 0.645561
Si Si6 0.755662 0.645647 0.959395
Si Si7 0.916120 0.161109 0.210908
Si Si8 0.972410 0.944429 0.280036
O O1 0.864629 0.475434 0.509449
O O2 0.030756 0.509617 0.310427
O O3 0.996119 0.344308 0.491889
O O4 0.901714 0.393107 0.179655
O O5 0.685175 0.887254 0.344249
O O6 0.691935 0.085413 0.291652
O O7 0.224047 0.140954 0.152958
O O8 0.371413 0.276540 0.041443
O O9 0.666747 0.228680 0.524392
O O10 0.520891 0.306152 0.294857
O O11 0.528556 0.346022 0.649191
O O12 0.274963 0.447742 0.593162
O O13 0.419268 0.491322 0.791928
O O14 0.419963 0.569170 0.475088
O O15 0.656583 0.691328 0.879810
O O16 0.911339 0.039800 0.197777
#
# Coordination Sequence:
#
# PCOD9344717 Si02
#       8
#     4   4   4   4   4   4   4   4
#     4  10  20  38  68  99 133 179 216 281 350 400
#     4  10  19  38  64  97 132 174 221 279 344 410
#     4  10  22  41  65  95 136 170 231 283 336 414
#     4  10  21  40  68  97 132 182 222 282 346 411
#     4  10  23  43  66  96 136 174 226 289 338 416
#     4   9  20  41  63  92 138 171 228 278 341 415
#     4  10  22  41  63  95 131 180 221 280 353 402
#     4  11  21  44  65  93 132 180 225 276 346 408
#
# _framework density 24.619024
#
# number of rings (size 3 to 8) (size 9 to 14) (size 15 to 20)
#    0.000    2.000    3.750    0.000    1.750    1.000 
#   20.250    2.500    0.000    0.000    0.000    0.000 
#    0.000    0.000    0.000    0.000    0.000    0.000 
#
# Total GULP energy -178605.695806 kJ/mol
# GULP energy per Si atom -5581.427994 kJ/mol
# Density = 2.456299 g / cm^3
# Si number density = 24.619024 Si / 1000 Ang^3
#
#
#
# Elastic Constant Matrix: (Units=GPa)
#
#
# Indices 1 2 3 4 5 6 
#
# 1 88.2113 -7.7011 11.4590 0.0000 0.0000 0.0000
# 2 -7.7011 52.3856 23.0790 0.0000 0.0000 0.0000
# 3 11.4590 23.0790 75.4536 0.0000 0.0000 0.0000
# 4 0.0000 0.0000 0.0000 33.1376 0.0000 0.0000
# 5 0.0000 0.0000 0.0000 0.0000 37.2717 0.0000
# 6 0.0000 0.0000 0.0000 0.0000 0.0000 19.8836
#
#
#
# Elastic Compliance Matrix: (Units=1/GPa)
#
#
# Indices 1 2 3 4 5 6 
#
# 1 0.011947 0.002954 -0.002718 0.000000 0.000000 0.000000
# 2 0.002954 0.022792 -0.007420 0.000000 0.000000 0.000000
# 3 -0.002718 -0.007420 0.015936 0.000000 0.000000 0.000000
# 4 0.000000 0.000000 0.000000 0.030177 0.000000 0.000000
# 5 0.000000 0.000000 0.000000 0.000000 0.026830 0.000000
# 6 0.000000 0.000000 0.000000 0.000000 0.000000 0.050293
#
#
# Mechanical properties :
#
#
# Convention : Reuss Voigt Hill
#
# Bulk Modulus (GPa) = 27.54304 29.96937 28.75620
# Shear Modulus (GPa) = 27.10820 30.67282 28.89051
#
# Velocity S-wave (km/s) = 3.32189 3.53356 3.42936
# Velocity P-wave (km/s) = 5.09169 5.37101 5.23321
#
# Compressibility (1/GPa) = 0.03630682
#
# Stress axis : x y z
#
# Youngs Moduli (GPa) = 83.70060 43.87422 62.75283
#
# Poissons Ratio (x) = -0.12959 0.17055
# Poissons Ratio (y) = -0.24723 0.46563
# Poissons Ratio (z) = 0.22749 0.32555
#
# Static dielectric constant tensor:
#      x y z
#    x 2.032880 0.000000 0.000000 
#    y 0.000000 2.004220 0.000000 
#    z 0.000000 0.000000 1.984570 
# 
# From -- ./inp_files/4489.got.cif
#   From: 2010.05.17/outbox.cif.g08.bks.cpg/sg33_3_cif.got.tgz:4489.got - 2010.06.03 17:15:25.
