data_PCOD9344642
_publ_section_title
;
Structure prediction by ZEFSAII (Michael W. Deem and Ramdas Pophale) SiO2 
 PCOD9344642
Probable space group: P N A 21
;
_chemical_formula_sum "Si O2"
_cell_formula_units_Z 28
_cell_length_a 5.400045
_cell_length_b 22.146525
_cell_length_c 9.088071
_cell_angle_alpha 90.000000
_cell_angle_beta 90.000000
_cell_angle_gamma 90.000000
_cell_volume 1086.862692
_symmetry_space_group_name_H-M "P N A 21"
_symmetry_group_IT_number 33
_symmetry_cell_setting 'orthorhombic'
loop_
_space_group_symop_operation_xyz
x,y,z
-x,-y,1/2+z
1/2-x,1/2+y,1/2+z
1/2+x,1/2-y,z
loop_
_atom_site_type_symbol
_atom_site_label
_atom_site_fract_x
_atom_site_fract_y
_atom_site_fract_z
Si Si1 0.679677 0.902161 0.641700
Si Si2 0.472041 0.301109 0.072723
Si Si3 0.277857 0.283389 0.392171
Si Si4 0.884842 0.973107 0.887400
Si Si5 0.963250 0.723148 0.278716
Si Si6 0.884646 0.583398 0.925907
Si Si7 0.339248 0.898366 0.389090
O O1 0.780833 0.834225 0.634192
O O2 0.885892 0.939764 0.728352
O O3 0.450222 0.913068 0.751578
O O4 0.577948 0.917808 0.483039
O O5 0.300539 0.287761 0.213001
O O6 0.530230 0.250557 0.948228
O O7 0.343602 0.355646 0.982320
O O8 0.052775 0.238844 0.428558
O O9 0.203024 0.348482 0.456375
O O10 0.653713 0.941997 0.977660
O O11 0.150460 0.959092 0.956747
O O12 0.808878 0.041500 0.853825
O O13 0.717222 0.752590 0.214414
O O14 0.942060 0.651077 0.275101
#
# Coordination Sequence:
#
# PCOD9344642 Si02
#       7
#     4   4   4   4   4   4   4
#     4  10  19  36  51  71 107 148 181 212 264 314
#     4  11  19  30  48  77 111 140 170 213 269 331
#     4  12  20  29  51  76 103 142 174 210 272 332
#     4  10  22  35  51  69 108 151 186 220 254 316
#     4  10  20  29  45  75 107 133 169 206 260 330
#     4  10  21  37  45  72 108 143 178 220 255 318
#     4  11  21  32  53  76 106 153 180 217 268 315
#
# _framework density 25.762224
#
# number of rings (size 3 to 8) (size 9 to 14) (size 15 to 20)
#    0.857    0.571    4.286    3.429    2.000    0.000 
#    0.000    0.000    0.000    0.000    0.000    0.000 
#    0.000   13.714    0.000    0.000    0.000    0.000 
#
# Total GULP energy -156395.390573 kJ/mol
# GULP energy per Si atom -5585.549663 kJ/mol
# Density = 2.570359 g / cm^3
# Si number density = 25.762224 Si / 1000 Ang^3
#
#
#
# Elastic Constant Matrix: (Units=GPa)
#
#
# Indices 1 2 3 4 5 6 
#
# 1 188.9324 33.5319 15.7154 0.0000 0.0000 0.0000
# 2 33.5319 142.2178 6.2913 0.0000 0.0000 0.0000
# 3 15.7154 6.2913 80.2757 0.0000 0.0000 0.0000
# 4 0.0000 0.0000 0.0000 15.4237 0.0000 0.0000
# 5 0.0000 0.0000 0.0000 0.0000 24.9705 0.0000
# 6 0.0000 0.0000 0.0000 0.0000 0.0000 52.8917
#
#
#
# Elastic Compliance Matrix: (Units=1/GPa)
#
#
# Indices 1 2 3 4 5 6 
#
# 1 0.005602 -0.001277 -0.000997 0.000000 0.000000 0.000000
# 2 -0.001277 0.007347 -0.000326 0.000000 0.000000 0.000000
# 3 -0.000997 -0.000326 0.012678 0.000000 0.000000 0.000000
# 4 0.000000 0.000000 0.000000 0.064835 0.000000 0.000000
# 5 0.000000 0.000000 0.000000 0.000000 0.040047 0.000000
# 6 0.000000 0.000000 0.000000 0.000000 0.000000 0.018907
#
#
# Mechanical properties :
#
#
# Convention : Reuss Voigt Hill
#
# Bulk Modulus (GPa) = 48.95162 58.05591 53.50377
# Shear Modulus (GPa) = 30.97424 42.38300 36.67862
#
# Velocity S-wave (km/s) = 3.47120 4.06046 3.77734
# Velocity P-wave (km/s) = 5.92522 6.67587 6.31172
#
# Compressibility (1/GPa) = 0.02042833
#
# Stress axis : x y z
#
# Youngs Moduli (GPa) = 178.49439 136.11118 78.87853
#
# Poissons Ratio (x) = 0.17379 0.07862
# Poissons Ratio (y) = 0.22791 0.02570
# Poissons Ratio (z) = 0.17791 0.04435
#
# Static dielectric constant tensor:
#      x y z
#    x 2.096000 0.000000 0.000000 
#    y 0.000000 2.009140 0.000000 
#    z 0.000000 0.000000 2.120880 
# 
# From -- ./inp_files/5528.got.cif
#   From: 2010.05.17/outbox.cif.g08.bks.cpg/sg33_3_cif.got.tgz:5528.got - 2010.06.03 17:15:25.
