data_PCOD9344419
_publ_section_title
;
Structure prediction by ZEFSAII (Michael W. Deem and Ramdas Pophale) SiO2 
 PCOD9344419
Probable space group: P N A 21
;
_chemical_formula_sum "Si O2"
_cell_formula_units_Z 32
_cell_length_a 5.440335
_cell_length_b 30.784916
_cell_length_c 7.633134
_cell_angle_alpha 90.000000
_cell_angle_beta 90.000000
_cell_angle_gamma 90.000000
_cell_volume 1278.399236
_symmetry_space_group_name_H-M "P N A 21"
_symmetry_group_IT_number 33
_symmetry_cell_setting 'orthorhombic'
loop_
_space_group_symop_operation_xyz
x,y,z
-x,-y,1/2+z
1/2-x,1/2+y,1/2+z
1/2+x,1/2-y,z
loop_
_atom_site_type_symbol
_atom_site_label
_atom_site_fract_x
_atom_site_fract_y
_atom_site_fract_z
Si Si1 0.588833 0.139540 0.460340
Si Si2 0.759831 0.128098 0.062623
Si Si3 0.458292 0.954346 0.401830
Si Si4 0.396942 0.602802 0.053603
Si Si5 0.323584 0.269976 0.024749
Si Si6 0.318328 0.513403 0.128570
Si Si7 0.397814 0.236556 0.426484
Si Si8 0.135633 0.065430 0.177662
O O1 0.641112 0.122458 0.258342
O O2 0.368129 0.124186 0.592598
O O3 0.503407 0.188360 0.422473
O O4 0.861779 0.132617 0.542595
O O5 0.632694 0.094513 0.930929
O O6 0.772840 0.178568 0.016333
O O7 0.030890 0.107249 0.074164
O O8 0.581252 0.967332 0.222832
O O9 0.667674 0.957124 0.553813
O O10 0.263408 0.991884 0.446329
O O11 0.308313 0.585432 0.863489
O O12 0.481915 0.556784 0.136844
O O13 0.587576 0.255500 0.950381
O O14 0.350746 0.255741 0.230593
O O15 0.422301 0.469834 0.213455
O O16 0.625601 0.262967 0.508583
#
# Coordination Sequence:
#
# PCOD9344419 Si02
#       8
#     4   4   4   4   4   4   4   4
#     4  11  21  36  58  89 131 158 208 256 327 363
#     4  10  21  35  55  94 126 166 202 268 327 370
#     4  11  23  41  64  86 132 163 223 270 318 394
#     4  11  24  39  61  88 126 167 205 263 310 385
#     4  10  20  30  55  88 130 162 201 259 318 386
#     4  11  25  41  61  93 118 179 217 262 328 374
#     4  10  18  29  52  88 125 161 195 258 313 379
#     4  10  22  37  62  86 126 166 211 268 315 387
#
# _framework density 25.031303999999999
#
# number of rings (size 3 to 8) (size 9 to 14) (size 15 to 20)
#    0.000    1.500    3.750    2.250   12.250    1.000 
#    0.000    0.000    0.000    0.000    0.000    5.250 
#    0.000    0.000    0.000    0.000    0.000    0.000 
#
# Total GULP energy -178368.057412 kJ/mol
# GULP energy per Si atom -5574.001794 kJ/mol
# Density = 2.497433 g / cm^3
# Si number density = 25.031304 Si / 1000 Ang^3
#
#
#
# Elastic Constant Matrix: (Units=GPa)
#
#
# Indices 1 2 3 4 5 6 
#
# 1 117.9656 27.8480 -2.2025 0.0000 0.0000 0.0000
# 2 27.8480 132.1643 12.5322 0.0000 0.0000 0.0000
# 3 -2.2025 12.5322 32.1372 0.0000 0.0000 0.0000
# 4 0.0000 0.0000 0.0000 14.5098 0.0000 0.0000
# 5 0.0000 0.0000 0.0000 0.0000 1.9847 0.0000
# 6 0.0000 0.0000 0.0000 0.0000 0.0000 21.3775
#
#
#
# Elastic Compliance Matrix: (Units=1/GPa)
#
#
# Indices 1 2 3 4 5 6 
#
# 1 0.008982 -0.002026 0.001405 0.000000 0.000000 0.000000
# 2 -0.002026 0.008314 -0.003381 0.000000 0.000000 0.000000
# 3 0.001405 -0.003381 0.032531 0.000000 0.000000 0.000000
# 4 0.000000 0.000000 0.000000 0.068919 0.000000 0.000000
# 5 0.000000 0.000000 0.000000 0.000000 0.503845 0.000000
# 6 0.000000 0.000000 0.000000 0.000000 0.000000 0.046778
#
#
# Mechanical properties :
#
#
# Convention : Reuss Voigt Hill
#
# Bulk Modulus (GPa) = 23.90952 39.84694 31.87823
# Shear Modulus (GPa) = 7.23262 23.84705 15.53983
#
# Velocity S-wave (km/s) = 1.70168 3.08991 2.49432
# Velocity P-wave (km/s) = 3.66518 5.35570 4.58896
#
# Compressibility (1/GPa) = 0.04182434
#
# Stress axis : x y z
#
# Youngs Moduli (GPa) = 111.33995 120.28251 30.73966
#
# Poissons Ratio (x) = 0.24366 -0.04320
# Poissons Ratio (y) = 0.22555 0.10393
# Poissons Ratio (z) = -0.15649 0.40666
#
# Static dielectric constant tensor:
#      x y z
#    x 2.231240 0.000000 0.000000 
#    y 0.000000 1.941300 0.000000 
#    z 0.000000 0.000000 2.095850 
# 
# From -- ./inp_files/2842.got.cif
#   From: 2010.05.17/outbox.cif.g08.bks.cpg/sg33_2_cif.got.tgz:2842.got - 2010.06.03 17:15:25.
