data_PCOD9344956
_publ_section_title
;
Structure prediction by ZEFSAII (Michael W. Deem and Ramdas Pophale) SiO2 
 PCOD9344956
Probable space group: P N A 21
;
_chemical_formula_sum "Si O2"
_cell_formula_units_Z 24
_cell_length_a 21.770932
_cell_length_b 5.503052
_cell_length_c 7.823772
_cell_angle_alpha 90.000000
_cell_angle_beta 90.000000
_cell_angle_gamma 90.000000
_cell_volume 937.339295
_symmetry_space_group_name_H-M "P N A 21"
_symmetry_group_IT_number 33
_symmetry_cell_setting 'orthorhombic'
loop_
_space_group_symop_operation_xyz
x,y,z
-x,-y,1/2+z
1/2-x,1/2+y,1/2+z
1/2+x,1/2-y,z
loop_
_atom_site_type_symbol
_atom_site_label
_atom_site_fract_x
_atom_site_fract_y
_atom_site_fract_z
Si Si1 0.740803 0.962342 0.975800
Si Si2 0.036719 0.161220 0.103870
Si Si3 0.862486 0.064571 0.785397
Si Si4 0.075090 0.158658 0.621558
Si Si5 0.946891 0.448676 0.884250
Si Si6 0.812445 0.957660 0.342520
O O1 0.794578 0.988838 0.832591
O O2 0.705506 0.214329 0.945185
O O3 0.703877 0.712383 0.937098
O O4 0.771588 0.955003 0.164260
O O5 0.006572 0.297658 0.944721
O O6 0.027574 0.341343 0.263226
O O7 0.995048 0.923808 0.130948
O O8 0.106045 0.072677 0.128810
O O9 0.887792 0.339574 0.783190
O O10 0.898878 0.985826 0.957342
O O11 0.080026 0.435681 0.559879
O O12 0.118266 0.073005 0.773136
#
# Coordination Sequence:
#
# PCOD9344956 Si02
#       6
#     4   4   4   4   4   4
#     4  11  25  45  70  99 134 179 227 278 336 399
#     4  10  20  38  60  98 118 166 212 264 322 396
#     4   9  21  38  64  88 127 171 215 259 334 396
#     4   9  21  38  64  88 127 171 215 259 334 396
#     4  10  20  38  66  86 128 168 212 264 328 402
#     4  11  25  45  70  99 134 179 227 278 336 399
#
# _framework density 25.604386000000002
#
# number of rings (size 3 to 8) (size 9 to 14) (size 15 to 20)
#    0.000    2.000    0.000    2.000   14.000    0.000 
#    3.000   10.000    0.000    0.000    0.000    0.000 
#    0.000    0.000    0.000    0.000    0.000    0.000 
#
# Total GULP energy -134104.536158 kJ/mol
# GULP energy per Si atom -5587.689007 kJ/mol
# Density = 2.554611 g / cm^3
# Si number density = 25.604386 Si / 1000 Ang^3
#
#
#
# Elastic Constant Matrix: (Units=GPa)
#
#
# Indices 1 2 3 4 5 6 
#
# 1 105.0239 34.4721 -14.7317 0.0000 0.0000 0.0000
# 2 34.4721 133.2008 27.6467 0.0000 0.0000 0.0000
# 3 -14.7317 27.6467 98.6701 0.0000 0.0000 0.0000
# 4 0.0000 0.0000 0.0000 49.5052 0.0000 0.0000
# 5 0.0000 0.0000 0.0000 0.0000 31.3580 0.0000
# 6 0.0000 0.0000 0.0000 0.0000 0.0000 30.9142
#
#
#
# Elastic Compliance Matrix: (Units=1/GPa)
#
#
# Indices 1 2 3 4 5 6 
#
# 1 0.010995 -0.003383 0.002590 0.000000 0.000000 0.000000
# 2 -0.003383 0.009012 -0.003030 0.000000 0.000000 0.000000
# 3 0.002590 -0.003030 0.011370 0.000000 0.000000 0.000000
# 4 0.000000 0.000000 0.000000 0.020200 0.000000 0.000000
# 5 0.000000 0.000000 0.000000 0.000000 0.031890 0.000000
# 6 0.000000 0.000000 0.000000 0.000000 0.000000 0.032348
#
#
# Mechanical properties :
#
#
# Convention : Reuss Voigt Hill
#
# Bulk Modulus (GPa) = 42.14023 47.96321 45.05172
# Shear Modulus (GPa) = 38.05972 41.65597 39.85785
#
# Velocity S-wave (km/s) = 3.85964 4.03787 3.94976
# Velocity P-wave (km/s) = 6.02962 6.36493 6.19954
#
# Compressibility (1/GPa) = 0.02373029
#
# Stress axis : x y z
#
# Youngs Moduli (GPa) = 90.94802 110.96419 87.94733
#
# Poissons Ratio (x) = 0.37540 -0.22774
# Poissons Ratio (y) = 0.30768 0.26650
# Poissons Ratio (z) = -0.23551 0.33624
#
# Static dielectric constant tensor:
#      x y z
#    x 2.011050 0.000000 0.000000 
#    y 0.000000 2.181100 0.000000 
#    z 0.000000 0.000000 2.135610 
# 
# From -- ./inp_files/5112.got.cif
#   From: 2010.05.17/outbox.cif.g08.bks.cpg/sg33_3_cif.got.tgz:5112.got - 2010.06.03 17:15:25.
