data_PCOD9344843
_publ_section_title
;
Structure prediction by ZEFSAII (Michael W. Deem and Ramdas Pophale) SiO2 
 PCOD9344843
Probable space group: P N A 21
;
_chemical_formula_sum "Si O2"
_cell_formula_units_Z 32
_cell_length_a 21.393897
_cell_length_b 11.454428
_cell_length_c 5.197279
_cell_angle_alpha 90.000000
_cell_angle_beta 90.000000
_cell_angle_gamma 90.000000
_cell_volume 1273.618440
_symmetry_space_group_name_H-M "P N A 21"
_symmetry_group_IT_number 33
_symmetry_cell_setting 'orthorhombic'
loop_
_space_group_symop_operation_xyz
x,y,z
-x,-y,1/2+z
1/2-x,1/2+y,1/2+z
1/2+x,1/2-y,z
loop_
_atom_site_type_symbol
_atom_site_label
_atom_site_fract_x
_atom_site_fract_y
_atom_site_fract_z
Si Si1 0.637434 0.534097 0.299240
Si Si2 0.319618 0.289653 0.429578
Si Si3 0.740683 0.509595 0.636458
Si Si4 0.645622 0.137237 0.211052
Si Si5 0.510281 0.069748 0.005005
Si Si6 0.696598 0.268505 0.713914
Si Si7 0.926185 0.236934 0.141610
Si Si8 0.982601 0.930347 0.897053
O O1 0.710456 0.505093 0.351036
O O2 0.606412 0.628548 0.495236
O O3 0.590754 0.426367 0.324856
O O4 0.636606 0.608820 0.043820
O O5 0.278228 0.361923 0.231586
O O6 0.270300 0.245134 0.636707
O O7 0.368244 0.204550 0.294010
O O8 0.813672 0.515759 0.695941
O O9 0.697510 0.408172 0.754972
O O10 0.574392 0.111494 0.138600
O O11 0.659588 0.205174 0.478998
O O12 0.672330 0.211011 0.971197
O O13 0.461957 0.175272 0.957950
O O14 0.479349 0.991461 0.231309
O O15 0.980108 0.185324 0.325814
O O16 0.007185 0.028161 0.690054
#
# Coordination Sequence:
#
# PCOD9344843 Si02
#       8
#     4   4   4   4   4   4   4   4
#     4  10  20  40  66 100 137 173 222 281 352 427
#     4  10  21  43  67 100 141 175 243 279 352 436
#     4  10  24  41  70 103 139 182 226 293 362 415
#     4  11  26  50  67 108 142 176 250 292 340 441
#     4  12  30  51  72 101 140 200 246 287 348 417
#     4  11  25  43  74 102 136 188 221 304 365 401
#     4  10  24  41  67  99 137 184 231 290 344 425
#     4  10  20  35  59  97 132 168 209 272 345 406
#
# _framework density 25.125264999999999
#
# number of rings (size 3 to 8) (size 9 to 14) (size 15 to 20)
#    0.000    1.500    2.500    0.750    7.000    0.000 
#    4.500    0.000    0.000    0.000    0.000    0.000 
#    0.000    0.000    0.000    0.000    0.000    0.000 
#
# Total GULP energy -178489.685052 kJ/mol
# GULP energy per Si atom -5577.802658 kJ/mol
# Density = 2.506808 g / cm^3
# Si number density = 25.125265 Si / 1000 Ang^3
#
#
#
# Elastic Constant Matrix: (Units=GPa)
#
#
# Indices 1 2 3 4 5 6 
#
# 1 95.7463 4.3870 -1.1888 0.0000 0.0000 0.0000
# 2 4.3870 40.7950 5.8912 0.0000 0.0000 0.0000
# 3 -1.1888 5.8912 100.6099 0.0000 0.0000 0.0000
# 4 0.0000 0.0000 0.0000 12.5264 0.0000 0.0000
# 5 0.0000 0.0000 0.0000 0.0000 29.9259 0.0000
# 6 0.0000 0.0000 0.0000 0.0000 0.0000 26.9107
#
#
#
# Elastic Compliance Matrix: (Units=1/GPa)
#
#
# Indices 1 2 3 4 5 6 
#
# 1 0.010500 -0.001157 0.000192 0.000000 0.000000 0.000000
# 2 -0.001157 0.024849 -0.001469 0.000000 0.000000 0.000000
# 3 0.000192 -0.001469 0.010028 0.000000 0.000000 0.000000
# 4 0.000000 0.000000 0.000000 0.079831 0.000000 0.000000
# 5 0.000000 0.000000 0.000000 0.000000 0.033416 0.000000
# 6 0.000000 0.000000 0.000000 0.000000 0.000000 0.037160
#
#
# Mechanical properties :
#
#
# Convention : Reuss Voigt Hill
#
# Bulk Modulus (GPa) = 24.68576 28.37000 26.52788
# Shear Modulus (GPa) = 23.34765 29.07672 26.21218
#
# Velocity S-wave (km/s) = 3.05167 3.40556 3.23346
# Velocity P-wave (km/s) = 4.71840 5.17491 4.95192
#
# Compressibility (1/GPa) = 0.04050918
#
# Stress axis : x y z
#
# Youngs Moduli (GPa) = 95.24120 40.24253 99.72425
#
# Poissons Ratio (x) = 0.04655 -0.01913
# Poissons Ratio (y) = 0.11018 0.14647
# Poissons Ratio (z) = -0.01827 0.05911
#
# Static dielectric constant tensor:
#      x y z
#    x 2.126430 0.000000 0.000000 
#    y 0.000000 2.072150 0.000000 
#    z 0.000000 0.000000 2.018040 
# 
# From -- ./inp_files/2296.got.cif
#   From: 2010.05.17/outbox.cif.g08.bks.cpg/sg33_2_cif.got.tgz:2296.got - 2010.06.03 17:15:25.
