data_PCOD9344903
_publ_section_title
;
Structure prediction by ZEFSAII (Michael W. Deem and Ramdas Pophale) SiO2 
 PCOD9344903
Probable space group: P N A 21
;
_chemical_formula_sum "Si O2"
_cell_formula_units_Z 28
_cell_length_a 16.915737
_cell_length_b 9.427507
_cell_length_c 6.936354
_cell_angle_alpha 90.000000
_cell_angle_beta 90.000000
_cell_angle_gamma 90.000000
_cell_volume 1106.162770
_symmetry_space_group_name_H-M "P N A 21"
_symmetry_group_IT_number 33
_symmetry_cell_setting 'orthorhombic'
loop_
_space_group_symop_operation_xyz
x,y,z
-x,-y,1/2+z
1/2-x,1/2+y,1/2+z
1/2+x,1/2-y,z
loop_
_atom_site_type_symbol
_atom_site_label
_atom_site_fract_x
_atom_site_fract_y
_atom_site_fract_z
Si Si1 0.193165 0.661692 0.467290
Si Si2 0.645658 0.650540 0.111963
Si Si3 0.991028 0.696338 0.076889
Si Si4 0.019578 0.629327 0.522752
Si Si5 0.895985 0.943361 0.135722
Si Si6 0.250965 0.384945 0.246152
Si Si7 0.559188 0.389894 0.078527
O O1 0.179655 0.766545 0.290605
O O2 0.110287 0.651300 0.583432
O O3 0.198665 0.510173 0.350498
O O4 0.257255 0.742732 0.608362
O O5 0.566306 0.713575 0.015841
O O6 0.616878 0.496565 0.190195
O O7 0.706893 0.664139 0.940806
O O8 0.007247 0.686150 0.306832
O O9 0.995130 0.536513 0.010701
O O10 0.913097 0.789886 0.042948
O O11 0.956367 0.726670 0.635539
O O12 0.905059 0.909925 0.364854
O O13 0.812996 0.020514 0.120686
O O14 0.970559 0.043572 0.084421
#
# Coordination Sequence:
#
# PCOD9344903 Si02
#       7
#     4   4   4   4   4   4   4
#     4  11  25  45  66  99 139 182 242 277 335 431
#     4   9  22  44  65  99 129 173 228 289 348 423
#     4   9  20  35  60  98 129 158 215 287 355 402
#     4  10  20  37  59  97 131 163 216 289 350 412
#     4   9  18  35  59  89 119 168 216 268 343 404
#     4  11  24  44  69  91 137 191 229 280 335 416
#     4   9  17  34  64  89 120 157 212 286 352 404
#
# _framework density 25.312730999999999
#
# number of rings (size 3 to 8) (size 9 to 14) (size 15 to 20)
#    0.000    2.286    1.429    0.857    2.000    3.429 
#   15.429    0.000    0.000    0.000    0.000    0.000 
#    0.000    0.000    0.000    0.000    0.000    0.000 
#
# Total GULP energy -156056.467047 kJ/mol
# GULP energy per Si atom -5573.445252 kJ/mol
# Density = 2.525512 g / cm^3
# Si number density = 25.312731 Si / 1000 Ang^3
#
#
#
# Elastic Constant Matrix: (Units=GPa)
#
#
# Indices 1 2 3 4 5 6 
#
# 1 22.2868 17.1868 13.1461 0.0000 0.0000 0.0000
# 2 17.1868 149.8655 10.2050 0.0000 0.0000 0.0000
# 3 13.1461 10.2050 57.5210 0.0000 0.0000 0.0000
# 4 0.0000 0.0000 0.0000 37.8851 0.0000 0.0000
# 5 0.0000 0.0000 0.0000 0.0000 19.7475 0.0000
# 6 0.0000 0.0000 0.0000 0.0000 0.0000 36.4149
#
#
#
# Elastic Compliance Matrix: (Units=1/GPa)
#
#
# Indices 1 2 3 4 5 6 
#
# 1 0.056205 -0.005639 -0.011845 0.000000 0.000000 0.000000
# 2 -0.005639 0.007320 -0.000010 0.000000 0.000000 0.000000
# 3 -0.011845 -0.000010 0.020094 0.000000 0.000000 0.000000
# 4 0.000000 0.000000 0.000000 0.026396 0.000000 0.000000
# 5 0.000000 0.000000 0.000000 0.000000 0.050639 0.000000
# 6 0.000000 0.000000 0.000000 0.000000 0.000000 0.027461
#
#
# Mechanical properties :
#
#
# Convention : Reuss Voigt Hill
#
# Bulk Modulus (GPa) = 20.56294 34.52767 27.54530
# Shear Modulus (GPa) = 20.89307 31.41851 26.15579
#
# Velocity S-wave (km/s) = 2.87609 3.52691 3.21799
# Velocity P-wave (km/s) = 4.37840 5.50050 4.97121
#
# Compressibility (1/GPa) = 0.04863119
#
# Stress axis : x y z
#
# Youngs Moduli (GPa) = 17.79192 136.61156 49.76653
#
# Poissons Ratio (x) = 0.77037 0.58948
# Poissons Ratio (y) = 0.10033 0.00049
# Poissons Ratio (z) = 0.21074 0.00135
#
# Static dielectric constant tensor:
#      x y z
#    x 2.045550 0.000000 0.000000 
#    y 0.000000 2.158420 0.000000 
#    z 0.000000 0.000000 2.077270 
# 
# From -- ./inp_files/4751.got.cif
#   From: 2010.05.17/outbox.cif.g08.bks.cpg/sg33_3_cif.got.tgz:4751.got - 2010.06.03 17:15:25.
