data_PCOD9344628
_publ_section_title
;
Structure prediction by ZEFSAII (Michael W. Deem and Ramdas Pophale) SiO2 
 PCOD9344628
Probable space group: P N A 21
;
_chemical_formula_sum "Si O2"
_cell_formula_units_Z 32
_cell_length_a 15.973657
_cell_length_b 13.462569
_cell_length_c 6.100970
_cell_angle_alpha 90.000000
_cell_angle_beta 90.000000
_cell_angle_gamma 90.000000
_cell_volume 1311.991998
_symmetry_space_group_name_H-M "P N A 21"
_symmetry_group_IT_number 33
_symmetry_cell_setting 'orthorhombic'
loop_
_space_group_symop_operation_xyz
x,y,z
-x,-y,1/2+z
1/2-x,1/2+y,1/2+z
1/2+x,1/2-y,z
loop_
_atom_site_type_symbol
_atom_site_label
_atom_site_fract_x
_atom_site_fract_y
_atom_site_fract_z
Si Si1 0.382757 0.507295 0.580230
Si Si2 0.533181 0.382999 0.422734
Si Si3 0.055670 0.765282 0.556393
Si Si4 0.015515 0.456533 0.577530
Si Si5 0.861121 0.364299 0.422186
Si Si6 0.799591 0.493814 0.068886
Si Si7 0.289334 0.219763 0.810511
Si Si8 0.104773 0.213976 0.815301
O O1 0.464418 0.439616 0.563961
O O2 0.391544 0.553805 0.822124
O O3 0.292051 0.459506 0.541500
O O4 0.391032 0.600367 0.410243
O O5 0.477124 0.350462 0.215858
O O6 0.574692 0.296584 0.565484
O O7 0.092756 0.684265 0.717705
O O8 0.134040 0.785585 0.399523
O O9 0.970546 0.731990 0.439063
O O10 0.115321 0.443711 0.536923
O O11 0.009906 0.499689 0.830043
O O12 0.936987 0.382274 0.588852
O O13 0.809479 0.454152 0.318479
O O14 0.798750 0.293473 0.551303
O O15 0.796874 0.392929 0.915951
O O16 0.196129 0.257218 0.858710
#
# Coordination Sequence:
#
# PCOD9344628 Si02
#       8
#     4   4   4   4   4   4   4   4
#     4  10  20  35  60  88 115 153 201 254 313 373
#     4  11  20  38  60  86 120 154 202 261 319 369
#     4  10  23  38  58  85 122 160 204 257 310 376
#     4  10  19  35  60  91 125 159 207 263 318 373
#     4  10  19  36  61  84 123 162 204 254 311 379
#     4   9  19  34  56  91 117 153 204 251 312 377
#     4  10  19  38  62  85 115 163 211 244 304 385
#     4  10  21  38  63  88 117 160 209 250 309 378
#
# _framework density 24.390393
#
# number of rings (size 3 to 8) (size 9 to 14) (size 15 to 20)
#    0.000    2.000    2.500    1.500    0.000    1.000 
#    2.250    0.000    2.750    0.000    0.000    0.000 
#    0.000    0.000    0.000    0.000    0.000    0.000 
#
# Total GULP energy -178259.331652 kJ/mol
# GULP energy per Si atom -5570.604114 kJ/mol
# Density = 2.433488 g / cm^3
# Si number density = 24.390393 Si / 1000 Ang^3
#
#
#
# Elastic Constant Matrix: (Units=GPa)
#
#
# Indices 1 2 3 4 5 6 
#
# 1 177.2147 6.2662 41.9377 0.0000 0.0000 0.0000
# 2 6.2662 21.9580 5.5099 0.0000 0.0000 0.0000
# 3 41.9377 5.5099 88.2283 0.0000 0.0000 0.0000
# 4 0.0000 0.0000 0.0000 22.7745 0.0000 0.0000
# 5 0.0000 0.0000 0.0000 0.0000 22.2536 0.0000
# 6 0.0000 0.0000 0.0000 0.0000 0.0000 24.5955
#
#
#
# Elastic Compliance Matrix: (Units=1/GPa)
#
#
# Indices 1 2 3 4 5 6 
#
# 1 0.006383 -0.001077 -0.002967 0.000000 0.000000 0.000000
# 2 -0.001077 0.046448 -0.002389 0.000000 0.000000 0.000000
# 3 -0.002967 -0.002389 0.012894 0.000000 0.000000 0.000000
# 4 0.000000 0.000000 0.000000 0.043909 0.000000 0.000000
# 5 0.000000 0.000000 0.000000 0.000000 0.044937 0.000000
# 6 0.000000 0.000000 0.000000 0.000000 0.000000 0.040658
#
#
# Mechanical properties :
#
#
# Convention : Reuss Voigt Hill
#
# Bulk Modulus (GPa) = 18.91805 43.86985 31.39395
# Shear Modulus (GPa) = 22.15201 29.50387 25.82794
#
# Velocity S-wave (km/s) = 3.01695 3.48178 3.25766
# Velocity P-wave (km/s) = 4.46197 5.84716 5.20089
#
# Compressibility (1/GPa) = 0.05285957
#
# Stress axis : x y z
#
# Youngs Moduli (GPa) = 156.66498 21.52937 77.55773
#
# Poissons Ratio (x) = 0.02319 0.23010
# Poissons Ratio (y) = 0.16874 0.18527
# Poissons Ratio (z) = 0.46479 0.05143
#
# Static dielectric constant tensor:
#      x y z
#    x 2.003260 0.000000 0.000000 
#    y 0.000000 2.071080 0.000000 
#    z 0.000000 0.000000 2.004070 
# 
# From -- ./inp_files/1486.got.cif
#   From: 2010.05.17/outbox.cif.g08.bks.cpg/sg33_1_cif.got.tgz:1486.got - 2010.06.03 17:15:25.
