data_PCOD9344982
_publ_section_title
;
Structure prediction by ZEFSAII (Michael W. Deem and Ramdas Pophale) SiO2 
 PCOD9344982
Probable space group: P N A 21
;
_chemical_formula_sum "Si O2"
_cell_formula_units_Z 32
_cell_length_a 18.023789
_cell_length_b 6.319115
_cell_length_c 13.847964
_cell_angle_alpha 90.000000
_cell_angle_beta 90.000000
_cell_angle_gamma 90.000000
_cell_volume 1577.205488
_symmetry_space_group_name_H-M "P N A 21"
_symmetry_group_IT_number 33
_symmetry_cell_setting 'orthorhombic'
loop_
_space_group_symop_operation_xyz
x,y,z
-x,-y,1/2+z
1/2-x,1/2+y,1/2+z
1/2+x,1/2-y,z
loop_
_atom_site_type_symbol
_atom_site_label
_atom_site_fract_x
_atom_site_fract_y
_atom_site_fract_z
Si Si1 0.887357 0.249704 0.879720
Si Si2 0.738566 0.040029 0.321093
Si Si3 0.588770 0.405913 0.546655
Si Si4 0.506605 0.967069 0.952045
Si Si5 0.168580 0.072468 0.232276
Si Si6 0.252826 0.727085 0.125799
Si Si7 0.952951 0.848477 0.588820
Si Si8 0.361218 0.319188 0.458185
O O1 0.815561 0.398797 0.886515
O O2 0.959932 0.395395 0.876547
O O3 0.875975 0.114456 0.784011
O O4 0.892264 0.087628 0.968426
O O5 0.704741 0.272615 0.308988
O O6 0.816395 0.066089 0.373792
O O7 0.740295 0.935448 0.214705
O O8 0.663361 0.314348 0.592744
O O9 0.527957 0.522504 0.615287
O O10 0.546890 0.214931 0.493023
O O11 0.581797 0.855321 0.918722
O O12 0.526279 0.131826 0.036655
O O13 0.232293 0.958984 0.168898
O O14 0.106773 0.193987 0.171361
O O15 0.196352 0.712861 0.034793
O O16 0.909464 0.006762 0.515869
#
# Coordination Sequence:
#
# PCOD9344982 Si02
#       8
#     4   4   4   4   4   4   4   4
#     4  10  21  38  62  87 121 161 206 252 309 373
#     4  11  23  39  62  94 123 163 207 258 322 367
#     4  10  21  41  61  89 118 161 210 250 311 380
#     4  10  20  38  64  86 115 166 203 247 313 374
#     4  10  21  39  59  91 123 160 201 256 309 376
#     4  10  22  39  62  89 125 159 207 263 308 375
#     4   9  21  39  61  84 122 162 205 249 317 370
#     4  10  21  39  61  88 123 164 209 257 309 385
#
# _framework density 20.289051000000001
#
# number of rings (size 3 to 8) (size 9 to 14) (size 15 to 20)
#    0.000    2.000    0.000    3.000    0.000    8.000 
#   11.250    0.000    0.000    0.000    0.000    0.000 
#    0.000    0.000    0.000    0.000    0.000    0.000 
#
# Total GULP energy -178596.354549 kJ/mol
# GULP energy per Si atom -5581.136080 kJ/mol
# Density = 2.024287 g / cm^3
# Si number density = 20.289051 Si / 1000 Ang^3
#
#
#
# Elastic Constant Matrix: (Units=GPa)
#
#
# Indices 1 2 3 4 5 6 
#
# 1 129.7591 53.1115 31.6213 0.0000 0.0000 0.0000
# 2 53.1115 73.3492 12.1465 0.0000 0.0000 0.0000
# 3 31.6213 12.1465 35.0653 0.0000 0.0000 0.0000
# 4 0.0000 0.0000 0.0000 17.7382 0.0000 0.0000
# 5 0.0000 0.0000 0.0000 0.0000 22.0918 0.0000
# 6 0.0000 0.0000 0.0000 0.0000 0.0000 32.6709
#
#
#
# Elastic Compliance Matrix: (Units=1/GPa)
#
#
# Indices 1 2 3 4 5 6 
#
# 1 0.013238 -0.008072 -0.009142 0.000000 0.000000 0.000000
# 2 -0.008072 0.019385 0.000564 0.000000 0.000000 0.000000
# 3 -0.009142 0.000564 0.036567 0.000000 0.000000 0.000000
# 4 0.000000 0.000000 0.000000 0.056376 0.000000 0.000000
# 5 0.000000 0.000000 0.000000 0.000000 0.045266 0.000000
# 6 0.000000 0.000000 0.000000 0.000000 0.000000 0.030608
#
#
# Mechanical properties :
#
#
# Convention : Reuss Voigt Hill
#
# Bulk Modulus (GPa) = 27.86239 47.99245 37.92742
# Shear Modulus (GPa) = 20.26734 23.91978 22.09356
#
# Velocity S-wave (km/s) = 3.16401 3.43731 3.30349
# Velocity P-wave (km/s) = 5.20678 6.28165 5.76930
#
# Compressibility (1/GPa) = 0.03589068
#
# Stress axis : x y z
#
# Youngs Moduli (GPa) = 75.53843 51.58704 27.34714
#
# Poissons Ratio (x) = 0.41640 0.25001
# Poissons Ratio (y) = 0.60973 -0.01543
# Poissons Ratio (z) = 0.69057 -0.02911
#
# Static dielectric constant tensor:
#      x y z
#    x 1.722550 0.000000 0.000000 
#    y 0.000000 1.725450 0.000000 
#    z 0.000000 0.000000 1.723560 
# 
# From -- ./inp_files/8246.got.cif
#   From: 2010.05.17/outbox.cif.g08.bks.cpg/sg33_5_cif.got.tgz:8246.got - 2010.06.03 17:15:25.
