data_PCOD9344971
_publ_section_title
;
Structure prediction by ZEFSAII (Michael W. Deem and Ramdas Pophale) SiO2 
 PCOD9344971
Probable space group: P N A 21
;
_chemical_formula_sum "Si O2"
_cell_formula_units_Z 32
_cell_length_a 9.454679
_cell_length_b 28.984850
_cell_length_c 5.084731
_cell_angle_alpha 90.000000
_cell_angle_beta 90.000000
_cell_angle_gamma 90.000000
_cell_volume 1393.432154
_symmetry_space_group_name_H-M "P N A 21"
_symmetry_group_IT_number 33
_symmetry_cell_setting 'orthorhombic'
loop_
_space_group_symop_operation_xyz
x,y,z
-x,-y,1/2+z
1/2-x,1/2+y,1/2+z
1/2+x,1/2-y,z
loop_
_atom_site_type_symbol
_atom_site_label
_atom_site_fract_x
_atom_site_fract_y
_atom_site_fract_z
Si Si1 0.512821 0.873132 0.089660
Si Si2 0.348702 0.849865 0.589685
Si Si3 0.863579 0.750762 0.441358
Si Si4 0.941015 0.899427 0.856918
Si Si5 0.239545 0.071417 0.849840
Si Si6 0.435318 0.311562 0.261208
Si Si7 0.916306 0.013987 0.458214
Si Si8 0.392919 0.228075 0.601434
O O1 0.387456 0.863789 0.295771
O O2 0.609722 0.909335 0.251158
O O3 0.608275 0.826480 0.050956
O O4 0.435850 0.878640 0.807388
O O5 0.395145 0.795849 0.603010
O O6 0.181671 0.843686 0.624356
O O7 0.942035 0.792572 0.576872
O O8 0.946751 0.740972 0.172223
O O9 0.705187 0.761475 0.353758
O O10 0.985480 0.848356 0.942685
O O11 0.844526 0.903247 0.591813
O O12 0.077154 0.933636 0.857380
O O13 0.848525 0.920497 0.086914
O O14 0.223091 0.017149 0.920694
O O15 0.358785 0.267741 0.392071
O O16 0.966406 0.008882 0.760336
#
# Coordination Sequence:
#
# PCOD9344971 Si02
#       8
#     4   4   4   4   4   4   4   4
#     4  11  23  40  58  82 115 155 199 242 291 352
#     4  11  24  41  54  81 115 158 194 248 295 338
#     4  11  23  40  57  79 113 162 203 246 300 345
#     4  10  22  34  61  93 118 150 190 245 306 359
#     4  10  20  38  62  90 116 150 193 245 303 362
#     4  12  24  38  59  81 119 156 205 244 302 359
#     4   8  16  34  56  87 121 143 181 242 305 357
#     4  11  24  37  57  81 117 154 205 248 290 348
#
# _framework density 22.964877000000001
#
# number of rings (size 3 to 8) (size 9 to 14) (size 15 to 20)
#    0.000    1.500    2.500    3.000    3.500    1.000 
#    0.000    0.000    0.000    1.500    0.000    0.000 
#    0.000    0.000    0.000    0.000    0.000    0.000 
#
# Total GULP energy -178317.820500 kJ/mol
# GULP energy per Si atom -5572.431891 kJ/mol
# Density = 2.291261 g / cm^3
# Si number density = 22.964877 Si / 1000 Ang^3
#
#
#
# Elastic Constant Matrix: (Units=GPa)
#
#
# Indices 1 2 3 4 5 6 
#
# 1 27.0296 -2.6063 -0.2171 0.0000 0.0000 0.0000
# 2 -2.6063 2.8257 8.7187 0.0000 0.0000 0.0000
# 3 -0.2171 8.7187 98.4274 0.0000 0.0000 0.0000
# 4 0.0000 0.0000 0.0000 16.2054 0.0000 0.0000
# 5 0.0000 0.0000 0.0000 0.0000 29.3459 0.0000
# 6 0.0000 0.0000 0.0000 0.0000 0.0000 13.4966
#
#
#
# Elastic Compliance Matrix: (Units=1/GPa)
#
#
# Indices 1 2 3 4 5 6 
#
# 1 0.042071 0.053004 -0.004602 0.000000 0.000000 0.000000
# 2 0.053004 0.553769 -0.048936 0.000000 0.000000 0.000000
# 3 -0.004602 -0.048936 0.014484 0.000000 0.000000 0.000000
# 4 0.000000 0.000000 0.000000 0.061708 0.000000 0.000000
# 5 0.000000 0.000000 0.000000 0.000000 0.034076 0.000000
# 6 0.000000 0.000000 0.000000 0.000000 0.000000 0.074093
#
#
# Mechanical properties :
#
#
# Convention : Reuss Voigt Hill
#
# Bulk Modulus (GPa) = 1.64135 15.56370 8.60252
# Shear Modulus (GPa) = 5.07947 19.96873 12.52410
#
# Velocity S-wave (km/s) = 1.48884 2.95198 2.33783
# Velocity P-wave (km/s) = 1.91619 4.29079 3.32285
#
# Compressibility (1/GPa) = 0.60925619
#
# Stress axis : x y z
#
# Youngs Moduli (GPa) = 23.76962 1.80581 69.04003
#
# Poissons Ratio (x) = -0.09572 0.31775
# Poissons Ratio (y) = -1.25989 3.37853
# Poissons Ratio (z) = 0.10940 0.08837
#
# Static dielectric constant tensor:
#      x y z
#    x 1.892110 0.000000 0.000000 
#    y 0.000000 1.935360 0.000000 
#    z 0.000000 0.000000 1.879090 
# 
# From -- ./inp_files/597.got.cif
#   From: 2010.05.17/outbox.cif.g08.bks.cpg/sg33_1_cif.got.tgz:597.got - 2010.06.03 17:15:25.
