data_PCOD9344283
_publ_section_title
;
Structure prediction by ZEFSAII (Michael W. Deem and Ramdas Pophale) SiO2 
 PCOD9344283
Probable space group: P B A 2
;
_chemical_formula_sum "Si O2"
_cell_formula_units_Z 20
_cell_length_a 9.578743
_cell_length_b 9.519432
_cell_length_c 10.106888
_cell_angle_alpha 90.000000
_cell_angle_beta 90.000000
_cell_angle_gamma 90.000000
_cell_volume 921.588422
_symmetry_space_group_name_H-M "P B A 2"
_symmetry_group_IT_number 32
_symmetry_cell_setting 'orthorhombic'
loop_
_space_group_symop_operation_xyz
x,y,z
-x,-y,z
1/2-x,1/2+y,z
1/2+x,1/2-y,z
loop_
_atom_site_type_symbol
_atom_site_label
_atom_site_fract_x
_atom_site_fract_y
_atom_site_fract_z
Si Si1 0.294584 0.420873 0.625000
Si Si2 0.571390 0.299495 0.722076
Si Si3 0.228103 0.261075 0.161212
Si Si4 0.664522 0.494389 0.336499
Si Si5 0.971870 0.337974 0.986127
O O1 0.436556 0.327902 0.630109
O O2 0.334678 0.559476 0.710241
O O3 0.167732 0.330211 0.680108
O O4 0.265128 0.467162 0.475204
O O5 0.508172 0.264224 0.865057
O O6 0.301381 0.398037 0.219218
O O7 0.211615 0.155340 0.282810
O O8 0.078594 0.302295 0.103891
O O9 0.318996 0.191473 0.044277
O O10 0.500000 0.500000 0.360528
O O11 0.000000 0.500000 0.948262
#
# Coordination Sequence:
#
# PCOD9344283 Si02
#       5
#     4   4   4   4   4
#     4  11  26  48  72 108 142 192 238 299 364 426
#     4  11  26  46  72 102 147 186 242 295 359 428
#     4  12  26  45  74 103 141 189 231 300 357 426
#     4  12  24  46  73 104 147 181 241 297 362 425
#     4  12  27  46  70 106 141 187 241 290 361 432
#
# _framework density 21.701661999999999
#
# number of rings (size 3 to 8) (size 9 to 14) (size 15 to 20)
#    0.000    0.400    6.000    2.400    5.600    3.200 
#    0.000    0.000    0.000    0.000    0.000    0.000 
#    0.000    0.000    0.000    0.000    0.000    0.000 
#
# Total GULP energy -111963.779443 kJ/mol
# GULP energy per Si atom -5598.188972 kJ/mol
# Density = 2.165227 g / cm^3
# Si number density = 21.701662 Si / 1000 Ang^3
#
#
#
# Elastic Constant Matrix: (Units=GPa)
#
#
# Indices 1 2 3 4 5 6 
#
# 1 48.8887 4.9447 11.3654 0.0000 0.0000 0.0000
# 2 4.9447 68.8137 23.2783 0.0000 0.0000 0.0000
# 3 11.3654 23.2783 71.9421 0.0000 0.0000 0.0000
# 4 0.0000 0.0000 0.0000 41.8194 0.0000 0.0000
# 5 0.0000 0.0000 0.0000 0.0000 15.0269 0.0000
# 6 0.0000 0.0000 0.0000 0.0000 0.0000 25.3638
#
#
#
# Elastic Compliance Matrix: (Units=1/GPa)
#
#
# Indices 1 2 3 4 5 6 
#
# 1 0.021246 -0.000439 -0.003214 0.000000 0.000000 0.000000
# 2 -0.000439 0.016327 -0.005214 0.000000 0.000000 0.000000
# 3 -0.003214 -0.005214 0.016095 0.000000 0.000000 0.000000
# 4 0.000000 0.000000 0.000000 0.023912 0.000000 0.000000
# 5 0.000000 0.000000 0.000000 0.000000 0.066547 0.000000
# 6 0.000000 0.000000 0.000000 0.000000 0.000000 0.039426
#
#
# Mechanical properties :
#
#
# Convention : Reuss Voigt Hill
#
# Bulk Modulus (GPa) = 27.82891 29.86901 28.84896
# Shear Modulus (GPa) = 23.44480 26.44575 24.94528
#
# Velocity S-wave (km/s) = 3.29039 3.49464 3.39405
# Velocity P-wave (km/s) = 5.22368 5.48422 5.35553
#
# Compressibility (1/GPa) = 0.03593385
#
# Stress axis : x y z
#
# Youngs Moduli (GPa) = 47.06702 61.24748 62.13176
#
# Poissons Ratio (x) = 0.02691 0.19971
# Poissons Ratio (y) = 0.02068 0.32393
# Poissons Ratio (z) = 0.15129 0.31932
#
# Static dielectric constant tensor:
#      x y z
#    x 1.815090 0.000000 0.000000 
#    y 0.000000 2.146170 0.000000 
#    z 0.000000 0.000000 1.752910 
# 
# From -- ./inp_files/2185.got.cif
#   From: 2010.05.17/outbox.cif.g08.bks.cpg/sg32_2_cif.got.tgz:2185.got - 2010.06.03 17:12:27.
