data_PCOD9344340
_publ_section_title
;
Structure prediction by ZEFSAII (Michael W. Deem and Ramdas Pophale) SiO2 
 PCOD9344340
Probable space group: P N A 21
;
_chemical_formula_sum "Si O2"
_cell_formula_units_Z 28
_cell_length_a 16.820203
_cell_length_b 10.963109
_cell_length_c 5.346694
_cell_angle_alpha 90.000000
_cell_angle_beta 90.000000
_cell_angle_gamma 90.000000
_cell_volume 985.939564
_symmetry_space_group_name_H-M "P N A 21"
_symmetry_group_IT_number 33
_symmetry_cell_setting 'orthorhombic'
loop_
_space_group_symop_operation_xyz
x,y,z
-x,-y,1/2+z
1/2-x,1/2+y,1/2+z
1/2+x,1/2-y,z
loop_
_atom_site_type_symbol
_atom_site_label
_atom_site_fract_x
_atom_site_fract_y
_atom_site_fract_z
Si Si1 0.964610 0.060962 0.638560
Si Si2 0.054092 0.289039 0.828965
Si Si3 0.185682 0.277769 0.506986
Si Si4 0.263020 0.372616 0.999677
Si Si5 0.387513 0.032951 0.515927
Si Si6 0.827546 0.898377 0.626318
Si Si7 0.144297 0.661953 0.525717
O O1 0.871352 0.027088 0.604944
O O2 0.988891 0.196439 0.723390
O O3 0.004098 0.023735 0.371250
O O4 0.101913 0.334112 0.582638
O O5 0.057385 0.412522 0.991480
O O6 0.114368 0.194970 0.976122
O O7 0.240367 0.304960 0.739981
O O8 0.225599 0.327670 0.261571
O O9 0.168317 0.140240 0.419181
O O10 0.101419 0.620796 0.779061
O O11 0.349380 0.310144 0.034005
O O12 0.204772 0.488946 0.981013
O O13 0.392430 0.101380 0.779212
O O14 0.736553 0.890024 0.536039
#
# Coordination Sequence:
#
# PCOD9344340 Si02
#       7
#     4   4   4   4   4   4   4
#     4  10  20  28  48  70  90 134 166 188 252 310
#     4  10  19  32  47  67 101 126 163 203 241 303
#     4  10  14  28  47  58  90 128 145 190 240 268
#     4  10  20  32  45  64  98 124 159 212 228 286
#     4  11  21  30  49  69  93 136 166 194 247 289
#     4  10  19  32  47  67 101 126 163 203 241 303
#     4  11  21  30  49  69  93 136 166 194 247 289
#
# _framework density 28.399308000000001
#
# number of rings (size 3 to 8) (size 9 to 14) (size 15 to 20)
#    0.000    1.714    7.143    3.429    0.000    0.000 
#    0.000    0.000    0.000    0.000    0.000    0.000 
#    0.000    4.571    0.000    0.000    0.000    0.000 
#
# Total GULP energy -156169.792646 kJ/mol
# GULP energy per Si atom -5577.492594 kJ/mol
# Density = 2.833467 g / cm^3
# Si number density = 28.399308 Si / 1000 Ang^3
#
#
#
# Elastic Constant Matrix: (Units=GPa)
#
#
# Indices 1 2 3 4 5 6 
#
# 1 91.1091 26.3439 26.4668 0.0000 0.0000 0.0000
# 2 26.3439 72.2312 27.2802 0.0000 0.0000 0.0000
# 3 26.4668 27.2802 189.9264 0.0000 0.0000 0.0000
# 4 0.0000 0.0000 0.0000 49.7156 0.0000 0.0000
# 5 0.0000 0.0000 0.0000 0.0000 20.9946 0.0000
# 6 0.0000 0.0000 0.0000 0.0000 0.0000 42.4747
#
#
#
# Elastic Compliance Matrix: (Units=1/GPa)
#
#
# Indices 1 2 3 4 5 6 
#
# 1 0.012503 -0.004126 -0.001150 0.000000 0.000000 0.000000
# 2 -0.004126 0.016000 -0.001723 0.000000 0.000000 0.000000
# 3 -0.001150 -0.001723 0.005673 0.000000 0.000000 0.000000
# 4 0.000000 0.000000 0.000000 0.020114 0.000000 0.000000
# 5 0.000000 0.000000 0.000000 0.000000 0.047631 0.000000
# 6 0.000000 0.000000 0.000000 0.000000 0.000000 0.023543
#
#
# Mechanical properties :
#
#
# Convention : Reuss Voigt Hill
#
# Bulk Modulus (GPa) = 49.55809 57.04983 53.30396
# Shear Modulus (GPa) = 34.20246 40.84870 37.52558
#
# Velocity S-wave (km/s) = 3.47413 3.79670 3.63899
# Velocity P-wave (km/s) = 5.79492 6.27311 6.03875
#
# Compressibility (1/GPa) = 0.02017834
#
# Stress axis : x y z
#
# Youngs Moduli (GPa) = 79.98221 62.50007 176.27584
#
# Poissons Ratio (x) = 0.25786 0.20266
# Poissons Ratio (y) = 0.32999 0.30376
# Poissons Ratio (z) = 0.09195 0.10770
#
# Static dielectric constant tensor:
#      x y z
#    x 2.321400 0.000000 0.000000 
#    y 0.000000 2.496660 0.000000 
#    z 0.000000 0.000000 2.182780 
# 
# From -- ./inp_files/2451.got.cif
#   From: 2010.05.17/outbox.cif.g08.bks.cpg/sg33_2_cif.got.tgz:2451.got - 2010.06.03 17:15:25.
