data_PCOD9344663
_publ_section_title
;
Structure prediction by ZEFSAII (Michael W. Deem and Ramdas Pophale) SiO2 
 PCOD9344663
Probable space group: P N A 21
;
_chemical_formula_sum "Si O2"
_cell_formula_units_Z 28
_cell_length_a 15.467160
_cell_length_b 5.681788
_cell_length_c 12.538210
_cell_angle_alpha 90.000000
_cell_angle_beta 90.000000
_cell_angle_gamma 90.000000
_cell_volume 1101.871989
_symmetry_space_group_name_H-M "P N A 21"
_symmetry_group_IT_number 33
_symmetry_cell_setting 'orthorhombic'
loop_
_space_group_symop_operation_xyz
x,y,z
-x,-y,1/2+z
1/2-x,1/2+y,1/2+z
1/2+x,1/2-y,z
loop_
_atom_site_type_symbol
_atom_site_label
_atom_site_fract_x
_atom_site_fract_y
_atom_site_fract_z
Si Si1 0.625149 0.265362 0.862600
Si Si2 0.711381 0.365107 0.574739
Si Si3 0.288966 0.445964 0.752826
Si Si4 0.539449 0.233674 0.076542
Si Si5 0.867233 0.235531 0.942676
Si Si6 0.745044 0.144663 0.349307
Si Si7 0.982766 0.761449 0.164901
O O1 0.614577 0.246101 0.988588
O O2 0.663275 0.520834 0.832715
O O3 0.542257 0.234157 0.788698
O O4 0.699162 0.092016 0.819570
O O5 0.691714 0.633505 0.539003
O O6 0.746846 0.266790 0.463950
O O7 0.612848 0.274521 0.605800
O O8 0.775227 0.244255 0.661303
O O9 0.364748 0.440094 0.841530
O O10 0.282459 0.725547 0.740041
O O11 0.456424 0.226075 0.998792
O O12 0.530004 0.487651 0.137470
O O13 0.532756 0.979561 0.133970
O O14 0.825817 0.450443 0.879754
#
# Coordination Sequence:
#
# PCOD9344663 Si02
#       7
#     4   4   4   4   4   4   4
#     4  10  24  39  61  92 126 165 210 268 319 387
#     4   9  18  36  61  88 121 164 208 254 319 388
#     4   9  20  36  60  91 124 165 206 260 327 380
#     4  11  23  42  64  90 125 167 214 260 312 387
#     4   9  19  37  57  87 120 160 209 258 317 373
#     4  10  19  36  62  90 121 160 210 269 311 381
#     4  10  23  40  67  88 123 173 209 249 329 386
#
# _framework density 25.411297999999999
#
# number of rings (size 3 to 8) (size 9 to 14) (size 15 to 20)
#    0.000    2.286    1.429    0.000    6.000    2.286 
#    2.571    1.429    0.000    0.000    0.000    0.000 
#    0.000    0.000    0.000    0.000    0.000    0.000 
#
# Total GULP energy -155885.995009 kJ/mol
# GULP energy per Si atom -5567.356965 kJ/mol
# Density = 2.535346 g / cm^3
# Si number density = 25.411298 Si / 1000 Ang^3
#
#
#
# Elastic Constant Matrix: (Units=GPa)
#
#
# Indices 1 2 3 4 5 6 
#
# 1 38.6923 18.2380 7.9167 0.0000 0.0000 0.0000
# 2 18.2380 97.4317 37.2337 0.0000 0.0000 0.0000
# 3 7.9167 37.2337 110.4091 0.0000 0.0000 0.0000
# 4 0.0000 0.0000 0.0000 27.7886 0.0000 0.0000
# 5 0.0000 0.0000 0.0000 0.0000 42.7933 0.0000
# 6 0.0000 0.0000 0.0000 0.0000 0.0000 22.3732
#
#
#
# Elastic Compliance Matrix: (Units=1/GPa)
#
#
# Indices 1 2 3 4 5 6 
#
# 1 0.028354 -0.005201 -0.000279 0.000000 0.000000 0.000000
# 2 -0.005201 0.012736 -0.003922 0.000000 0.000000 0.000000
# 3 -0.000279 -0.003922 0.010400 0.000000 0.000000 0.000000
# 4 0.000000 0.000000 0.000000 0.035986 0.000000 0.000000
# 5 0.000000 0.000000 0.000000 0.000000 0.023368 0.000000
# 6 0.000000 0.000000 0.000000 0.000000 0.000000 0.044696
#
#
# Mechanical properties :
#
#
# Convention : Reuss Voigt Hill
#
# Bulk Modulus (GPa) = 30.59474 41.47888 36.03681
# Shear Modulus (GPa) = 26.99219 30.80069 28.89644
#
# Velocity S-wave (km/s) = 3.26270 3.48528 3.37582
# Velocity P-wave (km/s) = 5.12441 5.70567 5.42283
#
# Compressibility (1/GPa) = 0.03268535
#
# Stress axis : x y z
#
# Youngs Moduli (GPa) = 35.26900 78.51799 96.15481
#
# Poissons Ratio (x) = 0.40835 0.02684
# Poissons Ratio (y) = 0.18342 0.37713
# Poissons Ratio (z) = 0.00985 0.30795
#
# Static dielectric constant tensor:
#      x y z
#    x 2.098000 0.000000 0.000000 
#    y 0.000000 2.417970 0.000000 
#    z 0.000000 0.000000 2.014770 
# 
# From -- ./inp_files/7130.got.cif
#   From: 2010.05.17/outbox.cif.g08.bks.cpg/sg33_4_cif.got.tgz:7130.got - 2010.06.03 17:15:25.
