data_PCOD9344804
_publ_section_title
;
Structure prediction by ZEFSAII (Michael W. Deem and Ramdas Pophale) SiO2 
 PCOD9344804
Probable space group: P N A 21
;
_chemical_formula_sum "Si O2"
_cell_formula_units_Z 28
_cell_length_a 5.084883
_cell_length_b 25.826395
_cell_length_c 10.125853
_cell_angle_alpha 90.000000
_cell_angle_beta 90.000000
_cell_angle_gamma 90.000000
_cell_volume 1329.769513
_symmetry_space_group_name_H-M "P N A 21"
_symmetry_group_IT_number 33
_symmetry_cell_setting 'orthorhombic'
loop_
_space_group_symop_operation_xyz
x,y,z
-x,-y,1/2+z
1/2-x,1/2+y,1/2+z
1/2+x,1/2-y,z
loop_
_atom_site_type_symbol
_atom_site_label
_atom_site_fract_x
_atom_site_fract_y
_atom_site_fract_z
Si Si1 0.743467 0.779741 0.079530
Si Si2 0.030761 0.560383 0.947779
Si Si3 0.972223 0.118789 0.512275
Si Si4 0.253015 0.216506 0.897581
Si Si5 0.887245 0.400629 0.957450
Si Si6 0.084659 0.518869 0.678635
Si Si7 0.596982 0.567207 0.290220
O O1 0.439014 0.768473 0.051122
O O2 0.887131 0.826163 0.005297
O O3 0.749530 0.789344 0.237772
O O4 0.947159 0.529999 0.817257
O O5 0.823580 0.606746 0.968112
O O6 0.028069 0.522732 0.074714
O O7 0.326571 0.580810 0.937695
O O8 0.965963 0.104281 0.667434
O O9 0.471145 0.259554 0.933130
O O10 0.325553 0.160596 0.956541
O O11 0.642379 0.429063 0.889146
O O12 0.144434 0.413006 0.868805
O O13 0.906397 0.427399 0.100014
O O14 0.347251 0.488877 0.726822
#
# Coordination Sequence:
#
# PCOD9344804 Si02
#       7
#     4   4   4   4   4   4   4
#     4  10  20  33  61  91 125 159 210 273 328 377
#     4  11  26  41  66  90 135 169 213 265 310 397
#     4  11  23  40  62  90 133 163 212 259 332 370
#     4  10  21  37  60  94 130 164 220 275 322 379
#     4  12  24  41  67  93 135 174 213 266 341 373
#     4  11  26  44  65  97 132 176 217 260 321 396
#     4  11  24  38  63  93 132 169 205 264 316 392
#
# _framework density 21.056280000000001
#
# number of rings (size 3 to 8) (size 9 to 14) (size 15 to 20)
#    0.000    1.143    2.857    3.429    8.000    3.429 
#    0.000    0.000    0.000    5.143    0.000    0.000 
#    0.000    0.000    0.000    0.000    0.000    0.000 
#
# Total GULP energy -156353.148471 kJ/mol
# GULP energy per Si atom -5584.041017 kJ/mol
# Density = 2.100835 g / cm^3
# Si number density = 21.056280 Si / 1000 Ang^3
#
#
#
# Elastic Constant Matrix: (Units=GPa)
#
#
# Indices 1 2 3 4 5 6 
#
# 1 91.0858 22.2462 9.2427 0.0000 0.0000 0.0000
# 2 22.2462 97.9506 21.3917 0.0000 0.0000 0.0000
# 3 9.2427 21.3917 47.3598 0.0000 0.0000 0.0000
# 4 0.0000 0.0000 0.0000 19.8162 0.0000 0.0000
# 5 0.0000 0.0000 0.0000 0.0000 12.5833 0.0000
# 6 0.0000 0.0000 0.0000 0.0000 0.0000 20.0746
#
#
#
# Elastic Compliance Matrix: (Units=1/GPa)
#
#
# Indices 1 2 3 4 5 6 
#
# 1 0.011685 -0.002392 -0.001200 0.000000 0.000000 0.000000
# 2 -0.002392 0.011816 -0.004870 0.000000 0.000000 0.000000
# 3 -0.001200 -0.004870 0.023549 0.000000 0.000000 0.000000
# 4 0.000000 0.000000 0.000000 0.050464 0.000000 0.000000
# 5 0.000000 0.000000 0.000000 0.000000 0.079471 0.000000
# 6 0.000000 0.000000 0.000000 0.000000 0.000000 0.049814
#
#
# Mechanical properties :
#
#
# Convention : Reuss Voigt Hill
#
# Bulk Modulus (GPa) = 33.19455 38.01750 35.60603
# Shear Modulus (GPa) = 19.70332 22.72918 21.21625
#
# Velocity S-wave (km/s) = 3.06231 3.28906 3.17771
# Velocity P-wave (km/s) = 5.32002 5.70248 5.51457
#
# Compressibility (1/GPa) = 0.03012542
#
# Stress axis : x y z
#
# Youngs Moduli (GPa) = 85.58299 84.63053 42.46456
#
# Poissons Ratio (x) = 0.20241 0.05096
# Poissons Ratio (y) = 0.20469 0.20682
# Poissons Ratio (z) = 0.10271 0.41218
#
# Static dielectric constant tensor:
#      x y z
#    x 1.756160 0.000000 0.000000 
#    y 0.000000 1.823310 0.000000 
#    z 0.000000 0.000000 1.734020 
# 
# From -- ./inp_files/2740.got.cif
#   From: 2010.05.17/outbox.cif.g08.bks.cpg/sg33_2_cif.got.tgz:2740.got - 2010.06.03 17:15:25.
