data_PCOD9344438
_publ_section_title
;
Structure prediction by ZEFSAII (Michael W. Deem and Ramdas Pophale) SiO2 
 PCOD9344438
Probable space group: P N A 21
;
_chemical_formula_sum "Si O2"
_cell_formula_units_Z 28
_cell_length_a 16.906112
_cell_length_b 8.921786
_cell_length_c 9.372098
_cell_angle_alpha 90.000000
_cell_angle_beta 90.000000
_cell_angle_gamma 90.000000
_cell_volume 1413.618971
_symmetry_space_group_name_H-M "P N A 21"
_symmetry_group_IT_number 33
_symmetry_cell_setting 'orthorhombic'
loop_
_space_group_symop_operation_xyz
x,y,z
-x,-y,1/2+z
1/2-x,1/2+y,1/2+z
1/2+x,1/2-y,z
loop_
_atom_site_type_symbol
_atom_site_label
_atom_site_fract_x
_atom_site_fract_y
_atom_site_fract_z
Si Si1 0.338376 0.350217 0.173370
Si Si2 0.991225 0.971200 0.592187
Si Si3 0.860908 0.906693 0.372444
Si Si4 0.323130 0.875037 0.536167
Si Si5 0.405401 0.055965 0.278640
Si Si6 0.070417 0.274201 0.291360
Si Si7 0.577533 0.238818 0.606855
O O1 0.420995 0.401402 0.101568
O O2 0.331712 0.430524 0.328208
O O3 0.265310 0.410229 0.082736
O O4 0.346371 0.173502 0.202795
O O5 0.945989 0.927502 0.448015
O O6 0.945011 0.888409 0.720263
O O7 0.001627 0.149677 0.603997
O O8 0.816074 0.794936 0.475604
O O9 0.867491 0.819480 0.223109
O O10 0.378980 0.865196 0.675368
O O11 0.364290 0.977326 0.415337
O O12 0.484933 0.148105 0.315756
O O13 0.432608 0.926512 0.168982
O O14 0.109099 0.263880 0.446228
#
# Coordination Sequence:
#
# PCOD9344438 Si02
#       7
#     4   4   4   4   4   4   4
#     4  10  21  37  59  85 117 152 196 247 298 347
#     4   9  18  36  59  82 111 151 193 234 287 356
#     4   9  20  38  58  81 114 153 193 235 289 358
#     4  10  22  39  58  85 119 152 194 249 297 348
#     4  10  21  37  56  83 115 149 192 243 291 345
#     4  10  20  35  58  84 112 151 194 239 291 348
#     4  10  18  32  56  82 108 144 190 233 277 334
#
# _framework density 19.807319
#
# number of rings (size 3 to 8) (size 9 to 14) (size 15 to 20)
#    0.000    2.286    0.000    3.429    0.000    4.571 
#    0.000    2.857    0.000    1.714    0.000    0.000 
#    0.000    0.000    0.000    0.000    0.000    0.000 
#
# Total GULP energy -155977.823725 kJ/mol
# GULP energy per Si atom -5570.636562 kJ/mol
# Density = 1.976224 g / cm^3
# Si number density = 19.807319 Si / 1000 Ang^3
#
#
#
# Elastic Constant Matrix: (Units=GPa)
#
#
# Indices 1 2 3 4 5 6 
#
# 1 56.8136 6.5162 34.0821 0.0000 0.0000 0.0000
# 2 6.5162 106.8050 38.0417 0.0000 0.0000 0.0000
# 3 34.0821 38.0417 132.1618 0.0000 0.0000 0.0000
# 4 0.0000 0.0000 0.0000 30.4049 0.0000 0.0000
# 5 0.0000 0.0000 0.0000 0.0000 20.3818 0.0000
# 6 0.0000 0.0000 0.0000 0.0000 0.0000 13.6191
#
#
#
# Elastic Compliance Matrix: (Units=1/GPa)
#
#
# Indices 1 2 3 4 5 6 
#
# 1 0.020872 0.000717 -0.005589 0.000000 0.000000 0.000000
# 2 0.000717 0.010457 -0.003195 0.000000 0.000000 0.000000
# 3 -0.005589 -0.003195 0.009927 0.000000 0.000000 0.000000
# 4 0.000000 0.000000 0.000000 0.032889 0.000000 0.000000
# 5 0.000000 0.000000 0.000000 0.000000 0.049063 0.000000
# 6 0.000000 0.000000 0.000000 0.000000 0.000000 0.073426
#
#
# Mechanical properties :
#
#
# Convention : Reuss Voigt Hill
#
# Bulk Modulus (GPa) = 39.80395 50.34004 45.07199
# Shear Modulus (GPa) = 22.60979 27.35719 24.98349
#
# Velocity S-wave (km/s) = 3.38225 3.72044 3.55537
# Velocity P-wave (km/s) = 5.94912 6.62764 6.29752
#
# Compressibility (1/GPa) = 0.02512313
#
# Stress axis : x y z
#
# Youngs Moduli (GPa) = 47.91129 95.62905 100.73124
#
# Poissons Ratio (x) = -0.06859 0.56298
# Poissons Ratio (y) = -0.03436 0.32183
# Poissons Ratio (z) = 0.26777 0.30553
#
# Static dielectric constant tensor:
#      x y z
#    x 1.698440 0.000000 0.000000 
#    y 0.000000 1.756290 0.000000 
#    z 0.000000 0.000000 1.717390 
# 
# From -- ./inp_files/4714.got.cif
#   From: 2010.05.17/outbox.cif.g08.bks.cpg/sg33_3_cif.got.tgz:4714.got - 2010.06.03 17:15:25.
