data_PCOD9344335
_publ_section_title
;
Structure prediction by ZEFSAII (Michael W. Deem and Ramdas Pophale) SiO2 
 PCOD9344335
Probable space group: P B A 2
;
_chemical_formula_sum "Si O2"
_cell_formula_units_Z 32
_cell_length_a 15.000000
_cell_length_b 9.000000
_cell_length_c 12.000000
_cell_angle_alpha 90.000000
_cell_angle_beta 90.000000
_cell_angle_gamma 90.000000
_cell_volume 1620.000000
_symmetry_space_group_name_H-M "P B A 2"
_symmetry_group_IT_number 32
_symmetry_cell_setting 'orthorhombic'
loop_
_space_group_symop_operation_xyz
x,y,z
-x,-y,z
1/2-x,1/2+y,z
1/2+x,1/2-y,z
loop_
_atom_site_type_symbol
_atom_site_label
_atom_site_fract_x
_atom_site_fract_y
_atom_site_fract_z
Si Si1 0.150744 0.325532 0.070420
Si Si2 0.810601 0.351334 0.457613
Si Si3 0.189399 0.648666 0.183980
Si Si4 0.150744 0.325532 0.571173
Si Si5 0.534763 0.663297 0.574708
Si Si6 0.198277 0.223275 0.820797
Si Si7 0.619752 0.619239 0.820796
Si Si8 0.965237 0.163297 0.066885
O O1 0.169220 0.489758 0.122477
O O2 0.216531 0.212775 0.137263
O O3 0.048337 0.274910 0.081412
O O4 0.169120 0.302782 0.937130
O O5 0.811540 0.363452 0.320796
O O6 0.830781 0.510243 0.519116
O O7 0.716531 0.287225 0.504330
O O8 0.883905 0.232268 0.503223
O O9 0.116096 0.767733 0.138369
O O10 0.169120 0.302782 0.704464
O O11 0.048338 0.274909 0.560181
O O12 0.500000 0.500000 0.538682
O O13 0.565233 0.642376 0.705136
O O14 0.304398 0.252953 0.820797
O O15 0.163359 0.049948 0.820797
O O16 0.565233 0.642377 0.936457
O O17 0.000000 0.000000 0.102910
#
# Coordination Sequence:
#
# PCOD9344335 Si02
#       8
#     4   4   4   4   4   4   4   4
#     4  12  25  46  74 106 144 190 237 303 369 429
#     4  12  28  49  72 104 145 194 251 299 353 433
#     4  12  28  49  72 104 145 194 251 299 353 433
#     4  12  25  46  74 106 144 190 237 303 369 429
#     4  12  25  45  74 105 147 188 237 300 368 430
#     4  12  23  44  77 106 148 185 230 298 374 434
#     4  12  24  45  72 114 149 183 237 302 370 448
#     4  12  25  45  74 105 147 188 237 300 368 430
#
# _framework density 19.753086
#
# number of rings (size 3 to 8) (size 9 to 14) (size 15 to 20)
#    0.000    0.000    5.000    5.625    0.000    3.500 
#    0.000    2.500    0.000    0.000    0.000    0.000 
#    0.000    0.000    0.000    0.000    0.000    0.000 
#
# Total GULP energy -178970.658801 kJ/mol
# GULP energy per Si atom -5592.833088 kJ/mol
# Density = 1.970813 g / cm^3
# Si number density = 19.753086 Si / 1000 Ang^3
#
#
#
# Elastic Constant Matrix: (Units=GPa)
#
#
# Indices 1 2 3 4 5 6 
#
# 1 125.2271 30.3779 38.5559 0.0000 0.0000 0.0000
# 2 30.3779 141.4623 53.3528 0.0000 0.0000 0.0000
# 3 38.5559 53.3528 180.7297 0.0000 0.0000 0.0000
# 4 0.0000 0.0000 0.0000 36.9617 0.0000 0.0000
# 5 0.0000 0.0000 0.0000 0.0000 31.2786 0.0000
# 6 0.0000 0.0000 0.0000 0.0000 0.0000 56.6681
#
#
#
# Elastic Compliance Matrix: (Units=1/GPa)
#
#
# Indices 1 2 3 4 5 6 
#
# 1 0.008762 -0.001324 -0.001478 0.000000 0.000000 0.000000
# 2 -0.001324 0.008155 -0.002125 0.000000 0.000000 0.000000
# 3 -0.001478 -0.002125 0.006476 0.000000 0.000000 0.000000
# 4 0.000000 0.000000 0.000000 0.027055 0.000000 0.000000
# 5 0.000000 0.000000 0.000000 0.000000 0.031971 0.000000
# 6 0.000000 0.000000 0.000000 0.000000 0.000000 0.017647
#
#
# Mechanical properties :
#
#
# Convention : Reuss Voigt Hill
#
# Bulk Modulus (GPa) = 73.86652 76.88803 75.37727
# Shear Modulus (GPa) = 43.69415 46.65719 45.17567
#
# Velocity S-wave (km/s) = 4.70831 4.86533 4.78747
# Velocity P-wave (km/s) = 8.18741 8.40066 8.29472
#
# Compressibility (1/GPa) = 0.01353793
#
# Stress axis : x y z
#
# Youngs Moduli (GPa) = 114.13135 122.62812 154.42125
#
# Poissons Ratio (x) = 0.16236 0.22829
# Poissons Ratio (y) = 0.15111 0.32813
# Poissons Ratio (z) = 0.16873 0.26057
#
# Static dielectric constant tensor:
#      x y z
#    x 1.728910 0.000000 0.000000 
#    y 0.000000 1.698980 0.000000 
#    z 0.000000 0.000000 1.688840 
# 
# From -- ./inp_files/3945.got.cif
#   From: 2010.05.17/outbox.ucp.g08.bks.cvg/sg32_2_cif.got.tgz:3945.got - 2010.06.11 10:34:49.
