data_PCOD9344967
_publ_section_title
;
Structure prediction by ZEFSAII (Michael W. Deem and Ramdas Pophale) SiO2 
 PCOD9344967
Probable space group: P N A 21
;
_chemical_formula_sum "Si O2"
_cell_formula_units_Z 24
_cell_length_a 8.218242
_cell_length_b 9.578014
_cell_length_c 13.834000
_cell_angle_alpha 90.000000
_cell_angle_beta 90.000000
_cell_angle_gamma 90.000000
_cell_volume 1088.935521
_symmetry_space_group_name_H-M "P N A 21"
_symmetry_group_IT_number 33
_symmetry_cell_setting 'orthorhombic'
loop_
_space_group_symop_operation_xyz
x,y,z
-x,-y,1/2+z
1/2-x,1/2+y,1/2+z
1/2+x,1/2-y,z
loop_
_atom_site_type_symbol
_atom_site_label
_atom_site_fract_x
_atom_site_fract_y
_atom_site_fract_z
Si Si1 0.943320 0.779740 0.191220
Si Si2 0.831471 0.569420 0.886873
Si Si3 0.500735 0.675742 0.975697
Si Si4 0.629409 0.977264 0.179922
Si Si5 0.725652 0.569321 0.483222
Si Si6 0.982149 0.275227 0.901131
O O1 0.769720 0.857049 0.190851
O O2 0.962052 0.611327 0.180193
O O3 0.018137 0.803186 0.297704
O O4 0.025982 0.832784 0.091645
O O5 0.654029 0.617087 0.919171
O O6 0.957232 0.667653 0.943923
O O7 0.859852 0.577332 0.771975
O O8 0.860515 0.406417 0.907286
O O9 0.341847 0.581591 0.954380
O O10 0.675638 0.054608 0.082126
O O11 0.565495 0.666802 0.484210
O O12 0.844511 0.649035 0.410597
#
# Coordination Sequence:
#
# PCOD9344967 Si02
#       6
#     4   4   4   4   4   4
#     4  10  20  38  62  84 116 160 204 234 294 376
#     4  11  23  39  61  88 123 159 204 253 308 360
#     4  11  22  40  62  90 121 160 205 254 302 362
#     4  10  22  38  60  90 120 160 202 250 306 362
#     4  11  23  39  61  88 123 159 204 253 308 360
#     4  11  22  40  62  90 121 160 205 254 302 362
#
# _framework density 22.039871999999999
#
# number of rings (size 3 to 8) (size 9 to 14) (size 15 to 20)
#    0.000    1.333    0.000    8.000    0.000    1.333 
#    0.000    3.333    0.000    0.000    0.000    0.000 
#    0.000    0.000    0.000    0.000    0.000    0.000 
#
# Total GULP energy -133973.648511 kJ/mol
# GULP energy per Si atom -5582.235355 kJ/mol
# Density = 2.198971 g / cm^3
# Si number density = 22.039872 Si / 1000 Ang^3
#
#
#
# Elastic Constant Matrix: (Units=GPa)
#
#
# Indices 1 2 3 4 5 6 
#
# 1 48.8037 12.4954 35.5079 0.0000 0.0000 0.0000
# 2 12.4954 75.4065 43.3212 0.0000 0.0000 0.0000
# 3 35.5079 43.3212 91.3006 0.0000 0.0000 0.0000
# 4 0.0000 0.0000 0.0000 34.7135 0.0000 0.0000
# 5 0.0000 0.0000 0.0000 0.0000 22.4806 0.0000
# 6 0.0000 0.0000 0.0000 0.0000 0.0000 48.3441
#
#
#
# Elastic Compliance Matrix: (Units=1/GPa)
#
#
# Indices 1 2 3 4 5 6 
#
# 1 0.028861 0.002290 -0.012311 0.000000 0.000000 0.000000
# 2 0.002290 0.018413 -0.009627 0.000000 0.000000 0.000000
# 3 -0.012311 -0.009627 0.020309 0.000000 0.000000 0.000000
# 4 0.000000 0.000000 0.000000 0.028807 0.000000 0.000000
# 5 0.000000 0.000000 0.000000 0.000000 0.044483 0.000000
# 6 0.000000 0.000000 0.000000 0.000000 0.000000 0.020685
#
#
# Mechanical properties :
#
#
# Convention : Reuss Voigt Hill
#
# Bulk Modulus (GPa) = 35.35285 44.23998 39.79642
# Shear Modulus (GPa) = 23.77746 29.38675 26.58210
#
# Velocity S-wave (km/s) = 3.28813 3.65546 3.47665
# Velocity P-wave (km/s) = 5.52186 6.15896 5.84909
#
# Compressibility (1/GPa) = 0.02828626
#
# Stress axis : x y z
#
# Youngs Moduli (GPa) = 34.64881 54.30969 49.23949
#
# Poissons Ratio (x) = -0.12439 0.60619
# Poissons Ratio (y) = -0.07936 0.47405
# Poissons Ratio (z) = 0.42657 0.52286
#
# Static dielectric constant tensor:
#      x y z
#    x 1.912810 0.000000 0.000000 
#    y 0.000000 1.800120 0.000000 
#    z 0.000000 0.000000 1.812160 
# 
# From -- ./inp_files/7551.got.cif
#   From: 2010.05.17/outbox.cif.g08.bks.cpg/sg33_4_cif.got.tgz:7551.got - 2010.06.03 17:15:25.
