data_PCOD9344447
_publ_section_title
;
Structure prediction by ZEFSAII (Michael W. Deem and Ramdas Pophale) SiO2 
 PCOD9344447
Probable space group: P N A 21
;
_chemical_formula_sum "Si O2"
_cell_formula_units_Z 32
_cell_length_a 14.922948
_cell_length_b 11.861111
_cell_length_c 8.716944
_cell_angle_alpha 90.000000
_cell_angle_beta 90.000000
_cell_angle_gamma 90.000000
_cell_volume 1542.922996
_symmetry_space_group_name_H-M "P N A 21"
_symmetry_group_IT_number 33
_symmetry_cell_setting 'orthorhombic'
loop_
_space_group_symop_operation_xyz
x,y,z
-x,-y,1/2+z
1/2-x,1/2+y,1/2+z
1/2+x,1/2-y,z
loop_
_atom_site_type_symbol
_atom_site_label
_atom_site_fract_x
_atom_site_fract_y
_atom_site_fract_z
Si Si1 0.732396 0.658995 0.332560
Si Si2 0.901370 0.622769 0.530582
Si Si3 0.767603 0.841004 0.063651
Si Si4 0.668881 0.986508 0.277970
Si Si5 0.948025 0.265092 0.848601
Si Si6 0.831119 0.513492 0.118242
Si Si7 0.901371 0.377230 0.365629
Si Si8 0.448024 0.765093 0.047610
O O1 0.809091 0.670102 0.459423
O O2 0.749999 0.749999 0.198105
O O3 0.633037 0.682122 0.390830
O O4 0.755171 0.543721 0.242630
O O5 0.884701 0.591669 0.707399
O O6 0.917826 0.500000 0.448105
O O7 0.980138 0.704428 0.477885
O O8 0.744829 0.956277 0.153581
O O9 0.866961 0.817877 0.005381
O O10 0.690907 0.829897 0.936788
O O11 0.599066 0.882743 0.293998
O O12 0.705766 1.000000 0.448106
O O13 0.000000 0.221700 0.698105
O O14 0.884701 0.408330 0.188811
O O15 0.900934 0.617256 0.102215
O O16 0.980139 0.295573 0.418326
#
# Coordination Sequence:
#
# PCOD9344447 Si02
#       8
#     4   4   4   4   4   4   4   4
#     4   9  18  33  52  83 110 151 183 234 295 338
#     4  10  18  33  57  84 108 141 193 232 280 338
#     4   9  18  33  52  83 110 151 183 234 295 338
#     4  10  21  33  56  83 116 145 192 239 286 338
#     4  11  18  31  58  84 110 145 187 237 292 337
#     4  10  21  33  56  83 116 145 192 239 286 338
#     4  10  18  33  57  84 108 141 193 232 280 338
#     4  11  18  31  58  84 110 145 187 237 292 337
#
# _framework density 20.739854999999999
#
# number of rings (size 3 to 8) (size 9 to 14) (size 15 to 20)
#    0.000    2.000    7.500    0.750    0.000    0.000 
#    0.000    5.000    5.500    4.500    0.000    0.000 
#    0.000    0.000    0.000    0.250    0.000    0.000 
#
# Total GULP energy -178482.541471 kJ/mol
# GULP energy per Si atom -5577.579421 kJ/mol
# Density = 2.069265 g / cm^3
# Si number density = 20.739855 Si / 1000 Ang^3
#
#
#
# Elastic Constant Matrix: (Units=GPa)
#
#
# Indices 1 2 3 4 5 6 
#
# 1 173.8630 42.7406 53.8187 0.0000 0.0000 0.0000
# 2 42.7406 22.3913 18.6847 0.0000 0.0000 0.0000
# 3 53.8187 18.6847 94.4577 0.0000 0.0000 0.0000
# 4 0.0000 0.0000 0.0000 24.0253 0.0000 0.0000
# 5 0.0000 0.0000 0.0000 0.0000 29.0366 0.0000
# 6 0.0000 0.0000 0.0000 0.0000 0.0000 38.9175
#
#
#
# Elastic Compliance Matrix: (Units=1/GPa)
#
#
# Indices 1 2 3 4 5 6 
#
# 1 0.011351 -0.019486 -0.002613 0.000000 0.000000 0.000000
# 2 -0.019486 0.086942 -0.006095 0.000000 0.000000 0.000000
# 3 -0.002613 -0.006095 0.013281 0.000000 0.000000 0.000000
# 4 0.000000 0.000000 0.000000 0.041623 0.000000 0.000000
# 5 0.000000 0.000000 0.000000 0.000000 0.034439 0.000000
# 6 0.000000 0.000000 0.000000 0.000000 0.000000 0.025695
#
#
# Mechanical properties :
#
#
# Convention : Reuss Voigt Hill
#
# Bulk Modulus (GPa) = 18.12084 57.91111 38.01598
# Shear Modulus (GPa) = 17.35424 30.09374 23.72399
#
# Velocity S-wave (km/s) = 2.89582 3.81335 3.38580
# Velocity P-wave (km/s) = 4.46511 6.88274 5.80126
#
# Compressibility (1/GPa) = 0.05518508
#
# Stress axis : x y z
#
# Youngs Moduli (GPa) = 88.10092 11.50198 75.29498
#
# Poissons Ratio (x) = 0.22413 0.19672
# Poissons Ratio (y) = 1.71673 0.45896
# Poissons Ratio (z) = 0.23018 0.07011
#
# Static dielectric constant tensor:
#      x y z
#    x 1.803130 0.000000 0.000000 
#    y 0.000000 1.793320 0.000000 
#    z 0.000000 0.000000 1.820010 
# 
# From -- ./inp_files/4497.got.cif
#   From: 2010.05.17/outbox.cif.g08.bks.cpg/sg33_3_cif.got.tgz:4497.got - 2010.06.03 17:15:25.
