data_PCOD9344326
_publ_section_title
;
Structure prediction by ZEFSAII (Michael W. Deem and Ramdas Pophale) SiO2 
 PCOD9344326
Probable space group: P B A 2
;
_chemical_formula_sum "Si O2"
_cell_formula_units_Z 32
_cell_length_a 7.077950
_cell_length_b 14.713587
_cell_length_c 13.034016
_cell_angle_alpha 90.000000
_cell_angle_beta 90.000000
_cell_angle_gamma 90.000000
_cell_volume 1357.388926
_symmetry_space_group_name_H-M "P B A 2"
_symmetry_group_IT_number 32
_symmetry_cell_setting 'orthorhombic'
loop_
_space_group_symop_operation_xyz
x,y,z
-x,-y,z
1/2-x,1/2+y,z
1/2+x,1/2-y,z
loop_
_atom_site_type_symbol
_atom_site_label
_atom_site_fract_x
_atom_site_fract_y
_atom_site_fract_z
Si Si1 0.795058 0.881430 0.537930
Si Si2 0.138089 0.329216 0.314161
Si Si3 0.224702 0.473279 0.697077
Si Si4 0.204942 0.118570 0.090391
Si Si5 0.224702 0.473279 0.931244
Si Si6 0.856401 0.670739 0.091247
Si Si7 0.701264 0.383172 0.314160
Si Si8 0.643599 0.170740 0.537074
O O1 0.825157 0.946577 0.633760
O O2 0.847702 0.921345 0.426018
O O3 0.568731 0.866596 0.533128
O O4 0.869719 0.778947 0.550659
O O5 0.229577 0.350070 0.204131
O O6 0.121081 0.219876 0.314160
O O7 0.229577 0.350070 0.424190
O O8 0.929909 0.372501 0.314161
O O9 0.286154 0.462626 0.814161
O O10 0.242054 0.382300 0.629037
O O11 0.000000 0.500000 0.700249
O O12 0.130283 0.221054 0.077662
O O13 0.431269 0.133404 0.095193
O O14 0.152299 0.078655 0.202303
O O15 0.174844 0.053423 0.994561
O O16 0.000000 0.500000 0.928071
O O17 0.242053 0.382301 0.999284
#
# Coordination Sequence:
#
# PCOD9344326 Si02
#       8
#     4   4   4   4   4   4   4   4
#     4   9  17  30  48  68  91 118 147 182 223 265
#     4   8  14  25  43  67  90 112 142 179 219 263
#     4   9  18  31  46  66  91 119 152 186 220 261
#     4   9  17  30  48  68  91 118 147 182 223 265
#     4   9  18  31  46  66  91 119 152 186 220 261
#     4   9  17  30  48  68  91 118 147 182 223 265
#     4   8  14  25  43  67  90 112 142 179 219 263
#     4   9  17  30  48  68  91 118 147 182 223 265
#
# _framework density 23.574673000000001
#
# number of rings (size 3 to 8) (size 9 to 14) (size 15 to 20)
#    0.000    3.250    0.000    0.000    0.000    2.000 
#    0.000    6.250    0.000    1.500    0.000   17.500 
#    0.000    0.000    0.000    0.000    0.000    0.000 
#
# Total GULP energy -178705.657953 kJ/mol
# GULP energy per Si atom -5584.551811 kJ/mol
# Density = 2.352102 g / cm^3
# Si number density = 23.574673 Si / 1000 Ang^3
#
#
#
# Elastic Constant Matrix: (Units=GPa)
#
#
# Indices 1 2 3 4 5 6 
#
# 1 76.1242 16.2679 21.2841 0.0000 0.0000 0.0000
# 2 16.2679 113.8366 114.3484 0.0000 0.0000 0.0000
# 3 21.2841 114.3484 297.9993 0.0000 0.0000 0.0000
# 4 0.0000 0.0000 0.0000 37.1303 0.0000 0.0000
# 5 0.0000 0.0000 0.0000 0.0000 2.3768 0.0000
# 6 0.0000 0.0000 0.0000 0.0000 0.0000 30.4359
#
#
#
# Elastic Compliance Matrix: (Units=1/GPa)
#
#
# Indices 1 2 3 4 5 6 
#
# 1 0.013575 -0.001572 -0.000366 0.000000 0.000000 0.000000
# 2 -0.001572 0.014476 -0.005443 0.000000 0.000000 0.000000
# 3 -0.000366 -0.005443 0.005470 0.000000 0.000000 0.000000
# 4 0.000000 0.000000 0.000000 0.026932 0.000000 0.000000
# 5 0.000000 0.000000 0.000000 0.000000 0.420725 0.000000
# 6 0.000000 0.000000 0.000000 0.000000 0.000000 0.032856
#
#
# Mechanical properties :
#
#
# Convention : Reuss Voigt Hill
#
# Bulk Modulus (GPa) = 53.30594 87.97344 70.63969
# Shear Modulus (GPa) = 9.34494 36.39260 22.86877
#
# Velocity S-wave (km/s) = 1.99313 3.93328 3.11795
# Velocity P-wave (km/s) = 5.28747 7.61745 6.55679
#
# Compressibility (1/GPa) = 0.01875964
#
# Stress axis : x y z
#
# Youngs Moduli (GPa) = 73.66600 69.07920 182.80567
#
# Poissons Ratio (x) = 0.10858 0.06698
# Poissons Ratio (y) = 0.11579 0.99492
# Poissons Ratio (z) = 0.02699 0.37597
#
# Static dielectric constant tensor:
#      x y z
#    x 1.959020 0.000000 0.000000 
#    y 0.000000 1.861350 0.000000 
#    z 0.000000 0.000000 1.873320 
# 
# From -- ./inp_files/3758.got.cif
#   From: 2010.05.17/outbox.cif.g08.bks.cpg/sg32_2_cif.got.tgz:3758.got - 2010.06.03 17:12:27.
