data_PCOD9344723
_publ_section_title
;
Structure prediction by ZEFSAII (Michael W. Deem and Ramdas Pophale) SiO2 
 PCOD9344723
Probable space group: P N A 21
;
_chemical_formula_sum "Si O2"
_cell_formula_units_Z 32
_cell_length_a 27.085447
_cell_length_b 6.025031
_cell_length_c 8.033477
_cell_angle_alpha 90.000000
_cell_angle_beta 90.000000
_cell_angle_gamma 90.000000
_cell_volume 1310.988396
_symmetry_space_group_name_H-M "P N A 21"
_symmetry_group_IT_number 33
_symmetry_cell_setting 'orthorhombic'
loop_
_space_group_symop_operation_xyz
x,y,z
-x,-y,1/2+z
1/2-x,1/2+y,1/2+z
1/2+x,1/2-y,z
loop_
_atom_site_type_symbol
_atom_site_label
_atom_site_fract_x
_atom_site_fract_y
_atom_site_fract_z
Si Si1 0.033127 0.183130 0.991440
Si Si2 0.876469 0.836549 0.296275
Si Si3 0.152676 0.532512 0.583238
Si Si4 0.537105 0.966994 0.275188
Si Si5 0.449220 0.647913 0.999650
Si Si6 0.617383 0.650312 0.294927
Si Si7 0.220046 0.903897 0.673951
Si Si8 0.302611 0.671369 0.858433
O O1 0.091325 0.143428 0.962456
O O2 0.007663 0.308564 0.832323
O O3 0.022877 0.346420 0.144247
O O4 0.003243 0.956284 0.012792
O O5 0.869321 0.576562 0.249419
O O6 0.915737 0.915660 0.156813
O O7 0.824656 0.969142 0.273553
O O8 0.130092 0.723443 0.468853
O O9 0.202919 0.652093 0.637706
O O10 0.159549 0.318275 0.466596
O O11 0.550356 0.096777 0.446800
O O12 0.585534 0.839330 0.203782
O O13 0.423409 0.527745 0.843957
O O14 0.666966 0.512305 0.252266
O O15 0.270542 0.858762 0.768798
O O16 0.226808 0.035658 0.501033
#
# Coordination Sequence:
#
# PCOD9344723 Si02
#       8
#     4   4   4   4   4   4   4   4
#     4  11  26  38  65  97 141 181 233 280 341 415
#     4  11  21  41  66  97 132 184 228 280 345 423
#     4  10  19  40  67  88 131 175 220 272 350 405
#     4  11  23  41  62 101 134 187 232 287 343 409
#     4  11  20  40  66  95 132 184 226 279 339 416
#     4  10  19  38  67  92 129 175 228 271 342 409
#     4  10  23  41  70  97 134 175 229 290 361 411
#     4  10  21  41  67 103 127 179 226 291 353 432
#
# _framework density 24.409064999999998
#
# number of rings (size 3 to 8) (size 9 to 14) (size 15 to 20)
#    0.000    1.500    5.000    1.500    1.750    6.000 
#    0.000    7.500    0.000    0.000    0.000    0.000 
#    0.000    0.000    0.000    0.000    0.000    0.000 
#
# Total GULP energy -178514.503400 kJ/mol
# GULP energy per Si atom -5578.578231 kJ/mol
# Density = 2.435351 g / cm^3
# Si number density = 24.409065 Si / 1000 Ang^3
#
#
#
# Elastic Constant Matrix: (Units=GPa)
#
#
# Indices 1 2 3 4 5 6 
#
# 1 93.8740 26.5976 22.3884 0.0000 0.0000 0.0000
# 2 26.5976 72.5903 7.3420 0.0000 0.0000 0.0000
# 3 22.3884 7.3420 51.1237 0.0000 0.0000 0.0000
# 4 0.0000 0.0000 0.0000 27.5063 0.0000 0.0000
# 5 0.0000 0.0000 0.0000 0.0000 33.9435 0.0000
# 6 0.0000 0.0000 0.0000 0.0000 0.0000 51.7343
#
#
#
# Elastic Compliance Matrix: (Units=1/GPa)
#
#
# Indices 1 2 3 4 5 6 
#
# 1 0.013084 -0.004277 -0.005116 0.000000 0.000000 0.000000
# 2 -0.004277 0.015377 -0.000335 0.000000 0.000000 0.000000
# 3 -0.005116 -0.000335 0.021849 0.000000 0.000000 0.000000
# 4 0.000000 0.000000 0.000000 0.036355 0.000000 0.000000
# 5 0.000000 0.000000 0.000000 0.000000 0.029461 0.000000
# 6 0.000000 0.000000 0.000000 0.000000 0.000000 0.019330
#
#
# Mechanical properties :
#
#
# Convention : Reuss Voigt Hill
#
# Bulk Modulus (GPa) = 32.41044 36.69379 34.55211
# Shear Modulus (GPa) = 30.26696 33.38748 31.82722
#
# Velocity S-wave (km/s) = 3.52517 3.70243 3.61489
# Velocity P-wave (km/s) = 5.46589 5.77433 5.62222
#
# Compressibility (1/GPa) = 0.03085425
#
# Stress axis : x y z
#
# Youngs Moduli (GPa) = 76.42664 65.03253 45.76886
#
# Poissons Ratio (x) = 0.27813 0.23415
# Poissons Ratio (y) = 0.32686 0.01535
# Poissons Ratio (z) = 0.39099 0.02181
#
# Static dielectric constant tensor:
#      x y z
#    x 1.998180 0.000000 0.000000 
#    y 0.000000 1.949560 0.000000 
#    z 0.000000 0.000000 2.072690 
# 
# From -- ./inp_files/5344.got.cif
#   From: 2010.05.17/outbox.cif.g08.bks.cpg/sg33_3_cif.got.tgz:5344.got - 2010.06.03 17:15:25.
