data_PCOD9344571
_publ_section_title
;
Structure prediction by ZEFSAII (Michael W. Deem and Ramdas Pophale) SiO2 
 PCOD9344571
Probable space group: P N A 21
;
_chemical_formula_sum "Si O2"
_cell_formula_units_Z 28
_cell_length_a 19.967344
_cell_length_b 12.641153
_cell_length_c 4.986242
_cell_angle_alpha 90.000000
_cell_angle_beta 90.000000
_cell_angle_gamma 90.000000
_cell_volume 1258.578592
_symmetry_space_group_name_H-M "P N A 21"
_symmetry_group_IT_number 33
_symmetry_cell_setting 'orthorhombic'
loop_
_space_group_symop_operation_xyz
x,y,z
-x,-y,1/2+z
1/2-x,1/2+y,1/2+z
1/2+x,1/2-y,z
loop_
_atom_site_type_symbol
_atom_site_label
_atom_site_fract_x
_atom_site_fract_y
_atom_site_fract_z
Si Si1 0.258082 0.587166 0.201710
Si Si2 0.645935 0.908056 0.565712
Si Si3 0.467122 0.457864 0.943382
Si Si4 0.039535 0.726112 0.247206
Si Si5 0.962482 0.539330 0.317872
Si Si6 0.825706 0.997633 0.669374
Si Si7 0.172576 0.766991 0.960807
O O1 0.197542 0.533703 0.370932
O O2 0.316999 0.584202 0.423012
O O3 0.224721 0.700629 0.141671
O O4 0.277458 0.532013 0.921052
O O5 0.585622 0.857517 0.401207
O O6 0.610040 0.986949 0.772797
O O7 0.679395 0.802661 0.692859
O O8 0.522945 0.508440 0.748484
O O9 0.471680 0.332394 0.910013
O O10 0.397429 0.495796 0.814554
O O11 0.091833 0.755023 0.012379
O O12 0.971819 0.659498 0.211667
O O13 0.985530 0.524494 0.624063
O O14 0.814370 0.110776 0.521804
#
# Coordination Sequence:
#
# PCOD9344571 Si02
#       7
#     4   4   4   4   4   4   4
#     4  11  23  41  62  98 126 162 216 273 309 384
#     4  10  20  38  66  96 127 165 217 263 321 394
#     4  11  25  43  66  91 124 167 219 261 306 383
#     4   9  21  36  64  92 125 167 212 252 322 373
#     4  10  19  33  58  94 129 157 199 259 318 372
#     4  11  25  41  69  90 127 169 215 260 329 374
#     4  10  21  40  67  91 122 171 220 256 311 400
#
# _framework density 22.247319999999998
#
# number of rings (size 3 to 8) (size 9 to 14) (size 15 to 20)
#    0.000    1.714    2.857    0.857   10.000    0.000 
#    0.000    4.286    3.143    0.000    0.000    0.000 
#    0.000    0.000    0.000    0.000    0.000    0.000 
#
# Total GULP energy -155899.922089 kJ/mol
# GULP energy per Si atom -5567.854360 kJ/mol
# Density = 2.219668 g / cm^3
# Si number density = 22.247320 Si / 1000 Ang^3
#
#
#
# Elastic Constant Matrix: (Units=GPa)
#
#
# Indices 1 2 3 4 5 6 
#
# 1 46.8142 28.3261 10.2411 0.0000 0.0000 0.0000
# 2 28.3261 48.6641 8.4199 0.0000 0.0000 0.0000
# 3 10.2411 8.4199 95.4589 0.0000 0.0000 0.0000
# 4 0.0000 0.0000 0.0000 22.5742 0.0000 0.0000
# 5 0.0000 0.0000 0.0000 0.0000 42.4856 0.0000
# 6 0.0000 0.0000 0.0000 0.0000 0.0000 31.0785
#
#
#
# Elastic Compliance Matrix: (Units=1/GPa)
#
#
# Indices 1 2 3 4 5 6 
#
# 1 0.033308 -0.019060 -0.001892 0.000000 0.000000 0.000000
# 2 -0.019060 0.031775 -0.000758 0.000000 0.000000 0.000000
# 3 -0.001892 -0.000758 0.010746 0.000000 0.000000 0.000000
# 4 0.000000 0.000000 0.000000 0.044298 0.000000 0.000000
# 5 0.000000 0.000000 0.000000 0.000000 0.023537 0.000000
# 6 0.000000 0.000000 0.000000 0.000000 0.000000 0.032177
#
#
# Mechanical properties :
#
#
# Convention : Reuss Voigt Hill
#
# Bulk Modulus (GPa) = 30.85699 31.65682 31.25690
# Shear Modulus (GPa) = 21.73316 28.82431 25.27873
#
# Velocity S-wave (km/s) = 3.12891 3.60339 3.37450
# Velocity P-wave (km/s) = 5.19168 5.61898 5.40955
#
# Compressibility (1/GPa) = 0.03240756
#
# Stress axis : x y z
#
# Youngs Moduli (GPa) = 30.02302 31.47171 93.06170
#
# Poissons Ratio (x) = 0.59986 0.17609
# Poissons Ratio (y) = 0.57224 0.07052
# Poissons Ratio (z) = 0.05681 0.02385
#
# Static dielectric constant tensor:
#      x y z
#    x 1.972400 0.000000 0.000000 
#    y 0.000000 1.833600 0.000000 
#    z 0.000000 0.000000 1.889390 
# 
# From -- ./inp_files/1996.got.cif
#   From: 2010.05.17/outbox.cif.g08.bks.cpg/sg33_1_cif.got.tgz:1996.got - 2010.06.03 17:15:25.
