data_PCOD9344457
_publ_section_title
;
Structure prediction by ZEFSAII (Michael W. Deem and Ramdas Pophale) SiO2 
 PCOD9344457
Probable space group: P N A 21
;
_chemical_formula_sum "Si O2"
_cell_formula_units_Z 28
_cell_length_a 11.966891
_cell_length_b 9.181355
_cell_length_c 9.993985
_cell_angle_alpha 90.000000
_cell_angle_beta 90.000000
_cell_angle_gamma 90.000000
_cell_volume 1098.061863
_symmetry_space_group_name_H-M "P N A 21"
_symmetry_group_IT_number 33
_symmetry_cell_setting 'orthorhombic'
loop_
_space_group_symop_operation_xyz
x,y,z
-x,-y,1/2+z
1/2-x,1/2+y,1/2+z
1/2+x,1/2-y,z
loop_
_atom_site_type_symbol
_atom_site_label
_atom_site_fract_x
_atom_site_fract_y
_atom_site_fract_z
Si Si1 0.398318 0.951213 0.138400
Si Si2 0.851251 0.982625 0.733248
Si Si3 0.016326 0.281742 0.230010
Si Si4 0.215819 0.168565 0.625329
Si Si5 0.379054 0.359070 0.465436
Si Si6 0.862777 0.128306 0.011164
Si Si7 0.287414 0.096161 0.897955
O O1 0.281207 0.993323 0.212276
O O2 0.496601 0.047165 0.202997
O O3 0.389747 0.776878 0.149315
O O4 0.377947 0.004283 0.984167
O O5 0.909433 0.061577 0.605794
O O6 0.896384 0.058123 0.868137
O O7 0.869699 0.808753 0.734684
O O8 0.959963 0.227490 0.368024
O O9 0.952811 0.208482 0.103332
O O10 0.284032 0.244488 0.507301
O O11 0.184238 0.007761 0.588321
O O12 0.300326 0.156792 0.749768
O O13 0.319851 0.493188 0.390417
O O14 0.773312 0.254813 0.980379
#
# Coordination Sequence:
#
# PCOD9344457 Si02
#       7
#     4   4   4   4   4   4   4
#     4   9  21  36  59  84 113 149 191 233 284 337
#     4  10  20  36  55  85 117 142 195 236 271 347
#     4  11  21  35  60  84 114 153 188 232 293 333
#     4  10  18  34  58  80 116 144 191 235 276 340
#     4  10  20  34  55  88 115 146 192 237 278 345
#     4  11  19  33  61  82 112 155 185 233 290 335
#     4   9  17  34  52  87 109 145 190 230 280 331
#
# _framework density 25.499472999999998
#
# number of rings (size 3 to 8) (size 9 to 14) (size 15 to 20)
#    0.000    2.286    4.286    1.714    0.000    0.000 
#    0.000    0.000    6.286    6.857    0.000    0.000 
#    0.000    0.000    0.000    0.000    0.000    0.000 
#
# Total GULP energy -156371.084886 kJ/mol
# GULP energy per Si atom -5584.681603 kJ/mol
# Density = 2.544144 g / cm^3
# Si number density = 25.499473 Si / 1000 Ang^3
#
#
#
# Elastic Constant Matrix: (Units=GPa)
#
#
# Indices 1 2 3 4 5 6 
#
# 1 30.3007 36.1757 12.8895 0.0000 0.0000 0.0000
# 2 36.1757 161.8297 18.0830 0.0000 0.0000 0.0000
# 3 12.8895 18.0830 143.7064 0.0000 0.0000 0.0000
# 4 0.0000 0.0000 0.0000 32.0981 0.0000 0.0000
# 5 0.0000 0.0000 0.0000 0.0000 16.4081 0.0000
# 6 0.0000 0.0000 0.0000 0.0000 0.0000 26.3240
#
#
#
# Elastic Compliance Matrix: (Units=1/GPa)
#
#
# Indices 1 2 3 4 5 6 
#
# 1 0.046165 -0.009998 -0.002883 0.000000 0.000000 0.000000
# 2 -0.009998 0.008433 -0.000164 0.000000 0.000000 0.000000
# 3 -0.002883 -0.000164 0.007238 0.000000 0.000000 0.000000
# 4 0.000000 0.000000 0.000000 0.031154 0.000000 0.000000
# 5 0.000000 0.000000 0.000000 0.000000 0.060946 0.000000
# 6 0.000000 0.000000 0.000000 0.000000 0.000000 0.037988
#
#
# Mechanical properties :
#
#
# Convention : Reuss Voigt Hill
#
# Bulk Modulus (GPa) = 27.97516 52.23703 40.10610
# Shear Modulus (GPa) = 21.74590 32.87860 27.31225
#
# Velocity S-wave (km/s) = 2.92344 3.59469 3.27630
# Velocity P-wave (km/s) = 4.73181 6.14484 5.48403
#
# Compressibility (1/GPa) = 0.03574599
#
# Stress axis : x y z
#
# Youngs Moduli (GPa) = 21.66147 118.58742 138.16214
#
# Poissons Ratio (x) = 1.18560 0.39827
# Poissons Ratio (y) = 0.21656 0.02271
# Poissons Ratio (z) = 0.06244 0.01949
#
# Static dielectric constant tensor:
#      x y z
#    x 2.089870 0.000000 0.000000 
#    y 0.000000 2.008750 0.000000 
#    z 0.000000 0.000000 2.018120 
# 
# From -- ./inp_files/7009.got.cif
#   From: 2010.05.17/outbox.cif.g08.bks.cpg/sg33_4_cif.got.tgz:7009.got - 2010.06.03 17:15:25.
