data_PCOD9344679
_publ_section_title
;
Structure prediction by ZEFSAII (Michael W. Deem and Ramdas Pophale) SiO2 
 PCOD9344679
Probable space group: P N A 21
;
_chemical_formula_sum "Si O2"
_cell_formula_units_Z 24
_cell_length_a 12.284509
_cell_length_b 8.000894
_cell_length_c 12.080186
_cell_angle_alpha 90.000000
_cell_angle_beta 90.000000
_cell_angle_gamma 90.000000
_cell_volume 1187.325898
_symmetry_space_group_name_H-M "P N A 21"
_symmetry_group_IT_number 33
_symmetry_cell_setting 'orthorhombic'
loop_
_space_group_symop_operation_xyz
x,y,z
-x,-y,1/2+z
1/2-x,1/2+y,1/2+z
1/2+x,1/2-y,z
loop_
_atom_site_type_symbol
_atom_site_label
_atom_site_fract_x
_atom_site_fract_y
_atom_site_fract_z
Si Si1 0.002908 0.166067 0.645200
Si Si2 0.738239 0.722121 0.541644
Si Si3 0.856116 0.529403 0.131796
Si Si4 0.668517 0.559683 0.973183
Si Si5 0.190568 0.858327 0.303770
Si Si6 0.218768 0.001491 0.730918
O O1 0.936524 0.131573 0.533451
O O2 0.924149 0.111570 0.745635
O O3 0.037909 0.360494 0.648273
O O4 0.113563 0.065369 0.663822
O O5 0.698264 0.622941 0.434632
O O6 0.780470 0.613618 0.643286
O O7 0.640520 0.840507 0.588238
O O8 0.825524 0.859360 0.498322
O O9 0.783495 0.535134 0.242565
O O10 0.776789 0.618520 0.040053
O O11 0.681432 0.588943 0.843594
O O12 0.217252 0.664922 0.272383
#
# Coordination Sequence:
#
# PCOD9344679 Si02
#       6
#     4   4   4   4   4   4
#     4  10  19  37  57  81 112 158 187 225 285 335
#     4   9  19  39  55  82 112 146 184 237 278 328
#     4   8  18  39  55  78 117 142 183 235 277 329
#     4   8  19  39  53  83 118 138 190 239 266 343
#     4   9  19  39  57  77 118 147 181 237 279 336
#     4  10  20  37  61  81 113 151 187 233 291 323
#
# _framework density 20.213491000000001
#
# number of rings (size 3 to 8) (size 9 to 14) (size 15 to 20)
#    1.000    2.000    0.000    0.000    2.333    0.000 
#   18.000    0.000    0.000    0.000    0.000    0.000 
#    0.000    0.000    0.000    0.000    0.000    0.000 
#
# Total GULP energy -133605.734439 kJ/mol
# GULP energy per Si atom -5566.905602 kJ/mol
# Density = 2.016748 g / cm^3
# Si number density = 20.213491 Si / 1000 Ang^3
#
#
#
# Elastic Constant Matrix: (Units=GPa)
#
#
# Indices 1 2 3 4 5 6 
#
# 1 29.9095 -0.7601 -0.7486 0.0000 0.0000 0.0000
# 2 -0.7601 15.0447 25.9861 0.0000 0.0000 0.0000
# 3 -0.7486 25.9861 144.1067 0.0000 0.0000 0.0000
# 4 0.0000 0.0000 0.0000 35.2196 0.0000 0.0000
# 5 0.0000 0.0000 0.0000 0.0000 4.6540 0.0000
# 6 0.0000 0.0000 0.0000 0.0000 0.0000 9.4877
#
#
#
# Elastic Compliance Matrix: (Units=1/GPa)
#
#
# Indices 1 2 3 4 5 6 
#
# 1 0.033481 0.002020 -0.000190 0.000000 0.000000 0.000000
# 2 0.002020 0.096659 -0.017420 0.000000 0.000000 0.000000
# 3 -0.000190 -0.017420 0.010080 0.000000 0.000000 0.000000
# 4 0.000000 0.000000 0.000000 0.028393 0.000000 0.000000
# 5 0.000000 0.000000 0.000000 0.000000 0.214869 0.000000
# 6 0.000000 0.000000 0.000000 0.000000 0.000000 0.105399
#
#
# Mechanical properties :
#
#
# Convention : Reuss Voigt Hill
#
# Bulk Modulus (GPa) = 9.17098 26.44620 17.80859
# Shear Modulus (GPa) = 8.98624 20.84450 14.91537
#
# Velocity S-wave (km/s) = 2.11076 3.21474 2.71936
# Velocity P-wave (km/s) = 3.23841 5.18568 4.32311
#
# Compressibility (1/GPa) = 0.10903962
#
# Stress axis : x y z
#
# Youngs Moduli (GPa) = 29.86794 10.34567 99.21119
#
# Poissons Ratio (x) = -0.02090 0.01889
# Poissons Ratio (y) = -0.06034 1.72822
# Poissons Ratio (z) = 0.00569 0.18022
#
# Static dielectric constant tensor:
#      x y z
#    x 1.703310 0.000000 0.000000 
#    y 0.000000 1.790580 0.000000 
#    z 0.000000 0.000000 1.727960 
# 
# From -- ./inp_files/6680.got.cif
#   From: 2010.05.17/outbox.cif.g08.bks.cpg/sg33_4_cif.got.tgz:6680.got - 2010.06.03 17:15:25.
