data_PCOD9344145
_publ_section_title
;
Structure prediction by ZEFSAII (Michael W. Deem and Ramdas Pophale) SiO2 
 PCOD9344145
Probable space group: P B A 2
;
_chemical_formula_sum "Si O2"
_cell_formula_units_Z 16
_cell_length_a 7.797829
_cell_length_b 16.855324
_cell_length_c 5.126284
_cell_angle_alpha 90.000000
_cell_angle_beta 90.000000
_cell_angle_gamma 90.000000
_cell_volume 673.772801
_symmetry_space_group_name_H-M "P B A 2"
_symmetry_group_IT_number 32
_symmetry_cell_setting 'orthorhombic'
loop_
_space_group_symop_operation_xyz
x,y,z
-x,-y,z
1/2-x,1/2+y,z
1/2+x,1/2-y,z
loop_
_atom_site_type_symbol
_atom_site_label
_atom_site_fract_x
_atom_site_fract_y
_atom_site_fract_z
Si Si1 0.250000 0.937700 0.168190
Si Si2 0.750000 0.450010 0.662095
Si Si3 0.058061 0.161251 0.980880
Si Si4 0.941939 0.338750 0.980880
O O1 0.082611 0.882655 0.153244
O O2 0.250000 0.999191 0.404061
O O3 0.417389 0.882656 0.153244
O O4 0.250000 0.989654 0.905309
O O5 0.910590 0.391900 0.721476
O O6 0.589410 0.391899 0.721476
O O7 0.000000 0.250000 0.920450
O O8 0.250000 0.164244 0.101151
#
# Coordination Sequence:
#
# PCOD9344145 Si02
#       4
#     4   4   4   4
#     4  12  23  52  73 114 157 192 271 320 377 472
#     4  10  27  44  79 114 145 210 255 318 395 448
#     4  10  23  48  79 115 158 208 258 322 398 464
#     4  10  23  48  79 115 158 208 258 322 398 464
#
# _framework density 23.746877000000001
#
# number of rings (size 3 to 8) (size 9 to 14) (size 15 to 20)
#    1.500    0.000    2.500    1.500    0.000    8.000 
#    4.500   15.000    0.000    0.000    0.000    0.000 
#    0.000    0.000    0.000    0.000    0.000    0.000 
#
# Total GULP energy -89487.204236 kJ/mol
# GULP energy per Si atom -5592.950265 kJ/mol
# Density = 2.369283 g / cm^3
# Si number density = 23.746877 Si / 1000 Ang^3
#
#
#
# Elastic Constant Matrix: (Units=GPa)
#
#
# Indices 1 2 3 4 5 6 
#
# 1 210.7330 105.9791 66.5914 0.0000 0.0000 0.0000
# 2 105.9791 216.0312 88.1718 0.0000 0.0000 0.0000
# 3 66.5914 88.1718 145.6574 0.0000 0.0000 0.0000
# 4 0.0000 0.0000 0.0000 33.5140 0.0000 0.0000
# 5 0.0000 0.0000 0.0000 0.0000 16.2464 0.0000
# 6 0.0000 0.0000 0.0000 0.0000 0.0000 42.3095
#
#
#
# Elastic Compliance Matrix: (Units=1/GPa)
#
#
# Indices 1 2 3 4 5 6 
#
# 1 0.006503 -0.002625 -0.001384 0.000000 0.000000 0.000000
# 2 -0.002625 0.007208 -0.003163 0.000000 0.000000 0.000000
# 3 -0.001384 -0.003163 0.009413 0.000000 0.000000 0.000000
# 4 0.000000 0.000000 0.000000 0.029838 0.000000 0.000000
# 5 0.000000 0.000000 0.000000 0.000000 0.061552 0.000000
# 6 0.000000 0.000000 0.000000 0.000000 0.000000 0.023635
#
#
# Mechanical properties :
#
#
# Convention : Reuss Voigt Hill
#
# Bulk Modulus (GPa) = 113.90367 121.54513 117.72440
# Shear Modulus (GPa) = 32.17099 39.19261 35.68180
#
# Velocity S-wave (km/s) = 3.68468 4.06696 3.88053
# Velocity P-wave (km/s) = 8.13464 8.56436 8.35226
#
# Compressibility (1/GPa) = 0.00877935
#
# Stress axis : x y z
#
# Youngs Moduli (GPa) = 153.77673 138.73821 106.23990
#
# Poissons Ratio (x) = 0.36424 0.14701
# Poissons Ratio (y) = 0.40372 0.33602
# Poissons Ratio (z) = 0.21279 0.43881
#
# Static dielectric constant tensor:
#      x y z
#    x 1.970840 0.000000 0.000000 
#    y 0.000000 1.869410 0.000000 
#    z 0.000000 0.000000 1.886030 
# 
# From -- ./inp_files/360.got.cif
#   From: 2010.05.17/outbox.cif.g08.bks.cpg/sg32_1_cif.got.tgz:360.got - 2010.06.03 17:12:27.
