data_PCOD9344635
_publ_section_title
;
Structure prediction by ZEFSAII (Michael W. Deem and Ramdas Pophale) SiO2 
 PCOD9344635
Probable space group: P N A 21
;
_chemical_formula_sum "Si O2"
_cell_formula_units_Z 28
_cell_length_a 8.829034
_cell_length_b 9.514867
_cell_length_c 14.342380
_cell_angle_alpha 90.000000
_cell_angle_beta 90.000000
_cell_angle_gamma 90.000000
_cell_volume 1204.861525
_symmetry_space_group_name_H-M "P N A 21"
_symmetry_group_IT_number 33
_symmetry_cell_setting 'orthorhombic'
loop_
_space_group_symop_operation_xyz
x,y,z
-x,-y,1/2+z
1/2-x,1/2+y,1/2+z
1/2+x,1/2-y,z
loop_
_atom_site_type_symbol
_atom_site_label
_atom_site_fract_x
_atom_site_fract_y
_atom_site_fract_z
Si Si1 0.552387 0.838033 0.152750
Si Si2 0.699479 0.333400 0.419012
Si Si3 0.499790 0.525205 0.069465
Si Si4 0.490897 0.543203 0.773937
Si Si5 0.980658 0.567956 0.963828
Si Si6 0.287468 0.590547 0.418319
Si Si7 0.766497 0.694992 0.276353
O O1 0.544560 0.684580 0.101171
O O2 0.702948 0.825030 0.213657
O O3 0.410681 0.859153 0.220630
O O4 0.539593 0.947244 0.069215
O O5 0.627386 0.447544 0.490809
O O6 0.610594 0.337032 0.321372
O O7 0.654692 0.184677 0.463833
O O8 0.874963 0.370647 0.409593
O O9 0.464093 0.446843 0.166224
O O10 0.633557 0.443583 0.016237
O O11 0.628943 0.510913 0.843265
O O12 0.372394 0.412138 0.781511
O O13 0.891590 0.436514 0.924181
O O14 0.309748 0.745068 0.376472
#
# Coordination Sequence:
#
# PCOD9344635 Si02
#       7
#     4   4   4   4   4   4   4
#     4  10  19  35  62  87 113 151 207 250 292 344
#     4  10  21  36  62  88 120 158 202 254 297 358
#     4   9  18  38  58  86 114 159 196 250 298 345
#     4  10  21  38  60  83 125 161 199 249 308 356
#     4  11  21  36  61  91 118 151 206 252 298 350
#     4  11  22  36  59  90 124 153 200 256 301 360
#     4  11  20  35  60  91 118 153 196 251 306 351
#
# _framework density 23.239186
#
# number of rings (size 3 to 8) (size 9 to 14) (size 15 to 20)
#    0.000    1.714    2.857    6.000    2.000    0.000 
#    0.000    0.000   12.571    0.000    0.000    0.000 
#    0.000    0.000    0.000    0.000    0.000    0.000 
#
# Total GULP energy -156342.615182 kJ/mol
# GULP energy per Si atom -5583.664828 kJ/mol
# Density = 2.318629 g / cm^3
# Si number density = 23.239186 Si / 1000 Ang^3
#
#
#
# Elastic Constant Matrix: (Units=GPa)
#
#
# Indices 1 2 3 4 5 6 
#
# 1 100.7347 4.3118 18.6131 0.0000 0.0000 0.0000
# 2 4.3118 10.0568 9.6909 0.0000 0.0000 0.0000
# 3 18.6131 9.6909 114.9912 0.0000 0.0000 0.0000
# 4 0.0000 0.0000 0.0000 29.8381 0.0000 0.0000
# 5 0.0000 0.0000 0.0000 0.0000 38.3635 0.0000
# 6 0.0000 0.0000 0.0000 0.0000 0.0000 29.9384
#
#
#
# Elastic Compliance Matrix: (Units=1/GPa)
#
#
# Indices 1 2 3 4 5 6 
#
# 1 0.010319 -0.003063 -0.001412 0.000000 0.000000 0.000000
# 2 -0.003063 0.109134 -0.008701 0.000000 0.000000 0.000000
# 3 -0.001412 -0.008701 0.009658 0.000000 0.000000 0.000000
# 4 0.000000 0.000000 0.000000 0.033514 0.000000 0.000000
# 5 0.000000 0.000000 0.000000 0.000000 0.026066 0.000000
# 6 0.000000 0.000000 0.000000 0.000000 0.000000 0.033402
#
#
# Mechanical properties :
#
#
# Convention : Reuss Voigt Hill
#
# Bulk Modulus (GPa) = 9.73170 32.33491 21.03331
# Shear Modulus (GPa) = 17.68660 32.50578 25.09619
#
# Velocity S-wave (km/s) = 2.76174 3.74404 3.28976
# Velocity P-wave (km/s) = 3.79029 5.71267 4.84773
#
# Compressibility (1/GPa) = 0.10275696
#
# Stress axis : x y z
#
# Youngs Moduli (GPa) = 96.90755 9.16308 103.53896
#
# Poissons Ratio (x) = 0.02807 0.14621
# Poissons Ratio (y) = 0.29687 0.90093
# Poissons Ratio (z) = 0.13685 0.07973
#
# Static dielectric constant tensor:
#      x y z
#    x 1.888010 0.000000 0.000000 
#    y 0.000000 1.974060 0.000000 
#    z 0.000000 0.000000 1.931750 
# 
# From -- ./inp_files/7590.got.cif
#   From: 2010.05.17/outbox.cif.g08.bks.cpg/sg33_4_cif.got.tgz:7590.got - 2010.06.03 17:15:25.
