data_PCOD9344745
_publ_section_title
;
Structure prediction by ZEFSAII (Michael W. Deem and Ramdas Pophale) SiO2 
 PCOD9344745
Probable space group: P N A 21
;
_chemical_formula_sum "Si O2"
_cell_formula_units_Z 28
_cell_length_a 7.639135
_cell_length_b 20.131499
_cell_length_c 9.087041
_cell_angle_alpha 90.000000
_cell_angle_beta 90.000000
_cell_angle_gamma 90.000000
_cell_volume 1397.470943
_symmetry_space_group_name_H-M "P N A 21"
_symmetry_group_IT_number 33
_symmetry_cell_setting 'orthorhombic'
loop_
_space_group_symop_operation_xyz
x,y,z
-x,-y,1/2+z
1/2-x,1/2+y,1/2+z
1/2+x,1/2-y,z
loop_
_atom_site_type_symbol
_atom_site_label
_atom_site_fract_x
_atom_site_fract_y
_atom_site_fract_z
Si Si1 0.401422 0.305185 0.905270
Si Si2 0.805111 0.928465 0.925010
Si Si3 0.581523 0.628374 0.125917
Si Si4 0.174208 0.547834 0.611748
Si Si5 0.497704 0.159000 0.929781
Si Si6 0.511809 0.443129 0.918303
Si Si7 0.520138 0.092623 0.627651
O O1 0.449149 0.307611 0.730525
O O2 0.419556 0.231309 0.960914
O O3 0.204207 0.330217 0.918159
O O4 0.507672 0.366607 0.975675
O O5 0.784513 0.927541 0.750641
O O6 0.623081 0.908542 0.000327
O O7 0.957179 0.881319 0.988228
O O8 0.863542 0.004385 0.964114
O O9 0.523159 0.570636 0.244567
O O10 0.787599 0.622699 0.092262
O O11 0.052375 0.605536 0.550468
O O12 0.305689 0.528598 0.477760
O O13 0.065140 0.483992 0.662918
O O14 0.443340 0.129782 0.770577
#
# Coordination Sequence:
#
# PCOD9344745 Si02
#       7
#     4   4   4   4   4   4   4
#     4   9  21  40  66  88 114 165 228 250 297 378
#     4  12  21  37  61  93 132 154 204 264 324 363
#     4   9  21  41  59  93 117 166 210 252 311 374
#     4  12  22  36  60  96 128 163 204 262 327 364
#     4  11  22  40  67  88 124 165 223 257 303 384
#     4  10  19  40  61  89 121 165 210 254 306 373
#     4  11  22  38  60  91 126 164 209 257 314 374
#
# _framework density 20.036193999999998
#
# number of rings (size 3 to 8) (size 9 to 14) (size 15 to 20)
#    0.857    0.571    2.857    3.429    2.000    0.000 
#    5.143    0.000    6.286    0.000    0.000    0.000 
#    0.000    0.000    0.000    0.000    0.000    0.000 
#
# Total GULP energy -156029.617000 kJ/mol
# GULP energy per Si atom -5572.486321 kJ/mol
# Density = 1.999059 g / cm^3
# Si number density = 20.036194 Si / 1000 Ang^3
#
#
#
# Elastic Constant Matrix: (Units=GPa)
#
#
# Indices 1 2 3 4 5 6 
#
# 1 52.5887 1.6861 18.6276 0.0000 0.0000 0.0000
# 2 1.6861 62.3307 -2.1914 0.0000 0.0000 0.0000
# 3 18.6276 -2.1914 31.3305 0.0000 0.0000 0.0000
# 4 0.0000 0.0000 0.0000 23.5982 0.0000 0.0000
# 5 0.0000 0.0000 0.0000 0.0000 24.2850 0.0000
# 6 0.0000 0.0000 0.0000 0.0000 0.0000 16.9912
#
#
#
# Elastic Compliance Matrix: (Units=1/GPa)
#
#
# Indices 1 2 3 4 5 6 
#
# 1 0.024172 -0.001162 -0.014453 0.000000 0.000000 0.000000
# 2 -0.001162 0.016139 0.001820 0.000000 0.000000 0.000000
# 3 -0.014453 0.001820 0.040638 0.000000 0.000000 0.000000
# 4 0.000000 0.000000 0.000000 0.042376 0.000000 0.000000
# 5 0.000000 0.000000 0.000000 0.000000 0.041178 0.000000
# 6 0.000000 0.000000 0.000000 0.000000 0.000000 0.058854
#
#
# Mechanical properties :
#
#
# Convention : Reuss Voigt Hill
#
# Bulk Modulus (GPa) = 18.74108 20.27715 19.50911
# Shear Modulus (GPa) = 18.60581 21.51671 20.06126
#
# Velocity S-wave (km/s) = 3.05062 3.28058 3.16769
# Velocity P-wave (km/s) = 4.66715 4.94893 4.81010
#
# Compressibility (1/GPa) = 0.05335873
#
# Stress axis : x y z
#
# Youngs Moduli (GPa) = 41.36998 61.96217 24.60754
#
# Poissons Ratio (x) = 0.07200 0.35565
# Poissons Ratio (y) = 0.04807 -0.04478
# Poissons Ratio (z) = 0.59791 -0.11275
#
# Static dielectric constant tensor:
#      x y z
#    x 1.752220 0.000000 0.000000 
#    y 0.000000 1.745970 0.000000 
#    z 0.000000 0.000000 1.696230 
# 
# From -- ./inp_files/3397.got.cif
#   From: 2010.05.17/outbox.cif.g08.bks.cpg/sg33_2_cif.got.tgz:3397.got - 2010.06.03 17:15:25.
