data_PCOD9344987
_publ_section_title
;
Structure prediction by ZEFSAII (Michael W. Deem and Ramdas Pophale) SiO2 
 PCOD9344987
Probable space group: P N A 21
;
_chemical_formula_sum "Si O2"
_cell_formula_units_Z 32
_cell_length_a 9.976740
_cell_length_b 22.968169
_cell_length_c 5.385687
_cell_angle_alpha 90.000000
_cell_angle_beta 90.000000
_cell_angle_gamma 90.000000
_cell_volume 1234.116445
_symmetry_space_group_name_H-M "P N A 21"
_symmetry_group_IT_number 33
_symmetry_cell_setting 'orthorhombic'
loop_
_space_group_symop_operation_xyz
x,y,z
-x,-y,1/2+z
1/2-x,1/2+y,1/2+z
1/2+x,1/2-y,z
loop_
_atom_site_type_symbol
_atom_site_label
_atom_site_fract_x
_atom_site_fract_y
_atom_site_fract_z
Si Si1 0.582123 0.840134 0.462830
Si Si2 0.318263 0.509766 0.980228
Si Si3 0.622033 0.474157 0.981526
Si Si4 0.390918 0.324603 0.978529
Si Si5 0.328124 0.729930 0.602918
Si Si6 0.677036 0.612020 0.985634
Si Si7 0.569868 0.190178 0.473320
Si Si8 0.535568 0.033102 0.911623
O O1 0.474075 0.712134 0.508165
O O2 0.733246 0.823620 0.529341
O O3 0.507155 0.821812 0.716851
O O4 0.528048 0.809536 0.208905
O O5 0.318686 0.548211 0.226676
O O6 0.461504 0.477178 0.980501
O O7 0.194547 0.465956 0.967825
O O8 0.321801 0.549470 0.736778
O O9 0.665488 0.542602 0.982921
O O10 0.959712 0.406604 0.925766
O O11 0.257312 0.283753 0.982966
O O12 0.379823 0.362593 0.229039
O O13 0.394773 0.360802 0.725571
O O14 0.347718 0.751385 0.891309
O O15 0.827365 0.636775 0.007315
O O16 0.482042 0.993765 0.138682
#
# Coordination Sequence:
#
# PCOD9344987 Si02
#       8
#     4   4   4   4   4   4   4   4
#     4  12  26  45  77 101 145 201 244 309 389 436
#     4  10  21  38  65  92 133 176 226 289 354 404
#     4  10  20  38  64  96 125 171 228 291 344 413
#     4  11  26  41  65  92 135 173 220 289 349 419
#     4  11  26  47  68 104 138 187 243 299 363 446
#     4  11  23  39  65  96 131 174 229 286 351 421
#     4  11  24  45  70 103 139 187 246 303 368 465
#     4  12  26  45  68 104 146 193 246 302 360 456
#
# _framework density 25.929482
#
# number of rings (size 3 to 8) (size 9 to 14) (size 15 to 20)
#    0.000    1.000    1.250    5.250    1.750    5.000 
#    0.000    0.000    0.000    0.000    0.000    0.000 
#    0.000    0.000    0.000    0.000    0.000    0.000 
#
# Total GULP energy -179255.968809 kJ/mol
# GULP energy per Si atom -5601.749025 kJ/mol
# Density = 2.587047 g / cm^3
# Si number density = 25.929482 Si / 1000 Ang^3
#
#
#
# Elastic Constant Matrix: (Units=GPa)
#
#
# Indices 1 2 3 4 5 6 
#
# 1 142.8223 31.3201 48.8053 0.0000 0.0000 0.0000
# 2 31.3201 88.5484 64.6972 0.0000 0.0000 0.0000
# 3 48.8053 64.6972 205.8375 0.0000 0.0000 0.0000
# 4 0.0000 0.0000 0.0000 28.4611 0.0000 0.0000
# 5 0.0000 0.0000 0.0000 0.0000 34.5711 0.0000
# 6 0.0000 0.0000 0.0000 0.0000 0.0000 28.7931
#
#
#
# Elastic Compliance Matrix: (Units=1/GPa)
#
#
# Indices 1 2 3 4 5 6 
#
# 1 0.007843 -0.001837 -0.001282 0.000000 0.000000 0.000000
# 2 -0.001837 0.015090 -0.004307 0.000000 0.000000 0.000000
# 3 -0.001282 -0.004307 0.006516 0.000000 0.000000 0.000000
# 4 0.000000 0.000000 0.000000 0.035136 0.000000 0.000000
# 5 0.000000 0.000000 0.000000 0.000000 0.028926 0.000000
# 6 0.000000 0.000000 0.000000 0.000000 0.000000 0.034731
#
#
# Mechanical properties :
#
#
# Convention : Reuss Voigt Hill
#
# Bulk Modulus (GPa) = 68.51418 80.76149 74.63783
# Shear Modulus (GPa) = 33.79292 37.85744 35.82518
#
# Velocity S-wave (km/s) = 3.61399 3.82516 3.72107
# Velocity P-wave (km/s) = 6.62534 7.12203 6.87817
#
# Compressibility (1/GPa) = 0.01459552
#
# Stress axis : x y z
#
# Youngs Moduli (GPa) = 127.50672 66.26766 153.46681
#
# Poissons Ratio (x) = 0.12175 0.19676
# Poissons Ratio (y) = 0.23427 0.66105
# Poissons Ratio (z) = 0.16347 0.28544
#
# Static dielectric constant tensor:
#      x y z
#    x 2.050730 0.000000 0.000000 
#    y 0.000000 2.051160 0.000000 
#    z 0.000000 0.000000 2.125080 
# 
# From -- ./inp_files/1187.got.cif
#   From: 2010.05.17/outbox.cif.g08.bks.cpg/sg33_1_cif.got.tgz:1187.got - 2010.06.03 17:15:25.
