data_PCOD9344699
_publ_section_title
;
Structure prediction by ZEFSAII (Michael W. Deem and Ramdas Pophale) SiO2 
 PCOD9344699
Probable space group: P N A 21
;
_chemical_formula_sum "Si O2"
_cell_formula_units_Z 24
_cell_length_a 9.284591
_cell_length_b 13.918095
_cell_length_c 7.659640
_cell_angle_alpha 90.000000
_cell_angle_beta 90.000000
_cell_angle_gamma 90.000000
_cell_volume 989.807937
_symmetry_space_group_name_H-M "P N A 21"
_symmetry_group_IT_number 33
_symmetry_cell_setting 'orthorhombic'
loop_
_space_group_symop_operation_xyz
x,y,z
-x,-y,1/2+z
1/2-x,1/2+y,1/2+z
1/2+x,1/2-y,z
loop_
_atom_site_type_symbol
_atom_site_label
_atom_site_fract_x
_atom_site_fract_y
_atom_site_fract_z
Si Si1 0.347732 0.807300 0.073760
Si Si2 0.580623 0.852044 0.572912
Si Si3 0.963420 0.144970 0.733350
Si Si4 0.624409 0.484215 0.459591
Si Si5 0.371675 0.692465 0.713374
Si Si6 0.958933 0.475598 0.421048
O O1 0.194455 0.833287 0.155296
O O2 0.439926 0.739062 0.202447
O O3 0.321643 0.750598 0.889626
O O4 0.439878 0.900880 0.023718
O O5 0.490234 0.759154 0.625382
O O6 0.745336 0.821716 0.573899
O O7 0.559650 0.925374 0.734594
O O8 0.529925 0.919164 0.415879
O O9 0.045128 0.066654 0.616590
O O10 0.934633 0.089411 0.913482
O O11 0.595731 0.411232 0.296908
O O12 0.796145 0.487249 0.491502
#
# Coordination Sequence:
#
# PCOD9344699 Si02
#       6
#     4   4   4   4   4   4
#     4  10  19  37  65  89 120 164 200 236 296 372
#     4  10  20  37  60  85 114 153 195 240 288 348
#     4  11  22  40  64  90 120 158 202 248 299 360
#     4  10  22  40  60  88 118 157 205 248 295 356
#     4   9  18  35  59  83 114 156 196 230 287 360
#     4  10  21  39  62  87 118 156 202 246 293 354
#
# _framework density 24.247126999999999
#
# number of rings (size 3 to 8) (size 9 to 14) (size 15 to 20)
#    0.000    2.000    0.000    7.000    0.000    4.000 
#    0.000    8.333    0.000    0.000    0.000    0.000 
#    0.000    0.000    0.000    0.000    0.000    0.000 
#
# Total GULP energy -134326.955629 kJ/mol
# GULP energy per Si atom -5596.956485 kJ/mol
# Density = 2.419194 g / cm^3
# Si number density = 24.247127 Si / 1000 Ang^3
#
#
#
# Elastic Constant Matrix: (Units=GPa)
#
#
# Indices 1 2 3 4 5 6 
#
# 1 89.8480 31.9402 12.2906 0.0000 0.0000 0.0000
# 2 31.9402 116.7876 21.2696 0.0000 0.0000 0.0000
# 3 12.2906 21.2696 33.9445 0.0000 0.0000 0.0000
# 4 0.0000 0.0000 0.0000 49.8961 0.0000 0.0000
# 5 0.0000 0.0000 0.0000 0.0000 3.1933 0.0000
# 6 0.0000 0.0000 0.0000 0.0000 0.0000 -43.1834
#
#
#
# Elastic Compliance Matrix: (Units=1/GPa)
#
#
# Indices 1 2 3 4 5 6 
#
# 1 0.012544 -0.002939 -0.002700 0.000000 0.000000 0.000000
# 2 -0.002939 0.010354 -0.005424 0.000000 0.000000 0.000000
# 3 -0.002700 -0.005424 0.033836 0.000000 0.000000 0.000000
# 4 0.000000 0.000000 0.000000 0.020042 0.000000 0.000000
# 5 0.000000 0.000000 0.000000 0.000000 0.313160 0.000000
# 6 0.000000 0.000000 0.000000 0.000000 0.000000 -0.023157
#
#
# Mechanical properties :
#
#
# Convention : Reuss Voigt Hill
#
# Bulk Modulus (GPa) = 28.89492 41.28676 35.09084
# Shear Modulus (GPa) = 12.48623 13.65319 13.06971
#
# Velocity S-wave (km/s) = 2.27173 2.37552 2.32420
# Velocity P-wave (km/s) = 4.33863 4.95868 4.65898
#
# Compressibility (1/GPa) = 0.03460816
#
# Stress axis : x y z
#
# Youngs Moduli (GPa) = 79.71906 96.58025 29.55421
#
# Poissons Ratio (x) = 0.28384 0.07981
# Poissons Ratio (y) = 0.23428 0.16029
# Poissons Ratio (z) = 0.21528 0.52383
#
# Static dielectric constant tensor:
#      x y z
#    x 1.871610 0.000000 0.000000 
#    y 0.000000 1.905150 0.000000 
#    z 0.000000 0.000000 2.022320 
# 
# From -- ./inp_files/3146.got.cif
#   From: 2010.05.17/outbox.cif.g08.bks.cpg/sg33_2_cif.got.tgz:3146.got - 2010.06.03 17:15:25.
