data_PCOD9344083
_publ_section_title
;
Structure prediction by ZEFSAII (Michael W. Deem and Ramdas Pophale) SiO2 
 PCOD9344083
Probable space group: P B A 2
;
_chemical_formula_sum "Si O2"
_cell_formula_units_Z 18
_cell_length_a 8.886925
_cell_length_b 9.686611
_cell_length_c 8.343428
_cell_angle_alpha 90.000000
_cell_angle_beta 90.000000
_cell_angle_gamma 90.000000
_cell_volume 718.237203
_symmetry_space_group_name_H-M "P B A 2"
_symmetry_group_IT_number 32
_symmetry_cell_setting 'orthorhombic'
loop_
_space_group_symop_operation_xyz
x,y,z
-x,-y,z
1/2-x,1/2+y,z
1/2+x,1/2-y,z
loop_
_atom_site_type_symbol
_atom_site_label
_atom_site_fract_x
_atom_site_fract_y
_atom_site_fract_z
Si Si1 0.733211 0.859811 0.954890
Si Si2 0.198176 0.408586 0.437121
Si Si3 0.608620 0.813615 0.306900
Si Si4 0.500000 0.500000 0.820525
Si Si5 0.950415 0.699724 0.758395
O O1 0.835554 0.729433 0.903091
O O2 0.854117 0.981774 0.932737
O O3 0.598984 0.872768 0.826043
O O4 0.664525 0.838826 0.127821
O O5 0.347471 0.334352 0.376862
O O6 0.193557 0.572562 0.417238
O O7 0.136847 0.366268 0.611296
O O8 0.066598 0.348242 0.321520
O O9 0.499703 0.358992 0.719973
#
# Coordination Sequence:
#
# PCOD9344083 Si02
#       5
#     4   4   4   2   4
#     4  10  22  45  73 103 141 193 251 296 367 437
#     4  11  26  47  70 110 149 195 242 310 382 436
#     4  11  26  46  73 106 150 193 245 305 382 440
#     4   8  24  42  74 104 138 188 244 310 360 418
#     4  10  22  45  71 106 145 191 255 301 366 447
#
# _framework density 25.061357999999998
#
# number of rings (size 3 to 8) (size 9 to 14) (size 15 to 20)
#    1.333    0.444    0.000    2.667    3.111    4.444 
#    8.000    0.000    0.000    0.000    0.000    0.000 
#    0.000    0.000    0.000    0.000    0.000    0.000 
#
# Total GULP energy -100727.775573 kJ/mol
# GULP energy per Si atom -5595.987532 kJ/mol
# Density = 2.500432 g / cm^3
# Si number density = 25.061358 Si / 1000 Ang^3
#
#
#
# Elastic Constant Matrix: (Units=GPa)
#
#
# Indices 1 2 3 4 5 6 
#
# 1 82.6869 -0.3123 14.8358 0.0000 0.0000 0.0000
# 2 -0.3123 43.6351 8.3160 0.0000 0.0000 0.0000
# 3 14.8358 8.3160 138.5597 0.0000 0.0000 0.0000
# 4 0.0000 0.0000 0.0000 26.4179 0.0000 0.0000
# 5 0.0000 0.0000 0.0000 0.0000 44.0144 0.0000
# 6 0.0000 0.0000 0.0000 0.0000 0.0000 51.5180
#
#
#
# Elastic Compliance Matrix: (Units=1/GPa)
#
#
# Indices 1 2 3 4 5 6 
#
# 1 0.012336 0.000344 -0.001341 0.000000 0.000000 0.000000
# 2 0.000344 0.023192 -0.001429 0.000000 0.000000 0.000000
# 3 -0.001341 -0.001429 0.007446 0.000000 0.000000 0.000000
# 4 0.000000 0.000000 0.000000 0.037853 0.000000 0.000000
# 5 0.000000 0.000000 0.000000 0.000000 0.022720 0.000000
# 6 0.000000 0.000000 0.000000 0.000000 0.000000 0.019411
#
#
# Mechanical properties :
#
#
# Convention : Reuss Voigt Hill
#
# Bulk Modulus (GPa) = 26.23170 34.50675 30.36923
# Shear Modulus (GPa) = 35.58268 40.52620 38.05444
#
# Velocity S-wave (km/s) = 3.77214 4.02566 3.90096
# Velocity P-wave (km/s) = 5.42787 5.95035 5.69511
#
# Compressibility (1/GPa) = 0.03812181
#
# Stress axis : x y z
#
# Youngs Moduli (GPa) = 81.06485 43.11819 134.29146
#
# Poissons Ratio (x) = -0.01483 0.18015
# Poissons Ratio (y) = -0.02788 0.19187
# Poissons Ratio (z) = 0.10875 0.06161
#
# Static dielectric constant tensor:
#      x y z
#    x 1.994550 0.000000 0.000000 
#    y 0.000000 2.047770 0.000000 
#    z 0.000000 0.000000 1.934080 
# 
# From -- ./inp_files/2675.got.cif
#   From: 2010.05.17/outbox.cif.g08.bks.cpg/sg32_2_cif.got.tgz:2675.got - 2010.06.03 17:12:27.
