data_PCOD9344330
_publ_section_title
;
Structure prediction by ZEFSAII (Michael W. Deem and Ramdas Pophale) SiO2 
 PCOD9344330
Probable space group: P B A 2
;
_chemical_formula_sum "Si O2"
_cell_formula_units_Z 30
_cell_length_a 12.000000
_cell_length_b 21.000000
_cell_length_c 6.000000
_cell_angle_alpha 90.000000
_cell_angle_beta 90.000000
_cell_angle_gamma 90.000000
_cell_volume 1512.000000
_symmetry_space_group_name_H-M "P B A 2"
_symmetry_group_IT_number 32
_symmetry_cell_setting 'orthorhombic'
loop_
_space_group_symop_operation_xyz
x,y,z
-x,-y,z
1/2-x,1/2+y,z
1/2+x,1/2-y,z
loop_
_atom_site_type_symbol
_atom_site_label
_atom_site_fract_x
_atom_site_fract_y
_atom_site_fract_z
Si Si1 0.481013 0.185913 0.974930
Si Si2 0.803429 0.630147 0.719538
Si Si3 0.380013 0.408095 0.064009
Si Si4 0.779006 0.004449 0.450954
Si Si5 0.500000 0.500000 0.735033
Si Si6 0.293719 0.137096 0.301906
Si Si7 0.133530 0.758978 0.598524
Si Si8 0.954746 0.803483 0.264811
O O1 0.572653 0.151140 0.810257
O O2 0.398945 0.233005 0.839975
O O3 0.392696 0.141293 0.112706
O O4 0.547415 0.235305 0.136358
O O5 0.790249 0.562683 0.577785
O O6 0.733814 0.688329 0.598599
O O7 0.727560 0.618242 0.936578
O O8 0.333082 0.460252 0.237167
O O9 0.453296 0.352201 0.167830
O O10 0.461686 0.441956 0.888547
O O11 0.888604 0.985549 0.594776
O O12 0.717780 0.936863 0.390095
O O13 0.332604 0.194337 0.467465
O O14 0.165879 0.161476 0.251055
O O15 0.016952 0.787067 0.499340
#
# Coordination Sequence:
#
# PCOD9344330 Si02
#       8
#     4   4   4   4   2   4   4   4
#     4  11  25  43  66 100 136 185 237 282 340 429
#     4  11  24  43  71  99 137 182 235 284 352 417
#     4  11  22  40  69 101 135 171 226 286 355 410
#     4  11  24  43  66 101 140 180 226 289 354 422
#     4  10  22  36  64 102 132 172 212 284 352 418
#     4  11  26  42  68  99 140 181 230 287 353 420
#     4  11  23  43  67 102 133 177 235 291 356 409
#     4  11  22  39  70 102 135 175 226 298 352 411
#
# _framework density 19.841270000000002
#
# number of rings (size 3 to 8) (size 9 to 14) (size 15 to 20)
#    0.000    1.067    2.667    3.600    3.733    6.400 
#    0.000    4.000    0.000    0.000    0.000    0.000 
#    0.000    0.000    0.000    0.000    0.000    0.000 
#
# Total GULP energy -167269.986526 kJ/mol
# GULP energy per Si atom -5575.666218 kJ/mol
# Density = 1.979611 g / cm^3
# Si number density = 19.841270 Si / 1000 Ang^3
#
#
#
# Elastic Constant Matrix: (Units=GPa)
#
#
# Indices 1 2 3 4 5 6 
#
# 1 112.2685 55.9077 28.0619 0.0000 0.0000 0.0000
# 2 55.9077 144.7319 39.6985 0.0000 0.0000 0.0000
# 3 28.0619 39.6985 65.2644 0.0000 0.0000 0.0000
# 4 0.0000 0.0000 0.0000 35.0872 0.0000 0.0000
# 5 0.0000 0.0000 0.0000 0.0000 35.5564 0.0000
# 6 0.0000 0.0000 0.0000 0.0000 0.0000 43.7437
#
#
#
# Elastic Compliance Matrix: (Units=1/GPa)
#
#
# Indices 1 2 3 4 5 6 
#
# 1 0.011403 -0.003673 -0.002669 0.000000 0.000000 0.000000
# 2 -0.003673 0.009476 -0.004185 0.000000 0.000000 0.000000
# 3 -0.002669 -0.004185 0.019015 0.000000 0.000000 0.000000
# 4 0.000000 0.000000 0.000000 0.028500 0.000000 0.000000
# 5 0.000000 0.000000 0.000000 0.000000 0.028124 0.000000
# 6 0.000000 0.000000 0.000000 0.000000 0.000000 0.022860
#
#
# Mechanical properties :
#
#
# Convention : Reuss Voigt Hill
#
# Bulk Modulus (GPa) = 53.07455 63.28901 58.18178
# Shear Modulus (GPa) = 34.08003 36.11725 35.09864
#
# Velocity S-wave (km/s) = 4.14893 4.27114 4.21048
# Velocity P-wave (km/s) = 7.05402 7.50269 7.28181
#
# Compressibility (1/GPa) = 0.01884142
#
# Stress axis : x y z
#
# Youngs Moduli (GPa) = 87.69333 105.53075 52.58911
#
# Poissons Ratio (x) = 0.38760 0.14036
# Poissons Ratio (y) = 0.32209 0.22007
# Poissons Ratio (z) = 0.23406 0.44161
#
# Static dielectric constant tensor:
#      x y z
#    x 1.693690 0.000000 0.000000 
#    y 0.000000 1.706830 0.000000 
#    z 0.000000 0.000000 1.791060 
# 
# From -- ./inp_files/1028.got.cif
#   From: 2010.05.17/outbox.ucp.g08.bks.cvg/sg32_1_cif.got.tgz:1028.got - 2010.06.11 10:34:49.
