data_PCOD9344997
_publ_section_title
;
Structure prediction by ZEFSAII (Michael W. Deem and Ramdas Pophale) SiO2 
 PCOD9344997
Probable space group: P N A 21
;
_chemical_formula_sum "Si O2"
_cell_formula_units_Z 32
_cell_length_a 8.919221
_cell_length_b 29.304053
_cell_length_c 5.720094
_cell_angle_alpha 90.000000
_cell_angle_beta 90.000000
_cell_angle_gamma 90.000000
_cell_volume 1495.057107
_symmetry_space_group_name_H-M "P N A 21"
_symmetry_group_IT_number 33
_symmetry_cell_setting 'orthorhombic'
loop_
_space_group_symop_operation_xyz
x,y,z
-x,-y,1/2+z
1/2-x,1/2+y,1/2+z
1/2+x,1/2-y,z
loop_
_atom_site_type_symbol
_atom_site_label
_atom_site_fract_x
_atom_site_fract_y
_atom_site_fract_z
Si Si1 0.443940 0.928836 0.357950
Si Si2 0.100080 0.789755 0.590388
Si Si3 0.270096 0.435655 0.469279
Si Si4 0.458108 0.522777 0.880856
Si Si5 0.659485 0.988330 0.124039
Si Si6 0.872519 0.645725 0.684536
Si Si7 0.046769 0.719562 0.982476
Si Si8 0.178818 0.228986 0.791521
O O1 0.450199 0.972235 0.530205
O O2 0.453902 0.879779 0.471560
O O3 0.571854 0.942404 0.179436
O O4 0.281403 0.933702 0.235921
O O5 0.215760 0.831125 0.612215
O O6 0.060743 0.767354 0.839990
O O7 0.202660 0.750976 0.469088
O O8 0.950199 0.797851 0.435964
O O9 0.445935 0.431223 0.418783
O O10 0.232180 0.483967 0.342221
O O11 0.175551 0.395783 0.351306
O O12 0.513793 0.494335 0.115315
O O13 0.283621 0.524823 0.934847
O O14 0.979581 0.681737 0.810289
O O15 0.208159 0.708012 0.097335
O O16 0.917771 0.730324 0.172424
#
# Coordination Sequence:
#
# PCOD9344997 Si02
#       8
#     4   4   4   4   4   4   4   4
#     4  11  21  38  65  96 128 173 223 280 337 413
#     4  11  21  42  67  99 128 179 223 279 337 424
#     4  10  22  38  64  93 131 170 220 284 341 407
#     4  10  20  38  68  96 126 174 227 275 339 416
#     4  10  20  38  66  92 126 174 225 271 340 417
#     4  11  25  38  68  97 137 171 232 284 342 413
#     4  11  21  42  66  99 130 175 223 279 341 418
#     4  10  22  36  74  94 124 180 225 268 341 418
#
# _framework density 21.403867000000002
#
# number of rings (size 3 to 8) (size 9 to 14) (size 15 to 20)
#    0.000    1.500    5.000    0.000    1.750    0.000 
#    0.000    0.000   16.500    0.000    0.000    0.000 
#    0.000    0.000    0.000    0.000    0.000    0.000 
#
# Total GULP energy -178278.962328 kJ/mol
# GULP energy per Si atom -5571.217573 kJ/mol
# Density = 2.135515 g / cm^3
# Si number density = 21.403867 Si / 1000 Ang^3
#
#
#
# Elastic Constant Matrix: (Units=GPa)
#
#
# Indices 1 2 3 4 5 6 
#
# 1 113.2451 17.3998 20.0827 0.0000 0.0000 0.0000
# 2 17.3998 42.7111 0.2633 0.0000 0.0000 0.0000
# 3 20.0827 0.2633 52.8432 0.0000 0.0000 0.0000
# 4 0.0000 0.0000 0.0000 26.4144 0.0000 0.0000
# 5 0.0000 0.0000 0.0000 0.0000 41.5073 0.0000
# 6 0.0000 0.0000 0.0000 0.0000 0.0000 32.3306
#
#
#
# Elastic Compliance Matrix: (Units=1/GPa)
#
#
# Indices 1 2 3 4 5 6 
#
# 1 0.010141 -0.004108 -0.003834 0.000000 0.000000 0.000000
# 2 -0.004108 0.025078 0.001436 0.000000 0.000000 0.000000
# 3 -0.003834 0.001436 0.020374 0.000000 0.000000 0.000000
# 4 0.000000 0.000000 0.000000 0.037858 0.000000 0.000000
# 5 0.000000 0.000000 0.000000 0.000000 0.024092 0.000000
# 6 0.000000 0.000000 0.000000 0.000000 0.000000 0.030930
#
#
# Mechanical properties :
#
#
# Convention : Reuss Voigt Hill
#
# Bulk Modulus (GPa) = 23.48397 31.58788 27.53592
# Shear Modulus (GPa) = 28.46109 31.45401 29.95755
#
# Velocity S-wave (km/s) = 3.65048 3.83763 3.74522
# Velocity P-wave (km/s) = 5.36318 5.86742 5.62096
#
# Compressibility (1/GPa) = 0.04258224
#
# Stress axis : x y z
#
# Youngs Moduli (GPa) = 98.60541 39.87606 49.08276
#
# Poissons Ratio (x) = 0.16380 0.18817
# Poissons Ratio (y) = 0.40505 -0.07049
# Poissons Ratio (z) = 0.37803 -0.05727
#
# Static dielectric constant tensor:
#      x y z
#    x 1.864500 0.000000 0.000000 
#    y 0.000000 1.755800 0.000000 
#    z 0.000000 0.000000 1.903750 
# 
# From -- ./inp_files/588.got.cif
#   From: 2010.05.17/outbox.cif.g08.bks.cpg/sg33_1_cif.got.tgz:588.got - 2010.06.03 17:15:25.
