data_PCOD9344821
_publ_section_title
;
Structure prediction by ZEFSAII (Michael W. Deem and Ramdas Pophale) SiO2 
 PCOD9344821
Probable space group: P N A 21
;
_chemical_formula_sum "Si O2"
_cell_formula_units_Z 24
_cell_length_a 20.954858
_cell_length_b 5.217698
_cell_length_c 8.455411
_cell_angle_alpha 90.000000
_cell_angle_beta 90.000000
_cell_angle_gamma 90.000000
_cell_volume 924.481837
_symmetry_space_group_name_H-M "P N A 21"
_symmetry_group_IT_number 33
_symmetry_cell_setting 'orthorhombic'
loop_
_space_group_symop_operation_xyz
x,y,z
-x,-y,1/2+z
1/2-x,1/2+y,1/2+z
1/2+x,1/2-y,z
loop_
_atom_site_type_symbol
_atom_site_label
_atom_site_fract_x
_atom_site_fract_y
_atom_site_fract_z
Si Si1 0.280646 0.954470 0.750000
Si Si2 0.483333 0.021976 0.048713
Si Si3 0.051982 0.845477 0.832882
Si Si4 0.806515 0.030333 0.959430
Si Si5 0.115452 0.165264 0.049492
Si Si6 0.074342 0.861090 0.323694
O O1 0.220629 0.974564 0.634726
O O2 0.277631 0.709699 0.865179
O O3 0.335023 0.872053 0.617912
O O4 0.291274 0.202897 0.863644
O O5 0.445015 0.114051 0.205275
O O6 0.546345 0.201535 0.055791
O O7 0.437744 0.084535 0.898184
O O8 0.518880 0.768786 0.991592
O O9 0.113399 0.011156 0.883952
O O10 0.996072 0.040846 0.786471
O O11 0.883843 0.001761 0.960341
O O12 0.117396 0.935504 0.176398
#
# Coordination Sequence:
#
# PCOD9344821 Si02
#       6
#     4   4   4   4   4   4
#     4  11  25  46  73  97 135 176 230 280 345 396
#     4  10  20  34  60  91 128 166 214 262 326 397
#     4  10  20  36  58  96 127 170 215 268 325 405
#     4  11  25  46  72  99 132 180 225 286 337 405
#     4   9  21  38  61  86 126 169 210 266 330 392
#     4   9  21  38  62  85 128 167 214 258 337 385
#
# _framework density 25.960486
#
# number of rings (size 3 to 8) (size 9 to 14) (size 15 to 20)
#    0.000    2.000    0.000    2.000   11.667    2.667 
#    3.000    0.000    0.000    0.000    0.000    0.000 
#    0.000    0.000    0.000    0.000    0.000    0.000 
#
# Total GULP energy -133639.059451 kJ/mol
# GULP energy per Si atom -5568.294144 kJ/mol
# Density = 2.590140 g / cm^3
# Si number density = 25.960486 Si / 1000 Ang^3
#
#
#
# Elastic Constant Matrix: (Units=GPa)
#
#
# Indices 1 2 3 4 5 6 
#
# 1 44.0529 -3.0707 24.6619 0.0000 0.0000 0.0000
# 2 -3.0707 116.8174 57.9752 0.0000 0.0000 0.0000
# 3 24.6619 57.9752 98.7203 0.0000 0.0000 0.0000
# 4 0.0000 0.0000 0.0000 48.7313 0.0000 0.0000
# 5 0.0000 0.0000 0.0000 0.0000 44.4365 0.0000
# 6 0.0000 0.0000 0.0000 0.0000 0.0000 19.4273
#
#
#
# Elastic Compliance Matrix: (Units=1/GPa)
#
#
# Indices 1 2 3 4 5 6 
#
# 1 0.029266 0.006207 -0.010956 0.000000 0.000000 0.000000
# 2 0.006207 0.013398 -0.009419 0.000000 0.000000 0.000000
# 3 -0.010956 -0.009419 0.018398 0.000000 0.000000 0.000000
# 4 0.000000 0.000000 0.000000 0.020521 0.000000 0.000000
# 5 0.000000 0.000000 0.000000 0.000000 0.022504 0.000000
# 6 0.000000 0.000000 0.000000 0.000000 0.000000 0.051474
#
#
# Mechanical properties :
#
#
# Convention : Reuss Voigt Hill
#
# Bulk Modulus (GPa) = 30.55697 46.52481 38.54089
# Shear Modulus (GPa) = 25.66662 34.52062 30.09362
#
# Velocity S-wave (km/s) = 3.14774 3.65051 3.40841
# Velocity P-wave (km/s) = 5.00071 5.97734 5.51071
#
# Compressibility (1/GPa) = 0.03272575
#
# Stress axis : x y z
#
# Youngs Moduli (GPa) = 34.16917 74.63843 54.35387
#
# Poissons Ratio (x) = -0.46326 0.59551
# Poissons Ratio (y) = -0.21208 0.51194
# Poissons Ratio (z) = 0.37436 0.70300
#
# Static dielectric constant tensor:
#      x y z
#    x 2.109030 0.000000 0.000000 
#    y 0.000000 2.104490 0.000000 
#    z 0.000000 0.000000 2.190370 
# 
# From -- ./inp_files/5098.got.cif
#   From: 2010.05.17/outbox.cif.g08.bks.cpg/sg33_3_cif.got.tgz:5098.got - 2010.06.03 17:15:25.
