data_PCOD9344937
_publ_section_title
;
Structure prediction by ZEFSAII (Michael W. Deem and Ramdas Pophale) SiO2 
 PCOD9344937
Probable space group: P N A 21
;
_chemical_formula_sum "Si O2"
_cell_formula_units_Z 32
_cell_length_a 11.236006
_cell_length_b 16.261993
_cell_length_c 7.535480
_cell_angle_alpha 90.000000
_cell_angle_beta 90.000000
_cell_angle_gamma 90.000000
_cell_volume 1376.881782
_symmetry_space_group_name_H-M "P N A 21"
_symmetry_group_IT_number 33
_symmetry_cell_setting 'orthorhombic'
loop_
_space_group_symop_operation_xyz
x,y,z
-x,-y,1/2+z
1/2-x,1/2+y,1/2+z
1/2+x,1/2-y,z
loop_
_atom_site_type_symbol
_atom_site_label
_atom_site_fract_x
_atom_site_fract_y
_atom_site_fract_z
Si Si1 0.574751 0.353314 0.702210
Si Si2 0.233879 0.059566 0.963102
Si Si3 0.219200 0.703590 0.742461
Si Si4 0.896075 0.669763 0.206970
Si Si5 0.335599 0.436284 0.740423
Si Si6 0.824529 0.445480 0.447062
Si Si7 0.467741 0.746683 0.864275
Si Si8 0.038196 0.518581 0.299193
O O1 0.679210 0.412070 0.774677
O O2 0.604974 0.262654 0.775783
O O3 0.456243 0.391151 0.785604
O O4 0.539726 0.333611 0.495934
O O5 0.355187 0.008939 0.935770
O O6 0.264012 0.140118 0.080205
O O7 0.149711 0.999460 0.075979
O O8 0.216110 0.647813 0.923706
O O9 0.344406 0.751607 0.755031
O O10 0.091561 0.749327 0.756132
O O11 0.765136 0.631535 0.197222
O O12 0.977049 0.608061 0.318702
O O13 0.955278 0.681292 0.012438
O O14 0.281285 0.493852 0.893434
O O15 0.893795 0.478350 0.614687
O O16 0.930445 0.455812 0.301791
#
# Coordination Sequence:
#
# PCOD9344937 Si02
#       8
#     4   4   4   4   4   4   4   4
#     4  10  23  40  67  94 135 177 225 279 352 424
#     4  11  26  38  65  98 139 173 229 289 347 409
#     4  11  22  42  62  99 133 172 224 286 341 412
#     4   9  21  37  71  90 122 177 230 274 335 421
#     4  10  22  42  61  97 134 175 232 284 350 420
#     4  10  20  37  66  89 132 171 230 273 344 411
#     4  10  22  40  70  92 130 180 221 273 348 417
#     4  11  20  40  64  97 121 177 227 280 327 418
#
# _framework density 23.240922999999999
#
# number of rings (size 3 to 8) (size 9 to 14) (size 15 to 20)
#    0.750    1.000    1.250    3.750    1.750    4.000 
#    0.000    0.000    0.000    0.000    0.000    0.000 
#    0.000    0.000    0.000    0.000    0.000    0.000 
#
# Total GULP energy -178444.345442 kJ/mol
# GULP energy per Si atom -5576.385795 kJ/mol
# Density = 2.318803 g / cm^3
# Si number density = 23.240923 Si / 1000 Ang^3
#
#
#
# Elastic Constant Matrix: (Units=GPa)
#
#
# Indices 1 2 3 4 5 6 
#
# 1 147.1264 41.0338 6.6096 0.0000 0.0000 0.0000
# 2 41.0338 73.3820 -3.4146 0.0000 0.0000 0.0000
# 3 6.6096 -3.4146 41.6711 0.0000 0.0000 0.0000
# 4 0.0000 0.0000 0.0000 21.1404 0.0000 0.0000
# 5 0.0000 0.0000 0.0000 0.0000 20.4081 0.0000
# 6 0.0000 0.0000 0.0000 0.0000 0.0000 0.9036
#
#
#
# Elastic Compliance Matrix: (Units=1/GPa)
#
#
# Indices 1 2 3 4 5 6 
#
# 1 0.008168 -0.004645 -0.001676 0.000000 0.000000 0.000000
# 2 -0.004645 0.016321 0.002074 0.000000 0.000000 0.000000
# 3 -0.001676 0.002074 0.024433 0.000000 0.000000 0.000000
# 4 0.000000 0.000000 0.000000 0.047303 0.000000 0.000000
# 5 0.000000 0.000000 0.000000 0.000000 0.049000 0.000000
# 6 0.000000 0.000000 0.000000 0.000000 0.000000 1.106741
#
#
# Mechanical properties :
#
#
# Convention : Reuss Voigt Hill
#
# Bulk Modulus (GPa) = 24.73530 38.95965 31.84747
# Shear Modulus (GPa) = 3.92484 23.02046 13.47265
#
# Velocity S-wave (km/s) = 1.30093 3.15066 2.41030
# Velocity P-wave (km/s) = 3.59481 5.48045 4.63454
#
# Compressibility (1/GPa) = 0.04042805
#
# Stress axis : x y z
#
# Youngs Moduli (GPa) = 122.43288 61.26938 40.92775
#
# Poissons Ratio (x) = 0.28461 0.06860
# Poissons Ratio (y) = 0.56873 -0.08489
# Poissons Ratio (z) = 0.20522 -0.12709
#
# Static dielectric constant tensor:
#      x y z
#    x 1.882400 0.000000 0.000000 
#    y 0.000000 1.867740 0.000000 
#    z 0.000000 0.000000 2.005140 
# 
# From -- ./inp_files/4055.got.cif
#   From: 2010.05.17/outbox.cif.g08.bks.cpg/sg33_3_cif.got.tgz:4055.got - 2010.06.03 17:15:25.
