data_PCOD9344986
_publ_section_title
;
Structure prediction by ZEFSAII (Michael W. Deem and Ramdas Pophale) SiO2 
 PCOD9344986
Probable space group: P N A 21
;
_chemical_formula_sum "Si O2"
_cell_formula_units_Z 24
_cell_length_a 14.911745
_cell_length_b 7.490050
_cell_length_c 8.561595
_cell_angle_alpha 90.000000
_cell_angle_beta 90.000000
_cell_angle_gamma 90.000000
_cell_volume 956.242111
_symmetry_space_group_name_H-M "P N A 21"
_symmetry_group_IT_number 33
_symmetry_cell_setting 'orthorhombic'
loop_
_space_group_symop_operation_xyz
x,y,z
-x,-y,1/2+z
1/2-x,1/2+y,1/2+z
1/2+x,1/2-y,z
loop_
_atom_site_type_symbol
_atom_site_label
_atom_site_fract_x
_atom_site_fract_y
_atom_site_fract_z
Si Si1 0.222177 0.547678 0.839200
Si Si2 0.110738 0.439635 0.575288
Si Si3 0.660414 0.445469 0.607189
Si Si4 0.482478 0.282513 0.990702
Si Si5 0.591651 0.550892 0.183001
Si Si6 0.203851 0.927457 0.908930
O O1 0.133867 0.472051 0.758102
O O2 0.313369 0.464957 0.770251
O O3 0.227500 0.757607 0.804456
O O4 0.243373 0.539650 0.023325
O O5 0.106411 0.227927 0.543791
O O6 0.035768 0.572389 0.511392
O O7 0.206686 0.488409 0.496011
O O8 0.602143 0.616610 0.569490
O O9 0.673807 0.421919 0.790421
O O10 0.558444 0.363339 0.106491
O O11 0.473527 0.353678 0.809475
O O12 0.623687 0.640759 0.020890
#
# Coordination Sequence:
#
# PCOD9344986 Si02
#       6
#     4   4   4   4   4   4
#     4   9  20  37  60  93 120 164 212 263 314 388
#     4  10  22  36  62  91 125 163 216 258 320 385
#     4  10  21  36  62  90 125 160 214 259 321 387
#     4  11  22  42  62  89 134 169 209 272 327 398
#     4  10  23  39  66  93 129 177 214 266 345 386
#     4  10  20  38  64  94 123 169 219 266 319 386
#
# _framework density 25.098244999999999
#
# number of rings (size 3 to 8) (size 9 to 14) (size 15 to 20)
#    0.000    2.000    1.667    1.000    9.333    0.000 
#    0.000   10.000    0.000    0.000    0.000    0.000 
#    0.000    0.000    0.000    0.000    0.000    0.000 
#
# Total GULP energy -133718.729175 kJ/mol
# GULP energy per Si atom -5571.613716 kJ/mol
# Density = 2.504112 g / cm^3
# Si number density = 25.098245 Si / 1000 Ang^3
#
#
#
# Elastic Constant Matrix: (Units=GPa)
#
#
# Indices 1 2 3 4 5 6 
#
# 1 47.3065 -18.8454 19.3273 0.0000 0.0000 0.0000
# 2 -18.8454 53.6476 3.3812 0.0000 0.0000 0.0000
# 3 19.3273 3.3812 119.1238 0.0000 0.0000 0.0000
# 4 0.0000 0.0000 0.0000 17.0761 0.0000 0.0000
# 5 0.0000 0.0000 0.0000 0.0000 25.6470 0.0000
# 6 0.0000 0.0000 0.0000 0.0000 0.0000 34.5613
#
#
#
# Elastic Compliance Matrix: (Units=1/GPa)
#
#
# Indices 1 2 3 4 5 6 
#
# 1 0.026920 0.009749 -0.004644 0.000000 0.000000 0.000000
# 2 0.009749 0.022204 -0.002212 0.000000 0.000000 0.000000
# 3 -0.004644 -0.002212 0.009211 0.000000 0.000000 0.000000
# 4 0.000000 0.000000 0.000000 0.058561 0.000000 0.000000
# 5 0.000000 0.000000 0.000000 0.000000 0.038991 0.000000
# 6 0.000000 0.000000 0.000000 0.000000 0.000000 0.028934
#
#
# Mechanical properties :
#
#
# Convention : Reuss Voigt Hill
#
# Bulk Modulus (GPa) = 15.59555 25.31156 20.45355
# Shear Modulus (GPa) = 24.94890 29.87120 27.41005
#
# Velocity S-wave (km/s) = 3.15628 3.45363 3.30829
# Velocity P-wave (km/s) = 4.41702 5.10003 4.77076
#
# Compressibility (1/GPa) = 0.06412087
#
# Stress axis : x y z
#
# Youngs Moduli (GPa) = 37.14710 45.03639 108.56663
#
# Poissons Ratio (x) = -0.43907 0.50422
# Poissons Ratio (y) = -0.36215 0.24015
# Poissons Ratio (z) = 0.17252 0.09962
#
# Static dielectric constant tensor:
#      x y z
#    x 2.039750 0.000000 0.000000 
#    y 0.000000 1.969130 0.000000 
#    z 0.000000 0.000000 2.166020 
# 
# From -- ./inp_files/4237.got.cif
#   From: 2010.05.17/outbox.cif.g08.bks.cpg/sg33_3_cif.got.tgz:4237.got - 2010.06.03 17:15:25.
