data_PCOD9344263
_publ_section_title
;
Structure prediction by ZEFSAII (Michael W. Deem and Ramdas Pophale) SiO2 
 PCOD9344263
Probable space group: P B A 2
;
_chemical_formula_sum "Si O2"
_cell_formula_units_Z 26
_cell_length_a 10.711883
_cell_length_b 9.040788
_cell_length_c 10.588861
_cell_angle_alpha 90.000000
_cell_angle_beta 90.000000
_cell_angle_gamma 90.000000
_cell_volume 1025.466207
_symmetry_space_group_name_H-M "P B A 2"
_symmetry_group_IT_number 32
_symmetry_cell_setting 'orthorhombic'
loop_
_space_group_symop_operation_xyz
x,y,z
-x,-y,z
1/2-x,1/2+y,z
1/2+x,1/2-y,z
loop_
_atom_site_type_symbol
_atom_site_label
_atom_site_fract_x
_atom_site_fract_y
_atom_site_fract_z
Si Si1 0.804656 0.676954 0.458400
Si Si2 0.687560 0.054750 0.891736
Si Si3 0.364950 0.430250 0.673494
Si Si4 0.019040 0.331234 0.676191
Si Si5 0.634000 0.765869 0.042778
Si Si6 0.267266 0.067847 0.285988
Si Si7 0.000000 0.000000 0.156976
O O1 0.715711 0.578434 0.547806
O O2 0.911007 0.731499 0.553410
O O3 0.736280 0.815557 0.399363
O O4 0.838846 0.575530 0.338762
O O5 0.793392 0.003189 0.792122
O O6 0.601795 0.155861 0.801534
O O7 0.624223 0.908914 0.950839
O O8 0.754598 0.158421 0.994385
O O9 0.500000 0.500000 0.662449
O O10 0.394936 0.258407 0.702062
O O11 0.000000 0.500000 0.639406
O O12 0.668235 0.846990 0.172291
O O13 0.523911 0.647328 0.071723
O O14 0.126023 0.023708 0.240404
#
# Coordination Sequence:
#
# PCOD9344263 Si02
#       7
#     4   4   4   4   4   4   2
#     4  11  25  43  72 106 150 188 243 309 360 437
#     4  11  25  46  73 107 149 188 247 318 365 445
#     4  11  24  43  74 109 147 199 241 299 377 441
#     4  11  24  43  69 107 143 191 242 294 373 443
#     4  12  25  49  74 106 148 192 255 312 372 444
#     4  12  25  47  71 106 148 193 249 309 361 438
#     4  12  28  46  78 106 142 208 248 292 396 438
#
# _framework density 25.354320999999999
#
# number of rings (size 3 to 8) (size 9 to 14) (size 15 to 20)
#    0.000    0.615    3.077    3.692    4.308    8.615 
#    0.000    3.077    0.000    0.000    0.000    0.000 
#    0.000    0.000    0.000    0.000    0.000    0.000 
#
# Total GULP energy -145566.421022 kJ/mol
# GULP energy per Si atom -5598.708501 kJ/mol
# Density = 2.529661 g / cm^3
# Si number density = 25.354321 Si / 1000 Ang^3
#
#
#
# Elastic Constant Matrix: (Units=GPa)
#
#
# Indices 1 2 3 4 5 6 
#
# 1 68.5814 18.4817 39.7678 0.0000 0.0000 0.0000
# 2 18.4817 126.5226 52.3726 0.0000 0.0000 0.0000
# 3 39.7678 52.3726 130.9920 0.0000 0.0000 0.0000
# 4 0.0000 0.0000 0.0000 42.5966 0.0000 0.0000
# 5 0.0000 0.0000 0.0000 0.0000 15.8684 0.0000
# 6 0.0000 0.0000 0.0000 0.0000 0.0000 54.2736
#
#
#
# Elastic Compliance Matrix: (Units=1/GPa)
#
#
# Indices 1 2 3 4 5 6 
#
# 1 0.017716 -0.000433 -0.005205 0.000000 0.000000 0.000000
# 2 -0.000433 0.009482 -0.003659 0.000000 0.000000 0.000000
# 3 -0.005205 -0.003659 0.010677 0.000000 0.000000 0.000000
# 4 0.000000 0.000000 0.000000 0.023476 0.000000 0.000000
# 5 0.000000 0.000000 0.000000 0.000000 0.063018 0.000000
# 6 0.000000 0.000000 0.000000 0.000000 0.000000 0.018425
#
#
# Mechanical properties :
#
#
# Convention : Reuss Voigt Hill
#
# Bulk Modulus (GPa) = 51.86823 60.81559 56.34191
# Shear Modulus (GPa) = 29.79425 36.91264 33.35345
#
# Velocity S-wave (km/s) = 3.43171 3.81973 3.63091
# Velocity P-wave (km/s) = 6.01697 6.59486 6.31253
#
# Compressibility (1/GPa) = 0.01927962
#
# Stress axis : x y z
#
# Youngs Moduli (GPa) = 56.44518 105.46534 93.65561
#
# Poissons Ratio (x) = 0.04569 0.48750
# Poissons Ratio (y) = 0.02445 0.34273
# Poissons Ratio (z) = 0.29381 0.38594
#
# Static dielectric constant tensor:
#      x y z
#    x 2.047280 0.000000 0.000000 
#    y 0.000000 2.021430 0.000000 
#    z 0.000000 0.000000 2.026850 
# 
# From -- ./inp_files/3837.got.cif
#   From: 2010.05.17/outbox.cif.g08.bks.cpg/sg32_2_cif.got.tgz:3837.got - 2010.06.03 17:12:27.
