data_PCOD9344780
_publ_section_title
;
Structure prediction by ZEFSAII (Michael W. Deem and Ramdas Pophale) SiO2 
 PCOD9344780
Probable space group: P N A 21
;
_chemical_formula_sum "Si O2"
_cell_formula_units_Z 32
_cell_length_a 5.603916
_cell_length_b 13.241034
_cell_length_c 15.311473
_cell_angle_alpha 90.000000
_cell_angle_beta 90.000000
_cell_angle_gamma 90.000000
_cell_volume 1136.136442
_symmetry_space_group_name_H-M "P N A 21"
_symmetry_group_IT_number 33
_symmetry_cell_setting 'orthorhombic'
loop_
_space_group_symop_operation_xyz
x,y,z
-x,-y,1/2+z
1/2-x,1/2+y,1/2+z
1/2+x,1/2-y,z
loop_
_atom_site_type_symbol
_atom_site_label
_atom_site_fract_x
_atom_site_fract_y
_atom_site_fract_z
Si Si1 0.514403 0.135873 0.126680
Si Si2 0.224174 0.655716 0.808434
Si Si3 0.739675 0.206743 0.468976
Si Si4 0.563806 0.007918 0.420513
Si Si5 0.259961 0.706737 0.216594
Si Si6 0.276009 0.344262 0.877136
Si Si7 0.563996 0.492064 0.765070
Si Si8 0.485586 0.635883 0.558910
O O1 0.466555 0.148494 0.229881
O O2 0.533855 0.250000 0.092807
O O3 0.771990 0.089790 0.100987
O O4 0.272001 0.089789 0.084583
O O5 0.259757 0.757641 0.865048
O O6 0.449410 0.603207 0.759361
O O7 0.153436 0.579522 0.886883
O O8 0.501876 0.263650 0.500897
O O9 0.695016 0.088233 0.483060
O O10 0.449233 0.896773 0.426203
O O11 0.749945 0.000000 0.342804
O O12 0.497744 0.763665 0.184677
O O13 0.259453 0.742330 0.320525
O O14 0.304688 0.588227 0.202528
O O15 0.346759 0.420450 0.798682
O O16 0.466684 0.351473 0.955704
#
# Coordination Sequence:
#
# PCOD9344780 Si02
#       8
#     4   4   4   4   4   4   4   4
#     4  10  24  35  54  80 109 161 194 225 275 343
#     4  10  22  36  53  82 120 152 198 230 287 348
#     4  10  20  31  53  74 111 149 180 228 281 335
#     4  10  20  33  55  79 111 160 185 244 288 338
#     4  10  20  31  53  74 111 149 180 228 281 335
#     4  10  22  36  53  82 120 152 198 230 287 348
#     4  10  20  33  55  79 111 160 185 244 288 338
#     4  10  24  35  54  80 109 161 194 225 275 343
#
# _framework density 28.165633
#
# number of rings (size 3 to 8) (size 9 to 14) (size 15 to 20)
#    0.000    2.000    2.500    0.000   17.500    0.000 
#    0.000    0.000    0.000    0.000    0.000    0.000 
#    0.000   54.000    0.000    0.000    0.000    0.000 
#
# Total GULP energy -178489.296982 kJ/mol
# GULP energy per Si atom -5577.790531 kJ/mol
# Density = 2.810153 g / cm^3
# Si number density = 28.165633 Si / 1000 Ang^3
#
#
#
# Elastic Constant Matrix: (Units=GPa)
#
#
# Indices 1 2 3 4 5 6 
#
# 1 191.6488 14.4346 30.7159 0.0000 0.0000 0.0000
# 2 14.4346 140.8955 30.5450 0.0000 0.0000 0.0000
# 3 30.7159 30.5450 110.9517 0.0000 0.0000 0.0000
# 4 0.0000 0.0000 0.0000 25.8088 0.0000 0.0000
# 5 0.0000 0.0000 0.0000 0.0000 -34.2457 0.0000
# 6 0.0000 0.0000 0.0000 0.0000 0.0000 36.5952
#
#
#
# Elastic Compliance Matrix: (Units=1/GPa)
#
#
# Indices 1 2 3 4 5 6 
#
# 1 0.005468 -0.000247 -0.001446 0.000000 0.000000 0.000000
# 2 -0.000247 0.007559 -0.002013 0.000000 0.000000 0.000000
# 3 -0.001446 -0.002013 0.009967 0.000000 0.000000 0.000000
# 4 0.000000 0.000000 0.000000 0.038747 0.000000 0.000000
# 5 0.000000 0.000000 0.000000 0.000000 -0.029201 0.000000
# 6 0.000000 0.000000 0.000000 0.000000 0.000000 0.027326
#
#
# Mechanical properties :
#
#
# Convention : Reuss Voigt Hill
#
# Bulk Modulus (GPa) = 64.16880 66.09856 65.13368
# Shear Modulus (GPa) = 68.99243 30.15168 49.57205
#
# Velocity S-wave (km/s) = 4.95464 3.27542 4.19981
# Velocity P-wave (km/s) = 7.45408 6.15006 6.83325
#
# Compressibility (1/GPa) = 0.01558390
#
# Stress axis : x y z
#
# Youngs Moduli (GPa) = 182.87564 132.29131 100.32800
#
# Poissons Ratio (x) = 0.03264 0.14506
# Poissons Ratio (y) = 0.04513 0.20193
# Poissons Ratio (z) = 0.26442 0.26626
#
# Static dielectric constant tensor:
#      x y z
#    x 2.361390 0.000000 0.000000 
#    y 0.000000 -3.318630 0.000000 
#    z 0.000000 0.000000 2.312800 
# 
# From -- ./inp_files/7458.got.cif
#   From: 2010.05.17/outbox.cif.g08.bks.cpg/sg33_4_cif.got.tgz:7458.got - 2010.06.03 17:15:25.
