data_PCOD9344370
_publ_section_title
;
Structure prediction by ZEFSAII (Michael W. Deem and Ramdas Pophale) SiO2 
 PCOD9344370
Probable space group: P N A 21
;
_chemical_formula_sum "Si O2"
_cell_formula_units_Z 32
_cell_length_a 25.433626
_cell_length_b 5.239289
_cell_length_c 9.519088
_cell_angle_alpha 90.000000
_cell_angle_beta 90.000000
_cell_angle_gamma 90.000000
_cell_volume 1268.457665
_symmetry_space_group_name_H-M "P N A 21"
_symmetry_group_IT_number 33
_symmetry_cell_setting 'orthorhombic'
loop_
_space_group_symop_operation_xyz
x,y,z
-x,-y,1/2+z
1/2-x,1/2+y,1/2+z
1/2+x,1/2-y,z
loop_
_atom_site_type_symbol
_atom_site_label
_atom_site_fract_x
_atom_site_fract_y
_atom_site_fract_z
Si Si1 0.114936 0.620388 0.062850
Si Si2 0.445308 0.414509 0.937345
Si Si3 0.936225 0.876405 0.490137
Si Si4 0.221353 0.418929 0.146418
Si Si5 0.385911 0.913493 0.941303
Si Si6 0.685708 0.781732 0.785284
Si Si7 0.895595 0.910378 0.191362
Si Si8 0.772016 0.576180 0.047963
O O1 0.070477 0.402640 0.055098
O O2 0.160820 0.504481 0.162291
O O3 0.085982 0.890857 0.083002
O O4 0.148441 0.662423 0.916975
O O5 0.507199 0.431901 0.921308
O O6 0.409547 0.648509 0.881819
O O7 0.439962 0.432283 0.108166
O O8 0.418959 0.152420 0.890451
O O9 0.899709 0.863124 0.353466
O O10 0.257979 0.369246 0.284788
O O11 0.246441 0.647134 0.055403
O O12 0.229559 0.156140 0.057396
O O13 0.398203 0.852371 0.106481
O O14 0.323603 0.949069 0.952108
O O15 0.654159 0.598479 0.676084
O O16 0.703214 0.038037 0.707027
#
# Coordination Sequence:
#
# PCOD9344370 Si02
#       8
#     4   4   4   4   4   4   4   4
#     4  11  23  36  54  83 114 145 189 233 275 331
#     4  10  20  32  54  81 111 142 176 228 284 322
#     4  11  23  36  54  84 114 145 190 232 273 337
#     4  10  20  32  53  81 110 141 177 227 282 327
#     4  10  16  32  53  82 103 135 176 228 275 319
#     4   9  19  33  59  81 106 138 183 235 276 325
#     4   9  19  33  59  82 106 136 185 233 275 321
#     4  10  16  32  54  82 104 134 176 230 274 324
#
# _framework density 25.22749
#
# number of rings (size 3 to 8) (size 9 to 14) (size 15 to 20)
#    1.500    0.500    2.500    3.000    3.500    0.000 
#    0.000    0.000    0.000    6.000    0.000    0.000 
#    0.000    0.000    0.000    0.000    0.000    0.000 
#
# Total GULP energy -178256.231659 kJ/mol
# GULP energy per Si atom -5570.507239 kJ/mol
# Density = 2.517007 g / cm^3
# Si number density = 25.227490 Si / 1000 Ang^3
#
#
#
# Elastic Constant Matrix: (Units=GPa)
#
#
# Indices 1 2 3 4 5 6 
#
# 1 98.8950 34.5163 -17.7025 0.0000 0.0000 0.0000
# 2 34.5163 171.8471 17.5650 0.0000 0.0000 0.0000
# 3 -17.7025 17.5650 39.5163 0.0000 0.0000 0.0000
# 4 0.0000 0.0000 0.0000 19.5100 0.0000 0.0000
# 5 0.0000 0.0000 0.0000 0.0000 21.4259 0.0000
# 6 0.0000 0.0000 0.0000 0.0000 0.0000 34.5198
#
#
#
# Elastic Compliance Matrix: (Units=1/GPa)
#
#
# Indices 1 2 3 4 5 6 
#
# 1 0.012498 -0.003229 0.007034 0.000000 0.000000 0.000000
# 2 -0.003229 0.006930 -0.004527 0.000000 0.000000 0.000000
# 3 0.007034 -0.004527 0.030470 0.000000 0.000000 0.000000
# 4 0.000000 0.000000 0.000000 0.051256 0.000000 0.000000
# 5 0.000000 0.000000 0.000000 0.000000 0.046673 0.000000
# 6 0.000000 0.000000 0.000000 0.000000 0.000000 0.028969
#
#
# Mechanical properties :
#
#
# Convention : Reuss Voigt Hill
#
# Bulk Modulus (GPa) = 20.63834 42.11290 31.37562
# Shear Modulus (GPa) = 25.72138 33.48313 29.60225
#
# Velocity S-wave (km/s) = 3.19655 3.64709 3.42923
# Velocity P-wave (km/s) = 4.67146 5.87065 5.30505
#
# Compressibility (1/GPa) = 0.04845350
#
# Stress axis : x y z
#
# Youngs Moduli (GPa) = 80.01305 144.29007 32.81960
#
# Poissons Ratio (x) = 0.46595 -0.23086
# Poissons Ratio (y) = 0.25838 0.14858
# Poissons Ratio (z) = -0.56283 0.65324
#
# Static dielectric constant tensor:
#      x y z
#    x 2.043610 0.000000 0.000000 
#    y 0.000000 1.984580 0.000000 
#    z 0.000000 0.000000 2.208310 
# 
# From -- ./inp_files/8318.got.cif
#   From: 2010.05.17/outbox.cif.g08.bks.cpg/sg33_5_cif.got.tgz:8318.got - 2010.06.03 17:15:25.
