data_PCOD9344414
_publ_section_title
;
Structure prediction by ZEFSAII (Michael W. Deem and Ramdas Pophale) SiO2 
 PCOD9344414
Probable space group: P N A 21
;
_chemical_formula_sum "Si O2"
_cell_formula_units_Z 20
_cell_length_a 5.535581
_cell_length_b 11.566307
_cell_length_c 12.748164
_cell_angle_alpha 90.000000
_cell_angle_beta 90.000000
_cell_angle_gamma 90.000000
_cell_volume 816.216871
_symmetry_space_group_name_H-M "P N A 21"
_symmetry_group_IT_number 33
_symmetry_cell_setting 'orthorhombic'
loop_
_space_group_symop_operation_xyz
x,y,z
-x,-y,1/2+z
1/2-x,1/2+y,1/2+z
1/2+x,1/2-y,z
loop_
_atom_site_type_symbol
_atom_site_label
_atom_site_fract_x
_atom_site_fract_y
_atom_site_fract_z
Si Si1 0.749999 0.797837 0.561680
Si Si2 0.250001 0.060192 0.574680
Si Si3 0.250000 0.866296 0.757666
Si Si4 0.249999 0.931372 0.125607
Si Si5 0.750000 0.953033 0.841070
O O1 0.499999 0.750000 0.513744
O O2 0.749998 0.743645 0.679905
O O3 0.750001 0.936251 0.576497
O O4 0.250000 0.004642 0.459832
O O5 0.250000 0.967627 0.669314
O O6 0.502568 0.123471 0.588385
O O7 0.997434 0.123472 0.588385
O O8 0.495358 0.884894 0.823740
O O9 0.004641 0.884894 0.823740
O O10 0.250000 0.950186 0.250662
#
# Coordination Sequence:
#
# PCOD9344414 Si02
#       5
#     4   4   4   4   4
#     4  12  16  30  48  64  98 118 142 194 240 274
#     4  10  18  29  43  63  95 124 149 178 222 280
#     4  10  19  30  45  69  92 122 145 189 230 267
#     4  10  19  30  45  69  92 122 145 189 230 267
#     4  10  18  29  43  63  95 124 149 178 222 280
#
# _framework density 24.503288999999999
#
# number of rings (size 3 to 8) (size 9 to 14) (size 15 to 20)
#    0.000    1.600    8.000    1.200    0.000    0.000 
#    0.000    0.000    0.000    0.000    0.000    0.000 
#    0.000  153.600    0.000    0.000    0.000    0.000 
#
# Total GULP energy -111628.589217 kJ/mol
# GULP energy per Si atom -5581.429461 kJ/mol
# Density = 2.444752 g / cm^3
# Si number density = 24.503289 Si / 1000 Ang^3
#
#
#
# Elastic Constant Matrix: (Units=GPa)
#
#
# Indices 1 2 3 4 5 6 
#
# 1 290.7575 25.2662 41.0201 0.0000 0.0000 0.0000
# 2 25.2662 105.7604 3.0450 0.0000 0.0000 0.0000
# 3 41.0201 3.0450 101.7757 0.0000 0.0000 0.0000
# 4 0.0000 0.0000 0.0000 -0.3239 0.0000 0.0000
# 5 0.0000 0.0000 0.0000 0.0000 22.9306 0.0000
# 6 0.0000 0.0000 0.0000 0.0000 0.0000 -16.4172
#
#
#
# Elastic Compliance Matrix: (Units=1/GPa)
#
#
# Indices 1 2 3 4 5 6 
#
# 1 0.003721 -0.000846 -0.001474 0.000000 0.000000 0.000000
# 2 -0.000846 0.009656 0.000052 0.000000 0.000000 0.000000
# 3 -0.001474 0.000052 0.010418 0.000000 0.000000 0.000000
# 4 0.000000 0.000000 0.000000 -3.087696 0.000000 0.000000
# 5 0.000000 0.000000 0.000000 0.000000 0.043610 0.000000
# 6 0.000000 0.000000 0.000000 0.000000 0.000000 -0.060912
#
#
# Mechanical properties :
#
#
# Convention : Reuss Voigt Hill
#
# Bulk Modulus (GPa) = 51.92645 70.77291 61.34968
# Shear Modulus (GPa) = -1.62853 29.83541 14.10344
#
# Velocity S-wave (km/s) = -0.81613 3.49321 2.40171
# Velocity P-wave (km/s) = 4.51105 6.72427 5.72561
#
# Compressibility (1/GPa) = 0.01925801
#
# Stress axis : x y z
#
# Youngs Moduli (GPa) = 268.75598 103.56205 95.98599
#
# Poissons Ratio (x) = 0.08766 0.14152
# Poissons Ratio (y) = 0.22749 -0.00502
# Poissons Ratio (z) = 0.39624 -0.00541
#
# Static dielectric constant tensor:
#      x y z
#    x 2.123380 0.000000 0.000000 
#    y 0.000000 1.963220 0.000000 
#    z 0.000000 0.000000 1.883000 
# 
# From -- ./inp_files/2677.got.cif
#   From: 2010.05.17/outbox.cif.g08.bks.cpg/sg33_2_cif.got.tgz:2677.got - 2010.06.03 17:15:25.
