data_PCOD9344650
_publ_section_title
;
Structure prediction by ZEFSAII (Michael W. Deem and Ramdas Pophale) SiO2 
 PCOD9344650
Probable space group: P N A 21
;
_chemical_formula_sum "Si O2"
_cell_formula_units_Z 32
_cell_length_a 22.141810
_cell_length_b 5.265147
_cell_length_c 13.359898
_cell_angle_alpha 90.000000
_cell_angle_beta 90.000000
_cell_angle_gamma 90.000000
_cell_volume 1557.495366
_symmetry_space_group_name_H-M "P N A 21"
_symmetry_group_IT_number 33
_symmetry_cell_setting 'orthorhombic'
loop_
_space_group_symop_operation_xyz
x,y,z
-x,-y,1/2+z
1/2-x,1/2+y,1/2+z
1/2+x,1/2-y,z
loop_
_atom_site_type_symbol
_atom_site_label
_atom_site_fract_x
_atom_site_fract_y
_atom_site_fract_z
Si Si1 0.239535 0.457490 0.930370
Si Si2 0.136771 0.544765 0.787763
Si Si3 0.192853 0.817066 0.231458
Si Si4 0.116434 0.330773 0.250118
Si Si5 0.655622 0.174904 0.464426
Si Si6 0.021790 0.686368 0.693627
Si Si7 0.918184 0.804613 0.134538
Si Si8 0.217984 0.653009 0.613036
O O1 0.172377 0.506573 0.889946
O O2 0.272341 0.301133 0.839111
O O3 0.280140 0.710885 0.932506
O O4 0.244205 0.336882 0.040673
O O5 0.068793 0.652522 0.787493
O O6 0.125736 0.279931 0.726676
O O7 0.180776 0.714154 0.714756
O O8 0.159825 0.553417 0.208655
O O9 0.240484 0.918445 0.149851
O O10 0.145524 0.051508 0.237483
O O11 0.116816 0.383053 0.368595
O O12 0.048457 0.340688 0.213038
O O13 0.621426 0.366999 0.537908
O O14 0.667503 0.941008 0.536194
O O15 0.043507 0.455416 0.622598
O O16 0.038192 0.964086 0.655691
#
# Coordination Sequence:
#
# PCOD9344650 Si02
#       8
#     4   4   4   4   4   4   4   4
#     4  10  19  36  58  91 121 150 198 253 298 370
#     4   8  20  35  58  89 115 162 193 244 308 358
#     4  10  23  37  59  90 120 156 197 250 310 353
#     4  11  22  40  62  88 121 159 202 248 300 359
#     4  10  21  35  64  89 116 155 209 247 302 366
#     4  10  20  39  62  81 119 160 202 241 298 358
#     4   9  20  37  62  87 111 160 204 241 293 363
#     4  10  19  37  59  87 119 156 193 254 303 365
#
# _framework density 20.545805999999999
#
# number of rings (size 3 to 8) (size 9 to 14) (size 15 to 20)
#    0.750    1.500    1.250    1.500    1.750    1.000 
#    6.750    1.250    8.250    0.000    0.000    0.000 
#    0.000    0.000    0.000    0.000    0.000    0.000 
#
# Total GULP energy -178190.234831 kJ/mol
# GULP energy per Si atom -5568.444838 kJ/mol
# Density = 2.049904 g / cm^3
# Si number density = 20.545806 Si / 1000 Ang^3
#
#
#
# Elastic Constant Matrix: (Units=GPa)
#
#
# Indices 1 2 3 4 5 6 
#
# 1 81.9902 16.6553 24.2864 0.0000 0.0000 0.0000
# 2 16.6553 79.5959 32.2692 0.0000 0.0000 0.0000
# 3 24.2864 32.2692 44.4869 0.0000 0.0000 0.0000
# 4 0.0000 0.0000 0.0000 15.3352 0.0000 0.0000
# 5 0.0000 0.0000 0.0000 0.0000 18.4373 0.0000
# 6 0.0000 0.0000 0.0000 0.0000 0.0000 29.0133
#
#
#
# Elastic Compliance Matrix: (Units=1/GPa)
#
#
# Indices 1 2 3 4 5 6 
#
# 1 0.014553 0.000249 -0.008125 0.000000 0.000000 0.000000
# 2 0.000249 0.017801 -0.013048 0.000000 0.000000 0.000000
# 3 -0.008125 -0.013048 0.036379 0.000000 0.000000 0.000000
# 4 0.000000 0.000000 0.000000 0.065209 0.000000 0.000000
# 5 0.000000 0.000000 0.000000 0.000000 0.054238 0.000000
# 6 0.000000 0.000000 0.000000 0.000000 0.000000 0.034467
#
#
# Mechanical properties :
#
#
# Convention : Reuss Voigt Hill
#
# Bulk Modulus (GPa) = 37.19704 39.16611 38.18157
# Shear Modulus (GPa) = 18.28435 21.41465 19.84950
#
# Velocity S-wave (km/s) = 2.98641 3.23195 3.11160
# Velocity P-wave (km/s) = 5.48044 5.74731 5.61546
#
# Compressibility (1/GPa) = 0.02688386
#
# Stress axis : x y z
#
# Youngs Moduli (GPa) = 68.71532 56.17559 27.48834
#
# Poissons Ratio (x) = -0.01398 0.22335
# Poissons Ratio (y) = -0.01711 0.35868
# Poissons Ratio (z) = 0.55833 0.73300
#
# Static dielectric constant tensor:
#      x y z
#    x 1.731660 0.000000 0.000000 
#    y 0.000000 1.809730 0.000000 
#    z 0.000000 0.000000 1.757470 
# 
# From -- ./inp_files/7320.got.cif
#   From: 2010.05.17/outbox.cif.g08.bks.cpg/sg33_4_cif.got.tgz:7320.got - 2010.06.03 17:15:25.
