data_PCOD9344666
_publ_section_title
;
Structure prediction by ZEFSAII (Michael W. Deem and Ramdas Pophale) SiO2 
 PCOD9344666
Probable space group: P N A 21
;
_chemical_formula_sum "Si O2"
_cell_formula_units_Z 32
_cell_length_a 13.902108
_cell_length_b 13.180750
_cell_length_c 9.546513
_cell_angle_alpha 90.000000
_cell_angle_beta 90.000000
_cell_angle_gamma 90.000000
_cell_volume 1749.305047
_symmetry_space_group_name_H-M "P N A 21"
_symmetry_group_IT_number 33
_symmetry_cell_setting 'orthorhombic'
loop_
_space_group_symop_operation_xyz
x,y,z
-x,-y,1/2+z
1/2-x,1/2+y,1/2+z
1/2+x,1/2-y,z
loop_
_atom_site_type_symbol
_atom_site_label
_atom_site_fract_x
_atom_site_fract_y
_atom_site_fract_z
Si Si1 0.501426 0.397930 0.628620
Si Si2 0.906637 0.631373 0.878827
Si Si3 0.557108 0.409386 0.948104
Si Si4 0.415510 0.181052 0.564936
Si Si5 0.417796 0.806982 0.557778
Si Si6 0.199342 0.209994 0.570495
Si Si7 0.764420 0.788379 0.390866
Si Si8 0.426095 0.100028 0.871007
O O1 0.506435 0.414395 0.796308
O O2 0.465167 0.494982 0.543781
O O3 0.435856 0.299837 0.596391
O O4 0.609320 0.367227 0.577754
O O5 0.833584 0.699983 0.968662
O O6 0.012120 0.648951 0.944227
O O7 0.885773 0.512502 0.887627
O O8 0.910527 0.665417 0.718375
O O9 0.534321 0.303833 0.028570
O O10 0.670030 0.389287 0.914842
O O11 0.303332 0.165089 0.531206
O O12 0.444516 0.122109 0.707095
O O13 0.311230 0.793291 0.493486
O O14 0.480485 0.883721 0.465704
O O15 0.214953 0.244957 0.731497
O O16 0.655291 0.818426 0.412093
#
# Coordination Sequence:
#
# PCOD9344666 Si02
#       8
#     4   4   4   4   4   4   4   4
#     4  10  19  36  63  83 117 151 193 240 294 348
#     4  11  23  35  62  91 116 158 195 243 286 357
#     4   9  20  36  58  86 112 151 189 242 291 338
#     4  10  21  40  60  83 122 159 190 240 296 344
#     4  10  21  39  55  88 124 144 192 249 292 340
#     4   9  20  38  59  84 118 156 194 238 289 351
#     4   8  20  39  60  79 118 152 193 237 293 343
#     4  11  20  41  63  82 119 163 194 235 297 353
#
# _framework density 18.292978999999999
#
# number of rings (size 3 to 8) (size 9 to 14) (size 15 to 20)
#    0.750    1.500    1.250    1.500    5.250    1.000 
#    0.000    5.000    5.500    0.000    0.000    0.000 
#    0.000    0.000    0.000    0.000    0.000    0.000 
#
# Total GULP energy -178276.814100 kJ/mol
# GULP energy per Si atom -5571.150441 kJ/mol
# Density = 1.825134 g / cm^3
# Si number density = 18.292979 Si / 1000 Ang^3
#
#
#
# Elastic Constant Matrix: (Units=GPa)
#
#
# Indices 1 2 3 4 5 6 
#
# 1 68.5930 -5.2574 43.3426 0.0000 0.0000 0.0000
# 2 -5.2574 51.5139 33.7299 0.0000 0.0000 0.0000
# 3 43.3426 33.7299 98.1827 0.0000 0.0000 0.0000
# 4 0.0000 0.0000 0.0000 28.1931 0.0000 0.0000
# 5 0.0000 0.0000 0.0000 0.0000 15.1717 0.0000
# 6 0.0000 0.0000 0.0000 0.0000 0.0000 8.2862
#
#
#
# Elastic Compliance Matrix: (Units=1/GPa)
#
#
# Indices 1 2 3 4 5 6 
#
# 1 0.025450 0.012842 -0.015647 0.000000 0.000000 0.000000
# 2 0.012842 0.031527 -0.016500 0.000000 0.000000 0.000000
# 3 -0.015647 -0.016500 0.022761 0.000000 0.000000 0.000000
# 4 0.000000 0.000000 0.000000 0.035470 0.000000 0.000000
# 5 0.000000 0.000000 0.000000 0.000000 0.065912 0.000000
# 6 0.000000 0.000000 0.000000 0.000000 0.000000 0.120683
#
#
# Mechanical properties :
#
#
# Convention : Reuss Voigt Hill
#
# Bulk Modulus (GPa) = 24.31391 40.21331 32.26361
# Shear Modulus (GPa) = 14.11950 20.09516 17.10733
#
# Velocity S-wave (km/s) = 2.78124 3.31798 3.06140
# Velocity P-wave (km/s) = 4.86148 6.05882 5.49287
#
# Compressibility (1/GPa) = 0.04112872
#
# Stress axis : x y z
#
# Youngs Moduli (GPa) = 39.29278 31.71918 43.93518
#
# Poissons Ratio (x) = -0.40735 0.68744
# Poissons Ratio (y) = -0.50462 0.72493
# Poissons Ratio (z) = 0.61481 0.52337
#
# Static dielectric constant tensor:
#      x y z
#    x 1.646780 0.000000 0.000000 
#    y 0.000000 1.623200 0.000000 
#    z 0.000000 0.000000 1.604120 
# 
# From -- ./inp_files/4514.got.cif
#   From: 2010.05.17/outbox.cif.g08.bks.cpg/sg33_3_cif.got.tgz:4514.got - 2010.06.03 17:15:25.
