data_PCOD9344545
_publ_section_title
;
Structure prediction by ZEFSAII (Michael W. Deem and Ramdas Pophale) SiO2 
 PCOD9344545
Probable space group: P N A 21
;
_chemical_formula_sum "Si O2"
_cell_formula_units_Z 32
_cell_length_a 8.388012
_cell_length_b 12.373089
_cell_length_c 15.295421
_cell_angle_alpha 90.000000
_cell_angle_beta 90.000000
_cell_angle_gamma 90.000000
_cell_volume 1587.444736
_symmetry_space_group_name_H-M "P N A 21"
_symmetry_group_IT_number 33
_symmetry_cell_setting 'orthorhombic'
loop_
_space_group_symop_operation_xyz
x,y,z
-x,-y,1/2+z
1/2-x,1/2+y,1/2+z
1/2+x,1/2-y,z
loop_
_atom_site_type_symbol
_atom_site_label
_atom_site_fract_x
_atom_site_fract_y
_atom_site_fract_z
Si Si1 0.778102 0.636615 0.924920
Si Si2 0.943291 0.821792 0.845657
Si Si3 0.236130 0.499618 0.765583
Si Si4 0.259862 0.440471 0.056568
Si Si5 0.524630 0.050138 0.910200
Si Si6 0.670529 0.799624 0.526119
Si Si7 0.879720 0.005964 0.579340
Si Si8 0.037386 0.345055 0.191189
O O1 0.871899 0.749868 0.924226
O O2 0.627167 0.655043 0.862389
O O3 0.899901 0.545867 0.889741
O O4 0.705935 0.590984 0.014949
O O5 0.850850 0.931683 0.828448
O O6 0.918995 0.747537 0.759576
O O7 0.138842 0.421167 0.829548
O O8 0.332533 0.466642 0.679225
O O9 0.097863 0.579343 0.731352
O O10 0.276172 0.321929 0.012478
O O11 0.430804 0.496684 0.064348
O O12 0.182713 0.414267 0.151289
O O13 0.129129 0.493981 0.992875
O O14 0.421780 0.149799 0.944726
O O15 0.802714 0.888651 0.554102
O O16 0.548084 0.793473 0.607047
#
# Coordination Sequence:
#
# PCOD9344545 Si02
#       8
#     4   4   4   4   4   4   4   4
#     4  11  23  39  57  91 127 168 198 256 317 381
#     4  12  21  35  62  89 125 156 209 248 313 375
#     4  11  21  36  57  89 119 157 202 254 297 365
#     4  11  20  36  59  89 123 157 197 253 322 370
#     4  10  21  37  55  82 123 160 197 254 309 371
#     4   9  19  34  55  83 117 155 198 249 318 365
#     4  10  22  35  57  88 127 158 206 252 319 372
#     4  10  19  32  56  89 121 149 183 252 307 357
#
# _framework density 20.158180000000002
#
# number of rings (size 3 to 8) (size 9 to 14) (size 15 to 20)
#    0.000    1.500    2.500    5.250    1.750    0.000 
#    0.000    0.000    2.750    0.000    0.000    0.000 
#    0.000    0.000    0.000    0.000    0.000    0.000 
#
# Total GULP energy -178648.134678 kJ/mol
# GULP energy per Si atom -5582.754209 kJ/mol
# Density = 2.011230 g / cm^3
# Si number density = 20.158180 Si / 1000 Ang^3
#
#
#
# Elastic Constant Matrix: (Units=GPa)
#
#
# Indices 1 2 3 4 5 6 
#
# 1 129.0013 24.5734 36.0616 0.0000 0.0000 0.0000
# 2 24.5734 28.4242 25.4832 0.0000 0.0000 0.0000
# 3 36.0616 25.4832 60.4714 0.0000 0.0000 0.0000
# 4 0.0000 0.0000 0.0000 20.9179 0.0000 0.0000
# 5 0.0000 0.0000 0.0000 0.0000 31.2679 0.0000
# 6 0.0000 0.0000 0.0000 0.0000 0.0000 29.1559
#
#
#
# Elastic Compliance Matrix: (Units=1/GPa)
#
#
# Indices 1 2 3 4 5 6 
#
# 1 0.009754 -0.005171 -0.003637 0.000000 0.000000 0.000000
# 2 -0.005171 0.059286 -0.021900 0.000000 0.000000 0.000000
# 3 -0.003637 -0.021900 0.027935 0.000000 0.000000 0.000000
# 4 0.000000 0.000000 0.000000 0.047806 0.000000 0.000000
# 5 0.000000 0.000000 0.000000 0.000000 0.031982 0.000000
# 6 0.000000 0.000000 0.000000 0.000000 0.000000 0.034298
#
#
# Mechanical properties :
#
#
# Convention : Reuss Voigt Hill
#
# Bulk Modulus (GPa) = 28.12353 43.34814 35.73584
# Shear Modulus (GPa) = 17.58524 25.05359 21.31941
#
# Velocity S-wave (km/s) = 2.95678 3.52923 3.25561
# Velocity P-wave (km/s) = 5.06344 6.17721 5.64785
#
# Compressibility (1/GPa) = 0.03555741
#
# Stress axis : x y z
#
# Youngs Moduli (GPa) = 102.52469 16.86741 35.79801
#
# Poissons Ratio (x) = 0.08723 0.13021
# Poissons Ratio (y) = 0.53020 0.78396
# Poissons Ratio (z) = 0.37291 0.36939
#
# Static dielectric constant tensor:
#      x y z
#    x 1.748320 0.000000 0.000000 
#    y 0.000000 1.707150 0.000000 
#    z 0.000000 0.000000 1.758360 
# 
# From -- ./inp_files/7733.got.cif
#   From: 2010.05.17/outbox.cif.g08.bks.cpg/sg33_4_cif.got.tgz:7733.got - 2010.06.03 17:15:25.
