data_PCOD9344379
_publ_section_title
;
Structure prediction by ZEFSAII (Michael W. Deem and Ramdas Pophale) SiO2 
 PCOD9344379
Probable space group: P N A 21
;
_chemical_formula_sum "Si O2"
_cell_formula_units_Z 32
_cell_length_a 11.417811
_cell_length_b 17.260383
_cell_length_c 7.072425
_cell_angle_alpha 90.000000
_cell_angle_beta 90.000000
_cell_angle_gamma 90.000000
_cell_volume 1393.803750
_symmetry_space_group_name_H-M "P N A 21"
_symmetry_group_IT_number 33
_symmetry_cell_setting 'orthorhombic'
loop_
_space_group_symop_operation_xyz
x,y,z
-x,-y,1/2+z
1/2-x,1/2+y,1/2+z
1/2+x,1/2-y,z
loop_
_atom_site_type_symbol
_atom_site_label
_atom_site_fract_x
_atom_site_fract_y
_atom_site_fract_z
Si Si1 0.462095 0.678509 0.857270
Si Si2 0.578070 0.841430 0.766415
Si Si3 0.826552 0.973144 0.336919
Si Si4 0.709778 0.270892 0.076462
Si Si5 0.251245 0.319787 0.717462
Si Si6 0.427742 0.439052 0.639920
Si Si7 0.269989 0.159405 0.600621
Si Si8 0.327542 0.878423 0.818794
O O1 0.527556 0.759374 0.839309
O O2 0.397095 0.676353 0.652660
O O3 0.542349 0.612606 0.951325
O O4 0.354217 0.679690 0.003909
O O5 0.669055 0.818168 0.602042
O O6 0.459008 0.888736 0.738757
O O7 0.652572 0.878086 0.936875
O O8 0.952436 0.964987 0.234628
O O9 0.757486 0.896779 0.273142
O O10 0.320536 0.858868 0.044912
O O11 0.749048 0.046556 0.274426
O O12 0.722529 0.199324 0.223921
O O13 0.682265 0.222306 0.886984
O O14 0.346596 0.384983 0.771019
O O15 0.321310 0.242859 0.652974
O O16 0.353524 0.509927 0.556445
#
# Coordination Sequence:
#
# PCOD9344379 Si02
#       8
#     4   4   4   4   4   4   4   4
#     4   9  17  37  59  88 122 168 210 268 318 374
#     4  10  16  38  63  85 125 171 207 265 326 366
#     4  10  23  38  61  93 124 173 212 263 329 403
#     4  10  21  34  62  98 117 161 225 269 305 391
#     4  11  20  38  64  92 124 162 218 273 315 387
#     4  10  21  38  62  91 135 174 208 269 347 379
#     4  10  19  37  62  90 123 161 216 258 314 387
#     4  10  21  42  61  87 136 170 208 267 340 383
#
# _framework density 22.958755
#
# number of rings (size 3 to 8) (size 9 to 14) (size 15 to 20)
#    0.000    2.000    5.000    0.750    1.750    1.000 
#   13.500    1.250    0.000    0.000    0.000    0.000 
#    0.000    0.000    0.000    0.000    0.000    0.000 
#
# Total GULP energy -178285.639996 kJ/mol
# GULP energy per Si atom -5571.426250 kJ/mol
# Density = 2.290650 g / cm^3
# Si number density = 22.958755 Si / 1000 Ang^3
#
#
#
# Elastic Constant Matrix: (Units=GPa)
#
#
# Indices 1 2 3 4 5 6 
#
# 1 54.8771 1.3300 -1.8299 0.0000 0.0000 0.0000
# 2 1.3300 82.6167 11.8148 0.0000 0.0000 0.0000
# 3 -1.8299 11.8148 66.7837 0.0000 0.0000 0.0000
# 4 0.0000 0.0000 0.0000 36.2637 0.0000 0.0000
# 5 0.0000 0.0000 0.0000 0.0000 13.8636 0.0000
# 6 0.0000 0.0000 0.0000 0.0000 0.0000 31.8189
#
#
#
# Elastic Compliance Matrix: (Units=1/GPa)
#
#
# Indices 1 2 3 4 5 6 
#
# 1 0.018251 -0.000375 0.000566 0.000000 0.000000 0.000000
# 2 -0.000375 0.012426 -0.002209 0.000000 0.000000 0.000000
# 3 0.000566 -0.002209 0.015380 0.000000 0.000000 0.000000
# 4 0.000000 0.000000 0.000000 0.027576 0.000000 0.000000
# 5 0.000000 0.000000 0.000000 0.000000 0.072132 0.000000
# 6 0.000000 0.000000 0.000000 0.000000 0.000000 0.031428
#
#
# Mechanical properties :
#
#
# Convention : Reuss Voigt Hill
#
# Bulk Modulus (GPa) = 23.79680 25.21192 24.50436
# Shear Modulus (GPa) = 25.61041 29.25340 27.43191
#
# Velocity S-wave (km/s) = 3.34353 3.57343 3.46039
# Velocity P-wave (km/s) = 5.02922 5.29444 5.16353
#
# Compressibility (1/GPa) = 0.04202245
#
# Stress axis : x y z
#
# Youngs Moduli (GPa) = 54.79300 80.47660 65.01971
#
# Poissons Ratio (x) = 0.03016 -0.03683
# Poissons Ratio (y) = 0.02054 0.14360
# Poissons Ratio (z) = -0.03103 0.17774
#
# Static dielectric constant tensor:
#      x y z
#    x 1.897070 0.000000 0.000000 
#    y 0.000000 1.880550 0.000000 
#    z 0.000000 0.000000 1.987860 
# 
# From -- ./inp_files/4057.got.cif
#   From: 2010.05.17/outbox.cif.g08.bks.cpg/sg33_3_cif.got.tgz:4057.got - 2010.06.03 17:15:25.
