data_PCOD9344091
_publ_section_title
;
Structure prediction by ZEFSAII (Michael W. Deem and Ramdas Pophale) SiO2 
 PCOD9344091
Probable space group: P B A 2
;
_chemical_formula_sum "Si O2"
_cell_formula_units_Z 22
_cell_length_a 11.013522
_cell_length_b 15.987289
_cell_length_c 4.889251
_cell_angle_alpha 90.000000
_cell_angle_beta 90.000000
_cell_angle_gamma 90.000000
_cell_volume 860.881515
_symmetry_space_group_name_H-M "P B A 2"
_symmetry_group_IT_number 32
_symmetry_cell_setting 'orthorhombic'
loop_
_space_group_symop_operation_xyz
x,y,z
-x,-y,z
1/2-x,1/2+y,z
1/2+x,1/2-y,z
loop_
_atom_site_type_symbol
_atom_site_label
_atom_site_fract_x
_atom_site_fract_y
_atom_site_fract_z
Si Si1 0.074244 0.671219 0.138000
Si Si2 0.500000 0.000000 0.383986
Si Si3 0.608455 0.657228 0.047026
Si Si4 0.270407 0.480148 0.366905
Si Si5 0.622529 0.426620 0.855361
Si Si6 0.213675 0.711565 0.655596
O O1 0.007587 0.588321 0.223755
O O2 0.188739 0.691723 0.340231
O O3 0.024225 0.766030 0.158348
O O4 0.108011 0.661502 0.821105
O O5 0.636665 0.008834 0.497460
O O6 0.512850 0.587914 0.959081
O O7 0.687930 0.698886 0.801291
O O8 0.696252 0.612431 0.262793
O O9 0.360509 0.515616 0.591934
O O10 0.291014 0.536941 0.095204
O O11 0.666335 0.334796 0.752089
#
# Coordination Sequence:
#
# PCOD9344091 Si02
#       6
#     4   2   4   4   4   4
#     4  10  24  43  73 106 146 198 255 311 389 447
#     4  12  24  52  74 114 156 202 268 326 394 474
#     4  10  28  45  77 107 157 207 262 318 396 464
#     4  12  28  45  78 110 158 208 260 322 397 467
#     4  12  25  49  71 112 159 197 266 325 390 471
#     4  10  22  47  64 108 141 198 255 309 387 451
#
# _framework density 25.555202000000001
#
# number of rings (size 3 to 8) (size 9 to 14) (size 15 to 20)
#    1.091    0.000    3.636    0.545    7.636    4.364 
#    3.273    0.000    0.000    0.000    0.000    0.000 
#    0.000    0.000    0.000    0.000    0.000    0.000 
#
# Total GULP energy -122606.078323 kJ/mol
# GULP energy per Si atom -5573.003560 kJ/mol
# Density = 2.549704 g / cm^3
# Si number density = 25.555202 Si / 1000 Ang^3
#
#
#
# Elastic Constant Matrix: (Units=GPa)
#
#
# Indices 1 2 3 4 5 6 
#
# 1 82.6316 28.4101 -0.3353 0.0000 0.0000 0.0000
# 2 28.4101 174.5538 28.6270 0.0000 0.0000 0.0000
# 3 -0.3353 28.6270 88.9632 0.0000 0.0000 0.0000
# 4 0.0000 0.0000 0.0000 41.5459 0.0000 0.0000
# 5 0.0000 0.0000 0.0000 0.0000 20.0533 0.0000
# 6 0.0000 0.0000 0.0000 0.0000 0.0000 47.5437
#
#
#
# Elastic Compliance Matrix: (Units=1/GPa)
#
#
# Indices 1 2 3 4 5 6 
#
# 1 0.012868 -0.002219 0.000763 0.000000 0.000000 0.000000
# 2 -0.002219 0.006431 -0.002078 0.000000 0.000000 0.000000
# 3 0.000763 -0.002078 0.011912 0.000000 0.000000 0.000000
# 4 0.000000 0.000000 0.000000 0.024070 0.000000 0.000000
# 5 0.000000 0.000000 0.000000 0.000000 0.049867 0.000000
# 6 0.000000 0.000000 0.000000 0.000000 0.000000 0.021033
#
#
# Mechanical properties :
#
#
# Convention : Reuss Voigt Hill
#
# Bulk Modulus (GPa) = 41.42154 51.06135 46.24144
# Shear Modulus (GPa) = 35.38631 41.12503 38.25567
#
# Velocity S-wave (km/s) = 3.72519 4.01591 3.87328
# Velocity P-wave (km/s) = 5.89462 6.44419 6.17552
#
# Compressibility (1/GPa) = 0.02414203
#
# Stress axis : x y z
#
# Youngs Moduli (GPa) = 77.71154 155.49973 83.94860
#
# Poissons Ratio (x) = 0.34513 -0.06403
# Poissons Ratio (y) = 0.17248 0.17442
# Poissons Ratio (z) = -0.05927 0.32309
#
# Static dielectric constant tensor:
#      x y z
#    x 2.022320 0.000000 0.000000 
#    y 0.000000 2.176390 0.000000 
#    z 0.000000 0.000000 1.980080 
# 
# From -- ./inp_files/1248.got.cif
#   From: 2010.05.17/outbox.cif.g08.bks.cpg/sg32_1_cif.got.tgz:1248.got - 2010.06.03 17:12:27.
