data_PCOD9344969
_publ_section_title
;
Structure prediction by ZEFSAII (Michael W. Deem and Ramdas Pophale) SiO2 
 PCOD9344969
Probable space group: P N A 21
;
_chemical_formula_sum "Si O2"
_cell_formula_units_Z 28
_cell_length_a 18.074626
_cell_length_b 15.318613
_cell_length_c 4.800457
_cell_angle_alpha 90.000000
_cell_angle_beta 90.000000
_cell_angle_gamma 90.000000
_cell_volume 1329.141897
_symmetry_space_group_name_H-M "P N A 21"
_symmetry_group_IT_number 33
_symmetry_cell_setting 'orthorhombic'
loop_
_space_group_symop_operation_xyz
x,y,z
-x,-y,1/2+z
1/2-x,1/2+y,1/2+z
1/2+x,1/2-y,z
loop_
_atom_site_type_symbol
_atom_site_label
_atom_site_fract_x
_atom_site_fract_y
_atom_site_fract_z
Si Si1 0.488010 0.443601 0.360890
Si Si2 0.041596 0.400266 0.255463
Si Si3 0.261635 0.910444 0.152744
Si Si4 0.597360 0.997061 0.761165
Si Si5 0.133560 0.145415 0.458794
Si Si6 0.854969 0.738199 0.476396
Si Si7 0.671078 0.548905 0.633475
O O1 0.490365 0.470419 0.682936
O O2 0.555890 0.379160 0.313979
O O3 0.406663 0.420591 0.258696
O O4 0.062096 0.424802 0.571256
O O5 0.954011 0.413080 0.204842
O O6 0.081128 0.477270 0.078428
O O7 0.081995 0.315536 0.141307
O O8 0.303161 0.829387 0.301626
O O9 0.186802 0.917880 0.325872
O O10 0.316161 0.993400 0.203798
O O11 0.237196 0.916111 0.832157
O O12 0.116033 0.202637 0.727521
O O13 0.168286 0.056137 0.584844
O O14 0.178240 0.199516 0.221854
#
# Coordination Sequence:
#
# PCOD9344969 Si02
#       7
#     4   4   4   4   4   4   4
#     4  10  20  38  62  89 108 145 204 255 292 347
#     4   9  17  31  53  80 111 145 196 243 277 323
#     4  11  21  36  60  89 119 163 201 232 306 380
#     4   9  17  31  53  81 109 148 197 239 267 346
#     4  11  22  38  62  86 117 152 208 259 308 346
#     4  11  21  36  60  88 119 158 200 253 309 367
#     4  11  22  38  62  87 117 159 202 251 295 367
#
# _framework density 21.066224999999999
#
# number of rings (size 3 to 8) (size 9 to 14) (size 15 to 20)
#    0.000    1.714    0.000    8.571    0.000    0.000 
#    0.000    0.000   18.857    0.000    0.000    0.000 
#    0.000    0.000    0.000    0.000    0.000    0.000 
#
# Total GULP energy -155903.774802 kJ/mol
# GULP energy per Si atom -5567.991957 kJ/mol
# Density = 2.101828 g / cm^3
# Si number density = 21.066225 Si / 1000 Ang^3
#
#
#
# Elastic Constant Matrix: (Units=GPa)
#
#
# Indices 1 2 3 4 5 6 
#
# 1 66.6522 10.8565 16.8639 0.0000 0.0000 0.0000
# 2 10.8565 77.6726 20.0313 0.0000 0.0000 0.0000
# 3 16.8639 20.0313 93.1204 0.0000 0.0000 0.0000
# 4 0.0000 0.0000 0.0000 37.8438 0.0000 0.0000
# 5 0.0000 0.0000 0.0000 0.0000 36.4619 0.0000
# 6 0.0000 0.0000 0.0000 0.0000 0.0000 14.0264
#
#
#
# Elastic Compliance Matrix: (Units=1/GPa)
#
#
# Indices 1 2 3 4 5 6 
#
# 1 0.015902 -0.001567 -0.002543 0.000000 0.000000 0.000000
# 2 -0.001567 0.013785 -0.002682 0.000000 0.000000 0.000000
# 3 -0.002543 -0.002682 0.011776 0.000000 0.000000 0.000000
# 4 0.000000 0.000000 0.000000 0.026424 0.000000 0.000000
# 5 0.000000 0.000000 0.000000 0.000000 0.027426 0.000000
# 6 0.000000 0.000000 0.000000 0.000000 0.000000 0.071294
#
#
# Mechanical properties :
#
#
# Convention : Reuss Voigt Hill
#
# Bulk Modulus (GPa) = 35.86718 36.99431 36.43075
# Shear Modulus (GPa) = 26.38753 30.31265 28.35009
#
# Velocity S-wave (km/s) = 3.54305 3.79743 3.67244
# Velocity P-wave (km/s) = 5.81382 6.06847 5.94251
#
# Compressibility (1/GPa) = 0.02788064
#
# Stress axis : x y z
#
# Youngs Moduli (GPa) = 62.88591 72.54201 84.91772
#
# Poissons Ratio (x) = 0.11366 0.21592
# Poissons Ratio (y) = 0.09853 0.22771
# Poissons Ratio (z) = 0.15990 0.19453
#
# Static dielectric constant tensor:
#      x y z
#    x 1.814220 0.000000 0.000000 
#    y 0.000000 1.825110 0.000000 
#    z 0.000000 0.000000 1.741690 
# 
# From -- ./inp_files/1776.got.cif
#   From: 2010.05.17/outbox.cif.g08.bks.cpg/sg33_1_cif.got.tgz:1776.got - 2010.06.03 17:15:25.
