data_PCOD9344624
_publ_section_title
;
Structure prediction by ZEFSAII (Michael W. Deem and Ramdas Pophale) SiO2 
 PCOD9344624
Probable space group: P N A 21
;
_chemical_formula_sum "Si O2"
_cell_formula_units_Z 32
_cell_length_a 13.048564
_cell_length_b 9.422166
_cell_length_c 12.898305
_cell_angle_alpha 90.000000
_cell_angle_beta 90.000000
_cell_angle_gamma 90.000000
_cell_volume 1585.791602
_symmetry_space_group_name_H-M "P N A 21"
_symmetry_group_IT_number 33
_symmetry_cell_setting 'orthorhombic'
loop_
_space_group_symop_operation_xyz
x,y,z
-x,-y,1/2+z
1/2-x,1/2+y,1/2+z
1/2+x,1/2-y,z
loop_
_atom_site_type_symbol
_atom_site_label
_atom_site_fract_x
_atom_site_fract_y
_atom_site_fract_z
Si Si1 0.706461 0.857235 0.096540
Si Si2 0.367280 0.498647 0.766683
Si Si3 0.049163 0.141576 0.862573
Si Si4 0.814608 0.080840 0.232709
Si Si5 0.670951 0.142809 0.744934
Si Si6 0.469635 0.806337 0.062590
Si Si7 0.004759 0.965059 0.587399
Si Si8 0.173301 0.250088 0.394550
O O1 0.749294 0.745733 0.182511
O O2 0.587770 0.842499 0.071459
O O3 0.737971 0.003637 0.151753
O O4 0.761991 0.819621 0.988392
O O5 0.441726 0.370740 0.800743
O O6 0.247091 0.477670 0.781495
O O7 0.398878 0.531985 0.650419
O O8 0.394470 0.630971 0.838441
O O9 0.110024 0.284959 0.838687
O O10 0.125760 0.025822 0.811333
O O11 0.018871 0.104722 0.978370
O O12 0.747600 0.180232 0.308455
O O13 0.909747 0.118423 0.155288
O O14 0.587751 0.116070 0.656782
O O15 0.461645 0.632318 0.077369
O O16 0.409199 0.845359 0.957348
#
# Coordination Sequence:
#
# PCOD9344624 Si02
#       8
#     4   4   4   4   4   4   4   4
#     4  10  19  39  63  87 120 152 209 262 303 383
#     4  11  21  37  60  88 119 155 206 251 307 380
#     4  10  19  37  63  88 114 159 203 254 312 376
#     4  10  21  38  62  94 123 159 215 263 313 380
#     4  10  19  35  60  89 114 151 201 256 303 369
#     4  11  19  37  65  88 110 163 208 251 316 376
#     4  11  19  37  63  88 115 156 213 252 306 389
#     4  11  23  38  64  88 121 171 205 259 318 381
#
# _framework density 20.179195
#
# number of rings (size 3 to 8) (size 9 to 14) (size 15 to 20)
#    0.000    1.500    7.500    0.750    3.500    0.000 
#    6.750    0.000    0.000    0.000    0.000    0.000 
#    0.000    0.000    0.000    0.000    0.000    0.000 
#
# Total GULP energy -178209.170928 kJ/mol
# GULP energy per Si atom -5569.036591 kJ/mol
# Density = 2.013327 g / cm^3
# Si number density = 20.179195 Si / 1000 Ang^3
#
#
#
# Elastic Constant Matrix: (Units=GPa)
#
#
# Indices 1 2 3 4 5 6 
#
# 1 140.7986 17.7952 45.4548 0.0000 0.0000 0.0000
# 2 17.7952 18.2083 25.3061 0.0000 0.0000 0.0000
# 3 45.4548 25.3061 135.2656 0.0000 0.0000 0.0000
# 4 0.0000 0.0000 0.0000 17.9046 0.0000 0.0000
# 5 0.0000 0.0000 0.0000 0.0000 34.6726 0.0000
# 6 0.0000 0.0000 0.0000 0.0000 0.0000 22.2944
#
#
#
# Elastic Compliance Matrix: (Units=1/GPa)
#
#
# Indices 1 2 3 4 5 6 
#
# 1 0.008395 -0.005789 -0.001738 0.000000 0.000000 0.000000
# 2 -0.005789 0.078210 -0.012686 0.000000 0.000000 0.000000
# 3 -0.001738 -0.012686 0.010350 0.000000 0.000000 0.000000
# 4 0.000000 0.000000 0.000000 0.055852 0.000000 0.000000
# 5 0.000000 0.000000 0.000000 0.000000 0.028841 0.000000
# 6 0.000000 0.000000 0.000000 0.000000 0.000000 0.044854
#
#
# Mechanical properties :
#
#
# Convention : Reuss Voigt Hill
#
# Bulk Modulus (GPa) = 17.69037 52.37606 35.03322
# Shear Modulus (GPa) = 17.49646 28.68873 23.09260
#
# Velocity S-wave (km/s) = 2.94777 3.77463 3.38653
# Velocity P-wave (km/s) = 4.51348 6.70887 5.71754
#
# Compressibility (1/GPa) = 0.05652793
#
# Stress axis : x y z
#
# Youngs Moduli (GPa) = 119.11678 12.78616 96.61516
#
# Poissons Ratio (x) = 0.07402 0.16792
# Poissons Ratio (y) = 0.68958 1.22570
# Poissons Ratio (z) = 0.20703 0.16221
#
# Static dielectric constant tensor:
#      x y z
#    x 1.739800 0.000000 0.000000 
#    y 0.000000 1.756570 0.000000 
#    z 0.000000 0.000000 1.734540 
# 
# From -- ./inp_files/6453.got.cif
#   From: 2010.05.17/outbox.cif.g08.bks.cpg/sg33_4_cif.got.tgz:6453.got - 2010.06.03 17:15:25.
