data_PCOD9344483
_publ_section_title
;
Structure prediction by ZEFSAII (Michael W. Deem and Ramdas Pophale) SiO2 
 PCOD9344483
Probable space group: P N A 21
;
_chemical_formula_sum "Si O2"
_cell_formula_units_Z 32
_cell_length_a 20.447827
_cell_length_b 11.852894
_cell_length_c 5.718357
_cell_angle_alpha 90.000000
_cell_angle_beta 90.000000
_cell_angle_gamma 90.000000
_cell_volume 1385.934889
_symmetry_space_group_name_H-M "P N A 21"
_symmetry_group_IT_number 33
_symmetry_cell_setting 'orthorhombic'
loop_
_space_group_symop_operation_xyz
x,y,z
-x,-y,1/2+z
1/2-x,1/2+y,1/2+z
1/2+x,1/2-y,z
loop_
_atom_site_type_symbol
_atom_site_label
_atom_site_fract_x
_atom_site_fract_y
_atom_site_fract_z
Si Si1 0.020307 0.853761 0.466560
Si Si2 0.206068 0.265607 0.760942
Si Si3 0.094258 0.270382 0.143932
Si Si4 0.306884 0.417069 0.236561
Si Si5 0.672402 0.413265 0.371305
Si Si6 0.069167 0.921944 0.969088
Si Si7 0.798210 0.327001 0.100512
Si Si8 0.833188 0.545994 0.914949
O O1 0.056657 0.858702 0.719708
O O2 0.971609 0.747455 0.500245
O O3 0.054973 0.855494 0.210793
O O4 0.977332 0.968817 0.459321
O O5 0.187521 0.162746 0.598355
O O6 0.197704 0.378134 0.618017
O O7 0.154632 0.274283 0.968209
O O8 0.275504 0.236964 0.867006
O O9 0.107762 0.152291 0.281688
O O10 0.107961 0.379957 0.305240
O O11 0.355116 0.460741 0.441215
O O12 0.310100 0.281128 0.262407
O O13 0.231178 0.457994 0.246964
O O14 0.333834 0.465230 0.989690
O O15 0.735285 0.391975 0.207800
O O16 0.848317 0.423507 0.021955
#
# Coordination Sequence:
#
# PCOD9344483 Si02
#       8
#     4   4   4   4   4   4   4   4
#     4  10  23  44  63  94 131 169 230 268 336 401
#     4  10  18  36  57  87 123 171 211 260 321 389
#     4  10  22  38  63  91 126 173 219 273 322 404
#     4  12  22  39  59  97 141 170 213 276 344 401
#     4  10  21  34  59  91 128 181 207 259 341 400
#     4  10  25  39  65  97 131 174 213 283 336 396
#     4  11  22  36  55  91 135 172 217 261 325 419
#     4  11  23  36  59  96 131 174 216 256 341 408
#
# _framework density 23.089108
#
# number of rings (size 3 to 8) (size 9 to 14) (size 15 to 20)
#    0.000    1.500    5.000    1.500   10.500    1.000 
#    0.000    0.000    0.000    0.000    3.250    0.000 
#    0.000    0.000    0.000    0.000    0.000    0.000 
#
# Total GULP energy -178457.456381 kJ/mol
# GULP energy per Si atom -5576.795512 kJ/mol
# Density = 2.303656 g / cm^3
# Si number density = 23.089108 Si / 1000 Ang^3
#
#
#
# Elastic Constant Matrix: (Units=GPa)
#
#
# Indices 1 2 3 4 5 6 
#
# 1 37.5001 1.6756 8.9164 0.0000 0.0000 0.0000
# 2 1.6756 81.6062 9.9226 0.0000 0.0000 0.0000
# 3 8.9164 9.9226 90.4018 0.0000 0.0000 0.0000
# 4 0.0000 0.0000 0.0000 29.1153 0.0000 0.0000
# 5 0.0000 0.0000 0.0000 0.0000 30.0040 0.0000
# 6 0.0000 0.0000 0.0000 0.0000 0.0000 14.7900
#
#
#
# Elastic Compliance Matrix: (Units=1/GPa)
#
#
# Indices 1 2 3 4 5 6 
#
# 1 0.027311 -0.000236 -0.002668 0.000000 0.000000 0.000000
# 2 -0.000236 0.012422 -0.001340 0.000000 0.000000 0.000000
# 3 -0.002668 -0.001340 0.011472 0.000000 0.000000 0.000000
# 4 0.000000 0.000000 0.000000 0.034346 0.000000 0.000000
# 5 0.000000 0.000000 0.000000 0.000000 0.033329 0.000000
# 6 0.000000 0.000000 0.000000 0.000000 0.000000 0.067613
#
#
# Mechanical properties :
#
#
# Convention : Reuss Voigt Hill
#
# Bulk Modulus (GPa) = 23.41013 27.83749 25.62381
# Shear Modulus (GPa) = 23.89818 27.38143 25.63981
#
# Velocity S-wave (km/s) = 3.22070 3.44743 3.33599
# Velocity P-wave (km/s) = 4.89812 5.28480 5.09513
#
# Compressibility (1/GPa) = 0.04271654
#
# Stress axis : x y z
#
# Youngs Moduli (GPa) = 36.61469 80.50381 87.16921
#
# Poissons Ratio (x) = 0.01903 0.23255
# Poissons Ratio (y) = 0.00866 0.11682
# Poissons Ratio (z) = 0.09768 0.10788
#
# Static dielectric constant tensor:
#      x y z
#    x 1.960820 0.000000 0.000000 
#    y 0.000000 1.950260 0.000000 
#    z 0.000000 0.000000 1.975200 
# 
# From -- ./inp_files/2064.got.cif
#   From: 2010.05.17/outbox.cif.g08.bks.cpg/sg33_2_cif.got.tgz:2064.got - 2010.06.03 17:15:25.
