data_PCOD9344366
_publ_section_title
;
Structure prediction by ZEFSAII (Michael W. Deem and Ramdas Pophale) SiO2 
 PCOD9344366
Probable space group: P N A 21
;
_chemical_formula_sum "Si O2"
_cell_formula_units_Z 28
_cell_length_a 9.172237
_cell_length_b 14.746122
_cell_length_c 8.813413
_cell_angle_alpha 90.000000
_cell_angle_beta 90.000000
_cell_angle_gamma 90.000000
_cell_volume 1192.057521
_symmetry_space_group_name_H-M "P N A 21"
_symmetry_group_IT_number 33
_symmetry_cell_setting 'orthorhombic'
loop_
_space_group_symop_operation_xyz
x,y,z
-x,-y,1/2+z
1/2-x,1/2+y,1/2+z
1/2+x,1/2-y,z
loop_
_atom_site_type_symbol
_atom_site_label
_atom_site_fract_x
_atom_site_fract_y
_atom_site_fract_z
Si Si1 0.631347 0.299027 0.933230
Si Si2 0.352466 0.548698 0.678384
Si Si3 0.663336 0.356321 0.495048
Si Si4 0.330603 0.360685 0.816445
Si Si5 0.885461 0.671583 0.716467
Si Si6 0.695968 0.534884 0.637852
Si Si7 0.383018 0.270321 0.404088
O O1 0.498435 0.329467 0.827676
O O2 0.737785 0.231603 0.841312
O O3 0.682632 0.390072 0.028286
O O4 0.577057 0.232073 0.070533
O O5 0.298925 0.604748 0.825815
O O6 0.302875 0.443166 0.695179
O O7 0.529717 0.548487 0.696404
O O8 0.705539 0.428695 0.616647
O O9 0.491507 0.339664 0.483253
O O10 0.762961 0.269149 0.515070
O O11 0.307474 0.415430 0.974945
O O12 0.852038 0.566352 0.703036
O O13 0.718783 0.696752 0.766356
O O14 0.002537 0.697570 0.840669
#
# Coordination Sequence:
#
# PCOD9344366 Si02
#       7
#     4   4   4   4   4   4   4
#     4  10  17  32  56  83 110 149 191 248 293 355
#     4  10  17  33  56  80 111 151 196 239 288 363
#     4  10  19  31  54  80 109 142 191 240 281 356
#     4   9  20  31  56  84 110 151 197 238 302 362
#     4  10  16  30  56  78 102 145 186 230 299 337
#     4   9  18  32  53  79 109 148 190 234 287 356
#     4  10  17  29  55  80 103 140 187 229 286 341
#
# _framework density 23.488799
#
# number of rings (size 3 to 8) (size 9 to 14) (size 15 to 20)
#    0.000    2.286    4.286    1.714    0.000    0.000 
#    0.000    1.429   18.857    0.000    0.000    0.000 
#    0.000    0.000    0.000    0.000    0.000    0.000 
#
# Total GULP energy -155912.241232 kJ/mol
# GULP energy per Si atom -5568.294330 kJ/mol
# Density = 2.343534 g / cm^3
# Si number density = 23.488799 Si / 1000 Ang^3
#
#
#
# Elastic Constant Matrix: (Units=GPa)
#
#
# Indices 1 2 3 4 5 6 
#
# 1 53.1827 23.4278 14.0138 0.0000 0.0000 0.0000
# 2 23.4278 107.0640 27.1361 0.0000 0.0000 0.0000
# 3 14.0138 27.1361 65.8211 0.0000 0.0000 0.0000
# 4 0.0000 0.0000 0.0000 34.9579 0.0000 0.0000
# 5 0.0000 0.0000 0.0000 0.0000 8.3604 0.0000
# 6 0.0000 0.0000 0.0000 0.0000 0.0000 38.7325
#
#
#
# Elastic Compliance Matrix: (Units=1/GPa)
#
#
# Indices 1 2 3 4 5 6 
#
# 1 0.021299 -0.003921 -0.002918 0.000000 0.000000 0.000000
# 2 -0.003921 0.011152 -0.003763 0.000000 0.000000 0.000000
# 3 -0.002918 -0.003763 0.017365 0.000000 0.000000 0.000000
# 4 0.000000 0.000000 0.000000 0.028606 0.000000 0.000000
# 5 0.000000 0.000000 0.000000 0.000000 0.119612 0.000000
# 6 0.000000 0.000000 0.000000 0.000000 0.000000 0.025818
#
#
# Mechanical properties :
#
#
# Convention : Reuss Voigt Hill
#
# Bulk Modulus (GPa) = 34.94990 39.46922 37.20956
# Shear Modulus (GPa) = 19.63912 27.17616 23.40764
#
# Velocity S-wave (km/s) = 2.89469 3.40514 3.16023
# Velocity P-wave (km/s) = 5.10725 5.68330 5.40295
#
# Compressibility (1/GPa) = 0.02861239
#
# Stress axis : x y z
#
# Youngs Moduli (GPa) = 46.94972 89.67068 57.58609
#
# Poissons Ratio (x) = 0.35161 0.16805
# Poissons Ratio (y) = 0.18409 0.21668
# Poissons Ratio (z) = 0.13701 0.33741
#
# Static dielectric constant tensor:
#      x y z
#    x 1.871490 0.000000 0.000000 
#    y 0.000000 2.044490 0.000000 
#    z 0.000000 0.000000 2.039430 
# 
# From -- ./inp_files/5920.got.cif
#   From: 2010.05.17/outbox.cif.g08.bks.cpg/sg33_3_cif.got.tgz:5920.got - 2010.06.03 17:15:25.
