data_PCOD9344120
_publ_section_title
;
Structure prediction by ZEFSAII (Michael W. Deem and Ramdas Pophale) SiO2 
 PCOD9344120
Probable space group: P B A 2
;
_chemical_formula_sum "Si O2"
_cell_formula_units_Z 24
_cell_length_a 13.873466
_cell_length_b 9.571100
_cell_length_c 7.862639
_cell_angle_alpha 90.000000
_cell_angle_beta 90.000000
_cell_angle_gamma 90.000000
_cell_volume 1044.035255
_symmetry_space_group_name_H-M "P B A 2"
_symmetry_group_IT_number 32
_symmetry_cell_setting 'orthorhombic'
loop_
_space_group_symop_operation_xyz
x,y,z
-x,-y,z
1/2-x,1/2+y,z
1/2+x,1/2-y,z
loop_
_atom_site_type_symbol
_atom_site_label
_atom_site_fract_x
_atom_site_fract_y
_atom_site_fract_z
Si Si1 0.548760 0.863637 0.356580
Si Si2 0.631881 0.276316 0.391915
Si Si3 0.778509 0.470824 0.588627
Si Si4 0.281237 0.754807 0.821906
Si Si5 0.299974 0.341317 0.184412
Si Si6 0.090644 0.098330 0.045245
O O1 0.464457 0.790775 0.471451
O O2 0.630590 0.933504 0.474108
O O3 0.611067 0.753981 0.245170
O O4 0.500000 0.000000 0.266818
O O5 0.681578 0.407903 0.489952
O O6 0.720870 0.176066 0.334138
O O7 0.581558 0.303106 0.207902
O O8 0.784770 0.364894 0.746164
O O9 0.779900 0.620883 0.684022
O O10 0.242734 0.789761 0.007535
O O11 0.381328 0.679962 0.874999
O O12 0.328729 0.496287 0.128506
O O13 0.000000 0.000000 0.015192
#
# Coordination Sequence:
#
# PCOD9344120 Si02
#       6
#     4   4   4   4   4   4
#     4  11  24  43  68 105 140 185 249 301 350 423
#     4  10  24  40  74  98 139 184 244 297 353 416
#     4  11  25  45  69 102 149 188 232 291 372 432
#     4  11  24  46  69  99 148 192 225 297 370 430
#     4  10  23  43  69 101 137 189 240 300 348 426
#     4  11  22  44  72 103 135 184 252 291 356 419
#
# _framework density 22.987729000000002
#
# number of rings (size 3 to 8) (size 9 to 14) (size 15 to 20)
#    0.000    1.333    3.333    1.000   11.667    0.000 
#    6.000    0.833    0.000    0.000    0.000    0.000 
#    0.000    0.000    0.000    0.000    0.000    0.000 
#
# Total GULP energy -133631.376476 kJ/mol
# GULP energy per Si atom -5567.974020 kJ/mol
# Density = 2.293541 g / cm^3
# Si number density = 22.987729 Si / 1000 Ang^3
#
#
#
# Elastic Constant Matrix: (Units=GPa)
#
#
# Indices 1 2 3 4 5 6 
#
# 1 141.5923 44.9196 41.5096 0.0000 0.0000 0.0000
# 2 44.9196 94.3240 33.5712 0.0000 0.0000 0.0000
# 3 41.5096 33.5712 121.1571 0.0000 0.0000 0.0000
# 4 0.0000 0.0000 0.0000 21.1830 0.0000 0.0000
# 5 0.0000 0.0000 0.0000 0.0000 26.3532 0.0000
# 6 0.0000 0.0000 0.0000 0.0000 0.0000 45.8899
#
#
#
# Elastic Compliance Matrix: (Units=1/GPa)
#
#
# Indices 1 2 3 4 5 6 
#
# 1 0.008754 -0.003441 -0.002046 0.000000 0.000000 0.000000
# 2 -0.003441 0.013114 -0.002455 0.000000 0.000000 0.000000
# 3 -0.002046 -0.002455 0.009635 0.000000 0.000000 0.000000
# 4 0.000000 0.000000 0.000000 0.047208 0.000000 0.000000
# 5 0.000000 0.000000 0.000000 0.000000 0.037946 0.000000
# 6 0.000000 0.000000 0.000000 0.000000 0.000000 0.021791
#
#
# Mechanical properties :
#
#
# Convention : Reuss Voigt Hill
#
# Bulk Modulus (GPa) = 64.02064 66.34158 65.18111
# Shear Modulus (GPa) = 31.34067 34.49009 32.91538
#
# Velocity S-wave (km/s) = 3.69638 3.87766 3.78811
# Velocity P-wave (km/s) = 6.79176 6.99790 6.89560
#
# Compressibility (1/GPa) = 0.01561996
#
# Stress axis : x y z
#
# Youngs Moduli (GPa) = 114.23582 76.25408 103.78953
#
# Poissons Ratio (x) = 0.26237 0.21233
# Poissons Ratio (y) = 0.39305 0.25480
# Poissons Ratio (z) = 0.23370 0.18720
#
# Static dielectric constant tensor:
#      x y z
#    x 1.839330 0.000000 0.000000 
#    y 0.000000 2.486400 0.000000 
#    z 0.000000 0.000000 1.916480 
# 
# From -- ./inp_files/2999.got.cif
#   From: 2010.05.17/outbox.cif.g08.bks.cpg/sg32_2_cif.got.tgz:2999.got - 2010.06.03 17:12:27.
