data_PCOD9344605
_publ_section_title
;
Structure prediction by ZEFSAII (Michael W. Deem and Ramdas Pophale) SiO2 
 PCOD9344605
Probable space group: P N A 21
;
_chemical_formula_sum "Si O2"
_cell_formula_units_Z 32
_cell_length_a 9.884873
_cell_length_b 16.888115
_cell_length_c 10.617518
_cell_angle_alpha 90.000000
_cell_angle_beta 90.000000
_cell_angle_gamma 90.000000
_cell_volume 1772.455243
_symmetry_space_group_name_H-M "P N A 21"
_symmetry_group_IT_number 33
_symmetry_cell_setting 'orthorhombic'
loop_
_space_group_symop_operation_xyz
x,y,z
-x,-y,1/2+z
1/2-x,1/2+y,1/2+z
1/2+x,1/2-y,z
loop_
_atom_site_type_symbol
_atom_site_label
_atom_site_fract_x
_atom_site_fract_y
_atom_site_fract_z
Si Si1 0.443576 0.578171 0.357010
Si Si2 0.944952 0.840354 0.627646
Si Si3 0.875889 0.854153 0.093204
Si Si4 0.130093 0.612643 0.917272
Si Si5 0.141043 0.314111 0.459774
Si Si6 0.712147 0.747696 0.725608
Si Si7 0.143336 0.937961 0.004037
Si Si8 0.311995 0.515748 0.756448
O O1 0.456850 0.620360 0.491266
O O2 0.385094 0.631397 0.243308
O O3 0.360005 0.496657 0.384442
O O4 0.592714 0.549689 0.317629
O O5 0.085550 0.800540 0.670876
O O6 0.811245 0.785410 0.622304
O O7 0.902461 0.905081 0.733768
O O8 0.732698 0.877765 0.033264
O O9 0.896993 0.764681 0.039087
O O10 0.989278 0.914220 0.037946
O O11 0.151922 0.685780 0.819949
O O12 0.182241 0.537558 0.838431
O O13 0.978197 0.621936 0.963301
O O14 0.178450 0.295080 0.315452
O O15 0.279166 0.355318 0.501636
O O16 0.214344 0.986587 0.115795
#
# Coordination Sequence:
#
# PCOD9344605 Si02
#       8
#     4   4   4   4   4   4   4   4
#     4  10  20  38  60  84 110 158 193 236 278 373
#     4  10  20  36  60  82 115 140 193 233 290 337
#     4  10  20  36  61  85 110 149 201 233 296 344
#     4  10  19  35  57  82 112 146 188 246 282 341
#     4  11  21  35  58  86 117 143 194 247 292 342
#     4  10  19  35  57  86 106 147 184 240 284 343
#     4  10  20  37  60  82 109 154 193 238 285 350
#     4   9  19  36  59  79 109 147 196 227 277 346
#
# _framework density 18.054051999999999
#
# number of rings (size 3 to 8) (size 9 to 14) (size 15 to 20)
#    0.000    2.000    2.500    2.250    1.750    0.000 
#    9.000    0.000    0.000    0.000    0.000    0.000 
#    0.000    0.000    0.000    0.000    0.000    0.000 
#
# Total GULP energy -178135.168286 kJ/mol
# GULP energy per Si atom -5566.724009 kJ/mol
# Density = 1.801296 g / cm^3
# Si number density = 18.054052 Si / 1000 Ang^3
#
#
#
# Elastic Constant Matrix: (Units=GPa)
#
#
# Indices 1 2 3 4 5 6 
#
# 1 54.4170 6.0259 8.9974 0.0000 0.0000 0.0000
# 2 6.0259 46.5316 18.8772 0.0000 0.0000 0.0000
# 3 8.9974 18.8772 73.0826 0.0000 0.0000 0.0000
# 4 0.0000 0.0000 0.0000 26.8086 0.0000 0.0000
# 5 0.0000 0.0000 0.0000 0.0000 10.6221 0.0000
# 6 0.0000 0.0000 0.0000 0.0000 0.0000 20.3083
#
#
#
# Elastic Compliance Matrix: (Units=1/GPa)
#
#
# Indices 1 2 3 4 5 6 
#
# 1 0.018875 -0.001677 -0.001890 0.000000 0.000000 0.000000
# 2 -0.001677 0.024155 -0.006033 0.000000 0.000000 0.000000
# 3 -0.001890 -0.006033 0.015474 0.000000 0.000000 0.000000
# 4 0.000000 0.000000 0.000000 0.037301 0.000000 0.000000
# 5 0.000000 0.000000 0.000000 0.000000 0.094143 0.000000
# 6 0.000000 0.000000 0.000000 0.000000 0.000000 0.049241
#
#
# Mechanical properties :
#
#
# Convention : Reuss Voigt Hill
#
# Bulk Modulus (GPa) = 25.44325 26.87024 26.15675
# Shear Modulus (GPa) = 18.41673 20.88986 19.65329
#
# Velocity S-wave (km/s) = 3.19735 3.40527 3.30294
# Velocity P-wave (km/s) = 5.26822 5.51150 5.39123
#
# Compressibility (1/GPa) = 0.03930315
#
# Stress axis : x y z
#
# Youngs Moduli (GPa) = 52.98036 41.39853 64.62385
#
# Poissons Ratio (x) = 0.06944 0.12217
# Poissons Ratio (y) = 0.08887 0.38986
# Poissons Ratio (z) = 0.10016 0.24975
#
# Static dielectric constant tensor:
#      x y z
#    x 1.625680 0.000000 0.000000 
#    y 0.000000 1.692340 0.000000 
#    z 0.000000 0.000000 1.638740 
# 
# From -- ./inp_files/6094.got.cif
#   From: 2010.05.17/outbox.cif.g08.bks.cpg/sg33_4_cif.got.tgz:6094.got - 2010.06.03 17:15:25.
