data_PCOD9344619
_publ_section_title
;
Structure prediction by ZEFSAII (Michael W. Deem and Ramdas Pophale) SiO2 
 PCOD9344619
Probable space group: P N A 21
;
_chemical_formula_sum "Si O2"
_cell_formula_units_Z 32
_cell_length_a 8.267865
_cell_length_b 14.136384
_cell_length_c 11.363087
_cell_angle_alpha 90.000000
_cell_angle_beta 90.000000
_cell_angle_gamma 90.000000
_cell_volume 1328.091638
_symmetry_space_group_name_H-M "P N A 21"
_symmetry_group_IT_number 33
_symmetry_cell_setting 'orthorhombic'
loop_
_space_group_symop_operation_xyz
x,y,z
-x,-y,1/2+z
1/2-x,1/2+y,1/2+z
1/2+x,1/2-y,z
loop_
_atom_site_type_symbol
_atom_site_label
_atom_site_fract_x
_atom_site_fract_y
_atom_site_fract_z
Si Si1 0.872245 0.441926 0.923150
Si Si2 0.836418 0.183720 0.377702
Si Si3 0.991086 0.358762 0.454385
Si Si4 0.060070 0.273568 0.016773
Si Si5 0.503595 0.508412 0.951698
Si Si6 0.534983 0.654206 0.286099
Si Si7 0.138607 0.870325 0.623113
Si Si8 0.204186 0.674655 0.192025
O O1 0.991452 0.531255 0.923890
O O2 0.692347 0.475624 0.957963
O O3 0.862380 0.393297 0.795723
O O4 0.937509 0.361260 0.009874
O O5 0.676272 0.177989 0.456517
O O6 0.795594 0.132150 0.254337
O O7 0.896387 0.290455 0.364705
O O8 0.980719 0.119359 0.430273
O O9 0.896860 0.345069 0.575892
O O10 0.233323 0.319264 0.037662
O O11 0.016164 0.198921 0.117885
O O12 0.040269 0.213605 0.896844
O O13 0.432897 0.449082 0.840157
O O14 0.409960 0.468658 0.064451
O O15 0.393760 0.654320 0.190361
O O16 0.677905 0.716871 0.234264
#
# Coordination Sequence:
#
# PCOD9344619 Si02
#       8
#     4   4   4   4   4   4   4   4
#     4   9  21  39  59  86 116 152 201 245 288 350
#     4  11  25  41  57  85 121 155 197 243 293 358
#     4  11  24  41  58  85 121 155 197 243 294 358
#     4  10  19  35  61  91 117 150 200 243 289 355
#     4   9  20  39  58  83 118 154 200 247 287 347
#     4   9  17  33  57  86 113 144 193 238 282 342
#     4  11  21  37  62  87 119 158 189 241 300 342
#     4  10  19  35  60  83 113 152 183 236 295 332
#
# _framework density 24.094722999999998
#
# number of rings (size 3 to 8) (size 9 to 14) (size 15 to 20)
#    0.000    2.000    0.000    5.250    0.000    6.000 
#    0.000    6.250    0.000    0.000    0.000    0.000 
#    0.000    0.000    0.000    0.000    0.000    0.000 
#
# Total GULP energy -179022.660150 kJ/mol
# GULP energy per Si atom -5594.458130 kJ/mol
# Density = 2.403988 g / cm^3
# Si number density = 24.094723 Si / 1000 Ang^3
#
#
#
# Elastic Constant Matrix: (Units=GPa)
#
#
# Indices 1 2 3 4 5 6 
#
# 1 30.8524 8.8852 8.2257 0.0000 0.0000 0.0000
# 2 8.8852 87.6997 -5.8815 0.0000 0.0000 0.0000
# 3 8.2257 -5.8815 71.7401 0.0000 0.0000 0.0000
# 4 0.0000 0.0000 0.0000 26.2256 0.0000 0.0000
# 5 0.0000 0.0000 0.0000 0.0000 27.6514 0.0000
# 6 0.0000 0.0000 0.0000 0.0000 0.0000 35.8143
#
#
#
# Elastic Compliance Matrix: (Units=1/GPa)
#
#
# Indices 1 2 3 4 5 6 
#
# 1 0.034648 -0.003798 -0.004284 0.000000 0.000000 0.000000
# 2 -0.003798 0.011882 0.001410 0.000000 0.000000 0.000000
# 3 -0.004284 0.001410 0.014546 0.000000 0.000000 0.000000
# 4 0.000000 0.000000 0.000000 0.038131 0.000000 0.000000
# 5 0.000000 0.000000 0.000000 0.000000 0.036165 0.000000
# 6 0.000000 0.000000 0.000000 0.000000 0.000000 0.027922
#
#
# Mechanical properties :
#
#
# Convention : Reuss Voigt Hill
#
# Bulk Modulus (GPa) = 20.95048 23.63902 22.29475
# Shear Modulus (GPa) = 25.96753 29.87576 27.92165
#
# Velocity S-wave (km/s) = 3.28644 3.52508 3.40785
# Velocity P-wave (km/s) = 4.80779 5.13814 4.97570
#
# Compressibility (1/GPa) = 0.04773159
#
# Stress axis : x y z
#
# Youngs Moduli (GPa) = 28.86150 84.16209 68.74749
#
# Poissons Ratio (x) = 0.31962 0.29452
# Poissons Ratio (y) = 0.10961 -0.09690
# Poissons Ratio (z) = 0.12365 -0.11863
#
# Static dielectric constant tensor:
#      x y z
#    x 1.925060 0.000000 0.000000 
#    y 0.000000 1.934050 0.000000 
#    z 0.000000 0.000000 1.950910 
# 
# From -- ./inp_files/5969.got.cif
#   From: 2010.05.17/outbox.cif.g08.bks.cpg/sg33_3_cif.got.tgz:5969.got - 2010.06.03 17:15:25.
