data_PCOD9344722
_publ_section_title
;
Structure prediction by ZEFSAII (Michael W. Deem and Ramdas Pophale) SiO2 
 PCOD9344722
Probable space group: P N A 21
;
_chemical_formula_sum "Si O2"
_cell_formula_units_Z 24
_cell_length_a 9.030571
_cell_length_b 7.806791
_cell_length_c 13.283024
_cell_angle_alpha 90.000000
_cell_angle_beta 90.000000
_cell_angle_gamma 90.000000
_cell_volume 936.450275
_symmetry_space_group_name_H-M "P N A 21"
_symmetry_group_IT_number 33
_symmetry_cell_setting 'orthorhombic'
loop_
_space_group_symop_operation_xyz
x,y,z
-x,-y,1/2+z
1/2-x,1/2+y,1/2+z
1/2+x,1/2-y,z
loop_
_atom_site_type_symbol
_atom_site_label
_atom_site_fract_x
_atom_site_fract_y
_atom_site_fract_z
Si Si1 0.586400 0.680985 0.477770
Si Si2 0.928247 0.692830 0.055336
Si Si3 0.941464 0.539467 0.851167
Si Si4 0.229815 0.976681 0.293557
Si Si5 0.723204 0.886381 0.180116
Si Si6 0.798800 0.884534 0.597608
O O1 0.564343 0.860779 0.416135
O O2 0.658996 0.547777 0.401886
O O3 0.695024 0.724916 0.570356
O O4 0.428817 0.624231 0.517787
O O5 0.935429 0.686791 0.934991
O O6 0.869686 0.862440 0.112003
O O7 0.803051 0.550397 0.078788
O O8 0.082104 0.633117 0.105455
O O9 0.817197 0.527980 0.764185
O O10 0.102243 0.540789 0.800537
O O11 0.230607 0.783898 0.249827
O O12 0.147818 0.093989 0.211722
#
# Coordination Sequence:
#
# PCOD9344722 Si02
#       6
#     4   4   4   4   4   4
#     4  10  20  37  67  94 127 169 220 271 330 398
#     4  10  22  38  68  98 130 176 226 279 337 404
#     4  10  19  38  66  96 129 174 223 268 337 402
#     4  10  20  38  67  95 125 174 222 267 343 400
#     4  10  19  40  65  93 131 177 216 278 341 398
#     4  10  20  39  65  96 128 172 219 275 334 396
#
# _framework density 25.628696999999999
#
# number of rings (size 3 to 8) (size 9 to 14) (size 15 to 20)
#    0.000    2.000    5.000    0.000    0.000    0.000 
#    6.000    1.667    7.333    0.000    0.000    0.000 
#    0.000    0.000    0.000    0.000    0.000    0.000 
#
# Total GULP energy -134295.535896 kJ/mol
# GULP energy per Si atom -5595.647329 kJ/mol
# Density = 2.557036 g / cm^3
# Si number density = 25.628697 Si / 1000 Ang^3
#
#
#
# Elastic Constant Matrix: (Units=GPa)
#
#
# Indices 1 2 3 4 5 6 
#
# 1 42.9837 -6.9862 19.0330 0.0000 0.0000 0.0000
# 2 -6.9862 77.9928 15.9999 0.0000 0.0000 0.0000
# 3 19.0330 15.9999 127.6601 0.0000 0.0000 0.0000
# 4 0.0000 0.0000 0.0000 39.4453 0.0000 0.0000
# 5 0.0000 0.0000 0.0000 0.0000 52.3415 0.0000
# 6 0.0000 0.0000 0.0000 0.0000 0.0000 17.2117
#
#
#
# Elastic Compliance Matrix: (Units=1/GPa)
#
#
# Indices 1 2 3 4 5 6 
#
# 1 0.025647 0.003163 -0.004220 0.000000 0.000000 0.000000
# 2 0.003163 0.013550 -0.002170 0.000000 0.000000 0.000000
# 3 -0.004220 -0.002170 0.008734 0.000000 0.000000 0.000000
# 4 0.000000 0.000000 0.000000 0.025352 0.000000 0.000000
# 5 0.000000 0.000000 0.000000 0.000000 0.019105 0.000000
# 6 0.000000 0.000000 0.000000 0.000000 0.000000 0.058100
#
#
# Mechanical properties :
#
#
# Convention : Reuss Voigt Hill
#
# Bulk Modulus (GPa) = 24.10910 33.85889 28.98400
# Shear Modulus (GPa) = 29.27934 36.50571 32.89253
#
# Velocity S-wave (km/s) = 3.38367 3.77823 3.58638
# Velocity P-wave (km/s) = 4.96922 5.68096 5.33697
#
# Compressibility (1/GPa) = 0.04147811
#
# Stress axis : x y z
#
# Youngs Moduli (GPa) = 38.99025 73.79976 114.48910
#
# Poissons Ratio (x) = -0.23344 0.48317
# Poissons Ratio (y) = -0.12333 0.24843
# Poissons Ratio (z) = 0.16455 0.16014
#
# Static dielectric constant tensor:
#      x y z
#    x 1.953970 0.000000 0.000000 
#    y 0.000000 2.082670 0.000000 
#    z 0.000000 0.000000 2.123320 
# 
# From -- ./inp_files/5811.got.cif
#   From: 2010.05.17/outbox.cif.g08.bks.cpg/sg33_3_cif.got.tgz:5811.got - 2010.06.03 17:15:25.
