data_PCOD9344801
_publ_section_title
;
Structure prediction by ZEFSAII (Michael W. Deem and Ramdas Pophale) SiO2 
 PCOD9344801
Probable space group: P N A 21
;
_chemical_formula_sum "Si O2"
_cell_formula_units_Z 28
_cell_length_a 15.127016
_cell_length_b 11.082585
_cell_length_c 7.418036
_cell_angle_alpha 90.000000
_cell_angle_beta 90.000000
_cell_angle_gamma 90.000000
_cell_volume 1243.607332
_symmetry_space_group_name_H-M "P N A 21"
_symmetry_group_IT_number 33
_symmetry_cell_setting 'orthorhombic'
loop_
_space_group_symop_operation_xyz
x,y,z
-x,-y,1/2+z
1/2-x,1/2+y,1/2+z
1/2+x,1/2-y,z
loop_
_atom_site_type_symbol
_atom_site_label
_atom_site_fract_x
_atom_site_fract_y
_atom_site_fract_z
Si Si1 0.012789 0.945713 0.965110
Si Si2 0.292044 0.923414 0.218631
Si Si3 0.218915 0.527036 0.085768
Si Si4 0.614823 0.625983 0.609113
Si Si5 0.367779 0.725343 0.980038
Si Si6 0.304922 0.207275 0.860480
Si Si7 0.337171 0.624236 0.600062
O O1 0.056534 0.892284 0.785639
O O2 0.958810 0.834887 0.052980
O O3 0.087706 0.028161 0.053205
O O4 0.932105 0.042248 0.957593
O O5 0.327996 0.966198 0.414589
O O6 0.209206 0.831706 0.251153
O O7 0.248599 0.045069 0.147498
O O8 0.351431 0.852877 0.074624
O O9 0.288172 0.426694 0.155062
O O10 0.165807 0.593698 0.242555
O O11 0.285332 0.636237 0.026215
O O12 0.631277 0.756041 0.524118
O O13 0.367230 0.712380 0.761629
O O14 0.202509 0.190321 0.926240
#
# Coordination Sequence:
#
# PCOD9344801 Si02
#       7
#     4   4   4   4   4   4   4
#     4  11  20  35  56  89 126 161 199 271 322 374
#     4   9  20  35  54  86 122 157 205 264 308 378
#     4   8  16  34  52  79 124 159 206 257 303 372
#     4  10  20  33  54  88 126 161 207 264 318 382
#     4   9  19  33  52  86 121 161 207 251 326 381
#     4  10  20  34  57  89 120 160 209 258 320 379
#     4  11  21  34  59  89 121 155 207 267 315 380
#
# _framework density 22.515146999999999
#
# number of rings (size 3 to 8) (size 9 to 14) (size 15 to 20)
#    0.000    2.286    2.857    0.857    2.000    0.000 
#    0.000    0.000    0.000    0.000    7.429    0.000 
#    0.000    0.000    0.000    0.000    0.000    0.429 
#
# Total GULP energy -155870.156590 kJ/mol
# GULP energy per Si atom -5566.791307 kJ/mol
# Density = 2.246390 g / cm^3
# Si number density = 22.515147 Si / 1000 Ang^3
#
#
#
# Elastic Constant Matrix: (Units=GPa)
#
#
# Indices 1 2 3 4 5 6 
#
# 1 46.8732 32.7860 32.5015 0.0000 0.0000 0.0000
# 2 32.7860 98.7616 64.6163 0.0000 0.0000 0.0000
# 3 32.5015 64.6163 107.8176 0.0000 0.0000 0.0000
# 4 0.0000 0.0000 0.0000 57.2002 0.0000 0.0000
# 5 0.0000 0.0000 0.0000 0.0000 19.8756 0.0000
# 6 0.0000 0.0000 0.0000 0.0000 0.0000 20.9436
#
#
#
# Elastic Compliance Matrix: (Units=1/GPa)
#
#
# Indices 1 2 3 4 5 6 
#
# 1 0.029303 -0.006495 -0.004941 0.000000 0.000000 0.000000
# 2 -0.006495 0.018096 -0.008887 0.000000 0.000000 0.000000
# 3 -0.004941 -0.008887 0.016091 0.000000 0.000000 0.000000
# 4 0.000000 0.000000 0.000000 0.017482 0.000000 0.000000
# 5 0.000000 0.000000 0.000000 0.000000 0.050313 0.000000
# 6 0.000000 0.000000 0.000000 0.000000 0.000000 0.047747
#
#
# Mechanical properties :
#
#
# Convention : Reuss Voigt Hill
#
# Bulk Modulus (GPa) = 43.77626 57.02890 50.40258
# Shear Modulus (GPa) = 21.99793 27.84043 24.91918
#
# Velocity S-wave (km/s) = 3.12914 3.52023 3.33043
# Velocity P-wave (km/s) = 5.70443 6.47355 6.10112
#
# Compressibility (1/GPa) = 0.02284343
#
# Stress axis : x y z
#
# Youngs Moduli (GPa) = 34.12593 55.25982 62.14805
#
# Poissons Ratio (x) = 0.35893 0.30706
# Poissons Ratio (y) = 0.22166 0.55233
# Poissons Ratio (z) = 0.16861 0.49111
#
# Static dielectric constant tensor:
#      x y z
#    x 1.822410 0.000000 0.000000 
#    y 0.000000 1.855520 0.000000 
#    z 0.000000 0.000000 2.014890 
# 
# From -- ./inp_files/4355.got.cif
#   From: 2010.05.17/outbox.cif.g08.bks.cpg/sg33_3_cif.got.tgz:4355.got - 2010.06.03 17:15:25.
