data_PCOD9344580
_publ_section_title
;
Structure prediction by ZEFSAII (Michael W. Deem and Ramdas Pophale) SiO2 
 PCOD9344580
Probable space group: P N A 21
;
_chemical_formula_sum "Si O2"
_cell_formula_units_Z 28
_cell_length_a 8.895940
_cell_length_b 23.183960
_cell_length_c 5.473731
_cell_angle_alpha 90.000000
_cell_angle_beta 90.000000
_cell_angle_gamma 90.000000
_cell_volume 1128.919344
_symmetry_space_group_name_H-M "P N A 21"
_symmetry_group_IT_number 33
_symmetry_cell_setting 'orthorhombic'
loop_
_space_group_symop_operation_xyz
x,y,z
-x,-y,1/2+z
1/2-x,1/2+y,1/2+z
1/2+x,1/2-y,z
loop_
_atom_site_type_symbol
_atom_site_label
_atom_site_fract_x
_atom_site_fract_y
_atom_site_fract_z
Si Si1 0.941995 0.761149 0.152230
Si Si2 0.058611 0.322745 0.251289
Si Si3 0.959308 0.928262 0.461061
Si Si4 0.751143 0.536013 0.995415
Si Si5 0.003422 0.124973 0.451629
Si Si6 0.822473 0.561024 0.507384
Si Si7 0.192586 0.741705 0.502370
O O1 0.995872 0.806350 0.952123
O O2 0.781832 0.778020 0.260952
O O3 0.053990 0.774028 0.375456
O O4 0.939314 0.696628 0.038738
O O5 0.094574 0.382624 0.113843
O O6 0.191010 0.281513 0.145050
O O7 0.891628 0.305134 0.163882
O O8 0.922542 0.900270 0.199639
O O9 0.140846 0.931098 0.472818
O O10 0.884739 0.990332 0.504455
O O11 0.916641 0.893939 0.704275
O O12 0.665193 0.597808 0.961498
O O13 0.854844 0.539769 0.233647
O O14 0.833749 0.520365 0.743843
#
# Coordination Sequence:
#
# PCOD9344580 Si02
#       7
#     4   4   4   4   4   4   4
#     4  11  24  39  61  90 127 177 214 267 310 391
#     4  11  24  39  61  90 127 177 214 267 310 391
#     4  10  19  34  57  90 126 152 202 271 335 387
#     4  10  19  34  57  90 126 152 202 271 335 387
#     4  10  20  31  56  83 123 157 197 248 330 376
#     4  10  20  31  56  83 123 157 197 248 330 376
#     4  10  24  40  60  82 132 160 228 252 316 358
#
# _framework density 24.802481
#
# number of rings (size 3 to 8) (size 9 to 14) (size 15 to 20)
#    0.000    1.714    0.000    6.857   16.000    0.000 
#    0.000    0.000    0.000    0.000    0.000    6.000 
#    0.000    0.000    0.000    0.000    0.000    0.000 
#
# Total GULP energy -156166.032649 kJ/mol
# GULP energy per Si atom -5577.358309 kJ/mol
# Density = 2.474603 g / cm^3
# Si number density = 24.802481 Si / 1000 Ang^3
#
#
#
# Elastic Constant Matrix: (Units=GPa)
#
#
# Indices 1 2 3 4 5 6 
#
# 1 69.3671 3.2348 4.8116 0.0000 0.0000 0.0000
# 2 3.2348 16.7921 -5.1816 0.0000 0.0000 0.0000
# 3 4.8116 -5.1816 175.6062 0.0000 0.0000 0.0000
# 4 0.0000 0.0000 0.0000 26.3490 0.0000 0.0000
# 5 0.0000 0.0000 0.0000 0.0000 10.4952 0.0000
# 6 0.0000 0.0000 0.0000 0.0000 0.0000 24.8809
#
#
#
# Elastic Compliance Matrix: (Units=1/GPa)
#
#
# Indices 1 2 3 4 5 6 
#
# 1 0.014588 -0.002960 -0.000487 0.000000 0.000000 0.000000
# 2 -0.002960 0.060700 0.001872 0.000000 0.000000 0.000000
# 3 -0.000487 0.001872 0.005763 0.000000 0.000000 0.000000
# 4 0.000000 0.000000 0.000000 0.037952 0.000000 0.000000
# 5 0.000000 0.000000 0.000000 0.000000 0.095282 0.000000
# 6 0.000000 0.000000 0.000000 0.000000 0.000000 0.040191
#
#
# Mechanical properties :
#
#
# Convention : Reuss Voigt Hill
#
# Bulk Modulus (GPa) = 12.83695 29.72167 21.27931
# Shear Modulus (GPa) = 17.63084 29.60504 23.61794
#
# Velocity S-wave (km/s) = 2.66907 3.45865 3.08919
# Velocity P-wave (km/s) = 3.83216 5.28763 4.61760
#
# Compressibility (1/GPa) = 0.07790011
#
# Stress axis : x y z
#
# Youngs Moduli (GPa) = 68.55000 16.47452 173.51630
#
# Poissons Ratio (x) = 0.04877 0.08451
# Poissons Ratio (y) = 0.20294 -0.32485
# Poissons Ratio (z) = 0.03339 -0.03084
#
# Static dielectric constant tensor:
#      x y z
#    x 1.998950 0.000000 0.000000 
#    y 0.000000 2.048640 0.000000 
#    z 0.000000 0.000000 2.112000 
# 
# From -- ./inp_files/498.got.cif
#   From: 2010.05.17/outbox.cif.g08.bks.cpg/sg33_1_cif.got.tgz:498.got - 2010.06.03 17:15:25.
