data_PCOD9344139
_publ_section_title
;
Structure prediction by ZEFSAII (Michael W. Deem and Ramdas Pophale) SiO2 
 PCOD9344139
Probable space group: P B A 2
;
_chemical_formula_sum "Si O2"
_cell_formula_units_Z 12
_cell_length_a 8.593315
_cell_length_b 10.455124
_cell_length_c 5.247976
_cell_angle_alpha 90.000000
_cell_angle_beta 90.000000
_cell_angle_gamma 90.000000
_cell_volume 471.500068
_symmetry_space_group_name_H-M "P B A 2"
_symmetry_group_IT_number 32
_symmetry_cell_setting 'orthorhombic'
loop_
_space_group_symop_operation_xyz
x,y,z
-x,-y,z
1/2-x,1/2+y,z
1/2+x,1/2-y,z
loop_
_atom_site_type_symbol
_atom_site_label
_atom_site_fract_x
_atom_site_fract_y
_atom_site_fract_z
Si Si1 0.094976 0.703006 0.002580
Si Si2 0.082156 0.364542 0.499482
Si Si3 0.819905 0.036486 0.855156
O O1 0.981547 0.698235 0.244411
O O2 0.184648 0.836236 0.025664
O O3 0.209581 0.578916 0.961960
O O4 0.991723 0.705783 0.745268
O O5 0.253514 0.408119 0.587568
O O6 0.000000 0.500000 0.486806
O O7 0.000000 0.000000 0.837979
#
# Coordination Sequence:
#
# PCOD9344139 Si02
#       3
#     4   4   4
#     4  11  25  47  75 109 155 201 249 316 387 451
#     4  10  23  46  71 103 154 200 239 309 385 445
#     4  11  25  47  79 116 149 201 264 315 375 456
#
# _framework density 25.450686000000001
#
# number of rings (size 3 to 8) (size 9 to 14) (size 15 to 20)
#    0.000    1.333    0.000    5.000    0.000   10.667 
#    0.000   23.333    0.000    0.000    0.000    0.000 
#    0.000    0.000    0.000    0.000    0.000    0.000 
#
# Total GULP energy -67015.392248 kJ/mol
# GULP energy per Si atom -5584.616021 kJ/mol
# Density = 2.539276 g / cm^3
# Si number density = 25.450686 Si / 1000 Ang^3
#
#
#
# Elastic Constant Matrix: (Units=GPa)
#
#
# Indices 1 2 3 4 5 6 
#
# 1 207.5470 65.3206 88.9008 0.0000 0.0000 0.0000
# 2 65.3206 165.4446 49.9741 0.0000 0.0000 0.0000
# 3 88.9008 49.9741 205.2046 0.0000 0.0000 0.0000
# 4 0.0000 0.0000 0.0000 11.5466 0.0000 0.0000
# 5 0.0000 0.0000 0.0000 0.0000 14.2360 0.0000
# 6 0.0000 0.0000 0.0000 0.0000 0.0000 46.2538
#
#
#
# Elastic Compliance Matrix: (Units=1/GPa)
#
#
# Indices 1 2 3 4 5 6 
#
# 1 0.006386 -0.001820 -0.002324 0.000000 0.000000 0.000000
# 2 -0.001820 0.007043 -0.000927 0.000000 0.000000 0.000000
# 3 -0.002324 -0.000927 0.006106 0.000000 0.000000 0.000000
# 4 0.000000 0.000000 0.000000 0.086605 0.000000 0.000000
# 5 0.000000 0.000000 0.000000 0.000000 0.070244 0.000000
# 6 0.000000 0.000000 0.000000 0.000000 0.000000 0.021620
#
#
# Mechanical properties :
#
#
# Convention : Reuss Voigt Hill
#
# Bulk Modulus (GPa) = 106.44539 109.62081 108.03310
# Shear Modulus (GPa) = 23.66583 39.34068 31.50326
#
# Velocity S-wave (km/s) = 3.05269 3.93588 3.52208
# Velocity P-wave (km/s) = 7.37158 7.98876 7.68636
#
# Compressibility (1/GPa) = 0.00939449
#
# Stress axis : x y z
#
# Youngs Moduli (GPa) = 156.59011 141.99181 163.78583
#
# Poissons Ratio (x) = 0.25835 0.38056
# Poissons Ratio (y) = 0.28492 0.15181
# Poissons Ratio (z) = 0.36384 0.13161
#
# Static dielectric constant tensor:
#      x y z
#    x 2.131620 0.000000 0.000000 
#    y 0.000000 2.050800 0.000000 
#    z 0.000000 0.000000 2.221920 
# 
# From -- ./inp_files/260.got.cif
#   From: 2010.05.17/outbox.cif.g08.bks.cpg/sg32_1_cif.got.tgz:260.got - 2010.06.03 17:12:27.
