data_PCOD9344918
_publ_section_title
;
Structure prediction by ZEFSAII (Michael W. Deem and Ramdas Pophale) SiO2 
 PCOD9344918
Probable space group: P N A 21
;
_chemical_formula_sum "Si O2"
_cell_formula_units_Z 32
_cell_length_a 17.986652
_cell_length_b 5.026088
_cell_length_c 13.853833
_cell_angle_alpha 90.000000
_cell_angle_beta 90.000000
_cell_angle_gamma 90.000000
_cell_volume 1252.421079
_symmetry_space_group_name_H-M "P N A 21"
_symmetry_group_IT_number 33
_symmetry_cell_setting 'orthorhombic'
loop_
_space_group_symop_operation_xyz
x,y,z
-x,-y,1/2+z
1/2-x,1/2+y,1/2+z
1/2+x,1/2-y,z
loop_
_atom_site_type_symbol
_atom_site_label
_atom_site_fract_x
_atom_site_fract_y
_atom_site_fract_z
Si Si1 0.067708 0.073348 0.500000
Si Si2 0.129437 0.823398 0.911159
Si Si3 0.124183 0.933767 0.700398
Si Si4 0.625080 0.464691 0.116128
Si Si5 0.776303 0.567358 0.198779
Si Si6 0.704419 0.287870 0.373531
Si Si7 0.589180 0.977919 0.237165
Si Si8 0.511706 0.070918 0.909137
O O1 0.069946 0.005276 0.613199
O O2 0.151562 0.099997 0.457144
O O3 0.027074 0.843482 0.439819
O O4 0.029349 0.352251 0.476620
O O5 0.099426 0.954461 0.811948
O O6 0.218386 0.835927 0.908123
O O7 0.097478 0.521494 0.914270
O O8 0.104125 0.960635 0.008832
O O9 0.155089 0.635234 0.690168
O O10 0.193789 0.136313 0.689878
O O11 0.714449 0.477556 0.122708
O O12 0.592780 0.185707 0.149821
O O13 0.600367 0.689248 0.192371
O O14 0.735287 0.512201 0.300329
O O15 0.653932 0.086410 0.309542
O O16 0.515096 0.985494 0.299822
#
# Coordination Sequence:
#
# PCOD9344918 Si02
#       8
#     4   4   4   4   4   4   4   4
#     4  11  24  46  69  91 128 181 217 249 319 403
#     4  11  26  41  65 102 134 162 214 279 321 361
#     4  11  24  40  62  93 133 170 211 263 321 380
#     4  11  22  39  65  94 127 169 213 263 322 380
#     4  10  20  37  62  96 128 164 212 266 320 373
#     4   9  21  41  69  97 128 168 216 265 315 381
#     4  10  22  44  67  89 126 175 215 252 319 403
#     4  11  25  44  67  96 128 169 218 267 321 381
#
# _framework density 25.550512000000001
#
# number of rings (size 3 to 8) (size 9 to 14) (size 15 to 20)
#    0.000    1.500    0.000    6.000    0.000   11.000 
#    0.000    0.000    0.000    0.000    0.000    0.000 
#    0.000    0.000    0.000    0.000    0.000    0.000 
#
# Total GULP energy -179349.883062 kJ/mol
# GULP energy per Si atom -5604.683846 kJ/mol
# Density = 2.549236 g / cm^3
# Si number density = 25.550512 Si / 1000 Ang^3
#
#
#
# Elastic Constant Matrix: (Units=GPa)
#
#
# Indices 1 2 3 4 5 6 
#
# 1 99.1444 11.9869 22.4880 0.0000 0.0000 0.0000
# 2 11.9869 65.2846 -8.3063 0.0000 0.0000 0.0000
# 3 22.4880 -8.3063 131.3507 0.0000 0.0000 0.0000
# 4 0.0000 0.0000 0.0000 19.0490 0.0000 0.0000
# 5 0.0000 0.0000 0.0000 0.0000 30.2889 0.0000
# 6 0.0000 0.0000 0.0000 0.0000 0.0000 26.8761
#
#
#
# Elastic Compliance Matrix: (Units=1/GPa)
#
#
# Indices 1 2 3 4 5 6 
#
# 1 0.010809 -0.002238 -0.001992 0.000000 0.000000 0.000000
# 2 -0.002238 0.015905 0.001389 0.000000 0.000000 0.000000
# 3 -0.001992 0.001389 0.008042 0.000000 0.000000 0.000000
# 4 0.000000 0.000000 0.000000 0.052496 0.000000 0.000000
# 5 0.000000 0.000000 0.000000 0.000000 0.033015 0.000000
# 6 0.000000 0.000000 0.000000 0.000000 0.000000 0.037208
#
#
# Mechanical properties :
#
#
# Convention : Reuss Voigt Hill
#
# Bulk Modulus (GPa) = 34.39526 38.67966 36.53746
# Shear Modulus (GPa) = 28.92702 33.21688 31.07195
#
# Velocity S-wave (km/s) = 3.36839 3.60953 3.49104
# Velocity P-wave (km/s) = 5.34967 5.70464 5.53001
#
# Compressibility (1/GPa) = 0.02907378
#
# Stress axis : x y z
#
# Youngs Moduli (GPa) = 92.51793 62.87259 124.34582
#
# Poissons Ratio (x) = 0.14071 0.24770
# Poissons Ratio (y) = 0.20706 -0.17271
# Poissons Ratio (z) = 0.18430 -0.08733
#
# Static dielectric constant tensor:
#      x y z
#    x 2.066910 0.000000 0.000000 
#    y 0.000000 1.993870 0.000000 
#    z 0.000000 0.000000 2.003540 
# 
# From -- ./inp_files/8281.got.cif
#   From: 2010.05.17/outbox.cif.g08.bks.cpg/sg33_5_cif.got.tgz:8281.got - 2010.06.03 17:15:25.
