data_PCOD9344863
_publ_section_title
;
Structure prediction by ZEFSAII (Michael W. Deem and Ramdas Pophale) SiO2 
 PCOD9344863
Probable space group: P N A 21
;
_chemical_formula_sum "Si O2"
_cell_formula_units_Z 24
_cell_length_a 17.046870
_cell_length_b 10.932533
_cell_length_c 5.116062
_cell_angle_alpha 90.000000
_cell_angle_beta 90.000000
_cell_angle_gamma 90.000000
_cell_volume 953.457293
_symmetry_space_group_name_H-M "P N A 21"
_symmetry_group_IT_number 33
_symmetry_cell_setting 'orthorhombic'
loop_
_space_group_symop_operation_xyz
x,y,z
-x,-y,1/2+z
1/2-x,1/2+y,1/2+z
1/2+x,1/2-y,z
loop_
_atom_site_type_symbol
_atom_site_label
_atom_site_fract_x
_atom_site_fract_y
_atom_site_fract_z
Si Si1 0.654573 0.683036 0.293200
Si Si2 0.025648 0.664367 0.507176
Si Si3 0.681402 0.178660 0.109710
Si Si4 0.205118 0.577852 0.011946
Si Si5 0.422660 0.890407 0.008668
Si Si6 0.311594 0.562976 0.515096
O O1 0.581235 0.719079 0.472013
O O2 0.732366 0.680142 0.476059
O O3 0.648067 0.558890 0.125330
O O4 0.663627 0.798227 0.096964
O O5 0.076217 0.537960 0.504727
O O6 0.977234 0.657094 0.771965
O O7 0.968376 0.655895 0.259767
O O8 0.653114 0.044621 0.011654
O O9 0.663090 0.163128 0.422121
O O10 0.644001 0.307511 0.024183
O O11 0.271470 0.551943 0.233489
O O12 0.244935 0.588368 0.733133
#
# Coordination Sequence:
#
# PCOD9344863 Si02
#       6
#     4   4   4   4   4   4
#     4  10  21  40  62  92 124 163 210 260 317 373
#     4  10  22  40  62  89 122 166 213 259 315 381
#     4  10  21  40  62  92 124 163 210 260 317 373
#     4  10  20  36  56  86 120 156 198 254 304 362
#     4  10  22  40  62  89 122 166 213 259 315 381
#     4  10  22  34  56  88 122 152 198 252 318 358
#
# _framework density 25.171554
#
# number of rings (size 3 to 8) (size 9 to 14) (size 15 to 20)
#    0.000    2.000    1.667    1.000    0.000   10.667 
#    3.000    1.667    0.000    0.000    0.000    0.000 
#    0.000    0.000    0.000    0.000    0.000    0.000 
#
# Total GULP energy -134250.671708 kJ/mol
# GULP energy per Si atom -5593.777988 kJ/mol
# Density = 2.511426 g / cm^3
# Si number density = 25.171554 Si / 1000 Ang^3
#
#
#
# Elastic Constant Matrix: (Units=GPa)
#
#
# Indices 1 2 3 4 5 6 
#
# 1 74.7268 30.9506 43.5874 0.0000 0.0000 0.0000
# 2 30.9506 204.1511 33.7166 0.0000 0.0000 0.0000
# 3 43.5874 33.7166 142.2221 0.0000 0.0000 0.0000
# 4 0.0000 0.0000 0.0000 36.8021 0.0000 0.0000
# 5 0.0000 0.0000 0.0000 0.0000 44.3493 0.0000
# 6 0.0000 0.0000 0.0000 0.0000 0.0000 45.4362
#
#
#
# Elastic Compliance Matrix: (Units=1/GPa)
#
#
# Indices 1 2 3 4 5 6 
#
# 1 0.016891 -0.001775 -0.004756 0.000000 0.000000 0.000000
# 2 -0.001775 0.005285 -0.000709 0.000000 0.000000 0.000000
# 3 -0.004756 -0.000709 0.008657 0.000000 0.000000 0.000000
# 4 0.000000 0.000000 0.000000 0.027172 0.000000 0.000000
# 5 0.000000 0.000000 0.000000 0.000000 0.022548 0.000000
# 6 0.000000 0.000000 0.000000 0.000000 0.000000 0.022009
#
#
# Mechanical properties :
#
#
# Convention : Reuss Voigt Hill
#
# Bulk Modulus (GPa) = 61.15139 70.84546 65.99843
# Shear Modulus (GPa) = 40.81856 46.17389 43.49623
#
# Velocity S-wave (km/s) = 4.03130 4.28760 4.16142
# Velocity P-wave (km/s) = 6.78344 7.26068 7.02611
#
# Compressibility (1/GPa) = 0.01635286
#
# Stress axis : x y z
#
# Youngs Moduli (GPa) = 59.20144 189.23130 115.51577
#
# Poissons Ratio (x) = 0.33596 0.54938
# Poissons Ratio (y) = 0.10511 0.08187
# Poissons Ratio (z) = 0.28156 0.13411
#
# Static dielectric constant tensor:
#      x y z
#    x 2.088880 0.000000 0.000000 
#    y 0.000000 2.042280 0.000000 
#    z 0.000000 0.000000 2.100010 
# 
# From -- ./inp_files/1708.got.cif
#   From: 2010.05.17/outbox.cif.g08.bks.cpg/sg33_1_cif.got.tgz:1708.got - 2010.06.03 17:15:25.
