data_PCOD9344726
_publ_section_title
;
Structure prediction by ZEFSAII (Michael W. Deem and Ramdas Pophale) SiO2 
 PCOD9344726
Probable space group: P N A 21
;
_chemical_formula_sum "Si O2"
_cell_formula_units_Z 32
_cell_length_a 10.825344
_cell_length_b 16.801020
_cell_length_c 6.771807
_cell_angle_alpha 90.000000
_cell_angle_beta 90.000000
_cell_angle_gamma 90.000000
_cell_volume 1231.634730
_symmetry_space_group_name_H-M "P N A 21"
_symmetry_group_IT_number 33
_symmetry_cell_setting 'orthorhombic'
loop_
_space_group_symop_operation_xyz
x,y,z
-x,-y,1/2+z
1/2-x,1/2+y,1/2+z
1/2+x,1/2-y,z
loop_
_atom_site_type_symbol
_atom_site_label
_atom_site_fract_x
_atom_site_fract_y
_atom_site_fract_z
Si Si1 0.212885 0.083651 0.678900
Si Si2 0.720732 0.619278 0.099076
Si Si3 0.461057 0.445767 0.250028
Si Si4 0.104552 0.625594 0.497387
Si Si5 0.697198 0.360844 0.295218
Si Si6 0.827454 0.695952 0.732807
Si Si7 0.625705 0.046190 0.952538
Si Si8 0.906022 0.197390 0.966399
O O1 0.201936 0.155374 0.527957
O O2 0.089737 0.033176 0.709573
O O3 0.308641 0.023881 0.570703
O O4 0.267146 0.116428 0.879020
O O5 0.803127 0.565423 0.248841
O O6 0.646464 0.674829 0.251219
O O7 0.624901 0.582180 0.936229
O O8 0.814213 0.666154 0.955010
O O9 0.606615 0.436473 0.283117
O O10 0.444796 0.388814 0.057918
O O11 0.164317 0.624134 0.715829
O O12 0.044645 0.711433 0.441847
O O13 0.021984 0.550155 0.431272
O O14 0.617987 0.284784 0.216830
O O15 0.868821 0.621569 0.603956
O O16 0.695982 0.715795 0.634785
#
# Coordination Sequence:
#
# PCOD9344726 Si02
#       8
#     4   4   4   4   4   4   4   4
#     4  12  27  42  62 105 128 178 228 266 353 406
#     4  10  19  38  72  93 136 168 218 276 327 398
#     4  11  24  43  70  98 132 182 226 269 343 414
#     4  11  27  43  68  96 140 172 223 293 335 399
#     4  11  27  43  68  96 140 172 223 293 335 399
#     4   9  19  42  67 102 129 175 229 271 342 407
#     4  11  24  43  70  98 132 182 226 269 343 414
#     4   9  19  42  67 102 129 175 229 271 342 407
#
# _framework density 25.981732000000001
#
# number of rings (size 3 to 8) (size 9 to 14) (size 15 to 20)
#    0.000    1.500    3.750    1.500    5.250    3.000 
#    0.000    0.000    0.000    0.000    0.000    0.000 
#    0.000    0.000    0.000    0.000    0.000    0.000 
#
# Total GULP energy -178383.936134 kJ/mol
# GULP energy per Si atom -5574.498004 kJ/mol
# Density = 2.592260 g / cm^3
# Si number density = 25.981732 Si / 1000 Ang^3
#
#
#
# Elastic Constant Matrix: (Units=GPa)
#
#
# Indices 1 2 3 4 5 6 
#
# 1 44.7927 6.0773 10.2290 0.0000 0.0000 0.0000
# 2 6.0773 82.3514 34.1138 0.0000 0.0000 0.0000
# 3 10.2290 34.1138 117.6614 0.0000 0.0000 0.0000
# 4 0.0000 0.0000 0.0000 1248.9201 0.0000 0.0000
# 5 0.0000 0.0000 0.0000 0.0000 13.5676 0.0000
# 6 0.0000 0.0000 0.0000 0.0000 0.0000 80.1389
#
#
#
# Elastic Compliance Matrix: (Units=1/GPa)
#
#
# Indices 1 2 3 4 5 6 
#
# 1 0.022847 -0.000981 -0.001702 0.000000 0.000000 0.000000
# 2 -0.000981 0.013843 -0.003928 0.000000 0.000000 0.000000
# 3 -0.001702 -0.003928 0.009786 0.000000 0.000000 0.000000
# 4 0.000000 0.000000 0.000000 0.000801 0.000000 0.000000
# 5 0.000000 0.000000 0.000000 0.000000 0.073705 0.000000
# 6 0.000000 0.000000 0.000000 0.000000 0.000000 0.012478
#
#
# Mechanical properties :
#
#
# Convention : Reuss Voigt Hill
#
# Bulk Modulus (GPa) = 30.07219 38.40507 34.23863
# Shear Modulus (GPa) = 31.69255 281.48435 156.58845
#
# Velocity S-wave (km/s) = 3.49635 10.41991 7.77171
# Velocity P-wave (km/s) = 5.28193 12.63249 9.68190
#
# Compressibility (1/GPa) = 0.03325332
#
# Stress axis : x y z
#
# Youngs Moduli (GPa) = 43.76986 72.24017 102.18880
#
# Poissons Ratio (x) = 0.07087 0.17390
# Poissons Ratio (y) = 0.04294 0.40141
# Poissons Ratio (z) = 0.07449 0.28377
#
# Static dielectric constant tensor:
#      x y z
#    x 2.269310 0.000000 0.000000 
#    y 0.000000 2.138580 0.000000 
#    z 0.000000 0.000000 2.051390 
# 
# From -- ./inp_files/1076.got.cif
#   From: 2010.05.17/outbox.cif.g08.bks.cpg/sg33_1_cif.got.tgz:1076.got - 2010.06.03 17:15:25.
