data_PCOD9344173
_publ_section_title
;
Structure prediction by ZEFSAII (Michael W. Deem and Ramdas Pophale) SiO2 
 PCOD9344173
Probable space group: P B A 2
;
_chemical_formula_sum "Si O2"
_cell_formula_units_Z 24
_cell_length_a 10.995078
_cell_length_b 9.380694
_cell_length_c 8.235124
_cell_angle_alpha 90.000000
_cell_angle_beta 90.000000
_cell_angle_gamma 90.000000
_cell_volume 849.382731
_symmetry_space_group_name_H-M "P B A 2"
_symmetry_group_IT_number 32
_symmetry_cell_setting 'orthorhombic'
loop_
_space_group_symop_operation_xyz
x,y,z
-x,-y,z
1/2-x,1/2+y,z
1/2+x,1/2-y,z
loop_
_atom_site_type_symbol
_atom_site_label
_atom_site_fract_x
_atom_site_fract_y
_atom_site_fract_z
Si Si1 0.909575 0.351215 0.010630
Si Si2 0.850510 0.898281 0.293320
Si Si3 0.637238 0.443784 0.636064
Si Si4 0.391345 0.253704 0.347406
Si Si5 0.731295 0.568706 0.972344
Si Si6 0.009666 0.329944 0.671184
O O1 0.938027 0.347916 0.199716
O O2 0.868011 0.513090 0.984876
O O3 0.798267 0.233998 0.989664
O O4 0.982495 0.292249 0.857447
O O5 0.815924 0.989016 0.456965
O O6 0.754208 0.767081 0.309684
O O7 0.831819 0.986829 0.126371
O O8 0.991289 0.858342 0.317523
O O9 0.500000 0.500000 0.649694
O O10 0.625713 0.270905 0.635890
O O11 0.698005 0.507038 0.795375
O O12 0.411461 0.214036 0.534809
O O13 0.000000 0.500000 0.658560
#
# Coordination Sequence:
#
# PCOD9344173 Si02
#       6
#     4   4   4   4   4   4
#     4  11  25  46  72 109 153 198 259 315 389 457
#     4  10  24  45  77 108 154 200 260 315 386 460
#     4  11  23  43  73 107 144 198 257 315 382 463
#     4  10  24  49  72 113 152 202 252 323 380 462
#     4  11  25  44  72 110 149 201 256 319 382 466
#     4  11  25  45  71 107 152 197 253 321 388 456
#
# _framework density 28.255817
#
# number of rings (size 3 to 8) (size 9 to 14) (size 15 to 20)
#    0.000    1.333    1.667    2.000    7.000    0.667 
#   24.000    0.000    0.000    0.000    0.000    0.000 
#    0.000    0.000    0.000    0.000    0.000    0.000 
#
# Total GULP energy -133769.112531 kJ/mol
# GULP energy per Si atom -5573.713022 kJ/mol
# Density = 2.819151 g / cm^3
# Si number density = 28.255817 Si / 1000 Ang^3
#
#
#
# Elastic Constant Matrix: (Units=GPa)
#
#
# Indices 1 2 3 4 5 6 
#
# 1 78.9197 20.8573 36.9513 0.0000 0.0000 0.0000
# 2 20.8573 120.7930 -4.2105 0.0000 0.0000 0.0000
# 3 36.9513 -4.2105 175.9340 0.0000 0.0000 0.0000
# 4 0.0000 0.0000 0.0000 34.2787 0.0000 0.0000
# 5 0.0000 0.0000 0.0000 0.0000 57.7006 0.0000
# 6 0.0000 0.0000 0.0000 0.0000 0.0000 49.1672
#
#
#
# Elastic Compliance Matrix: (Units=1/GPa)
#
#
# Indices 1 2 3 4 5 6 
#
# 1 0.014872 -0.002679 -0.003188 0.000000 0.000000 0.000000
# 2 -0.002679 0.008768 0.000773 0.000000 0.000000 0.000000
# 3 -0.003188 0.000773 0.006372 0.000000 0.000000 0.000000
# 4 0.000000 0.000000 0.000000 0.029173 0.000000 0.000000
# 5 0.000000 0.000000 0.000000 0.000000 0.017331 0.000000
# 6 0.000000 0.000000 0.000000 0.000000 0.000000 0.020339
#
#
# Mechanical properties :
#
#
# Convention : Reuss Voigt Hill
#
# Bulk Modulus (GPa) = 50.44509 53.64919 52.04714
# Shear Modulus (GPa) = 43.99477 49.69920 46.84698
#
# Velocity S-wave (km/s) = 3.95019 4.19848 4.07622
# Velocity P-wave (km/s) = 6.22069 6.52159 6.37292
#
# Compressibility (1/GPa) = 0.01982353
#
# Stress axis : x y z
#
# Youngs Moduli (GPa) = 67.24226 114.04937 156.93841
#
# Poissons Ratio (x) = 0.30554 0.50026
# Poissons Ratio (y) = 0.18014 -0.12124
# Poissons Ratio (z) = 0.21434 -0.08810
#
# Static dielectric constant tensor:
#      x y z
#    x 2.306870 0.000000 0.000000 
#    y 0.000000 2.567200 0.000000 
#    z 0.000000 0.000000 2.197610 
# 
# From -- ./inp_files/3000.got.cif
#   From: 2010.05.17/outbox.cif.g08.bks.cpg/sg32_2_cif.got.tgz:3000.got - 2010.06.03 17:12:27.
