data_PCOD9344236
_publ_section_title
;
Structure prediction by ZEFSAII (Michael W. Deem and Ramdas Pophale) SiO2 
 PCOD9344236
Probable space group: P B A 2
;
_chemical_formula_sum "Si O2"
_cell_formula_units_Z 18
_cell_length_a 14.338200
_cell_length_b 7.765203
_cell_length_c 7.684763
_cell_angle_alpha 90.000000
_cell_angle_beta 90.000000
_cell_angle_gamma 90.000000
_cell_volume 855.614086
_symmetry_space_group_name_H-M "P B A 2"
_symmetry_group_IT_number 32
_symmetry_cell_setting 'orthorhombic'
loop_
_space_group_symop_operation_xyz
x,y,z
-x,-y,z
1/2-x,1/2+y,z
1/2+x,1/2-y,z
loop_
_atom_site_type_symbol
_atom_site_label
_atom_site_fract_x
_atom_site_fract_y
_atom_site_fract_z
Si Si1 0.926034 0.660355 0.637270
Si Si2 0.867686 0.182908 0.073573
Si Si3 0.533063 0.196481 0.261542
Si Si4 0.000000 0.000000 0.812155
Si Si5 0.165239 0.419258 0.982589
O O1 0.905471 0.705878 0.435780
O O2 0.973671 0.834151 0.701992
O O3 0.844073 0.620118 0.776590
O O4 0.000000 0.500000 0.647063
O O5 0.939524 0.189145 0.237557
O O6 0.861520 0.381354 0.010195
O O7 0.762548 0.115849 0.079063
O O8 0.915927 0.064308 0.931312
O O9 0.500000 0.000000 0.269119
O O10 0.591557 0.202056 0.083923
#
# Coordination Sequence:
#
# PCOD9344236 Si02
#       5
#     4   4   4   2   4
#     4  11  21  43  68  93 135 175 224 278 336 403
#     4  11  23  41  70  98 136 181 226 279 350 402
#     4   9  21  42  66  93 133 180 215 281 341 396
#     4  12  22  40  68  96 128 184 216 270 346 400
#     4  11  21  44  65  97 136 175 227 283 334 407
#
# _framework density 21.037521999999999
#
# number of rings (size 3 to 8) (size 9 to 14) (size 15 to 20)
#    0.000    1.333    4.444    2.000    0.000    0.889 
#    4.000    2.222    0.000    0.000    0.000    0.000 
#    0.000    0.000    0.000    0.000    0.000    0.000 
#
# Total GULP energy -100300.794261 kJ/mol
# GULP energy per Si atom -5572.266348 kJ/mol
# Density = 2.098964 g / cm^3
# Si number density = 21.037522 Si / 1000 Ang^3
#
#
#
# Elastic Constant Matrix: (Units=GPa)
#
#
# Indices 1 2 3 4 5 6 
#
# 1 84.2133 11.9430 20.8993 0.0000 0.0000 0.0000
# 2 11.9430 117.0356 17.5322 0.0000 0.0000 0.0000
# 3 20.8993 17.5322 115.4062 0.0000 0.0000 0.0000
# 4 0.0000 0.0000 0.0000 1.0953 0.0000 0.0000
# 5 0.0000 0.0000 0.0000 0.0000 17.8571 0.0000
# 6 0.0000 0.0000 0.0000 0.0000 0.0000 30.4569
#
#
#
# Elastic Compliance Matrix: (Units=1/GPa)
#
#
# Indices 1 2 3 4 5 6 
#
# 1 0.012538 -0.000961 -0.002125 0.000000 0.000000 0.000000
# 2 -0.000961 0.008817 -0.001165 0.000000 0.000000 0.000000
# 3 -0.002125 -0.001165 0.009227 0.000000 0.000000 0.000000
# 4 0.000000 0.000000 0.000000 0.912974 0.000000 0.000000
# 5 0.000000 0.000000 0.000000 0.000000 0.056000 0.000000
# 6 0.000000 0.000000 0.000000 0.000000 0.000000 0.032833
#
#
# Mechanical properties :
#
#
# Convention : Reuss Voigt Hill
#
# Bulk Modulus (GPa) = 45.29033 46.37823 45.83428
# Shear Modulus (GPa) = 4.76985 27.63390 16.20187
#
# Velocity S-wave (km/s) = 1.50739 3.62823 2.77815
# Velocity P-wave (km/s) = 4.96032 6.29646 5.66790
#
# Compressibility (1/GPa) = 0.02207977
#
# Stress axis : x y z
#
# Youngs Moduli (GPa) = 79.75646 113.41630 108.37951
#
# Poissons Ratio (x) = 0.10902 0.23026
# Poissons Ratio (y) = 0.07666 0.12631
# Poissons Ratio (z) = 0.16945 0.13218
#
# Static dielectric constant tensor:
#      x y z
#    x 1.825400 0.000000 0.000000 
#    y 0.000000 1.758680 0.000000 
#    z 0.000000 0.000000 1.827970 
# 
# From -- ./inp_files/2183.got.cif
#   From: 2010.05.17/outbox.cif.g08.bks.cpg/sg32_2_cif.got.tgz:2183.got - 2010.06.03 17:12:27.
