data_PCOD9344606
_publ_section_title
;
Structure prediction by ZEFSAII (Michael W. Deem and Ramdas Pophale) SiO2 
 PCOD9344606
Probable space group: P N A 21
;
_chemical_formula_sum "Si O2"
_cell_formula_units_Z 28
_cell_length_a 19.986050
_cell_length_b 9.262474
_cell_length_c 7.177189
_cell_angle_alpha 90.000000
_cell_angle_beta 90.000000
_cell_angle_gamma 90.000000
_cell_volume 1328.643155
_symmetry_space_group_name_H-M "P N A 21"
_symmetry_group_IT_number 33
_symmetry_cell_setting 'orthorhombic'
loop_
_space_group_symop_operation_xyz
x,y,z
-x,-y,1/2+z
1/2-x,1/2+y,1/2+z
1/2+x,1/2-y,z
loop_
_atom_site_type_symbol
_atom_site_label
_atom_site_fract_x
_atom_site_fract_y
_atom_site_fract_z
Si Si1 0.571268 0.470426 0.473740
Si Si2 0.347716 0.327464 0.726948
Si Si3 0.917694 0.032221 0.407436
Si Si4 0.199670 0.571986 0.465601
Si Si5 0.661289 0.263980 0.930580
Si Si6 0.317574 0.745713 0.992211
Si Si7 0.783026 0.486927 0.363848
O O1 0.591251 0.599100 0.337544
O O2 0.589522 0.521526 0.683881
O O3 0.493848 0.433129 0.457332
O O4 0.618866 0.338217 0.410904
O O5 0.367775 0.357897 0.513140
O O6 0.280094 0.416124 0.784019
O O7 0.338639 0.170607 0.817428
O O8 0.899824 0.868919 0.477374
O O9 0.273733 0.640579 0.477542
O O10 0.197617 0.403426 0.415522
O O11 0.177884 0.574504 0.683780
O O12 0.662744 0.243932 0.707793
O O13 0.673721 0.098224 0.987682
O O14 0.253689 0.641712 0.971235
#
# Coordination Sequence:
#
# PCOD9344606 Si02
#       7
#     4   4   4   4   4   4   4
#     4  10  21  36  61  84 110 158 204 246 288 356
#     4  10  20  36  57  85 114 154 193 243 292 349
#     4  11  19  36  61  85 118 152 206 243 296 353
#     4  10  19  35  57  82 121 145 188 242 296 350
#     4   9  19  33  54  86 113 150 182 243 296 351
#     4   9  20  35  56  83 115 152 192 238 295 352
#     4   9  18  35  56  83 115 147 189 229 299 359
#
# _framework density 21.07413
#
# number of rings (size 3 to 8) (size 9 to 14) (size 15 to 20)
#    0.000    2.286    2.857    0.000    0.000    4.571 
#    0.000    0.000    3.143    1.714    0.000    0.000 
#    0.000    0.000    0.000    0.000    0.000    0.000 
#
# Total GULP energy -156109.549034 kJ/mol
# GULP energy per Si atom -5575.341037 kJ/mol
# Density = 2.102616 g / cm^3
# Si number density = 21.074130 Si / 1000 Ang^3
#
#
#
# Elastic Constant Matrix: (Units=GPa)
#
#
# Indices 1 2 3 4 5 6 
#
# 1 53.0597 13.7472 -16.6757 0.0000 0.0000 0.0000
# 2 13.7472 124.9673 7.9193 0.0000 0.0000 0.0000
# 3 -16.6757 7.9193 73.4179 0.0000 0.0000 0.0000
# 4 0.0000 0.0000 0.0000 27.6850 0.0000 0.0000
# 5 0.0000 0.0000 0.0000 0.0000 24.5605 0.0000
# 6 0.0000 0.0000 0.0000 0.0000 0.0000 24.4613
#
#
#
# Elastic Compliance Matrix: (Units=1/GPa)
#
#
# Indices 1 2 3 4 5 6 
#
# 1 0.021131 -0.002647 0.005085 0.000000 0.000000 0.000000
# 2 -0.002647 0.008389 -0.001506 0.000000 0.000000 0.000000
# 3 0.005085 -0.001506 0.014938 0.000000 0.000000 0.000000
# 4 0.000000 0.000000 0.000000 0.036121 0.000000 0.000000
# 5 0.000000 0.000000 0.000000 0.000000 0.040716 0.000000
# 6 0.000000 0.000000 0.000000 0.000000 0.000000 0.040881
#
#
# Mechanical properties :
#
#
# Convention : Reuss Voigt Hill
#
# Bulk Modulus (GPa) = 21.58817 29.04742 25.31780
# Shear Modulus (GPa) = 28.44935 31.77162 30.11049
#
# Velocity S-wave (km/s) = 3.67817 3.88701 3.78403
# Velocity P-wave (km/s) = 5.32022 5.82739 5.57957
#
# Compressibility (1/GPa) = 0.04632166
#
# Stress axis : x y z
#
# Youngs Moduli (GPa) = 47.32485 119.20815 66.94310
#
# Poissons Ratio (x) = 0.31551 -0.34040
# Poissons Ratio (y) = 0.12526 0.10082
# Poissons Ratio (z) = -0.24064 0.17953
#
# Static dielectric constant tensor:
#      x y z
#    x 1.773840 0.000000 0.000000 
#    y 0.000000 1.826960 0.000000 
#    z 0.000000 0.000000 1.881150 
# 
# From -- ./inp_files/4941.got.cif
#   From: 2010.05.17/outbox.cif.g08.bks.cpg/sg33_3_cif.got.tgz:4941.got - 2010.06.03 17:15:25.
