data_PCOD9344795
_publ_section_title
;
Structure prediction by ZEFSAII (Michael W. Deem and Ramdas Pophale) SiO2 
 PCOD9344795
Probable space group: P N A 21
;
_chemical_formula_sum "Si O2"
_cell_formula_units_Z 32
_cell_length_a 22.180224
_cell_length_b 6.982484
_cell_length_c 7.556208
_cell_angle_alpha 90.000000
_cell_angle_beta 90.000000
_cell_angle_gamma 90.000000
_cell_volume 1170.253049
_symmetry_space_group_name_H-M "P N A 21"
_symmetry_group_IT_number 33
_symmetry_cell_setting 'orthorhombic'
loop_
_space_group_symop_operation_xyz
x,y,z
-x,-y,1/2+z
1/2-x,1/2+y,1/2+z
1/2+x,1/2-y,z
loop_
_atom_site_type_symbol
_atom_site_label
_atom_site_fract_x
_atom_site_fract_y
_atom_site_fract_z
Si Si1 0.044311 0.433255 0.992550
Si Si2 0.041865 0.983461 0.104690
Si Si3 0.792506 0.496956 0.194388
Si Si4 0.333842 0.524923 0.756877
Si Si5 0.083555 0.517616 0.599253
Si Si6 0.794402 0.036908 0.160612
Si Si7 0.331661 0.949742 0.603373
Si Si8 0.580806 0.562018 0.734860
O O1 0.039991 0.212133 0.058764
O O2 0.066878 0.443430 0.793392
O O3 0.099616 0.525069 0.106271
O O4 0.976840 0.517754 0.990447
O O5 0.057204 0.876183 0.925087
O O6 0.098246 0.948630 0.233358
O O7 0.974062 0.937676 0.161549
O O8 0.724347 0.560937 0.151822
O O9 0.848246 0.554283 0.066467
O O10 0.810792 0.551738 0.396227
O O11 0.789907 0.265322 0.189920
O O12 0.313595 0.509897 0.959609
O O13 0.337565 0.738817 0.682684
O O14 0.088982 0.748525 0.618036
O O15 0.727280 0.961661 0.199366
O O16 0.853744 0.969243 0.265044
#
# Coordination Sequence:
#
# PCOD9344795 Si02
#       8
#     4   4   4   4   4   4   4   4
#     4   9  18  33  51  70  95 130 168 206 252 308
#     4  10  20  33  50  74 104 135 169 213 265 319
#     4   8  15  29  50  71  98 136 172 211 267 326
#     4   9  16  29  51  74  97 132 176 218 264 320
#     4   9  18  33  51  70  95 130 168 206 252 308
#     4   9  16  29  51  74  97 132 176 218 264 320
#     4   8  15  29  50  71  98 136 172 211 267 326
#     4  10  20  33  50  74 104 135 169 213 265 319
#
# _framework density 27.344512999999999
#
# number of rings (size 3 to 8) (size 9 to 14) (size 15 to 20)
#    0.000    3.000    0.000    0.750    0.000    1.000 
#    0.000    1.250    0.000   51.000    0.000    0.000 
#    0.000    0.000    0.000    0.000    0.000    0.000 
#
# Total GULP energy -178733.732715 kJ/mol
# GULP energy per Si atom -5585.429147 kJ/mol
# Density = 2.728228 g / cm^3
# Si number density = 27.344513 Si / 1000 Ang^3
#
#
#
# Elastic Constant Matrix: (Units=GPa)
#
#
# Indices 1 2 3 4 5 6 
#
# 1 226.3312 11.7952 25.0527 0.0000 0.0000 0.0000
# 2 11.7952 133.0559 25.5393 0.0000 0.0000 0.0000
# 3 25.0527 25.5393 59.3237 0.0000 0.0000 0.0000
# 4 0.0000 0.0000 0.0000 31.3935 0.0000 0.0000
# 5 0.0000 0.0000 0.0000 0.0000 37.7405 0.0000
# 6 0.0000 0.0000 0.0000 0.0000 0.0000 0.3149
#
#
#
# Elastic Compliance Matrix: (Units=1/GPa)
#
#
# Indices 1 2 3 4 5 6 
#
# 1 0.004635 -0.000038 -0.001941 0.000000 0.000000 0.000000
# 2 -0.000038 0.008193 -0.003511 0.000000 0.000000 0.000000
# 3 -0.001941 -0.003511 0.019188 0.000000 0.000000 0.000000
# 4 0.000000 0.000000 0.000000 0.031854 0.000000 0.000000
# 5 0.000000 0.000000 0.000000 0.000000 0.026497 0.000000
# 6 0.000000 0.000000 0.000000 0.000000 0.000000 3.175363
#
#
# Mechanical properties :
#
#
# Convention : Reuss Voigt Hill
#
# Bulk Modulus (GPa) = 47.53874 60.38726 53.96300
# Shear Modulus (GPa) = 1.52266 37.64471 19.58368
#
# Velocity S-wave (km/s) = 0.74703 3.71439 2.67906
# Velocity P-wave (km/s) = 4.26227 6.36612 5.41730
#
# Compressibility (1/GPa) = 0.02103547
#
# Stress axis : x y z
#
# Youngs Moduli (GPa) = 215.74294 122.05632 52.11638
#
# Poissons Ratio (x) = 0.00468 0.10115
# Poissons Ratio (y) = 0.00827 0.18298
# Poissons Ratio (z) = 0.41874 0.42853
#
# Static dielectric constant tensor:
#      x y z
#    x 2.281530 0.000000 0.000000 
#    y 0.000000 2.118540 0.000000 
#    z 0.000000 0.000000 2.134200 
# 
# From -- ./inp_files/5207.got.cif
#   From: 2010.05.17/outbox.cif.g08.bks.cpg/sg33_3_cif.got.tgz:5207.got - 2010.06.03 17:15:25.
