data_PCOD9344175
_publ_section_title
;
Structure prediction by ZEFSAII (Michael W. Deem and Ramdas Pophale) SiO2 
 PCOD9344175
Probable space group: P B A 2
;
_chemical_formula_sum "Si O2"
_cell_formula_units_Z 30
_cell_length_a 12.691754
_cell_length_b 18.067231
_cell_length_c 4.859040
_cell_angle_alpha 90.000000
_cell_angle_beta 90.000000
_cell_angle_gamma 90.000000
_cell_volume 1114.201445
_symmetry_space_group_name_H-M "P B A 2"
_symmetry_group_IT_number 32
_symmetry_cell_setting 'orthorhombic'
loop_
_space_group_symop_operation_xyz
x,y,z
-x,-y,z
1/2-x,1/2+y,z
1/2+x,1/2-y,z
loop_
_atom_site_type_symbol
_atom_site_label
_atom_site_fract_x
_atom_site_fract_y
_atom_site_fract_z
Si Si1 0.300277 0.159623 0.174910
Si Si2 0.500000 0.000000 0.507598
Si Si3 0.469233 0.320996 0.919339
Si Si4 0.174709 0.099168 0.680041
Si Si5 0.990106 0.277694 0.441268
Si Si6 0.208763 0.317033 0.306519
Si Si7 0.188791 0.935123 0.698271
Si Si8 0.599475 0.067884 0.982808
O O1 0.137470 0.014178 0.645096
O O2 0.420051 0.158054 0.293259
O O3 0.271526 0.246781 0.198258
O O4 0.268831 0.122873 0.889385
O O5 0.490961 0.936632 0.748860
O O6 0.415756 0.975190 0.273337
O O7 0.574956 0.355238 0.790409
O O8 0.437044 0.253052 0.717867
O O9 0.381260 0.384308 0.896895
O O10 0.491033 0.289051 0.219054
O O11 0.221541 0.121562 0.388556
O O12 0.111983 0.294312 0.502927
O O13 0.278687 0.379727 0.452247
O O14 0.138784 0.351649 0.064558
O O15 0.298249 0.962604 0.830241
#
# Coordination Sequence:
#
# PCOD9344175 Si02
#       8
#     4   2   4   4   4   4   4   4
#     4  12  27  51  78 112 158 201 263 330 399 469
#     4  10  24  46  68 104 154 198 244 316 378 464
#     4  12  25  50  79 115 150 205 267 328 395 471
#     4  12  28  51  76 116 160 203 259 341 401 469
#     4  12  27  46  81 112 151 207 263 323 395 473
#     4  12  26  49  79 111 155 205 267 323 392 485
#     4  12  29  48  83 113 161 209 270 324 411 482
#     4  11  25  45  73 108 152 204 256 311 384 474
#
# _framework density 26.925113
#
# number of rings (size 3 to 8) (size 9 to 14) (size 15 to 20)
#    0.000    0.267    5.333    2.000    5.600    3.200 
#    0.000    2.667    0.000    0.000    0.000    0.000 
#    0.000    0.000    0.000    0.000    0.000    0.000 
#
# Total GULP energy -167907.467623 kJ/mol
# GULP energy per Si atom -5596.915587 kJ/mol
# Density = 2.686383 g / cm^3
# Si number density = 26.925113 Si / 1000 Ang^3
#
#
#
# Elastic Constant Matrix: (Units=GPa)
#
#
# Indices 1 2 3 4 5 6 
#
# 1 102.3649 13.0764 13.8355 0.0000 0.0000 0.0000
# 2 13.0764 121.2821 41.2383 0.0000 0.0000 0.0000
# 3 13.8355 41.2383 150.4185 0.0000 0.0000 0.0000
# 4 0.0000 0.0000 0.0000 41.6476 0.0000 0.0000
# 5 0.0000 0.0000 0.0000 0.0000 25.9664 0.0000
# 6 0.0000 0.0000 0.0000 0.0000 0.0000 34.3797
#
#
#
# Elastic Compliance Matrix: (Units=1/GPa)
#
#
# Indices 1 2 3 4 5 6 
#
# 1 0.009969 -0.000842 -0.000686 0.000000 0.000000 0.000000
# 2 -0.000842 0.009164 -0.002435 0.000000 0.000000 0.000000
# 3 -0.000686 -0.002435 0.007379 0.000000 0.000000 0.000000
# 4 0.000000 0.000000 0.000000 0.024011 0.000000 0.000000
# 5 0.000000 0.000000 0.000000 0.000000 0.038511 0.000000
# 6 0.000000 0.000000 0.000000 0.000000 0.000000 0.029087
#
#
# Mechanical properties :
#
#
# Convention : Reuss Voigt Hill
#
# Bulk Modulus (GPa) = 53.80257 56.70732 55.25495
# Shear Modulus (GPa) = 37.80942 40.79307 39.30125
#
# Velocity S-wave (km/s) = 3.75139 3.89660 3.82468
# Velocity P-wave (km/s) = 6.22813 6.43051 6.33013
#
# Compressibility (1/GPa) = 0.01858647
#
# Stress axis : x y z
#
# Youngs Moduli (GPa) = 100.30868 109.12382 135.52339
#
# Poissons Ratio (x) = 0.09183 0.09300
# Poissons Ratio (y) = 0.08441 0.32999
# Poissons Ratio (z) = 0.06884 0.26571
#
# Static dielectric constant tensor:
#      x y z
#    x 2.245570 0.000000 0.000000 
#    y 0.000000 2.213560 0.000000 
#    z 0.000000 0.000000 2.084450 
# 
# From -- ./inp_files/1335.got.cif
#   From: 2010.05.17/outbox.cif.g08.bks.cpg/sg32_1_cif.got.tgz:1335.got - 2010.06.03 17:12:27.
