data_PCOD9344138
_publ_section_title
;
Structure prediction by ZEFSAII (Michael W. Deem and Ramdas Pophale) SiO2 
 PCOD9344138
Probable space group: P B A 2
;
_chemical_formula_sum "Si O2"
_cell_formula_units_Z 30
_cell_length_a 18.601195
_cell_length_b 12.305393
_cell_length_c 5.025993
_cell_angle_alpha 90.000000
_cell_angle_beta 90.000000
_cell_angle_gamma 90.000000
_cell_volume 1150.424742
_symmetry_space_group_name_H-M "P B A 2"
_symmetry_group_IT_number 32
_symmetry_cell_setting 'orthorhombic'
loop_
_space_group_symop_operation_xyz
x,y,z
-x,-y,z
1/2-x,1/2+y,z
1/2+x,1/2-y,z
loop_
_atom_site_type_symbol
_atom_site_label
_atom_site_fract_x
_atom_site_fract_y
_atom_site_fract_z
Si Si1 0.576599 0.755910 0.631520
Si Si2 0.713936 0.256877 0.933120
Si Si3 0.060706 0.177770 0.423052
Si Si4 0.344351 0.531710 0.764792
Si Si5 0.213312 0.839816 0.459515
Si Si6 0.500000 0.500000 0.026760
Si Si7 0.911884 0.625297 0.055294
Si Si8 0.922724 0.386010 0.112773
O O1 0.498372 0.702467 0.648139
O O2 0.627841 0.676703 0.463797
O O3 0.571527 0.855236 0.421245
O O4 0.607915 0.796054 0.912096
O O5 0.692006 0.383053 0.971738
O O6 0.758737 0.249953 0.664666
O O7 0.750944 0.190532 0.177911
O O8 0.641635 0.188689 0.866130
O O9 0.124723 0.107383 0.533164
O O10 0.086448 0.290935 0.300795
O O11 0.018222 0.104907 0.207727
O O12 0.285641 0.452302 0.628550
O O13 0.420800 0.483664 0.882078
O O14 0.885889 0.502652 0.096421
O O15 0.995957 0.611193 0.996756
#
# Coordination Sequence:
#
# PCOD9344138 Si02
#       8
#     4   4   4   4   4   2   4   4
#     4  11  24  45  71 110 149 191 258 310 396 446
#     4  12  28  49  72 107 157 214 260 318 378 486
#     4  11  24  45  81 114 154 187 259 347 411 454
#     4  12  28  49  78 118 156 204 273 331 418 470
#     4  12  30  47  75 107 158 211 260 313 384 480
#     4  12  24  44  84 122 148 196 254 358 418 468
#     4  10  23  46  70 106 143 191 253 309 389 450
#     4  10  24  42  75 104 142 191 242 323 377 463
#
# _framework density 26.077323
#
# number of rings (size 3 to 8) (size 9 to 14) (size 15 to 20)
#    0.000    0.800    1.333    4.400    9.333   10.667 
#    0.000    0.000    0.000    0.000    0.000    0.000 
#    0.000    0.000    0.000    0.000    0.000    0.000 
#
# Total GULP energy -167506.127824 kJ/mol
# GULP energy per Si atom -5583.537594 kJ/mol
# Density = 2.601797 g / cm^3
# Si number density = 26.077323 Si / 1000 Ang^3
#
#
#
# Elastic Constant Matrix: (Units=GPa)
#
#
# Indices 1 2 3 4 5 6 
#
# 1 67.4091 16.1063 19.4870 0.0000 0.0000 0.0000
# 2 16.1063 89.6907 41.2411 0.0000 0.0000 0.0000
# 3 19.4870 41.2411 136.2113 0.0000 0.0000 0.0000
# 4 0.0000 0.0000 0.0000 16.6270 0.0000 0.0000
# 5 0.0000 0.0000 0.0000 0.0000 38.4003 0.0000
# 6 0.0000 0.0000 0.0000 0.0000 0.0000 41.8833
#
#
#
# Elastic Compliance Matrix: (Units=1/GPa)
#
#
# Indices 1 2 3 4 5 6 
#
# 1 0.015805 -0.002089 -0.001629 0.000000 0.000000 0.000000
# 2 -0.002089 0.013229 -0.003706 0.000000 0.000000 0.000000
# 3 -0.001629 -0.003706 0.008697 0.000000 0.000000 0.000000
# 4 0.000000 0.000000 0.000000 0.060143 0.000000 0.000000
# 5 0.000000 0.000000 0.000000 0.000000 0.026041 0.000000
# 6 0.000000 0.000000 0.000000 0.000000 0.000000 0.023876
#
#
# Mechanical properties :
#
#
# Convention : Reuss Voigt Hill
#
# Bulk Modulus (GPa) = 43.70282 49.66444 46.68363
# Shear Modulus (GPa) = 29.36570 33.81391 31.58981
#
# Velocity S-wave (km/s) = 3.35938 3.60485 3.48428
# Velocity P-wave (km/s) = 5.64292 6.03432 5.84190
#
# Compressibility (1/GPa) = 0.02288182
#
# Stress axis : x y z
#
# Youngs Moduli (GPa) = 63.27200 75.59207 114.98580
#
# Poissons Ratio (x) = 0.15794 0.18725
# Poissons Ratio (y) = 0.13220 0.42619
# Poissons Ratio (z) = 0.10304 0.28018
#
# Static dielectric constant tensor:
#      x y z
#    x 2.125100 0.000000 0.000000 
#    y 0.000000 2.118650 0.000000 
#    z 0.000000 0.000000 2.057940 
# 
# From -- ./inp_files/1597.got.cif
#   From: 2010.05.17/outbox.cif.g08.bks.cpg/sg32_1_cif.got.tgz:1597.got - 2010.06.03 17:12:27.
