data_PCOD9344531
_publ_section_title
;
Structure prediction by ZEFSAII (Michael W. Deem and Ramdas Pophale) SiO2 
 PCOD9344531
Probable space group: P N A 21
;
_chemical_formula_sum "Si O2"
_cell_formula_units_Z 32
_cell_length_a 5.542453
_cell_length_b 23.679406
_cell_length_c 8.826723
_cell_angle_alpha 90.000000
_cell_angle_beta 90.000000
_cell_angle_gamma 90.000000
_cell_volume 1158.436734
_symmetry_space_group_name_H-M "P N A 21"
_symmetry_group_IT_number 33
_symmetry_cell_setting 'orthorhombic'
loop_
_space_group_symop_operation_xyz
x,y,z
-x,-y,1/2+z
1/2-x,1/2+y,1/2+z
1/2+x,1/2-y,z
loop_
_atom_site_type_symbol
_atom_site_label
_atom_site_fract_x
_atom_site_fract_y
_atom_site_fract_z
Si Si1 0.093428 0.389882 0.119820
Si Si2 0.183060 0.597318 0.331386
Si Si3 0.895803 0.782743 0.383637
Si Si4 0.417705 0.380841 0.370112
Si Si5 0.644129 0.003066 0.753973
Si Si6 0.712320 0.724978 0.006778
Si Si7 0.747225 0.798428 0.727280
Si Si8 0.503489 0.502894 0.496604
O O1 0.969879 0.443297 0.205040
O O2 0.989252 0.331095 0.176422
O O3 0.353893 0.389933 0.192567
O O4 0.034633 0.386390 0.944731
O O5 0.326767 0.656089 0.306683
O O6 0.359258 0.555440 0.424606
O O7 0.042259 0.554288 0.218620
O O8 0.667071 0.740570 0.353897
O O9 0.884958 0.790452 0.568454
O O10 0.263094 0.342095 0.485873
O O11 0.652786 0.343003 0.352239
O O12 0.428582 0.442239 0.434149
O O13 0.899055 0.003991 0.665519
O O14 0.723179 0.006887 0.931581
O O15 0.456989 0.747748 0.071132
O O16 0.685810 0.745106 0.830358
#
# Coordination Sequence:
#
# PCOD9344531 Si02
#       8
#     4   4   4   4   4   4   4   4
#     4  10  20  36  59  93 130 179 223 293 359 432
#     4  10  25  40  67  94 139 181 240 299 366 440
#     4  11  25  41  65 101 140 190 243 309 371 433
#     4  11  20  35  59  89 136 176 227 284 359 431
#     4  11  24  43  65  99 139 186 244 296 368 443
#     4  10  19  30  52  84 128 169 216 278 343 411
#     4  10  20  33  54  95 133 178 222 291 361 423
#     4  11  25  42  67 101 139 189 235 300 371 441
#
# _framework density 27.623432999999999
#
# number of rings (size 3 to 8) (size 9 to 14) (size 15 to 20)
#    0.000    1.500    3.750    1.500    8.750    0.000 
#    0.000    0.000    0.000    3.000    0.000    0.000 
#    0.000    0.000    0.000    0.000    0.000    0.000 
#
# Total GULP energy -178682.752234 kJ/mol
# GULP energy per Si atom -5583.836007 kJ/mol
# Density = 2.756056 g / cm^3
# Si number density = 27.623433 Si / 1000 Ang^3
#
#
#
# Elastic Constant Matrix: (Units=GPa)
#
#
# Indices 1 2 3 4 5 6 
#
# 1 101.1898 41.1796 32.6184 0.0000 0.0000 0.0000
# 2 41.1796 164.5341 18.9601 0.0000 0.0000 0.0000
# 3 32.6184 18.9601 65.6563 0.0000 0.0000 0.0000
# 4 0.0000 0.0000 0.0000 30.2678 0.0000 0.0000
# 5 0.0000 0.0000 0.0000 0.0000 44.4109 0.0000
# 6 0.0000 0.0000 0.0000 0.0000 0.0000 49.0730
#
#
#
# Elastic Compliance Matrix: (Units=1/GPa)
#
#
# Indices 1 2 3 4 5 6 
#
# 1 0.012716 -0.002539 -0.005584 0.000000 0.000000 0.000000
# 2 -0.002539 0.006794 -0.000701 0.000000 0.000000 0.000000
# 3 -0.005584 -0.000701 0.018207 0.000000 0.000000 0.000000
# 4 0.000000 0.000000 0.000000 0.033038 0.000000 0.000000
# 5 0.000000 0.000000 0.000000 0.000000 0.022517 0.000000
# 6 0.000000 0.000000 0.000000 0.000000 0.000000 0.020378
#
#
# Mechanical properties :
#
#
# Convention : Reuss Voigt Hill
#
# Bulk Modulus (GPa) = 49.82613 57.43295 53.62954
# Shear Modulus (GPa) = 36.23524 40.65847 38.44686
#
# Velocity S-wave (km/s) = 3.62575 3.84068 3.73476
# Velocity P-wave (km/s) = 5.96698 6.36429 6.16884
#
# Compressibility (1/GPa) = 0.02006979
#
# Stress axis : x y z
#
# Youngs Moduli (GPa) = 78.64309 147.18958 54.92306
#
# Poissons Ratio (x) = 0.37372 0.30669
# Poissons Ratio (y) = 0.19968 0.03848
# Poissons Ratio (z) = 0.43914 0.10311
#
# Static dielectric constant tensor:
#      x y z
#    x 2.276830 0.000000 0.000000 
#    y 0.000000 2.163290 0.000000 
#    z 0.000000 0.000000 2.266370 
# 
# From -- ./inp_files/5612.got.cif
#   From: 2010.05.17/outbox.cif.g08.bks.cpg/sg33_3_cif.got.tgz:5612.got - 2010.06.03 17:15:25.
