data_PCOD9344959
_publ_section_title
;
Structure prediction by ZEFSAII (Michael W. Deem and Ramdas Pophale) SiO2 
 PCOD9344959
Probable space group: P N A 21
;
_chemical_formula_sum "Si O2"
_cell_formula_units_Z 24
_cell_length_a 15.110907
_cell_length_b 4.927882
_cell_length_c 12.029957
_cell_angle_alpha 90.000000
_cell_angle_beta 90.000000
_cell_angle_gamma 90.000000
_cell_volume 895.807940
_symmetry_space_group_name_H-M "P N A 21"
_symmetry_group_IT_number 33
_symmetry_cell_setting 'orthorhombic'
loop_
_space_group_symop_operation_xyz
x,y,z
-x,-y,1/2+z
1/2-x,1/2+y,1/2+z
1/2+x,1/2-y,z
loop_
_atom_site_type_symbol
_atom_site_label
_atom_site_fract_x
_atom_site_fract_y
_atom_site_fract_z
Si Si1 0.333359 0.186007 0.555750
Si Si2 0.131877 0.161396 0.352289
Si Si3 0.704229 0.571289 0.722406
Si Si4 0.615968 0.042067 0.818819
Si Si5 0.064494 0.664528 0.441444
Si Si6 0.938264 0.805290 0.626540
O O1 0.360029 0.496579 0.579365
O O2 0.244868 0.070156 0.612377
O O3 0.342934 0.104090 0.428014
O O4 0.410371 0.008438 0.614021
O O5 0.211622 0.295770 0.285345
O O6 0.056389 0.134066 0.256346
O O7 0.104261 0.365141 0.450032
O O8 0.140614 0.857076 0.393356
O O9 0.661996 0.323981 0.789605
O O10 0.636417 0.825466 0.721103
O O11 0.516737 0.114898 0.855779
O O12 0.019838 0.824065 0.542996
#
# Coordination Sequence:
#
# PCOD9344959 Si02
#       6
#     4   4   4   4   4   4
#     4  10  20  38  61  84 115 162 201 230 293 382
#     4  11  22  39  61  88 119 157 203 252 300 360
#     4  11  22  39  61  88 119 157 201 250 301 359
#     4  11  22  39  61  88 119 157 201 250 301 359
#     4  11  22  39  61  88 119 157 203 252 300 360
#     4  10  20  38  61  84 115 162 201 230 293 380
#
# _framework density 26.791457999999999
#
# number of rings (size 3 to 8) (size 9 to 14) (size 15 to 20)
#    0.000    1.333    0.000   10.000    0.000    0.000 
#    0.000   10.000    0.000    0.000    0.000    0.000 
#    0.000    0.000    0.000    0.000    0.000    0.000 
#
# Total GULP energy -134285.710449 kJ/mol
# GULP energy per Si atom -5595.237935 kJ/mol
# Density = 2.673048 g / cm^3
# Si number density = 26.791458 Si / 1000 Ang^3
#
#
#
# Elastic Constant Matrix: (Units=GPa)
#
#
# Indices 1 2 3 4 5 6 
#
# 1 85.8680 43.7448 23.0618 0.0000 0.0000 0.0000
# 2 43.7448 175.0835 40.3799 0.0000 0.0000 0.0000
# 3 23.0618 40.3799 65.9438 0.0000 0.0000 0.0000
# 4 0.0000 0.0000 0.0000 24.6975 0.0000 0.0000
# 5 0.0000 0.0000 0.0000 0.0000 50.9955 0.0000
# 6 0.0000 0.0000 0.0000 0.0000 0.0000 56.0423
#
#
#
# Elastic Compliance Matrix: (Units=1/GPa)
#
#
# Indices 1 2 3 4 5 6 
#
# 1 0.013895 -0.002738 -0.003183 0.000000 0.000000 0.000000
# 2 -0.002738 0.007190 -0.003445 0.000000 0.000000 0.000000
# 3 -0.003183 -0.003445 0.018387 0.000000 0.000000 0.000000
# 4 0.000000 0.000000 0.000000 0.040490 0.000000 0.000000
# 5 0.000000 0.000000 0.000000 0.000000 0.019610 0.000000
# 6 0.000000 0.000000 0.000000 0.000000 0.000000 0.017844
#
#
# Mechanical properties :
#
#
# Convention : Reuss Voigt Hill
#
# Bulk Modulus (GPa) = 48.21467 60.14094 54.17780
# Shear Modulus (GPa) = 34.94988 40.99431 37.97210
#
# Velocity S-wave (km/s) = 3.61573 3.91593 3.76882
# Velocity P-wave (km/s) = 5.95539 6.55305 6.26136
#
# Compressibility (1/GPa) = 0.02074058
#
# Stress axis : x y z
#
# Youngs Moduli (GPa) = 71.96652 139.07845 54.38514
#
# Poissons Ratio (x) = 0.38075 0.17311
# Poissons Ratio (y) = 0.19702 0.18738
# Poissons Ratio (z) = 0.22908 0.47918
#
# Static dielectric constant tensor:
#      x y z
#    x 2.147380 0.000000 0.000000 
#    y 0.000000 1.942120 0.000000 
#    z 0.000000 0.000000 2.169180 
# 
# From -- ./inp_files/6899.got.cif
#   From: 2010.05.17/outbox.cif.g08.bks.cpg/sg33_4_cif.got.tgz:6899.got - 2010.06.03 17:15:25.
