data_PCOD9344538
_publ_section_title
;
Structure prediction by ZEFSAII (Michael W. Deem and Ramdas Pophale) SiO2 
 PCOD9344538
Probable space group: P N A 21
;
_chemical_formula_sum "Si O2"
_cell_formula_units_Z 32
_cell_length_a 11.979738
_cell_length_b 7.438182
_cell_length_c 13.689987
_cell_angle_alpha 90.000000
_cell_angle_beta 90.000000
_cell_angle_gamma 90.000000
_cell_volume 1219.880127
_symmetry_space_group_name_H-M "P N A 21"
_symmetry_group_IT_number 33
_symmetry_cell_setting 'orthorhombic'
loop_
_space_group_symop_operation_xyz
x,y,z
-x,-y,1/2+z
1/2-x,1/2+y,1/2+z
1/2+x,1/2-y,z
loop_
_atom_site_type_symbol
_atom_site_label
_atom_site_fract_x
_atom_site_fract_y
_atom_site_fract_z
Si Si1 0.929899 0.464108 0.925750
Si Si2 0.811947 0.715672 0.548338
Si Si3 0.861221 0.035916 0.175257
Si Si4 0.606919 0.808813 0.816408
Si Si5 0.832488 0.299237 0.738089
Si Si6 0.009511 0.065248 0.989728
Si Si7 0.312231 0.516372 0.879733
Si Si8 0.980935 0.518590 0.130259
O O1 0.851901 0.435178 0.831072
O O2 0.973283 0.257886 0.941296
O O3 0.029583 0.595740 0.895622
O O4 0.901433 0.530159 0.035492
O O5 0.721789 0.691809 0.633205
O O6 0.755178 0.604979 0.459738
O O7 0.920305 0.617968 0.594855
O O8 0.859027 0.904044 0.506684
O O9 0.908896 0.108280 0.276445
O O10 0.781758 0.864003 0.187026
O O11 0.957039 0.030220 0.095680
O O12 0.732350 0.820333 0.855787
O O13 0.580482 0.937317 0.723467
O O14 0.823035 0.103196 0.783143
O O15 0.941375 0.319612 0.669582
O O16 0.931503 0.936831 0.924829
#
# Coordination Sequence:
#
# PCOD9344538 Si02
#       8
#     4   4   4   4   4   4   4   4
#     4   9  16  32  56  75  99 141 186 213 244 315
#     4   9  16  33  56  74  99 147 184 206 245 329
#     4  10  19  31  55  82 105 135 181 221 261 311
#     4  11  18  30  57  86 100 132 191 226 245 312
#     4   9  20  32  51  80 110 136 169 224 273 308
#     4   9  16  33  56  74  99 147 184 206 245 329
#     4  10  19  31  55  82 105 135 181 221 261 311
#     4   9  16  32  56  75  99 141 186 213 244 315
#
# _framework density 26.232088000000001
#
# number of rings (size 3 to 8) (size 9 to 14) (size 15 to 20)
#    0.000    2.500    5.000    0.000    0.000    0.000 
#    0.000    2.500    0.000    0.000    0.000    0.000 
#    0.000    0.000    0.000    0.000    0.000    0.000 
#
# Total GULP energy -178602.397338 kJ/mol
# GULP energy per Si atom -5581.324917 kJ/mol
# Density = 2.617238 g / cm^3
# Si number density = 26.232088 Si / 1000 Ang^3
#
#
#
# Elastic Constant Matrix: (Units=GPa)
#
#
# Indices 1 2 3 4 5 6 
#
# 1 78.5562 27.4110 45.4576 0.0000 0.0000 0.0000
# 2 27.4110 58.6679 2.2897 0.0000 0.0000 0.0000
# 3 45.4576 2.2897 81.0539 0.0000 0.0000 0.0000
# 4 0.0000 0.0000 0.0000 11.4116 0.0000 0.0000
# 5 0.0000 0.0000 0.0000 0.0000 58.4941 0.0000
# 6 0.0000 0.0000 0.0000 0.0000 0.0000 18.5583
#
#
#
# Elastic Compliance Matrix: (Units=1/GPa)
#
#
# Indices 1 2 3 4 5 6 
#
# 1 0.024146 -0.010765 -0.013238 0.000000 0.000000 0.000000
# 2 -0.010765 0.021863 0.005420 0.000000 0.000000 0.000000
# 3 -0.013238 0.005420 0.019609 0.000000 0.000000 0.000000
# 4 0.000000 0.000000 0.000000 0.087630 0.000000 0.000000
# 5 0.000000 0.000000 0.000000 0.000000 0.017096 0.000000
# 6 0.000000 0.000000 0.000000 0.000000 0.000000 0.053884
#
#
# Mechanical properties :
#
#
# Convention : Reuss Voigt Hill
#
# Bulk Modulus (GPa) = 35.14718 40.95497 38.05107
# Shear Modulus (GPa) = 18.45844 27.23412 22.84628
#
# Velocity S-wave (km/s) = 2.65553 3.22560 2.95435
# Velocity P-wave (km/s) = 4.77809 5.43315 5.11611
#
# Compressibility (1/GPa) = 0.02845178
#
# Stress axis : x y z
#
# Youngs Moduli (GPa) = 41.41403 45.73877 50.99787
#
# Poissons Ratio (x) = 0.49238 0.67511
# Poissons Ratio (y) = 0.44583 -0.27640
# Poissons Ratio (z) = 0.54824 -0.24790
#
# Static dielectric constant tensor:
#      x y z
#    x 2.085260 0.000000 0.000000 
#    y 0.000000 2.144050 0.000000 
#    z 0.000000 0.000000 2.110100 
# 
# From -- ./inp_files/8184.got.cif
#   From: 2010.05.17/outbox.cif.g08.bks.cpg/sg33_5_cif.got.tgz:8184.got - 2010.06.03 17:15:25.
