data_PCOD9344293
_publ_section_title
;
Structure prediction by ZEFSAII (Michael W. Deem and Ramdas Pophale) SiO2 
 PCOD9344293
Probable space group: P B A 2
;
_chemical_formula_sum "Si O2"
_cell_formula_units_Z 26
_cell_length_a 9.573604
_cell_length_b 8.229787
_cell_length_c 12.605588
_cell_angle_alpha 90.000000
_cell_angle_beta 90.000000
_cell_angle_gamma 90.000000
_cell_volume 993.178165
_symmetry_space_group_name_H-M "P B A 2"
_symmetry_group_IT_number 32
_symmetry_cell_setting 'orthorhombic'
loop_
_space_group_symop_operation_xyz
x,y,z
-x,-y,z
1/2-x,1/2+y,z
1/2+x,1/2-y,z
loop_
_atom_site_type_symbol
_atom_site_label
_atom_site_fract_x
_atom_site_fract_y
_atom_site_fract_z
Si Si1 0.398795 0.655203 0.334390
Si Si2 0.743808 0.439355 0.133518
Si Si3 0.039835 0.761311 0.623573
Si Si4 0.217201 0.070613 0.539454
Si Si5 0.500000 0.000000 0.290794
Si Si6 0.421809 0.826715 0.851031
Si Si7 0.351081 0.306148 0.978422
O O1 0.500000 0.500000 0.347849
O O2 0.355109 0.661000 0.211334
O O3 0.272972 0.595186 0.412542
O O4 0.467080 0.831784 0.353119
O O5 0.870952 0.476050 0.210861
O O6 0.661867 0.589643 0.084695
O O7 0.804405 0.364869 0.026312
O O8 0.139165 0.609367 0.598205
O O9 0.900615 0.790981 0.557294
O O10 0.973312 0.750353 0.740446
O O11 0.141676 0.912382 0.589676
O O12 0.492694 0.709053 0.937491
O O13 0.258686 0.841800 0.882095
O O14 0.500000 0.000000 0.855467
#
# Coordination Sequence:
#
# PCOD9344293 Si02
#       7
#     4   4   4   4   2   4   4
#     4  12  28  49  78 116 160 210 263 323 390 479
#     4  12  26  46  76 114 155 202 259 319 387 473
#     4  11  27  50  78 110 152 197 256 332 379 477
#     4  11  28  50  77 115 155 197 264 312 407 463
#     4  12  28  48  78 110 164 204 266 314 392 462
#     4  12  28  50  78 113 150 204 266 324 400 472
#     4  12  26  48  78 111 156 202 255 325 392 466
#
# _framework density 26.178584000000001
#
# number of rings (size 3 to 8) (size 9 to 14) (size 15 to 20)
#    0.000    0.308    4.615    2.769   10.769    2.462 
#    0.000    0.000    0.000    0.000    0.000    0.000 
#    0.000    0.000    0.000    0.000    0.000    0.000 
#
# Total GULP energy -145373.691907 kJ/mol
# GULP energy per Si atom -5591.295843 kJ/mol
# Density = 2.611900 g / cm^3
# Si number density = 26.178584 Si / 1000 Ang^3
#
#
#
# Elastic Constant Matrix: (Units=GPa)
#
#
# Indices 1 2 3 4 5 6 
#
# 1 113.5436 17.9016 27.6060 0.0000 0.0000 0.0000
# 2 17.9016 102.9626 26.3207 0.0000 0.0000 0.0000
# 3 27.6060 26.3207 137.0710 0.0000 0.0000 0.0000
# 4 0.0000 0.0000 0.0000 20.7031 0.0000 0.0000
# 5 0.0000 0.0000 0.0000 0.0000 79.1806 0.0000
# 6 0.0000 0.0000 0.0000 0.0000 0.0000 32.2703
#
#
#
# Elastic Compliance Matrix: (Units=1/GPa)
#
#
# Indices 1 2 3 4 5 6 
#
# 1 0.009402 -0.001210 -0.001661 0.000000 0.000000 0.000000
# 2 -0.001210 0.010369 -0.001747 0.000000 0.000000 0.000000
# 3 -0.001661 -0.001747 0.007966 0.000000 0.000000 0.000000
# 4 0.000000 0.000000 0.000000 0.048302 0.000000 0.000000
# 5 0.000000 0.000000 0.000000 0.000000 0.012629 0.000000
# 6 0.000000 0.000000 0.000000 0.000000 0.000000 0.030988
#
#
# Mechanical properties :
#
#
# Convention : Reuss Voigt Hill
#
# Bulk Modulus (GPa) = 54.05543 55.24821 54.65182
# Shear Modulus (GPa) = 37.02058 45.21408 41.11733
#
# Velocity S-wave (km/s) = 3.76461 4.16040 3.96744
# Velocity P-wave (km/s) = 6.29205 6.65047 6.47374
#
# Compressibility (1/GPa) = 0.01849953
#
# Stress axis : x y z
#
# Youngs Moduli (GPa) = 106.36213 96.43808 125.53986
#
# Poissons Ratio (x) = 0.11669 0.20854
# Poissons Ratio (y) = 0.12870 0.21937
# Poissons Ratio (z) = 0.17669 0.16852
#
# Static dielectric constant tensor:
#      x y z
#    x 1.996300 0.000000 0.000000 
#    y 0.000000 2.227770 0.000000 
#    z 0.000000 0.000000 2.064000 
# 
# From -- ./inp_files/3841.got.cif
#   From: 2010.05.17/outbox.cif.g08.bks.cpg/sg32_2_cif.got.tgz:3841.got - 2010.06.03 17:12:27.
