data_PCOD9344596
_publ_section_title
;
Structure prediction by ZEFSAII (Michael W. Deem and Ramdas Pophale) SiO2 
 PCOD9344596
Probable space group: P N A 21
;
_chemical_formula_sum "Si O2"
_cell_formula_units_Z 20
_cell_length_a 15.654219
_cell_length_b 13.239351
_cell_length_c 4.846067
_cell_angle_alpha 90.000000
_cell_angle_beta 90.000000
_cell_angle_gamma 90.000000
_cell_volume 1004.355624
_symmetry_space_group_name_H-M "P N A 21"
_symmetry_group_IT_number 33
_symmetry_cell_setting 'orthorhombic'
loop_
_space_group_symop_operation_xyz
x,y,z
-x,-y,1/2+z
1/2-x,1/2+y,1/2+z
1/2+x,1/2-y,z
loop_
_atom_site_type_symbol
_atom_site_label
_atom_site_fract_x
_atom_site_fract_y
_atom_site_fract_z
Si Si1 0.266227 0.885034 0.019510
Si Si2 0.842014 0.822404 0.943451
Si Si3 0.342014 0.322404 0.021819
Si Si4 0.733773 0.885034 0.445759
Si Si5 0.500000 0.570243 0.232635
O O1 0.334945 0.798772 0.947394
O O2 0.234006 0.864400 0.327684
O O3 0.184770 0.861601 0.822052
O O4 0.293477 0.000000 0.982635
O O5 0.765994 0.864400 0.137585
O O6 0.928034 0.864440 0.077234
O O7 0.815230 0.861601 0.643217
O O8 0.334944 0.201228 0.017875
O O9 0.428034 0.364440 0.888036
O O10 0.465673 0.500000 0.482635
#
# Coordination Sequence:
#
# PCOD9344596 Si02
#       5
#     4   4   4   4   4
#     4  10  19  35  55  76 105 140 179 220 259 312
#     4  10  21  33  53  81 104 136 180 217 264 323
#     4  10  21  33  53  81 104 136 180 217 264 323
#     4  10  19  35  55  76 105 140 179 220 259 312
#     4  12  22  34  54  80 112 140 172 226 282 322
#
# _framework density 19.913267000000001
#
# number of rings (size 3 to 8) (size 9 to 14) (size 15 to 20)
#    0.000    1.600    0.000    7.200    0.000    0.000 
#    0.000    0.000    0.000   16.800    0.000    0.000 
#    0.000    0.000    0.000    0.000    0.000    0.000 
#
# Total GULP energy -111678.773887 kJ/mol
# GULP energy per Si atom -5583.938694 kJ/mol
# Density = 1.986794 g / cm^3
# Si number density = 19.913267 Si / 1000 Ang^3
#
#
#
# Elastic Constant Matrix: (Units=GPa)
#
#
# Indices 1 2 3 4 5 6 
#
# 1 74.3220 48.6806 -0.1918 0.0000 0.0000 0.0000
# 2 48.6806 202.8847 18.0018 0.0000 0.0000 0.0000
# 3 -0.1918 18.0018 67.4606 0.0000 0.0000 0.0000
# 4 0.0000 0.0000 0.0000 22.0922 0.0000 0.0000
# 5 0.0000 0.0000 0.0000 0.0000 25.2843 0.0000
# 6 0.0000 0.0000 0.0000 0.0000 0.0000 35.9194
#
#
#
# Elastic Compliance Matrix: (Units=1/GPa)
#
#
# Indices 1 2 3 4 5 6 
#
# 1 0.016043 -0.003947 0.001099 0.000000 0.000000 0.000000
# 2 -0.003947 0.006019 -0.001618 0.000000 0.000000 0.000000
# 3 0.001099 -0.001618 0.015258 0.000000 0.000000 0.000000
# 4 0.000000 0.000000 0.000000 0.045265 0.000000 0.000000
# 5 0.000000 0.000000 0.000000 0.000000 0.039550 0.000000
# 6 0.000000 0.000000 0.000000 0.000000 0.000000 0.027840
#
#
# Mechanical properties :
#
#
# Convention : Reuss Voigt Hill
#
# Bulk Modulus (GPa) = 35.22419 53.07202 44.14811
# Shear Modulus (GPa) = 29.69647 35.20429 32.45038
#
# Velocity S-wave (km/s) = 3.86591 4.20918 4.04119
# Velocity P-wave (km/s) = 6.13631 7.09453 6.63275
#
# Compressibility (1/GPa) = 0.02838958
#
# Stress axis : x y z
#
# Youngs Moduli (GPa) = 62.33246 166.12801 65.53839
#
# Poissons Ratio (x) = 0.65569 -0.07202
# Poissons Ratio (y) = 0.24602 0.10601
# Poissons Ratio (z) = -0.06849 0.26871
#
# Static dielectric constant tensor:
#      x y z
#    x 1.699000 0.000000 0.000000 
#    y 0.000000 1.733170 0.000000 
#    z 0.000000 0.000000 1.696330 
# 
# From -- ./inp_files/1687.got.cif
#   From: 2010.05.17/outbox.cif.g08.bks.cpg/sg33_1_cif.got.tgz:1687.got - 2010.06.03 17:15:25.
