data_PCOD9344902
_publ_section_title
;
Structure prediction by ZEFSAII (Michael W. Deem and Ramdas Pophale) SiO2 
 PCOD9344902
Probable space group: P N A 21
;
_chemical_formula_sum "Si O2"
_cell_formula_units_Z 32
_cell_length_a 7.752857
_cell_length_b 8.442657
_cell_length_c 21.294811
_cell_angle_alpha 90.000000
_cell_angle_beta 90.000000
_cell_angle_gamma 90.000000
_cell_volume 1393.845730
_symmetry_space_group_name_H-M "P N A 21"
_symmetry_group_IT_number 33
_symmetry_cell_setting 'orthorhombic'
loop_
_space_group_symop_operation_xyz
x,y,z
-x,-y,1/2+z
1/2-x,1/2+y,1/2+z
1/2+x,1/2-y,z
loop_
_atom_site_type_symbol
_atom_site_label
_atom_site_fract_x
_atom_site_fract_y
_atom_site_fract_z
Si Si1 0.233675 0.497896 0.427140
Si Si2 0.148902 0.336213 0.683576
Si Si3 0.208085 0.997146 0.305397
Si Si4 0.333456 0.332286 0.550831
Si Si5 0.794881 0.003236 0.048760
Si Si6 0.657187 0.676594 0.805177
Si Si7 0.900228 0.178823 0.927275
Si Si8 0.223227 0.496009 0.184341
O O1 0.232774 0.398399 0.490669
O O2 0.243399 0.388782 0.366178
O O3 0.090165 0.632446 0.425214
O O4 0.413380 0.596602 0.427423
O O5 0.255178 0.401488 0.742429
O O6 0.240122 0.366869 0.616781
O O7 0.145972 0.145493 0.690335
O O8 0.963641 0.420411 0.685081
O O9 0.349690 0.134950 0.310903
O O10 0.028364 0.092981 0.303467
O O11 0.195806 0.883042 0.365063
O O12 0.338722 0.142308 0.542848
O O13 0.520274 0.413416 0.551303
O O14 0.757061 0.080710 0.116233
O O15 0.804708 0.120923 0.990545
O O16 0.750025 0.623898 0.740981
#
# Coordination Sequence:
#
# PCOD9344902 Si02
#       8
#     4   4   4   4   4   4   4   4
#     4  10  23  39  59  85 115 149 190 235 285 341
#     4  11  22  38  60  87 117 154 193 236 285 340
#     4  11  23  40  60  86 116 151 192 238 288 343
#     4  10  20  37  59  86 116 150 190 235 283 340
#     4  10  20  37  59  86 116 150 190 235 283 340
#     4  11  23  40  60  86 116 151 192 238 288 343
#     4  10  23  39  59  85 115 149 190 235 285 341
#     4  11  22  38  60  87 117 154 193 236 285 340
#
# _framework density 22.958062000000002
#
# number of rings (size 3 to 8) (size 9 to 14) (size 15 to 20)
#    0.000    1.500    0.000    6.750    0.000    7.000 
#    0.000    2.500    0.000    0.000    0.000    0.000 
#    0.000    0.000    0.000    0.000    0.000    0.000 
#
# Total GULP energy -179194.809478 kJ/mol
# GULP energy per Si atom -5599.837796 kJ/mol
# Density = 2.290581 g / cm^3
# Si number density = 22.958062 Si / 1000 Ang^3
#
#
#
# Elastic Constant Matrix: (Units=GPa)
#
#
# Indices 1 2 3 4 5 6 
#
# 1 69.1254 -17.8832 17.7623 0.0000 0.0000 0.0000
# 2 -17.8832 42.9592 39.8654 0.0000 0.0000 0.0000
# 3 17.7623 39.8654 149.8944 0.0000 0.0000 0.0000
# 4 0.0000 0.0000 0.0000 43.2512 0.0000 0.0000
# 5 0.0000 0.0000 0.0000 0.0000 22.4962 0.0000
# 6 0.0000 0.0000 0.0000 0.0000 0.0000 -97.2603
#
#
#
# Elastic Compliance Matrix: (Units=1/GPa)
#
#
# Indices 1 2 3 4 5 6 
#
# 1 0.019522 0.013639 -0.005941 0.000000 0.000000 0.000000
# 2 0.013639 0.040435 -0.012370 0.000000 0.000000 0.000000
# 3 -0.005941 -0.012370 0.010665 0.000000 0.000000 0.000000
# 4 0.000000 0.000000 0.000000 0.023121 0.000000 0.000000
# 5 0.000000 0.000000 0.000000 0.000000 0.044452 0.000000
# 6 0.000000 0.000000 0.000000 0.000000 0.000000 -0.010282
#
#
# Mechanical properties :
#
#
# Convention : Reuss Voigt Hill
#
# Bulk Modulus (GPa) = 16.31882 37.94088 27.12985
# Shear Modulus (GPa) = 31.70929 8.51306 20.11117
#
# Velocity S-wave (km/s) = 3.72046 1.92773 2.96293
# Velocity P-wave (km/s) = 5.05760 4.63863 4.85264
#
# Compressibility (1/GPa) = 0.06127895
#
# Stress axis : x y z
#
# Youngs Moduli (GPa) = 51.22528 24.73093 93.76209
#
# Poissons Ratio (x) = -0.33732 0.55702
# Poissons Ratio (y) = -0.69869 1.15986
# Poissons Ratio (z) = 0.30432 0.30593
#
# Static dielectric constant tensor:
#      x y z
#    x 1.915720 0.000000 0.000000 
#    y 0.000000 1.805690 0.000000 
#    z 0.000000 0.000000 1.813760 
# 
# From -- ./inp_files/8936.got.cif
#   From: 2010.05.17/outbox.cif.g08.bks.cpg/sg33_5_cif.got.tgz:8936.got - 2010.06.03 17:15:25.
