data_PCOD9344612
_publ_section_title
;
Structure prediction by ZEFSAII (Michael W. Deem and Ramdas Pophale) SiO2 
 PCOD9344612
Probable space group: P N A 21
;
_chemical_formula_sum "Si O2"
_cell_formula_units_Z 20
_cell_length_a 21.771977
_cell_length_b 6.431876
_cell_length_c 4.811776
_cell_angle_alpha 90.000000
_cell_angle_beta 90.000000
_cell_angle_gamma 90.000000
_cell_volume 673.815399
_symmetry_space_group_name_H-M "P N A 21"
_symmetry_group_IT_number 33
_symmetry_cell_setting 'orthorhombic'
loop_
_space_group_symop_operation_xyz
x,y,z
-x,-y,1/2+z
1/2-x,1/2+y,1/2+z
1/2+x,1/2-y,z
loop_
_atom_site_type_symbol
_atom_site_label
_atom_site_fract_x
_atom_site_fract_y
_atom_site_fract_z
Si Si1 0.746214 0.042730 0.975290
Si Si2 0.125463 0.343298 0.718943
Si Si3 0.571633 0.396476 0.212099
Si Si4 0.527000 0.879454 0.577355
Si Si5 0.675392 0.647902 0.019633
O O1 0.793511 0.980864 0.730904
O O2 0.697626 0.164219 0.771063
O O3 0.791363 0.122096 0.220145
O O4 0.698783 0.876108 0.105137
O O5 0.099462 0.282579 0.016028
O O6 0.098262 0.566627 0.628280
O O7 0.604122 0.602398 0.091298
O O8 0.595913 0.326060 0.512141
O O9 0.499578 0.346162 0.157876
O O10 0.492456 0.048637 0.772671
#
# Coordination Sequence:
#
# PCOD9344612 Si02
#       5
#     4   4   4   4   4
#     4  12  24  38  57  83 114 151 190 234 284 336
#     4  10  19  35  58  83 111 145 187 232 277 334
#     4  10  19  35  58  83 111 145 187 232 277 334
#     4   8  16  30  54  82 106 140 184 226 274 332
#     4  12  24  38  57  83 114 151 190 234 284 336
#
# _framework density 29.681718
#
# number of rings (size 3 to 8) (size 9 to 14) (size 15 to 20)
#    0.000    1.600    0.000    7.200    0.000    0.000 
#    0.000    0.000    0.000   19.200    0.000    0.000 
#    0.000    0.000    0.000    0.000    0.000    0.000 
#
# Total GULP energy -111762.323710 kJ/mol
# GULP energy per Si atom -5588.116186 kJ/mol
# Density = 2.961416 g / cm^3
# Si number density = 29.681718 Si / 1000 Ang^3
#
#
#
# Elastic Constant Matrix: (Units=GPa)
#
#
# Indices 1 2 3 4 5 6 
#
# 1 134.9815 46.2856 54.0712 0.0000 0.0000 0.0000
# 2 46.2856 95.1617 26.8665 0.0000 0.0000 0.0000
# 3 54.0712 26.8665 161.7579 0.0000 0.0000 0.0000
# 4 0.0000 0.0000 0.0000 33.4462 0.0000 0.0000
# 5 0.0000 0.0000 0.0000 0.0000 49.7478 0.0000
# 6 0.0000 0.0000 0.0000 0.0000 0.0000 64.1380
#
#
#
# Elastic Compliance Matrix: (Units=1/GPa)
#
#
# Indices 1 2 3 4 5 6 
#
# 1 0.009846 -0.004050 -0.002619 0.000000 0.000000 0.000000
# 2 -0.004050 0.012691 -0.000754 0.000000 0.000000 0.000000
# 3 -0.002619 -0.000754 0.007183 0.000000 0.000000 0.000000
# 4 0.000000 0.000000 0.000000 0.029899 0.000000 0.000000
# 5 0.000000 0.000000 0.000000 0.000000 0.020101 0.000000
# 6 0.000000 0.000000 0.000000 0.000000 0.000000 0.015591
#
#
# Mechanical properties :
#
#
# Convention : Reuss Voigt Hill
#
# Bulk Modulus (GPa) = 67.22788 71.81642 69.52215
# Shear Modulus (GPa) = 43.43496 47.11160 45.27328
#
# Velocity S-wave (km/s) = 3.82954 3.98832 3.90974
# Velocity P-wave (km/s) = 6.50020 6.74218 6.62229
#
# Compressibility (1/GPa) = 0.01487478
#
# Stress axis : x y z
#
# Youngs Moduli (GPa) = 101.56331 78.79544 139.22379
#
# Poissons Ratio (x) = 0.31910 0.36458
# Poissons Ratio (y) = 0.41130 0.10500
# Poissons Ratio (z) = 0.26596 0.05942
#
# Static dielectric constant tensor:
#      x y z
#    x 2.462820 0.000000 0.000000 
#    y 0.000000 2.442490 0.000000 
#    z 0.000000 0.000000 2.195940 
# 
# From -- ./inp_files/2473.got.cif
#   From: 2010.05.17/outbox.cif.g08.bks.cpg/sg33_2_cif.got.tgz:2473.got - 2010.06.03 17:15:25.
