data_PCOD9344549
_publ_section_title
;
Structure prediction by ZEFSAII (Michael W. Deem and Ramdas Pophale) SiO2 
 PCOD9344549
Probable space group: P N A 21
;
_chemical_formula_sum "Si O2"
_cell_formula_units_Z 32
_cell_length_a 27.618463
_cell_length_b 12.215988
_cell_length_c 5.389320
_cell_angle_alpha 90.000000
_cell_angle_beta 90.000000
_cell_angle_gamma 90.000000
_cell_volume 1818.285497
_symmetry_space_group_name_H-M "P N A 21"
_symmetry_group_IT_number 33
_symmetry_cell_setting 'orthorhombic'
loop_
_space_group_symop_operation_xyz
x,y,z
-x,-y,1/2+z
1/2-x,1/2+y,1/2+z
1/2+x,1/2-y,z
loop_
_atom_site_type_symbol
_atom_site_label
_atom_site_fract_x
_atom_site_fract_y
_atom_site_fract_z
Si Si1 0.499767 0.426743 0.429400
Si Si2 0.393919 0.395097 0.370461
Si Si3 0.693516 0.692282 0.622449
Si Si4 0.290741 0.883268 0.780885
Si Si5 0.174474 0.277665 0.766847
Si Si6 0.677118 0.494774 0.256200
Si Si7 0.245809 0.610205 0.383617
Si Si8 0.603023 0.376513 0.568891
O O1 0.495439 0.507242 0.669383
O O2 0.448851 0.362689 0.425069
O O3 0.549297 0.359943 0.466082
O O4 0.359992 0.308252 0.233396
O O5 0.361587 0.434594 0.599815
O O6 0.397814 0.505878 0.206255
O O7 0.737517 0.672295 0.813161
O O8 0.696117 0.581774 0.456547
O O9 0.707601 0.801767 0.481848
O O10 0.313871 0.832536 0.531610
O O11 0.281328 0.011979 0.749150
O O12 0.319314 0.857932 0.033251
O O13 0.214434 0.180743 0.736642
O O14 0.122988 0.217195 0.748095
O O15 0.644414 0.395959 0.362407
O O16 0.721266 0.446706 0.097810
#
# Coordination Sequence:
#
# PCOD9344549 Si02
#       8
#     4   4   4   4   4   4   4   4
#     4  10  20  32  53  78 109 142 175 214 275 333
#     4  10  19  33  49  80 109 143 177 223 263 331
#     4  10  22  33  53  73 111 150 181 218 268 318
#     4  11  23  36  50  79 106 144 188 224 250 323
#     4  11  23  35  54  76 108 143 184 217 271 317
#     4  11  18  36  51  76 112 145 180 222 261 326
#     4  11  20  36  52  76 108 154 182 220 267 316
#     4  10  19  33  54  76 109 149 173 220 283 324
#
# _framework density 17.598998000000002
#
# number of rings (size 3 to 8) (size 9 to 14) (size 15 to 20)
#    0.000    1.500    3.750    3.750    0.000    2.000 
#    0.000    0.000    0.000    0.000    0.000    0.000 
#    3.750    0.000    0.000    0.000    0.000    0.000 
#
# Total GULP energy -178461.719905 kJ/mol
# GULP energy per Si atom -5576.928747 kJ/mol
# Density = 1.755894 g / cm^3
# Si number density = 17.598998 Si / 1000 Ang^3
#
#
#
# Elastic Constant Matrix: (Units=GPa)
#
#
# Indices 1 2 3 4 5 6 
#
# 1 120.8302 33.6624 34.9025 0.0000 0.0000 0.0000
# 2 33.6624 56.2248 10.8060 0.0000 0.0000 0.0000
# 3 34.9025 10.8060 63.9311 0.0000 0.0000 0.0000
# 4 0.0000 0.0000 0.0000 14.3668 0.0000 0.0000
# 5 0.0000 0.0000 0.0000 0.0000 25.9209 0.0000
# 6 0.0000 0.0000 0.0000 0.0000 0.0000 18.4884
#
#
#
# Elastic Compliance Matrix: (Units=1/GPa)
#
#
# Indices 1 2 3 4 5 6 
#
# 1 0.011415 -0.005826 -0.005247 0.000000 0.000000 0.000000
# 2 -0.005826 0.021356 -0.000429 0.000000 0.000000 0.000000
# 3 -0.005247 -0.000429 0.018579 0.000000 0.000000 0.000000
# 4 0.000000 0.000000 0.000000 0.069605 0.000000 0.000000
# 5 0.000000 0.000000 0.000000 0.000000 0.038579 0.000000
# 6 0.000000 0.000000 0.000000 0.000000 0.000000 0.054088
#
#
# Mechanical properties :
#
#
# Convention : Reuss Voigt Hill
#
# Bulk Modulus (GPa) = 35.27854 44.41421 39.84637
# Shear Modulus (GPa) = 20.31908 22.52956 21.42432
#
# Velocity S-wave (km/s) = 3.40157 3.58182 3.49285
# Velocity P-wave (km/s) = 5.95960 6.51133 6.24157
#
# Compressibility (1/GPa) = 0.02834584
#
# Stress axis : x y z
#
# Youngs Moduli (GPa) = 87.60623 46.82492 53.82427
#
# Poissons Ratio (x) = 0.27279 0.28242
# Poissons Ratio (y) = 0.51037 0.02311
# Poissons Ratio (z) = 0.45967 0.02010
#
# Static dielectric constant tensor:
#      x y z
#    x 1.625730 0.000000 0.000000 
#    y 0.000000 1.597740 0.000000 
#    z 0.000000 0.000000 1.718640 
# 
# From -- ./inp_files/2320.got.cif
#   From: 2010.05.17/outbox.cif.g08.bks.cpg/sg33_2_cif.got.tgz:2320.got - 2010.06.03 17:15:25.
