data_PCOD9344743
_publ_section_title
;
Structure prediction by ZEFSAII (Michael W. Deem and Ramdas Pophale) SiO2 
 PCOD9344743
Probable space group: P N A 21
;
_chemical_formula_sum "Si O2"
_cell_formula_units_Z 28
_cell_length_a 5.260341
_cell_length_b 22.116830
_cell_length_c 10.118877
_cell_angle_alpha 90.000000
_cell_angle_beta 90.000000
_cell_angle_gamma 90.000000
_cell_volume 1177.251072
_symmetry_space_group_name_H-M "P N A 21"
_symmetry_group_IT_number 33
_symmetry_cell_setting 'orthorhombic'
loop_
_space_group_symop_operation_xyz
x,y,z
-x,-y,1/2+z
1/2-x,1/2+y,1/2+z
1/2+x,1/2-y,z
loop_
_atom_site_type_symbol
_atom_site_label
_atom_site_fract_x
_atom_site_fract_y
_atom_site_fract_z
Si Si1 0.052365 0.712237 0.601670
Si Si2 0.626702 0.564022 0.483840
Si Si3 0.884325 0.067886 0.443481
Si Si4 0.900934 0.286578 0.786577
Si Si5 0.931164 0.518004 0.707015
Si Si6 0.692609 0.396890 0.218696
Si Si7 0.425310 0.600057 0.213177
O O1 0.282812 0.758019 0.631505
O O2 0.085206 0.700071 0.444683
O O3 0.096946 0.651988 0.685323
O O4 0.489368 0.499760 0.466054
O O5 0.883431 0.545282 0.559348
O O6 0.495957 0.605522 0.594884
O O7 0.597779 0.596900 0.345154
O O8 0.069924 0.111262 0.360054
O O9 0.883758 0.095742 0.589006
O O10 0.663906 0.055872 0.335924
O O11 0.690040 0.233967 0.757484
O O12 0.765567 0.343418 0.718313
O O13 0.775025 0.456502 0.710848
O O14 0.227672 0.531538 0.720872
#
# Coordination Sequence:
#
# PCOD9344743 Si02
#       7
#     4   4   4   4   4   4   4
#     4  10  23  40  67  94 121 166 228 278 320 371
#     4   9  19  37  60  89 121 162 207 259 312 380
#     4   9  21  38  55  90 133 159 200 255 325 398
#     4  10  22  43  63  93 125 167 224 278 317 379
#     4   9  21  37  62  90 130 163 211 258 328 391
#     4  11  21  39  62  91 127 165 212 268 320 391
#     4  10  19  40  59  93 123 170 210 260 332 382
#
# _framework density 23.784222
#
# number of rings (size 3 to 8) (size 9 to 14) (size 15 to 20)
#    0.000    2.286    1.429    0.857    4.000    5.714 
#   12.857    1.429    0.000    0.000    0.000    0.000 
#    0.000    0.000    0.000    0.000    0.000    0.000 
#
# Total GULP energy -156158.310682 kJ/mol
# GULP energy per Si atom -5577.082524 kJ/mol
# Density = 2.373009 g / cm^3
# Si number density = 23.784222 Si / 1000 Ang^3
#
#
#
# Elastic Constant Matrix: (Units=GPa)
#
#
# Indices 1 2 3 4 5 6 
#
# 1 45.0031 13.4013 23.4341 0.0000 0.0000 0.0000
# 2 13.4013 77.8817 23.7248 0.0000 0.0000 0.0000
# 3 23.4341 23.7248 151.7944 0.0000 0.0000 0.0000
# 4 0.0000 0.0000 0.0000 28.8184 0.0000 0.0000
# 5 0.0000 0.0000 0.0000 0.0000 26.7257 0.0000
# 6 0.0000 0.0000 0.0000 0.0000 0.0000 33.0756
#
#
#
# Elastic Compliance Matrix: (Units=1/GPa)
#
#
# Indices 1 2 3 4 5 6 
#
# 1 0.024934 -0.003274 -0.003338 0.000000 0.000000 0.000000
# 2 -0.003274 0.013912 -0.001669 0.000000 0.000000 0.000000
# 3 -0.003338 -0.001669 0.007364 0.000000 0.000000 0.000000
# 4 0.000000 0.000000 0.000000 0.034700 0.000000 0.000000
# 5 0.000000 0.000000 0.000000 0.000000 0.037417 0.000000
# 6 0.000000 0.000000 0.000000 0.000000 0.000000 0.030234
#
#
# Mechanical properties :
#
#
# Convention : Reuss Voigt Hill
#
# Bulk Modulus (GPa) = 33.72820 43.97774 38.85297
# Shear Modulus (GPa) = 28.57087 31.99854 30.28470
#
# Velocity S-wave (km/s) = 3.46967 3.67191 3.57222
# Velocity P-wave (km/s) = 5.50120 6.04215 5.77801
#
# Compressibility (1/GPa) = 0.02964878
#
# Stress axis : x y z
#
# Youngs Moduli (GPa) = 40.10668 71.88192 135.79629
#
# Poissons Ratio (x) = 0.23532 0.45323
# Poissons Ratio (y) = 0.13130 0.22664
# Poissons Ratio (z) = 0.13386 0.11997
#
# Static dielectric constant tensor:
#      x y z
#    x 2.000460 0.000000 0.000000 
#    y 0.000000 1.981560 0.000000 
#    z 0.000000 0.000000 1.897910 
# 
# From -- ./inp_files/2734.got.cif
#   From: 2010.05.17/outbox.cif.g08.bks.cpg/sg33_2_cif.got.tgz:2734.got - 2010.06.03 17:15:25.
