data_PCOD9344798
_publ_section_title
;
Structure prediction by ZEFSAII (Michael W. Deem and Ramdas Pophale) SiO2 
 PCOD9344798
Probable space group: P N A 21
;
_chemical_formula_sum "Si O2"
_cell_formula_units_Z 32
_cell_length_a 5.371785
_cell_length_b 14.373939
_cell_length_c 18.164056
_cell_angle_alpha 90.000000
_cell_angle_beta 90.000000
_cell_angle_gamma 90.000000
_cell_volume 1402.514151
_symmetry_space_group_name_H-M "P N A 21"
_symmetry_group_IT_number 33
_symmetry_cell_setting 'orthorhombic'
loop_
_space_group_symop_operation_xyz
x,y,z
-x,-y,1/2+z
1/2-x,1/2+y,1/2+z
1/2+x,1/2-y,z
loop_
_atom_site_type_symbol
_atom_site_label
_atom_site_fract_x
_atom_site_fract_y
_atom_site_fract_z
Si Si1 0.314325 0.021589 0.589340
Si Si2 0.377206 0.710407 0.725730
Si Si3 0.732313 0.950131 0.335934
Si Si4 0.528486 0.627631 0.205596
Si Si5 0.590806 0.971069 0.720295
Si Si6 0.952636 0.280350 0.586144
Si Si7 0.756758 0.004062 0.921434
Si Si8 0.669367 0.288559 0.396977
O O1 0.499982 0.110695 0.582587
O O2 0.237773 0.986399 0.509868
O O3 0.097764 0.064630 0.641094
O O4 0.465445 0.953716 0.641854
O O5 0.639605 0.737105 0.691684
O O6 0.376602 0.738064 0.811397
O O7 0.308032 0.602519 0.728524
O O8 0.840021 0.875155 0.275472
O O9 0.627234 0.030811 0.281034
O O10 0.484306 0.941296 0.387499
O O11 0.977527 0.970706 0.384404
O O12 0.580088 0.725736 0.164723
O O13 0.779010 0.572503 0.227500
O O14 0.682458 0.271312 0.551524
O O15 0.729459 0.893399 0.905729
O O16 0.386867 0.279453 0.424569
#
# Coordination Sequence:
#
# PCOD9344798 Si02
#       8
#     4   4   4   4   4   4   4   4
#     4  10  25  37  63  95 134 170 210 265 333 408
#     4  10  22  34  58  89 116 148 203 258 306 368
#     4  11  23  38  64  86 124 175 219 265 302 376
#     4  10  21  40  66  92 127 178 227 268 306 386
#     4  11  21  42  65  87 124 167 218 266 323 384
#     4  10  20  37  59  92 131 168 214 259 316 387
#     4  12  24  39  57  92 132 172 212 257 329 393
#     4  10  20  33  52  79 120 164 193 234 295 374
#
# _framework density 22.816168999999999
#
# number of rings (size 3 to 8) (size 9 to 14) (size 15 to 20)
#    0.000    1.500    3.750    0.750    8.750    2.000 
#    0.000    0.000    0.000    0.000    0.000   15.750 
#    0.000    0.000    0.000    0.000    0.000    0.000 
#
# Total GULP energy -178345.005836 kJ/mol
# GULP energy per Si atom -5573.281432 kJ/mol
# Density = 2.276424 g / cm^3
# Si number density = 22.816169 Si / 1000 Ang^3
#
#
#
# Elastic Constant Matrix: (Units=GPa)
#
#
# Indices 1 2 3 4 5 6 
#
# 1 131.1036 5.8431 48.9306 0.0000 0.0000 0.0000
# 2 5.8431 26.0025 4.7142 0.0000 0.0000 0.0000
# 3 48.9306 4.7142 124.4036 0.0000 0.0000 0.0000
# 4 0.0000 0.0000 0.0000 23.9082 0.0000 0.0000
# 5 0.0000 0.0000 0.0000 0.0000 38.4788 0.0000
# 6 0.0000 0.0000 0.0000 0.0000 0.0000 33.4597
#
#
#
# Elastic Compliance Matrix: (Units=1/GPa)
#
#
# Indices 1 2 3 4 5 6 
#
# 1 0.008989 -0.001389 -0.003483 0.000000 0.000000 0.000000
# 2 -0.001389 0.038938 -0.000929 0.000000 0.000000 0.000000
# 3 -0.003483 -0.000929 0.009444 0.000000 0.000000 0.000000
# 4 0.000000 0.000000 0.000000 0.041827 0.000000 0.000000
# 5 0.000000 0.000000 0.000000 0.000000 0.025988 0.000000
# 6 0.000000 0.000000 0.000000 0.000000 0.000000 0.029887
#
#
# Mechanical properties :
#
#
# Convention : Reuss Voigt Hill
#
# Bulk Modulus (GPa) = 21.84875 44.49838 33.17357
# Shear Modulus (GPa) = 27.48285 33.97078 30.72682
#
# Velocity S-wave (km/s) = 3.47441 3.86280 3.67374
# Velocity P-wave (km/s) = 5.06874 6.28015 5.70668
#
# Compressibility (1/GPa) = 0.04576920
#
# Stress axis : x y z
#
# Youngs Moduli (GPa) = 111.24200 25.68163 105.89236
#
# Poissons Ratio (x) = 0.03566 0.36883
# Poissons Ratio (y) = 0.15447 0.09841
# Poissons Ratio (z) = 0.38747 0.02387
#
# Static dielectric constant tensor:
#      x y z
#    x 1.940050 0.000000 0.000000 
#    y 0.000000 1.881950 0.000000 
#    z 0.000000 0.000000 1.945930 
# 
# From -- ./inp_files/8376.got.cif
#   From: 2010.05.17/outbox.cif.g08.bks.cpg/sg33_5_cif.got.tgz:8376.got - 2010.06.03 17:15:25.
