data_PCOD9344088
_publ_section_title
;
Structure prediction by ZEFSAII (Michael W. Deem and Ramdas Pophale) SiO2 
 PCOD9344088
Probable space group: P B A 2
;
_chemical_formula_sum "Si O2"
_cell_formula_units_Z 32
_cell_length_a 14.987722
_cell_length_b 8.980869
_cell_length_c 10.473287
_cell_angle_alpha 90.000000
_cell_angle_beta 90.000000
_cell_angle_gamma 90.000000
_cell_volume 1409.733419
_symmetry_space_group_name_H-M "P B A 2"
_symmetry_group_IT_number 32
_symmetry_cell_setting 'orthorhombic'
loop_
_space_group_symop_operation_xyz
x,y,z
-x,-y,z
1/2-x,1/2+y,z
1/2+x,1/2-y,z
loop_
_atom_site_type_symbol
_atom_site_label
_atom_site_fract_x
_atom_site_fract_y
_atom_site_fract_z
Si Si1 0.525178 0.671772 0.122750
Si Si2 0.390134 0.074462 0.579580
Si Si3 0.136845 0.264299 0.971714
Si Si4 0.087227 0.251337 0.679722
Si Si5 0.946340 0.147196 0.406675
Si Si6 0.306520 0.521156 0.519087
Si Si7 0.612553 0.673799 0.743287
Si Si8 0.308713 0.432143 0.010727
O O1 0.500000 0.500000 0.090812
O O2 0.509901 0.691511 0.273151
O O3 0.462553 0.771661 0.032620
O O4 0.631277 0.670437 0.103259
O O5 0.436280 0.204393 0.492338
O O6 0.297548 0.043415 0.507707
O O7 0.366678 0.154567 0.714302
O O8 0.428119 0.915682 0.623264
O O9 0.134755 0.260564 0.817400
O O10 0.205496 0.390805 0.012753
O O11 0.176266 0.107927 0.023186
O O12 0.144784 0.169868 0.570413
O O13 0.994250 0.168842 0.718119
O O14 0.849869 0.066101 0.400212
O O15 0.000000 0.000000 0.457781
O O16 0.331803 0.413505 0.636918
O O17 0.645241 0.612696 0.876094
#
# Coordination Sequence:
#
# PCOD9344088 Si02
#       8
#     4   4   4   4   4   4   4   4
#     4   9  21  45  72  96 131 185 238 279 340 421
#     4  11  24  40  62 106 141 172 228 293 346 417
#     4  11  23  40  70 103 138 181 230 292 355 419
#     4  12  22  37  64 102 140 180 221 285 362 421
#     4  10  22  46  72  93 135 189 232 280 345 421
#     4  11  21  38  67 100 136 175 226 281 352 417
#     4  11  22  37  60  95 138 176 219 276 348 428
#     4  11  22  41  65  99 134 174 230 286 347 417
#
# _framework density 22.699325000000002
#
# number of rings (size 3 to 8) (size 9 to 14) (size 15 to 20)
#    0.000    1.250    2.500    5.250    1.750    0.000 
#    6.750    0.625    0.000    4.500    0.000    0.000 
#    0.000    0.000    0.000    0.000    0.000    0.000 
#
# Total GULP energy -178422.790944 kJ/mol
# GULP energy per Si atom -5575.712217 kJ/mol
# Density = 2.264766 g / cm^3
# Si number density = 22.699325 Si / 1000 Ang^3
#
#
#
# Elastic Constant Matrix: (Units=GPa)
#
#
# Indices 1 2 3 4 5 6 
#
# 1 67.7118 17.7055 9.6656 0.0000 0.0000 0.0000
# 2 17.7055 109.9316 18.6568 0.0000 0.0000 0.0000
# 3 9.6656 18.6568 54.7877 0.0000 0.0000 0.0000
# 4 0.0000 0.0000 0.0000 18.3219 0.0000 0.0000
# 5 0.0000 0.0000 0.0000 0.0000 19.2707 0.0000
# 6 0.0000 0.0000 0.0000 0.0000 0.0000 35.4674
#
#
#
# Elastic Compliance Matrix: (Units=1/GPa)
#
#
# Indices 1 2 3 4 5 6 
#
# 1 0.015625 -0.002174 -0.002016 0.000000 0.000000 0.000000
# 2 -0.002174 0.009957 -0.003007 0.000000 0.000000 0.000000
# 3 -0.002016 -0.003007 0.019632 0.000000 0.000000 0.000000
# 4 0.000000 0.000000 0.000000 0.054579 0.000000 0.000000
# 5 0.000000 0.000000 0.000000 0.000000 0.051892 0.000000
# 6 0.000000 0.000000 0.000000 0.000000 0.000000 0.028195
#
#
# Mechanical properties :
#
#
# Convention : Reuss Voigt Hill
#
# Bulk Modulus (GPa) = 32.44770 36.05409 34.25089
# Shear Modulus (GPa) = 24.44410 27.03889 25.74149
#
# Velocity S-wave (km/s) = 3.28512 3.45509 3.37117
# Velocity P-wave (km/s) = 5.35863 5.64222 5.50225
#
# Compressibility (1/GPa) = 0.03081883
#
# Stress axis : x y z
#
# Youngs Moduli (GPa) = 64.00068 100.43072 50.93735
#
# Poissons Ratio (x) = 0.21837 0.10269
# Poissons Ratio (y) = 0.13916 0.15317
# Poissons Ratio (z) = 0.12903 0.30200
#
# Static dielectric constant tensor:
#      x y z
#    x 1.993700 0.000000 0.000000 
#    y 0.000000 1.877560 0.000000 
#    z 0.000000 0.000000 1.883660 
# 
# From -- ./inp_files/3953.got.cif
#   From: 2010.05.17/outbox.cif.g08.bks.cpg/sg32_2_cif.got.tgz:3953.got - 2010.06.03 17:12:27.
