data_PCOD9344331
_publ_section_title
;
Structure prediction by ZEFSAII (Michael W. Deem and Ramdas Pophale) SiO2 
 PCOD9344331
Probable space group: P B A 2
;
_chemical_formula_sum "Si O2"
_cell_formula_units_Z 30
_cell_length_a 12.000000
_cell_length_b 21.000000
_cell_length_c 6.000000
_cell_angle_alpha 90.000000
_cell_angle_beta 90.000000
_cell_angle_gamma 90.000000
_cell_volume 1512.000000
_symmetry_space_group_name_H-M "P B A 2"
_symmetry_group_IT_number 32
_symmetry_cell_setting 'orthorhombic'
loop_
_space_group_symop_operation_xyz
x,y,z
-x,-y,z
1/2-x,1/2+y,z
1/2+x,1/2-y,z
loop_
_atom_site_type_symbol
_atom_site_label
_atom_site_fract_x
_atom_site_fract_y
_atom_site_fract_z
Si Si1 0.038813 0.827647 0.573710
Si Si2 0.048769 0.371142 0.341711
Si Si3 0.000000 0.500000 0.073628
Si Si4 0.140331 0.238494 0.247141
Si Si5 0.724762 0.569552 0.473537
Si Si6 0.156694 0.703482 0.564230
Si Si7 0.663863 0.364390 0.865885
Si Si8 0.746772 0.503021 0.965502
O O1 0.127493 0.877397 0.475093
O O2 0.104064 0.766712 0.679541
O O3 0.957878 0.794113 0.393069
O O4 0.953293 0.864403 0.734756
O O5 0.103578 0.311638 0.204829
O O6 0.153323 0.397174 0.484859
O O7 0.944925 0.338666 0.468221
O O8 0.005318 0.433570 0.212110
O O9 0.881470 0.498675 0.949193
O O10 0.257063 0.232412 0.381294
O O11 0.153443 0.194099 0.035242
O O12 0.711870 0.532961 0.718216
O O13 0.724254 0.535278 0.219174
O O14 0.233556 0.656875 0.709205
O O15 0.692117 0.432713 0.971636
#
# Coordination Sequence:
#
# PCOD9344331 Si02
#       8
#     4   4   2   4   4   4   4   4
#     4  10  24  45  67 102 140 188 239 301 357 433
#     4  10  22  43  74 102 144 189 236 304 362 433
#     4  10  24  42  72 104 140 186 236 300 362 434
#     4  10  22  44  69 102 139 185 241 295 366 425
#     4  11  26  49  71 106 145 189 247 291 368 435
#     4  10  22  42  70 103 140 178 241 300 363 430
#     4  11  26  42  72 103 142 192 241 301 367 432
#     4  11  28  45  74 105 143 195 238 303 361 441
#
# _framework density 19.841270000000002
#
# number of rings (size 3 to 8) (size 9 to 14) (size 15 to 20)
#    0.000    1.600    1.333    0.800   11.200    6.400 
#    0.000    0.000    0.000    0.000    0.000    0.000 
#    0.000    0.000    0.000    0.000    0.000    0.000 
#
# Total GULP energy -167178.593143 kJ/mol
# GULP energy per Si atom -5572.619771 kJ/mol
# Density = 1.979611 g / cm^3
# Si number density = 19.841270 Si / 1000 Ang^3
#
#
#
# Elastic Constant Matrix: (Units=GPa)
#
#
# Indices 1 2 3 4 5 6 
#
# 1 121.2624 51.2814 27.3549 0.0000 0.0000 0.0000
# 2 51.2814 152.8030 46.6023 0.0000 0.0000 0.0000
# 3 27.3549 46.6023 74.8668 0.0000 0.0000 0.0000
# 4 0.0000 0.0000 0.0000 29.9642 0.0000 0.0000
# 5 0.0000 0.0000 0.0000 0.0000 16.6821 0.0000
# 6 0.0000 0.0000 0.0000 0.0000 0.0000 40.9858
#
#
#
# Elastic Compliance Matrix: (Units=1/GPa)
#
#
# Indices 1 2 3 4 5 6 
#
# 1 0.009824 -0.002718 -0.001897 0.000000 0.000000 0.000000
# 2 -0.002718 0.008830 -0.004503 0.000000 0.000000 0.000000
# 3 -0.001897 -0.004503 0.016853 0.000000 0.000000 0.000000
# 4 0.000000 0.000000 0.000000 0.033373 0.000000 0.000000
# 5 0.000000 0.000000 0.000000 0.000000 0.059944 0.000000
# 6 0.000000 0.000000 0.000000 0.000000 0.000000 0.024399
#
#
# Mechanical properties :
#
#
# Convention : Reuss Voigt Hill
#
# Bulk Modulus (GPa) = 57.90509 66.60107 62.25308
# Shear Modulus (GPa) = 28.21373 32.43933 30.32653
#
# Velocity S-wave (km/s) = 3.77500 4.04783 3.91379
# Velocity P-wave (km/s) = 6.94610 7.44892 7.20190
#
# Compressibility (1/GPa) = 0.01726964
#
# Stress axis : x y z
#
# Youngs Moduli (GPa) = 101.78945 113.24940 59.33495
#
# Poissons Ratio (x) = 0.30785 0.11259
# Poissons Ratio (y) = 0.27670 0.26720
# Poissons Ratio (z) = 0.19314 0.50999
#
# Static dielectric constant tensor:
#      x y z
#    x 1.701900 0.000000 0.000000 
#    y 0.000000 1.697350 0.000000 
#    z 0.000000 0.000000 1.753820 
# 
# From -- ./inp_files/1040.got.cif
#   From: 2010.05.17/outbox.ucp.g08.bks.cvg/sg32_1_cif.got.tgz:1040.got - 2010.06.11 10:34:49.
