data_PCOD9344451
_publ_section_title
;
Structure prediction by ZEFSAII (Michael W. Deem and Ramdas Pophale) SiO2 
 PCOD9344451
Probable space group: P N A 21
;
_chemical_formula_sum "Si O2"
_cell_formula_units_Z 32
_cell_length_a 9.946989
_cell_length_b 20.137796
_cell_length_c 8.243787
_cell_angle_alpha 90.000000
_cell_angle_beta 90.000000
_cell_angle_gamma 90.000000
_cell_volume 1651.316562
_symmetry_space_group_name_H-M "P N A 21"
_symmetry_group_IT_number 33
_symmetry_cell_setting 'orthorhombic'
loop_
_space_group_symop_operation_xyz
x,y,z
-x,-y,1/2+z
1/2-x,1/2+y,1/2+z
1/2+x,1/2-y,z
loop_
_atom_site_type_symbol
_atom_site_label
_atom_site_fract_x
_atom_site_fract_y
_atom_site_fract_z
Si Si1 0.347675 0.017517 0.757720
Si Si2 0.280492 0.838343 0.302129
Si Si3 0.733995 0.607470 0.934922
Si Si4 0.040264 0.414624 0.009774
Si Si5 0.482758 0.824341 0.785518
Si Si6 0.973154 0.817408 0.915646
Si Si7 0.698946 0.864827 0.038219
Si Si8 0.946949 0.256078 0.745056
O O1 0.272091 0.067798 0.636061
O O2 0.268904 0.966732 0.875496
O O3 0.437902 0.972148 0.640288
O O4 0.443144 0.062033 0.868926
O O5 0.317048 0.894275 0.432527
O O6 0.149208 0.794442 0.343175
O O7 0.417493 0.793355 0.301960
O O8 0.262607 0.872244 0.123432
O O9 0.581652 0.625491 0.892209
O O10 0.830539 0.656144 0.831320
O O11 0.982987 0.352770 0.110649
O O12 0.497289 0.745691 0.800419
O O13 0.570123 0.864021 0.919683
O O14 0.002025 0.786858 0.092844
O O15 0.822048 0.842772 0.926041
O O16 0.657800 0.809511 0.170673
#
# Coordination Sequence:
#
# PCOD9344451 Si02
#       8
#     4   4   4   4   4   4   4   4
#     4  11  22  37  56  85 116 161 201 237 280 353
#     4  11  19  37  58  88 114 148 184 247 296 344
#     4  10  20  36  60  84 117 153 197 235 287 357
#     4  11  22  37  60  86 118 150 202 249 282 340
#     4  10  19  36  61  89 106 150 200 250 293 342
#     4  10  19  36  61  85 117 153 186 240 305 358
#     4  11  19  36  62  82 116 154 193 235 294 350
#     4  10  18  33  60  87 110 141 191 235 297 348
#
# _framework density 19.378478000000001
#
# number of rings (size 3 to 8) (size 9 to 14) (size 15 to 20)
#    0.000    1.500    5.000    3.750    0.000    0.000 
#    6.750    3.750    0.000    0.000    0.000    0.000 
#    0.000    0.000    0.000    0.000    0.000    0.000 
#
# Total GULP energy -178378.364812 kJ/mol
# GULP energy per Si atom -5574.323900 kJ/mol
# Density = 1.933437 g / cm^3
# Si number density = 19.378478 Si / 1000 Ang^3
#
#
#
# Elastic Constant Matrix: (Units=GPa)
#
#
# Indices 1 2 3 4 5 6 
#
# 1 60.2976 3.9359 0.2750 0.0000 0.0000 0.0000
# 2 3.9359 34.3266 28.8757 0.0000 0.0000 0.0000
# 3 0.2750 28.8757 63.9572 0.0000 0.0000 0.0000
# 4 0.0000 0.0000 0.0000 36.9497 0.0000 0.0000
# 5 0.0000 0.0000 0.0000 0.0000 11.7006 0.0000
# 6 0.0000 0.0000 0.0000 0.0000 0.0000 17.9095
#
#
#
# Elastic Compliance Matrix: (Units=1/GPa)
#
#
# Indices 1 2 3 4 5 6 
#
# 1 0.016775 -0.003003 0.001284 0.000000 0.000000 0.000000
# 2 -0.003003 0.047509 -0.021437 0.000000 0.000000 0.000000
# 3 0.001284 -0.021437 0.025308 0.000000 0.000000 0.000000
# 4 0.000000 0.000000 0.000000 0.027064 0.000000 0.000000
# 5 0.000000 0.000000 0.000000 0.000000 0.085466 0.000000
# 6 0.000000 0.000000 0.000000 0.000000 0.000000 0.055836
#
#
# Mechanical properties :
#
#
# Convention : Reuss Voigt Hill
#
# Bulk Modulus (GPa) = 23.10565 24.97273 24.03919
# Shear Modulus (GPa) = 15.68893 21.67829 18.68361
#
# Velocity S-wave (km/s) = 2.84844 3.34829 3.10843
# Velocity P-wave (km/s) = 4.77152 5.27853 5.03142
#
# Compressibility (1/GPa) = 0.04327946
#
# Stress axis : x y z
#
# Youngs Moduli (GPa) = 59.61395 21.04874 39.51284
#
# Poissons Ratio (x) = 0.06322 -0.05073
# Poissons Ratio (y) = 0.17904 0.84702
# Poissons Ratio (z) = -0.07653 0.45121
#
# Static dielectric constant tensor:
#      x y z
#    x 1.681900 0.000000 0.000000 
#    y 0.000000 1.720920 0.000000 
#    z 0.000000 0.000000 1.695210 
# 
# From -- ./inp_files/3451.got.cif
#   From: 2010.05.17/outbox.cif.g08.bks.cpg/sg33_2_cif.got.tgz:3451.got - 2010.06.03 17:15:25.
