data_PCOD9344224
_publ_section_title
;
Structure prediction by ZEFSAII (Michael W. Deem and Ramdas Pophale) SiO2 
 PCOD9344224
Probable space group: P B A 2
;
_chemical_formula_sum "Si O2"
_cell_formula_units_Z 24
_cell_length_a 9.078252
_cell_length_b 17.337870
_cell_length_c 7.616100
_cell_angle_alpha 90.000000
_cell_angle_beta 90.000000
_cell_angle_gamma 90.000000
_cell_volume 1198.755503
_symmetry_space_group_name_H-M "P B A 2"
_symmetry_group_IT_number 32
_symmetry_cell_setting 'orthorhombic'
loop_
_space_group_symop_operation_xyz
x,y,z
-x,-y,z
1/2-x,1/2+y,z
1/2+x,1/2-y,z
loop_
_atom_site_type_symbol
_atom_site_label
_atom_site_fract_x
_atom_site_fract_y
_atom_site_fract_z
Si Si1 0.556078 0.580384 0.825400
Si Si2 0.611757 0.067240 0.790523
Si Si3 0.438800 0.847332 0.132405
Si Si4 0.315797 0.260569 0.973179
Si Si5 0.978671 0.324018 0.509213
Si Si6 0.658944 0.315415 0.629299
O O1 0.500000 0.500000 0.912356
O O2 0.716460 0.559581 0.746007
O O3 0.592545 0.660972 0.928092
O O4 0.428470 0.609340 0.694320
O O5 0.546388 0.138083 0.682584
O O6 0.500000 0.000000 0.745731
O O7 0.600720 0.084325 0.998618
O O8 0.462403 0.864766 0.334781
O O9 0.581386 0.804698 0.053328
O O10 0.306138 0.786924 0.111170
O O11 0.231369 0.228329 0.800130
O O12 0.041040 0.237336 0.526401
O O13 0.803230 0.329545 0.513839
#
# Coordination Sequence:
#
# PCOD9344224 Si02
#       6
#     4   4   4   4   4   4
#     4  11  22  37  66  96 125 174 214 262 334 396
#     4  11  23  42  63  90 133 173 214 269 332 392
#     4  11  23  37  64  94 122 168 222 266 319 384
#     4  11  19  40  62  91 127 163 213 271 319 383
#     4  12  22  38  65  94 123 171 222 270 318 389
#     4  12  19  40  64  92 130 164 218 268 325 382
#
# _framework density 20.020765000000001
#
# number of rings (size 3 to 8) (size 9 to 14) (size 15 to 20)
#    0.000    0.667    8.333    2.000    0.000    0.667 
#    0.000    0.000    0.000    7.000    0.000    0.000 
#    0.000    0.000    0.000    0.000    0.000    0.000 
#
# Total GULP energy -133806.029167 kJ/mol
# GULP energy per Si atom -5575.251215 kJ/mol
# Density = 1.997520 g / cm^3
# Si number density = 20.020765 Si / 1000 Ang^3
#
#
#
# Elastic Constant Matrix: (Units=GPa)
#
#
# Indices 1 2 3 4 5 6 
#
# 1 119.1822 9.0198 4.1525 0.0000 0.0000 0.0000
# 2 9.0198 47.5953 -5.8853 0.0000 0.0000 0.0000
# 3 4.1525 -5.8853 65.0228 0.0000 0.0000 0.0000
# 4 0.0000 0.0000 0.0000 8.4187 0.0000 0.0000
# 5 0.0000 0.0000 0.0000 0.0000 27.6699 0.0000
# 6 0.0000 0.0000 0.0000 0.0000 0.0000 40.2794
#
#
#
# Elastic Compliance Matrix: (Units=1/GPa)
#
#
# Indices 1 2 3 4 5 6 
#
# 1 0.008544 -0.001706 -0.000700 0.000000 0.000000 0.000000
# 2 -0.001706 0.021589 0.002063 0.000000 0.000000 0.000000
# 3 -0.000700 0.002063 0.015611 0.000000 0.000000 0.000000
# 4 0.000000 0.000000 0.000000 0.118783 0.000000 0.000000
# 5 0.000000 0.000000 0.000000 0.000000 0.036140 0.000000
# 6 0.000000 0.000000 0.000000 0.000000 0.000000 0.024827
#
#
# Mechanical properties :
#
#
# Convention : Reuss Voigt Hill
#
# Bulk Modulus (GPa) = 22.19365 27.37491 24.78428
# Shear Modulus (GPa) = 20.72985 30.24115 25.48550
#
# Velocity S-wave (km/s) = 3.22128 3.89072 3.57172
# Velocity P-wave (km/s) = 4.99449 5.82121 5.42363
#
# Compressibility (1/GPa) = 0.04505793
#
# Stress axis : x y z
#
# Youngs Moduli (GPa) = 117.04124 46.32023 64.05879
#
# Poissons Ratio (x) = 0.07901 0.04484
# Poissons Ratio (y) = 0.19964 -0.13215
# Poissons Ratio (z) = 0.08193 -0.09556
#
# Static dielectric constant tensor:
#      x y z
#    x 1.742350 0.000000 0.000000 
#    y 0.000000 1.766340 0.000000 
#    z 0.000000 0.000000 1.705550 
# 
# From -- ./inp_files/2399.got.cif
#   From: 2010.05.17/outbox.cif.g08.bks.cpg/sg32_2_cif.got.tgz:2399.got - 2010.06.03 17:12:27.
