data_PCOD9344469
_publ_section_title
;
Structure prediction by ZEFSAII (Michael W. Deem and Ramdas Pophale) SiO2 
 PCOD9344469
Probable space group: P N A 21
;
_chemical_formula_sum "Si O2"
_cell_formula_units_Z 24
_cell_length_a 4.973192
_cell_length_b 22.462292
_cell_length_c 11.913758
_cell_angle_alpha 90.000000
_cell_angle_beta 90.000000
_cell_angle_gamma 90.000000
_cell_volume 1330.877458
_symmetry_space_group_name_H-M "P N A 21"
_symmetry_group_IT_number 33
_symmetry_cell_setting 'orthorhombic'
loop_
_space_group_symop_operation_xyz
x,y,z
-x,-y,1/2+z
1/2-x,1/2+y,1/2+z
1/2+x,1/2-y,z
loop_
_atom_site_type_symbol
_atom_site_label
_atom_site_fract_x
_atom_site_fract_y
_atom_site_fract_z
Si Si1 0.033228 0.412496 0.865170
Si Si2 0.736963 0.550395 0.600521
Si Si3 0.086558 0.711899 0.736130
Si Si4 0.768547 0.912055 0.733257
Si Si5 0.005477 0.031343 0.763483
Si Si6 0.372086 0.212018 0.967380
O O1 0.257893 0.423380 0.770030
O O2 0.962581 0.345285 0.898379
O O3 0.757482 0.445091 0.832898
O O4 0.173427 0.441194 0.974481
O O5 0.500985 0.596282 0.638015
O O6 0.611503 0.487501 0.639763
O O7 0.999148 0.562852 0.675787
O O8 0.290308 0.765442 0.762567
O O9 0.188647 0.650130 0.787992
O O10 0.097006 0.700420 0.601156
O O11 0.894617 0.966385 0.804027
O O12 0.570528 0.267212 0.943816
#
# Coordination Sequence:
#
# PCOD9344469 Si02
#       6
#     4   4   4   4   4   4
#     4  12  20  34  54  71 104 149 163 204 273 286
#     4  10  20  33  50  70 105 136 168 213 247 296
#     4  10  19  28  47  71  99 139 168 190 248 312
#     4  10  18  35  44  70 105 132 167 218 230 294
#     4  10  22  32  50  75  97 142 177 211 245 309
#     4  10  21  30  45  73 104 134 173 198 233 323
#
# _framework density 18.033214999999998
#
# number of rings (size 3 to 8) (size 9 to 14) (size 15 to 20)
#    1.000    0.667    3.333    3.000    4.667    0.000 
#    0.000    0.000    0.000    0.000    0.000    0.000 
#    0.000   26.667    0.000    0.000    0.000    0.000 
#
# Total GULP energy -133658.385283 kJ/mol
# GULP energy per Si atom -5569.099387 kJ/mol
# Density = 1.799217 g / cm^3
# Si number density = 18.033215 Si / 1000 Ang^3
#
#
#
# Elastic Constant Matrix: (Units=GPa)
#
#
# Indices 1 2 3 4 5 6 
#
# 1 106.3917 13.6842 4.4870 0.0000 0.0000 0.0000
# 2 13.6842 67.0929 16.7016 0.0000 0.0000 0.0000
# 3 4.4870 16.7016 9.6274 0.0000 0.0000 0.0000
# 4 0.0000 0.0000 0.0000 21.1659 0.0000 0.0000
# 5 0.0000 0.0000 0.0000 0.0000 16.4873 0.0000
# 6 0.0000 0.0000 0.0000 0.0000 0.0000 29.7454
#
#
#
# Elastic Compliance Matrix: (Units=1/GPa)
#
#
# Indices 1 2 3 4 5 6 
#
# 1 0.009672 -0.001497 -0.001911 0.000000 0.000000 0.000000
# 2 -0.001497 0.026465 -0.045215 0.000000 0.000000 0.000000
# 3 -0.001911 -0.045215 0.183200 0.000000 0.000000 0.000000
# 4 0.000000 0.000000 0.000000 0.047246 0.000000 0.000000
# 5 0.000000 0.000000 0.000000 0.000000 0.060653 0.000000
# 6 0.000000 0.000000 0.000000 0.000000 0.000000 0.033619
#
#
# Mechanical properties :
#
#
# Convention : Reuss Voigt Hill
#
# Bulk Modulus (GPa) = 8.19050 28.09528 18.14289
# Shear Modulus (GPa) = 10.02410 23.36234 16.69322
#
# Velocity S-wave (km/s) = 2.36024 3.60323 3.04582
# Velocity P-wave (km/s) = 3.46113 5.73800 4.73836
#
# Compressibility (1/GPa) = 0.12209271
#
# Stress axis : x y z
#
# Youngs Moduli (GPa) = 103.38724 37.78506 5.45851
#
# Poissons Ratio (x) = 0.05657 0.01043
# Poissons Ratio (y) = 0.15478 0.24681
# Poissons Ratio (z) = 0.19755 1.70844
#
# Static dielectric constant tensor:
#      x y z
#    x 1.653550 0.000000 0.000000 
#    y 0.000000 1.656490 0.000000 
#    z 0.000000 0.000000 1.626770 
# 
# From -- ./inp_files/5516.got.cif
#   From: 2010.05.17/outbox.cif.g08.bks.cpg/sg33_3_cif.got.tgz:5516.got - 2010.06.03 17:15:25.
