data_PCOD9344548
_publ_section_title
;
Structure prediction by ZEFSAII (Michael W. Deem and Ramdas Pophale) SiO2 
 PCOD9344548
Probable space group: P N A 21
;
_chemical_formula_sum "Si O2"
_cell_formula_units_Z 28
_cell_length_a 15.317941
_cell_length_b 12.997542
_cell_length_c 5.452837
_cell_angle_alpha 90.000000
_cell_angle_beta 90.000000
_cell_angle_gamma 90.000000
_cell_volume 1085.635753
_symmetry_space_group_name_H-M "P N A 21"
_symmetry_group_IT_number 33
_symmetry_cell_setting 'orthorhombic'
loop_
_space_group_symop_operation_xyz
x,y,z
-x,-y,1/2+z
1/2-x,1/2+y,1/2+z
1/2+x,1/2-y,z
loop_
_atom_site_type_symbol
_atom_site_label
_atom_site_fract_x
_atom_site_fract_y
_atom_site_fract_z
Si Si1 0.546823 0.397980 0.500000
Si Si2 0.350423 0.436108 0.508509
Si Si3 0.195346 0.923293 0.505433
Si Si4 0.427962 0.730702 0.499303
Si Si5 0.569868 0.898534 0.590689
Si Si6 0.747697 0.845762 0.433157
Si Si7 0.860914 0.453599 0.589303
O O1 0.453702 0.455232 0.501151
O O2 0.626711 0.478648 0.503587
O O3 0.547996 0.328219 0.745501
O O4 0.552666 0.330751 0.252236
O O5 0.324948 0.376222 0.265841
O O6 0.294060 0.542746 0.500440
O O7 0.328144 0.372634 0.750453
O O8 0.294281 0.959866 0.504789
O O9 0.485532 0.832922 0.520988
O O10 0.323093 0.735588 0.476286
O O11 0.660363 0.833226 0.588078
O O12 0.594141 0.970610 0.355110
O O13 0.572347 0.935749 0.870605
O O14 0.707506 0.862260 0.161887
#
# Coordination Sequence:
#
# PCOD9344548 Si02
#       7
#     4   4   4   4   4   4   4
#     4  12  20  30  41  73  95 130 152 186 227 289
#     4  11  19  28  47  63 100 122 161 181 221 285
#     4  11  16  30  45  66  89 131 154 184 221 280
#     4  12  22  31  48  67 102 124 163 187 237 278
#     4  10  19  33  45  66  89 127 156 204 222 277
#     4   9  20  32  48  67  89 131 154 194 229 275
#     4   9  16  32  46  60  90 119 164 188 237 254
#
# _framework density 25.791340000000002
#
# number of rings (size 3 to 8) (size 9 to 14) (size 15 to 20)
#    0.857    0.571    5.714    2.571    0.000    0.000 
#    0.000    0.000    0.000    0.000    0.000    0.000 
#    0.000    2.286    0.000    0.429    0.000    0.000 
#
# Total GULP energy -156397.652287 kJ/mol
# GULP energy per Si atom -5585.630439 kJ/mol
# Density = 2.573264 g / cm^3
# Si number density = 25.791340 Si / 1000 Ang^3
#
#
#
# Elastic Constant Matrix: (Units=GPa)
#
#
# Indices 1 2 3 4 5 6 
#
# 1 193.2279 36.6133 30.1405 0.0000 0.0000 0.0000
# 2 36.6133 81.1984 25.1275 0.0000 0.0000 0.0000
# 3 30.1405 25.1275 233.7069 0.0000 0.0000 0.0000
# 4 0.0000 0.0000 0.0000 38.3301 0.0000 0.0000
# 5 0.0000 0.0000 0.0000 0.0000 110.3344 0.0000
# 6 0.0000 0.0000 0.0000 0.0000 0.0000 20.7757
#
#
#
# Elastic Compliance Matrix: (Units=1/GPa)
#
#
# Indices 1 2 3 4 5 6 
#
# 1 0.005709 -0.002427 -0.000475 0.000000 0.000000 0.000000
# 2 -0.002427 0.013771 -0.001168 0.000000 0.000000 0.000000
# 3 -0.000475 -0.001168 0.004466 0.000000 0.000000 0.000000
# 4 0.000000 0.000000 0.000000 0.026089 0.000000 0.000000
# 5 0.000000 0.000000 0.000000 0.000000 0.009063 0.000000
# 6 0.000000 0.000000 0.000000 0.000000 0.000000 0.048133
#
#
# Mechanical properties :
#
#
# Convention : Reuss Voigt Hill
#
# Bulk Modulus (GPa) = 63.26769 76.87732 70.07250
# Shear Modulus (GPa) = 41.44520 61.63816 51.54168
#
# Velocity S-wave (km/s) = 4.01302 4.89394 4.47521
# Velocity P-wave (km/s) = 6.78648 7.86170 7.34379
#
# Compressibility (1/GPa) = 0.01580586
#
# Stress axis : x y z
#
# Youngs Moduli (GPa) = 175.15247 72.61454 223.92874
#
# Poissons Ratio (x) = 0.17626 0.10644
# Poissons Ratio (y) = 0.42515 0.26146
# Poissons Ratio (z) = 0.08326 0.08479
#
# Static dielectric constant tensor:
#      x y z
#    x 2.014080 0.000000 0.000000 
#    y 0.000000 2.102450 0.000000 
#    z 0.000000 0.000000 2.088320 
# 
# From -- ./inp_files/1872.got.cif
#   From: 2010.05.17/outbox.cif.g08.bks.cpg/sg33_1_cif.got.tgz:1872.got - 2010.06.03 17:15:25.
