data_PCOD9344126
_publ_section_title
;
Structure prediction by ZEFSAII (Michael W. Deem and Ramdas Pophale) SiO2 
 PCOD9344126
Probable space group: P B A 2
;
_chemical_formula_sum "Si O2"
_cell_formula_units_Z 24
_cell_length_a 14.273152
_cell_length_b 8.368295
_cell_length_c 9.097661
_cell_angle_alpha 90.000000
_cell_angle_beta 90.000000
_cell_angle_gamma 90.000000
_cell_volume 1086.642339
_symmetry_space_group_name_H-M "P B A 2"
_symmetry_group_IT_number 32
_symmetry_cell_setting 'orthorhombic'
loop_
_space_group_symop_operation_xyz
x,y,z
-x,-y,z
1/2-x,1/2+y,z
1/2+x,1/2-y,z
loop_
_atom_site_type_symbol
_atom_site_label
_atom_site_fract_x
_atom_site_fract_y
_atom_site_fract_z
Si Si1 0.000000 0.000000 0.969010
Si Si2 0.350443 0.797416 0.397905
Si Si3 0.854674 0.671494 0.729185
Si Si4 0.643688 0.555722 0.735610
Si Si5 0.000315 0.262757 0.178863
Si Si6 0.500000 0.000000 0.943175
Si Si7 0.138694 0.911325 0.403907
O O1 0.071279 0.906473 0.863851
O O2 0.951509 0.874320 0.077898
O O3 0.376953 0.864935 0.558313
O O4 0.421303 0.853218 0.273100
O O5 0.243150 0.847033 0.375823
O O6 0.359586 0.604053 0.394303
O O7 0.748606 0.615918 0.759670
O O8 0.925055 0.587412 0.840280
O O9 0.856837 0.863181 0.736127
O O10 0.612717 0.620040 0.575367
O O11 0.930910 0.175584 0.292191
O O12 0.953712 0.375662 0.057658
#
# Coordination Sequence:
#
# PCOD9344126 Si02
#       7
#     2   4   4   4   4   2   4
#     4  12  24  42  66 102 136 180 222 276 348 404
#     4  10  23  45  69  97 130 178 231 277 333 401
#     4  10  24  46  68  98 134 179 232 280 330 405
#     4  10  24  43  71  97 131 182 231 279 335 399
#     4  12  26  43  66 102 141 178 220 278 346 404
#     4  12  28  44  64 106 144 178 224 278 348 400
#     4  10  23  44  69  96 132 178 231 279 332 402
#
# _framework density 22.086383999999999
#
# number of rings (size 3 to 8) (size 9 to 14) (size 15 to 20)
#    0.000    1.333    3.333    0.000    9.333    3.333 
#    6.000    0.000    0.000    0.000    0.000    0.000 
#    0.000    0.000    0.000    0.000    0.000    0.000 
#
# Total GULP energy -134144.800816 kJ/mol
# GULP energy per Si atom -5589.366701 kJ/mol
# Density = 2.203611 g / cm^3
# Si number density = 22.086384 Si / 1000 Ang^3
#
#
#
# Elastic Constant Matrix: (Units=GPa)
#
#
# Indices 1 2 3 4 5 6 
#
# 1 103.3276 36.9447 107.5923 0.0000 0.0000 0.0000
# 2 36.9447 56.6966 57.8985 0.0000 0.0000 0.0000
# 3 107.5923 57.8985 185.1714 0.0000 0.0000 0.0000
# 4 0.0000 0.0000 0.0000 39.7196 0.0000 0.0000
# 5 0.0000 0.0000 0.0000 0.0000 2996.8944 0.0000
# 6 0.0000 0.0000 0.0000 0.0000 0.0000 36.2361
#
#
#
# Elastic Compliance Matrix: (Units=1/GPa)
#
#
# Indices 1 2 3 4 5 6 
#
# 1 0.024674 -0.002112 -0.013676 0.000000 0.000000 0.000000
# 2 -0.002112 0.026092 -0.006931 0.000000 0.000000 0.000000
# 3 -0.013676 -0.006931 0.015514 0.000000 0.000000 0.000000
# 4 0.000000 0.000000 0.000000 0.025176 0.000000 0.000000
# 5 0.000000 0.000000 0.000000 0.000000 0.000334 0.000000
# 6 0.000000 0.000000 0.000000 0.000000 0.000000 0.027597
#
#
# Mechanical properties :
#
#
# Convention : Reuss Voigt Hill
#
# Bulk Modulus (GPa) = 47.98168 83.34073 65.66120
# Shear Modulus (GPa) = 29.10836 624.08736 326.59786
#
# Velocity S-wave (km/s) = 3.63427 16.82795 12.17349
# Velocity P-wave (km/s) = 6.27553 20.38110 15.07932
#
# Compressibility (1/GPa) = 0.02084129
#
# Stress axis : x y z
#
# Youngs Moduli (GPa) = 40.52926 38.32586 64.45794
#
# Poissons Ratio (x) = 0.08094 0.88153
# Poissons Ratio (y) = 0.08559 0.44678
# Poissons Ratio (z) = 0.55428 0.26565
#
# Static dielectric constant tensor:
#      x y z
#    x 1.762500 0.000000 0.000000 
#    y 0.000000 1.885160 0.000000 
#    z 0.000000 0.000000 1.825430 
# 
# From -- ./inp_files/2347.got.cif
#   From: 2010.05.17/outbox.cif.g08.bks.cpg/sg32_2_cif.got.tgz:2347.got - 2010.06.03 17:12:27.
