data_PCOD9344164
_publ_section_title
;
Structure prediction by ZEFSAII (Michael W. Deem and Ramdas Pophale) SiO2 
 PCOD9344164
Probable space group: P B A 2
;
_chemical_formula_sum "Si O2"
_cell_formula_units_Z 20
_cell_length_a 9.029953
_cell_length_b 18.157456
_cell_length_c 5.181138
_cell_angle_alpha 90.000000
_cell_angle_beta 90.000000
_cell_angle_gamma 90.000000
_cell_volume 849.504434
_symmetry_space_group_name_H-M "P B A 2"
_symmetry_group_IT_number 32
_symmetry_cell_setting 'orthorhombic'
loop_
_space_group_symop_operation_xyz
x,y,z
-x,-y,z
1/2-x,1/2+y,z
1/2+x,1/2-y,z
loop_
_atom_site_type_symbol
_atom_site_label
_atom_site_fract_x
_atom_site_fract_y
_atom_site_fract_z
Si Si1 0.942410 0.577600 0.925660
Si Si2 0.577765 0.421123 0.444182
Si Si3 0.384831 0.293740 0.618956
Si Si4 0.411949 0.128732 0.416477
Si Si5 0.838237 0.137814 0.116144
O O1 0.769447 0.580379 0.983385
O O2 0.000000 0.500000 0.014305
O O3 0.985630 0.590022 0.631340
O O4 0.021899 0.631730 0.128522
O O5 0.500000 0.500000 0.516246
O O6 0.524771 0.350230 0.614459
O O7 0.754010 0.414352 0.423117
O O8 0.496384 0.398308 0.176242
O O9 0.402538 0.212123 0.518940
O O10 0.332977 0.296260 0.911734
O O11 0.286695 0.333774 0.397256
#
# Coordination Sequence:
#
# PCOD9344164 Si02
#       5
#     4   4   4   4   4
#     4  12  27  45  73 103 147 186 239 291 370 434
#     4  10  26  45  74 103 147 187 244 295 361 428
#     4  10  25  43  72 100 140 181 241 294 354 417
#     4  12  27  44  74 105 141 189 244 293 363 431
#     4  10  24  43  71  93 145 179 238 286 366 410
#
# _framework density 23.543134999999999
#
# number of rings (size 3 to 8) (size 9 to 14) (size 15 to 20)
#    1.200    0.000    0.000    4.200   11.200    0.800 
#    0.000    0.000    0.000    0.000    0.000    0.000 
#    0.000    0.000    0.000    0.000    0.000    0.000 
#
# Total GULP energy -111482.160829 kJ/mol
# GULP energy per Si atom -5574.108041 kJ/mol
# Density = 2.348955 g / cm^3
# Si number density = 23.543135 Si / 1000 Ang^3
#
#
#
# Elastic Constant Matrix: (Units=GPa)
#
#
# Indices 1 2 3 4 5 6 
#
# 1 59.3289 -16.2438 48.6361 0.0000 0.0000 0.0000
# 2 -16.2438 73.7968 6.3001 0.0000 0.0000 0.0000
# 3 48.6361 6.3001 105.3907 0.0000 0.0000 0.0000
# 4 0.0000 0.0000 0.0000 26.6633 0.0000 0.0000
# 5 0.0000 0.0000 0.0000 0.0000 34.7900 0.0000
# 6 0.0000 0.0000 0.0000 0.0000 0.0000 9.0574
#
#
#
# Elastic Compliance Matrix: (Units=1/GPa)
#
#
# Indices 1 2 3 4 5 6 
#
# 1 0.031359 0.008180 -0.014961 0.000000 0.000000 0.000000
# 2 0.008180 0.015754 -0.004717 0.000000 0.000000 0.000000
# 3 -0.014961 -0.004717 0.016675 0.000000 0.000000 0.000000
# 4 0.000000 0.000000 0.000000 0.037505 0.000000 0.000000
# 5 0.000000 0.000000 0.000000 0.000000 0.028744 0.000000
# 6 0.000000 0.000000 0.000000 0.000000 0.000000 0.110407
#
#
# Mechanical properties :
#
#
# Convention : Reuss Voigt Hill
#
# Bulk Modulus (GPa) = 24.51421 35.10015 29.80718
# Shear Modulus (GPa) = 18.04819 27.42374 22.73596
#
# Velocity S-wave (km/s) = 2.77176 3.41666 3.11097
# Velocity P-wave (km/s) = 4.54737 5.52322 5.05888
#
# Compressibility (1/GPa) = 0.04079267
#
# Stress axis : x y z
#
# Youngs Moduli (GPa) = 31.88855 63.47636 59.97141
#
# Poissons Ratio (x) = -0.51923 0.89722
# Poissons Ratio (y) = -0.26084 0.28286
# Poissons Ratio (z) = 0.47708 0.29939
#
# Static dielectric constant tensor:
#      x y z
#    x 1.901780 0.000000 0.000000 
#    y 0.000000 1.968450 0.000000 
#    z 0.000000 0.000000 1.902250 
# 
# From -- ./inp_files/410.got.cif
#   From: 2010.05.17/outbox.cif.g08.bks.cpg/sg32_1_cif.got.tgz:410.got - 2010.06.03 17:12:27.
