data_PCOD9344983
_publ_section_title
;
Structure prediction by ZEFSAII (Michael W. Deem and Ramdas Pophale) SiO2 
 PCOD9344983
Probable space group: P N A 21
;
_chemical_formula_sum "Si O2"
_cell_formula_units_Z 32
_cell_length_a 14.877965
_cell_length_b 11.907925
_cell_length_c 9.126775
_cell_angle_alpha 90.000000
_cell_angle_beta 90.000000
_cell_angle_gamma 90.000000
_cell_volume 1616.951403
_symmetry_space_group_name_H-M "P N A 21"
_symmetry_group_IT_number 33
_symmetry_cell_setting 'orthorhombic'
loop_
_space_group_symop_operation_xyz
x,y,z
-x,-y,1/2+z
1/2-x,1/2+y,1/2+z
1/2+x,1/2-y,z
loop_
_atom_site_type_symbol
_atom_site_label
_atom_site_fract_x
_atom_site_fract_y
_atom_site_fract_z
Si Si1 0.917209 0.163425 0.146690
Si Si2 0.851328 0.073705 0.435712
Si Si3 0.848349 0.582956 0.988435
Si Si4 0.613152 0.283690 0.266140
Si Si5 0.669667 0.309859 0.946067
Si Si6 0.447018 0.586465 0.030032
Si Si7 0.634784 0.826781 0.385432
Si Si8 0.451984 0.794902 0.233376
O O1 0.849839 0.138916 0.280901
O O2 0.011237 0.210069 0.207533
O O3 0.933946 0.040566 0.078200
O O4 0.886663 0.248439 0.023595
O O5 0.758453 0.095559 0.519684
O O6 0.946858 0.106136 0.502899
O O7 0.858374 0.938983 0.419309
O O8 0.909639 0.611127 0.128545
O O9 0.870720 0.671504 0.859500
O O10 0.864687 0.457116 0.932321
O O11 0.611797 0.384256 0.386249
O O12 0.675299 0.297775 0.123033
O O13 0.761733 0.295618 0.855573
O O14 0.598040 0.219720 0.888157
O O15 0.426444 0.678838 0.152109
O O16 0.557706 0.807924 0.264752
#
# Coordination Sequence:
#
# PCOD9344983 Si02
#       8
#     4   4   4   4   4   4   4   4
#     4  11  20  38  65  94 123 160 208 266 321 367
#     4  10  20  38  64  90 127 153 211 263 309 381
#     4  10  25  42  59  87 129 172 209 251 308 385
#     4  10  21  39  63  85 129 162 201 260 316 377
#     4  11  21  40  64  96 123 162 206 259 314 369
#     4  10  21  37  66  96 118 159 203 265 333 356
#     4  11  25  38  66  90 125 168 212 249 315 376
#     4  11  23  42  63  90 128 160 208 261 308 377
#
# _framework density 19.790329
#
# number of rings (size 3 to 8) (size 9 to 14) (size 15 to 20)
#    0.000    1.500    3.750    0.750    5.250    0.000 
#    2.250    0.000    0.000    0.000    0.000    0.000 
#    0.000    0.000    0.000    0.000    0.000    0.000 
#
# Total GULP energy -178446.092211 kJ/mol
# GULP energy per Si atom -5576.440382 kJ/mol
# Density = 1.974529 g / cm^3
# Si number density = 19.790329 Si / 1000 Ang^3
#
#
#
# Elastic Constant Matrix: (Units=GPa)
#
#
# Indices 1 2 3 4 5 6 
#
# 1 71.2012 9.9765 25.5719 0.0000 0.0000 0.0000
# 2 9.9765 64.1121 4.1446 0.0000 0.0000 0.0000
# 3 25.5719 4.1446 64.5181 0.0000 0.0000 0.0000
# 4 0.0000 0.0000 0.0000 22.6583 0.0000 0.0000
# 5 0.0000 0.0000 0.0000 0.0000 36.3954 0.0000
# 6 0.0000 0.0000 0.0000 0.0000 0.0000 17.5856
#
#
#
# Elastic Compliance Matrix: (Units=1/GPa)
#
#
# Indices 1 2 3 4 5 6 
#
# 1 0.016673 -0.002176 -0.006468 0.000000 0.000000 0.000000
# 2 -0.002176 0.015947 -0.000162 0.000000 0.000000 0.000000
# 3 -0.006468 -0.000162 0.018074 0.000000 0.000000 0.000000
# 4 0.000000 0.000000 0.000000 0.044134 0.000000 0.000000
# 5 0.000000 0.000000 0.000000 0.000000 0.027476 0.000000
# 6 0.000000 0.000000 0.000000 0.000000 0.000000 0.056865
#
#
# Mechanical properties :
#
#
# Convention : Reuss Voigt Hill
#
# Bulk Modulus (GPa) = 30.22969 31.02417 30.62693
# Shear Modulus (GPa) = 24.06068 26.00375 25.03221
#
# Velocity S-wave (km/s) = 3.49059 3.62879 3.56036
# Velocity P-wave (km/s) = 5.61727 5.76784 5.69305
#
# Compressibility (1/GPa) = 0.03308006
#
# Stress axis : x y z
#
# Youngs Moduli (GPa) = 59.97796 62.70851 55.32895
#
# Poissons Ratio (x) = 0.13647 0.35789
# Poissons Ratio (y) = 0.13053 0.00895
# Poissons Ratio (z) = 0.38797 0.01015
#
# Static dielectric constant tensor:
#      x y z
#    x 1.715870 0.000000 0.000000 
#    y 0.000000 1.653860 0.000000 
#    z 0.000000 0.000000 1.736780 
# 
# From -- ./inp_files/4412.got.cif
#   From: 2010.05.17/outbox.cif.g08.bks.cpg/sg33_3_cif.got.tgz:4412.got - 2010.06.03 17:15:25.
