data_PCOD9344381
_publ_section_title
;
Structure prediction by ZEFSAII (Michael W. Deem and Ramdas Pophale) SiO2 
 PCOD9344381
Probable space group: P N A 21
;
_chemical_formula_sum "Si O2"
_cell_formula_units_Z 24
_cell_length_a 5.600700
_cell_length_b 16.077967
_cell_length_c 10.458212
_cell_angle_alpha 90.000000
_cell_angle_beta 90.000000
_cell_angle_gamma 90.000000
_cell_volume 941.739712
_symmetry_space_group_name_H-M "P N A 21"
_symmetry_group_IT_number 33
_symmetry_cell_setting 'orthorhombic'
loop_
_space_group_symop_operation_xyz
x,y,z
-x,-y,1/2+z
1/2-x,1/2+y,1/2+z
1/2+x,1/2-y,z
loop_
_atom_site_type_symbol
_atom_site_label
_atom_site_fract_x
_atom_site_fract_y
_atom_site_fract_z
Si Si1 0.543836 0.557363 0.980450
Si Si2 0.716163 0.916137 0.372988
Si Si3 0.787226 0.101678 0.951825
Si Si4 0.595781 0.787882 0.826416
Si Si5 0.443825 0.274220 0.618184
Si Si6 0.803733 0.578915 0.736448
O O1 0.624986 0.603288 0.851449
O O2 0.745541 0.484498 0.990091
O O3 0.318017 0.499727 0.949403
O O4 0.540768 0.628091 0.084656
O O5 0.465654 0.873177 0.394158
O O6 0.968684 0.868949 0.384044
O O7 0.700438 0.978417 0.251313
O O8 0.781111 0.114562 0.102880
O O9 0.848762 0.754486 0.780408
O O10 0.553780 0.881152 0.776454
O O11 0.580816 0.777379 0.981632
O O12 0.690787 0.246114 0.680140
#
# Coordination Sequence:
#
# PCOD9344381 Si02
#       6
#     4   4   4   4   4   4
#     4   8  19  29  45  62  99 117 156 178 229 270
#     4   8  19  29  43  63  88 123 158 180 228 266
#     4   9  19  30  43  66  88 130 157 182 224 274
#     4  10  18  26  42  68  87 123 145 170 235 287
#     4  10  17  26  42  65  88 122 142 176 228 284
#     4   9  18  32  47  64 100 127 148 196 222 273
#
# _framework density 25.484750999999999
#
# number of rings (size 3 to 8) (size 9 to 14) (size 15 to 20)
#    2.000    0.667    3.333    0.000    7.000    4.000 
#    0.000    0.000    0.000    0.000    0.000    0.000 
#    0.000   18.667    0.000    0.000    0.000    0.000 
#
# Total GULP energy -133646.445766 kJ/mol
# GULP energy per Si atom -5568.601907 kJ/mol
# Density = 2.542675 g / cm^3
# Si number density = 25.484751 Si / 1000 Ang^3
#
#
#
# Elastic Constant Matrix: (Units=GPa)
#
#
# Indices 1 2 3 4 5 6 
#
# 1 218.5253 28.1291 43.2647 0.0000 0.0000 0.0000
# 2 28.1291 40.9746 25.2646 0.0000 0.0000 0.0000
# 3 43.2647 25.2646 77.9588 0.0000 0.0000 0.0000
# 4 0.0000 0.0000 0.0000 22.7402 0.0000 0.0000
# 5 0.0000 0.0000 0.0000 0.0000 14.5879 0.0000
# 6 0.0000 0.0000 0.0000 0.0000 0.0000 -6.5373
#
#
#
# Elastic Compliance Matrix: (Units=1/GPa)
#
#
# Indices 1 2 3 4 5 6 
#
# 1 0.005307 -0.002283 -0.002205 0.000000 0.000000 0.000000
# 2 -0.002283 0.031483 -0.008936 0.000000 0.000000 0.000000
# 3 -0.002205 -0.008936 0.016947 0.000000 0.000000 0.000000
# 4 0.000000 0.000000 0.000000 0.043975 0.000000 0.000000
# 5 0.000000 0.000000 0.000000 0.000000 0.068550 0.000000
# 6 0.000000 0.000000 0.000000 0.000000 0.000000 -0.152967
#
#
# Mechanical properties :
#
#
# Convention : Reuss Voigt Hill
#
# Bulk Modulus (GPa) = 37.19123 58.97504 48.08314
# Shear Modulus (GPa) = 101.82471 22.21150 62.01811
#
# Velocity S-wave (km/s) = 6.32787 2.95542 4.93844
# Velocity P-wave (km/s) = 8.24708 5.90234 7.17119
#
# Compressibility (1/GPa) = 0.02688806
#
# Stress axis : x y z
#
# Youngs Moduli (GPa) = 188.44412 31.76366 59.00824
#
# Poissons Ratio (x) = 0.07253 0.13011
# Poissons Ratio (y) = 0.43030 0.52727
# Poissons Ratio (z) = 0.41552 0.28382
#
# Static dielectric constant tensor:
#      x y z
#    x 2.032820 0.000000 0.000000 
#    y 0.000000 2.139650 0.000000 
#    z 0.000000 0.000000 2.039990 
# 
# From -- ./inp_files/5503.got.cif
#   From: 2010.05.17/outbox.cif.g08.bks.cpg/sg33_3_cif.got.tgz:5503.got - 2010.06.03 17:15:25.
