data_PCOD9344526
_publ_section_title
;
Structure prediction by ZEFSAII (Michael W. Deem and Ramdas Pophale) SiO2 
 PCOD9344526
Probable space group: P N A 21
;
_chemical_formula_sum "Si O2"
_cell_formula_units_Z 24
_cell_length_a 5.615654
_cell_length_b 14.962550
_cell_length_c 10.570184
_cell_angle_alpha 90.000000
_cell_angle_beta 90.000000
_cell_angle_gamma 90.000000
_cell_volume 888.154465
_symmetry_space_group_name_H-M "P N A 21"
_symmetry_group_IT_number 33
_symmetry_cell_setting 'orthorhombic'
loop_
_space_group_symop_operation_xyz
x,y,z
-x,-y,1/2+z
1/2-x,1/2+y,1/2+z
1/2+x,1/2-y,z
loop_
_atom_site_type_symbol
_atom_site_label
_atom_site_fract_x
_atom_site_fract_y
_atom_site_fract_z
Si Si1 0.622944 0.043733 0.245860
Si Si2 0.635133 0.367221 0.522520
Si Si3 0.378985 0.476706 0.814463
Si Si4 0.639075 0.159492 0.504883
Si Si5 0.967019 0.292451 0.095478
Si Si6 0.421731 0.274034 0.816193
O O1 0.391142 0.983313 0.266227
O O2 0.640374 0.105894 0.372335
O O3 0.546760 0.109111 0.133302
O O4 0.885311 0.001277 0.230824
O O5 0.619216 0.447206 0.422488
O O6 0.634939 0.264640 0.469233
O O7 0.900320 0.371343 0.574401
O O8 0.374506 0.366246 0.584015
O O9 0.420948 0.376403 0.860531
O O10 0.197428 0.232878 0.140986
O O11 0.943231 0.283267 0.944863
O O12 0.174617 0.245554 0.750573
#
# Coordination Sequence:
#
# PCOD9344526 Si02
#       6
#     4   4   4   4   4   4
#     4  10  19  28  48  77 106 143 179 240 281 334
#     4   8  14  22  34  58  86 127 154 200 252 322
#     4  10  19  31  48  72 102 145 190 231 275 334
#     4   8  14  21  34  57  94 124 151 189 282 303
#     4  10  21  32  51  77 112 159 184 219 288 366
#     4  10  21  38  53  71 106 166 190 219 282 375
#
# _framework density 27.022326
#
# number of rings (size 3 to 8) (size 9 to 14) (size 15 to 20)
#    0.000    2.667    0.000    2.000    9.333    0.000 
#    0.000    0.000    0.000    0.000    0.000    0.000 
#    0.000    0.000  906.667    0.000    0.000    0.000 
#
# Total GULP energy -134230.859694 kJ/mol
# GULP energy per Si atom -5592.952487 kJ/mol
# Density = 2.696082 g / cm^3
# Si number density = 27.022326 Si / 1000 Ang^3
#
#
#
# Elastic Constant Matrix: (Units=GPa)
#
#
# Indices 1 2 3 4 5 6 
#
# 1 303.9473 82.1003 40.5422 0.0000 0.0000 0.0000
# 2 82.1003 129.3438 44.9309 0.0000 0.0000 0.0000
# 3 40.5422 44.9309 75.2990 0.0000 0.0000 0.0000
# 4 0.0000 0.0000 0.0000 42.4202 0.0000 0.0000
# 5 0.0000 0.0000 0.0000 0.0000 38.8057 0.0000
# 6 0.0000 0.0000 0.0000 0.0000 0.0000 63.9548
#
#
#
# Elastic Compliance Matrix: (Units=1/GPa)
#
#
# Indices 1 2 3 4 5 6 
#
# 1 0.004009 -0.002264 -0.000808 0.000000 0.000000 0.000000
# 2 -0.002264 0.011032 -0.005363 0.000000 0.000000 0.000000
# 3 -0.000808 -0.005363 0.016916 0.000000 0.000000 0.000000
# 4 0.000000 0.000000 0.000000 0.023574 0.000000 0.000000
# 5 0.000000 0.000000 0.000000 0.000000 0.025769 0.000000
# 6 0.000000 0.000000 0.000000 0.000000 0.000000 0.015636
#
#
# Mechanical properties :
#
#
# Convention : Reuss Voigt Hill
#
# Bulk Modulus (GPa) = 66.28712 93.74855 80.01784
# Shear Modulus (GPa) = 42.07498 51.77058 46.92278
#
# Velocity S-wave (km/s) = 3.95022 4.38178 4.17159
# Velocity P-wave (km/s) = 6.73717 7.76971 7.27179
#
# Compressibility (1/GPa) = 0.01508589
#
# Stress axis : x y z
#
# Youngs Moduli (GPa) = 249.41309 90.64694 59.11715
#
# Poissons Ratio (x) = 0.20526 0.04774
# Poissons Ratio (y) = 0.56478 0.31707
# Poissons Ratio (z) = 0.20141 0.48618
#
# Static dielectric constant tensor:
#      x y z
#    x 2.191950 0.000000 0.000000 
#    y 0.000000 2.060310 0.000000 
#    z 0.000000 0.000000 2.121180 
# 
# From -- ./inp_files/7381.got.cif
#   From: 2010.05.17/outbox.cif.g08.bks.cpg/sg33_4_cif.got.tgz:7381.got - 2010.06.03 17:15:25.
