data_PCOD9344351
_publ_section_title
;
Structure prediction by ZEFSAII (Michael W. Deem and Ramdas Pophale) SiO2 
 PCOD9344351
Probable space group: P N A 21
;
_chemical_formula_sum "Si O2"
_cell_formula_units_Z 20
_cell_length_a 20.195637
_cell_length_b 6.587504
_cell_length_c 5.357835
_cell_angle_alpha 90.000000
_cell_angle_beta 90.000000
_cell_angle_gamma 90.000000
_cell_volume 712.800151
_symmetry_space_group_name_H-M "P N A 21"
_symmetry_group_IT_number 33
_symmetry_cell_setting 'orthorhombic'
loop_
_space_group_symop_operation_xyz
x,y,z
-x,-y,1/2+z
1/2-x,1/2+y,1/2+z
1/2+x,1/2-y,z
loop_
_atom_site_type_symbol
_atom_site_label
_atom_site_fract_x
_atom_site_fract_y
_atom_site_fract_z
Si Si1 0.595589 0.527059 0.405950
Si Si2 0.869618 0.913723 0.394944
Si Si3 0.466313 0.064006 0.102463
Si Si4 0.224977 0.701542 0.382651
Si Si5 0.168826 0.604087 0.875018
O O1 0.586714 0.393647 0.650339
O O2 0.550396 0.721312 0.462768
O O3 0.671702 0.616058 0.404160
O O4 0.591513 0.401707 0.152543
O O5 0.803955 0.779119 0.358525
O O6 0.847720 0.152109 0.398584
O O7 0.513746 0.059578 0.349842
O O8 0.398484 0.018208 0.257976
O O9 0.220215 0.591679 0.649123
O O10 0.197285 0.566848 0.152206
#
# Coordination Sequence:
#
# PCOD9344351 Si02
#       5
#     4   4   4   4   4
#     4   9  18  26  36  62  78  98 142 154 177 252
#     4   9  15  26  39  51  78 109 125 158 194 217
#     4  10  16  26  40  52  78 112 128 160 200 222
#     4   9  15  26  39  51  78 109 125 158 194 217
#     4   9  18  26  36  62  78  98 142 154 177 252
#
# _framework density 28.058354000000001
#
# number of rings (size 3 to 8) (size 9 to 14) (size 15 to 20)
#    0.000    3.200    0.000    6.000    0.000    0.000 
#    0.000    0.000    0.000    0.000    0.000    0.000 
#    0.000    0.000    0.000 2592.000    0.000    3.200 
#
# Total GULP energy -111613.815540 kJ/mol
# GULP energy per Si atom -5580.690777 kJ/mol
# Density = 2.799449 g / cm^3
# Si number density = 28.058354 Si / 1000 Ang^3
#
#
#
# Elastic Constant Matrix: (Units=GPa)
#
#
# Indices 1 2 3 4 5 6 
#
# 1 139.4577 45.4438 61.5473 0.0000 0.0000 0.0000
# 2 45.4438 73.3309 37.9752 0.0000 0.0000 0.0000
# 3 61.5473 37.9752 293.4547 0.0000 0.0000 0.0000
# 4 0.0000 0.0000 0.0000 30.4157 0.0000 0.0000
# 5 0.0000 0.0000 0.0000 0.0000 57.9832 0.0000
# 6 0.0000 0.0000 0.0000 0.0000 0.0000 26.5424
#
#
#
# Elastic Compliance Matrix: (Units=1/GPa)
#
#
# Indices 1 2 3 4 5 6 
#
# 1 0.009432 -0.005167 -0.001310 0.000000 0.000000 0.000000
# 2 -0.005167 0.017447 -0.001174 0.000000 0.000000 0.000000
# 3 -0.001310 -0.001174 0.003834 0.000000 0.000000 0.000000
# 4 0.000000 0.000000 0.000000 0.032878 0.000000 0.000000
# 5 0.000000 0.000000 0.000000 0.000000 0.017246 0.000000
# 6 0.000000 0.000000 0.000000 0.000000 0.000000 0.037676
#
#
# Mechanical properties :
#
#
# Convention : Reuss Voigt Hill
#
# Bulk Modulus (GPa) = 64.88449 88.46398 76.67424
# Shear Modulus (GPa) = 35.98360 47.07340 41.52850
#
# Velocity S-wave (km/s) = 3.58502 4.10041 3.85135
# Velocity P-wave (km/s) = 6.34914 7.34948 6.86755
#
# Compressibility (1/GPa) = 0.01541200
#
# Stress axis : x y z
#
# Youngs Moduli (GPa) = 106.01777 57.31667 260.80502
#
# Poissons Ratio (x) = 0.29616 0.34156
# Poissons Ratio (y) = 0.54781 0.30620
# Poissons Ratio (z) = 0.13884 0.06729
#
# Static dielectric constant tensor:
#      x y z
#    x 2.163510 0.000000 0.000000 
#    y 0.000000 2.459310 0.000000 
#    z 0.000000 0.000000 2.201500 
# 
# From -- ./inp_files/1944.got.cif
#   From: 2010.05.17/outbox.cif.g08.bks.cpg/sg33_1_cif.got.tgz:1944.got - 2010.06.03 17:15:25.
