data_PCOD9344393
_publ_section_title
;
Structure prediction by ZEFSAII (Michael W. Deem and Ramdas Pophale) SiO2 
 PCOD9344393
Probable space group: P N A 21
;
_chemical_formula_sum "Si O2"
_cell_formula_units_Z 28
_cell_length_a 9.367362
_cell_length_b 9.359849
_cell_length_c 12.693414
_cell_angle_alpha 90.000000
_cell_angle_beta 90.000000
_cell_angle_gamma 90.000000
_cell_volume 1112.921651
_symmetry_space_group_name_H-M "P N A 21"
_symmetry_group_IT_number 33
_symmetry_cell_setting 'orthorhombic'
loop_
_space_group_symop_operation_xyz
x,y,z
-x,-y,1/2+z
1/2-x,1/2+y,1/2+z
1/2+x,1/2-y,z
loop_
_atom_site_type_symbol
_atom_site_label
_atom_site_fract_x
_atom_site_fract_y
_atom_site_fract_z
Si Si1 0.004554 0.111536 0.498650
Si Si2 0.153361 0.915627 0.200259
Si Si3 0.063705 0.179364 0.875557
Si Si4 0.166231 0.682256 0.483453
Si Si5 0.975393 0.178125 0.267573
Si Si6 0.241820 0.965339 0.622214
Si Si7 0.564436 0.986825 0.665038
O O1 0.888050 0.143881 0.586352
O O2 0.003464 0.200018 0.391452
O O3 0.970791 0.956365 0.450332
O O4 0.150182 0.086760 0.562900
O O5 0.038553 0.842015 0.277018
O O6 0.322710 0.911714 0.225324
O O7 0.103731 0.083820 0.216117
O O8 0.232448 0.178546 0.882152
O O9 0.994403 0.306015 0.941999
O O10 0.220558 0.820710 0.550777
O O11 0.156260 0.547972 0.560077
O O12 0.836986 0.084247 0.231185
O O13 0.954801 0.333200 0.219765
O O14 0.401132 0.021723 0.640225
#
# Coordination Sequence:
#
# PCOD9344393 Si02
#       7
#     4   4   4   4   4   4   4
#     4   9  18  35  53  80 115 159 188 236 306 355
#     4  10  20  34  56  83 119 155 196 239 303 358
#     4  10  19  33  57  85 113 149 198 242 292 349
#     4  10  17  32  56  87 113 147 195 246 289 342
#     4   9  18  32  56  84 119 152 194 244 300 357
#     4   9  18  30  55  87 111 144 203 245 289 355
#     4  11  18  32  59  92 112 148 204 256 285 348
#
# _framework density 25.159002999999998
#
# number of rings (size 3 to 8) (size 9 to 14) (size 15 to 20)
#    0.000    2.286    2.857    2.571    0.000    0.000 
#    0.000    8.571    9.429    0.000    0.000    0.000 
#    0.000    0.000    0.000    0.000    0.000    0.000 
#
# Total GULP energy -156198.856773 kJ/mol
# GULP energy per Si atom -5578.530599 kJ/mol
# Density = 2.510174 g / cm^3
# Si number density = 25.159003 Si / 1000 Ang^3
#
#
#
# Elastic Constant Matrix: (Units=GPa)
#
#
# Indices 1 2 3 4 5 6 
#
# 1 192.1673 16.9143 40.4006 0.0000 0.0000 0.0000
# 2 16.9143 36.5486 24.5489 0.0000 0.0000 0.0000
# 3 40.4006 24.5489 116.0029 0.0000 0.0000 0.0000
# 4 0.0000 0.0000 0.0000 18.1884 0.0000 0.0000
# 5 0.0000 0.0000 0.0000 0.0000 30.2497 0.0000
# 6 0.0000 0.0000 0.0000 0.0000 0.0000 0.6757
#
#
#
# Elastic Compliance Matrix: (Units=1/GPa)
#
#
# Indices 1 2 3 4 5 6 
#
# 1 0.005686 -0.001517 -0.001659 0.000000 0.000000 0.000000
# 2 -0.001517 0.032299 -0.006307 0.000000 0.000000 0.000000
# 3 -0.001659 -0.006307 0.010533 0.000000 0.000000 0.000000
# 4 0.000000 0.000000 0.000000 0.054980 0.000000 0.000000
# 5 0.000000 0.000000 0.000000 0.000000 0.033058 0.000000
# 6 0.000000 0.000000 0.000000 0.000000 0.000000 1.479946
#
#
# Mechanical properties :
#
#
# Convention : Reuss Voigt Hill
#
# Bulk Modulus (GPa) = 33.83876 56.49405 45.16641
# Shear Modulus (GPa) = 3.03892 27.34643 15.19268
#
# Velocity S-wave (km/s) = 1.10023 3.30046 2.46004
# Velocity P-wave (km/s) = 3.88499 6.08503 5.10494
#
# Compressibility (1/GPa) = 0.02955191
#
# Stress axis : x y z
#
# Youngs Moduli (GPa) = 175.86537 30.96065 94.93929
#
# Poissons Ratio (x) = 0.04697 0.15753
# Poissons Ratio (y) = 0.26678 0.59877
# Poissons Ratio (z) = 0.29181 0.19527
#
# Static dielectric constant tensor:
#      x y z
#    x 1.996980 0.000000 0.000000 
#    y 0.000000 2.019360 0.000000 
#    z 0.000000 0.000000 2.097230 
# 
# From -- ./inp_files/5858.got.cif
#   From: 2010.05.17/outbox.cif.g08.bks.cpg/sg33_3_cif.got.tgz:5858.got - 2010.06.03 17:15:25.
