data_PCOD9344925
_publ_section_title
;
Structure prediction by ZEFSAII (Michael W. Deem and Ramdas Pophale) SiO2 
 PCOD9344925
Probable space group: P N A 21
;
_chemical_formula_sum "Si O2"
_cell_formula_units_Z 28
_cell_length_a 7.170260
_cell_length_b 20.667283
_cell_length_c 8.107528
_cell_angle_alpha 90.000000
_cell_angle_beta 90.000000
_cell_angle_gamma 90.000000
_cell_volume 1201.452893
_symmetry_space_group_name_H-M "P N A 21"
_symmetry_group_IT_number 33
_symmetry_cell_setting 'orthorhombic'
loop_
_space_group_symop_operation_xyz
x,y,z
-x,-y,1/2+z
1/2-x,1/2+y,1/2+z
1/2+x,1/2-y,z
loop_
_atom_site_type_symbol
_atom_site_label
_atom_site_fract_x
_atom_site_fract_y
_atom_site_fract_z
Si Si1 0.122296 0.540863 0.274920
Si Si2 0.563388 0.341542 0.239299
Si Si3 0.859956 0.696010 0.817966
Si Si4 0.563429 0.452464 0.490545
Si Si5 0.007097 0.412932 0.116413
Si Si6 0.403439 0.398774 0.935298
Si Si7 0.784673 0.621042 0.122048
O O1 0.124206 0.561799 0.467545
O O2 0.961550 0.584665 0.194587
O O3 0.300943 0.547772 0.151650
O O4 0.042937 0.468190 0.252733
O O5 0.344498 0.331058 0.278009
O O6 0.640806 0.271235 0.279400
O O7 0.631958 0.400703 0.353852
O O8 0.553707 0.363578 0.049761
O O9 0.011901 0.655341 0.711685
O O10 0.867512 0.677820 0.010124
O O11 0.555142 0.524650 0.417487
O O12 0.353063 0.429488 0.530014
O O13 0.204560 0.403605 0.025644
O O14 0.355280 0.359608 0.770169
#
# Coordination Sequence:
#
# PCOD9344925 Si02
#       7
#     4   4   4   4   4   4   4
#     4  10  20  37  63  92 123 163 207 266 322 379
#     4  10  22  41  61  87 127 165 207 260 323 390
#     4  10  22  41  58  85 125 167 204 256 321 390
#     4  10  21  39  63  94 124 159 213 269 321 380
#     4   9  19  37  60  91 126 160 209 262 319 386
#     4   9  19  39  63  88 122 163 212 270 319 378
#     4  10  21  38  60  91 123 163 208 265 319 379
#
# _framework density 23.305118
#
# number of rings (size 3 to 8) (size 9 to 14) (size 15 to 20)
#    0.000    2.286    0.000    1.714    2.000    3.429 
#    7.714    2.857    0.000    0.000    0.000    0.000 
#    0.000    0.000    0.000    0.000    0.000    0.000 
#
# Total GULP energy -156233.576874 kJ/mol
# GULP energy per Si atom -5579.770603 kJ/mol
# Density = 2.325207 g / cm^3
# Si number density = 23.305118 Si / 1000 Ang^3
#
#
#
# Elastic Constant Matrix: (Units=GPa)
#
#
# Indices 1 2 3 4 5 6 
#
# 1 68.3064 24.3437 37.6703 0.0000 0.0000 0.0000
# 2 24.3437 162.8117 91.1565 0.0000 0.0000 0.0000
# 3 37.6703 91.1565 147.3485 0.0000 0.0000 0.0000
# 4 0.0000 0.0000 0.0000 25.5285 0.0000 0.0000
# 5 0.0000 0.0000 0.0000 0.0000 33.9418 0.0000
# 6 0.0000 0.0000 0.0000 0.0000 0.0000 35.5932
#
#
#
# Elastic Compliance Matrix: (Units=1/GPa)
#
#
# Indices 1 2 3 4 5 6 
#
# 1 0.017046 -0.000166 -0.004255 0.000000 0.000000 0.000000
# 2 -0.000166 0.009399 -0.005772 0.000000 0.000000 0.000000
# 3 -0.004255 -0.005772 0.011445 0.000000 0.000000 0.000000
# 4 0.000000 0.000000 0.000000 0.039172 0.000000 0.000000
# 5 0.000000 0.000000 0.000000 0.000000 0.029462 0.000000
# 6 0.000000 0.000000 0.000000 0.000000 0.000000 0.028095
#
#
# Mechanical properties :
#
#
# Convention : Reuss Voigt Hill
#
# Bulk Modulus (GPa) = 57.13249 76.08975 66.61112
# Shear Modulus (GPa) = 31.08691 34.03242 32.55967
#
# Velocity S-wave (km/s) = 3.65623 3.82553 3.74184
# Velocity P-wave (km/s) = 6.51094 7.22725 6.87842
#
# Compressibility (1/GPa) = 0.01750318
#
# Stress axis : x y z
#
# Youngs Moduli (GPa) = 58.66562 106.39969 87.37356
#
# Poissons Ratio (x) = 0.01771 0.37176
# Poissons Ratio (y) = 0.00976 0.50430
# Poissons Ratio (z) = 0.24961 0.61412
#
# Static dielectric constant tensor:
#      x y z
#    x 1.952240 0.000000 0.000000 
#    y 0.000000 1.849690 0.000000 
#    z 0.000000 0.000000 2.014040 
# 
# From -- ./inp_files/3310.got.cif
#   From: 2010.05.17/outbox.cif.g08.bks.cpg/sg33_2_cif.got.tgz:3310.got - 2010.06.03 17:15:25.
