data_PCOD9344356
_publ_section_title
;
Structure prediction by ZEFSAII (Michael W. Deem and Ramdas Pophale) SiO2 
 PCOD9344356
Probable space group: P N A 21
;
_chemical_formula_sum "Si O2"
_cell_formula_units_Z 32
_cell_length_a 13.737394
_cell_length_b 7.659908
_cell_length_c 11.734373
_cell_angle_alpha 90.000000
_cell_angle_beta 90.000000
_cell_angle_gamma 90.000000
_cell_volume 1234.774912
_symmetry_space_group_name_H-M "P N A 21"
_symmetry_group_IT_number 33
_symmetry_cell_setting 'orthorhombic'
loop_
_space_group_symop_operation_xyz
x,y,z
-x,-y,1/2+z
1/2-x,1/2+y,1/2+z
1/2+x,1/2-y,z
loop_
_atom_site_type_symbol
_atom_site_label
_atom_site_fract_x
_atom_site_fract_y
_atom_site_fract_z
Si Si1 0.587891 0.545143 0.029460
Si Si2 0.878759 0.835059 0.059757
Si Si3 0.099792 0.411358 0.102519
Si Si4 0.913372 0.388836 0.379327
Si Si5 0.242995 0.152616 0.927577
Si Si6 0.380794 0.079686 0.122940
Si Si7 0.801687 0.271688 0.693861
Si Si8 0.860909 0.674157 0.835466
O O1 0.478508 0.560096 0.077051
O O2 0.667093 0.603326 0.123225
O O3 0.592916 0.698551 0.935545
O O4 0.632240 0.375356 0.968658
O O5 0.887638 0.628237 0.093464
O O6 0.786497 0.881344 0.136019
O O7 0.854634 0.832204 0.925221
O O8 0.108443 0.597133 0.173317
O O9 0.146716 0.290034 0.201047
O O10 0.988747 0.352600 0.097623
O O11 0.125990 0.478656 0.975732
O O12 0.863571 0.399810 0.257067
O O13 0.030223 0.405645 0.358920
O O14 0.281775 0.966674 0.876278
O O15 0.270029 0.270880 0.820953
O O16 0.308858 0.179134 0.038152
#
# Coordination Sequence:
#
# PCOD9344356 Si02
#       8
#     4   4   4   4   4   4   4   4
#     4  10  18  32  53  77  98 139 180 216 267 325
#     4  10  17  30  50  77 100 134 175 217 263 325
#     4   9  15  26  46  78  99 125 161 217 268 303
#     4   9  16  26  45  77 106 126 159 217 274 303
#     4  10  18  30  52  76 101 138 174 216 262 322
#     4  10  16  27  50  78 104 126 167 226 264 307
#     4  10  18  30  53  78  99 136 183 218 260 320
#     4   8  14  25  45  75  97 120 167 213 256 301
#
# _framework density 25.915654
#
# number of rings (size 3 to 8) (size 9 to 14) (size 15 to 20)
#    0.000    2.500    7.500    0.000    0.000    0.000 
#    0.000    0.000   13.750    0.000    3.250    0.000 
#    0.000    0.000    0.000    0.000    0.000    0.000 
#
# Total GULP energy -178705.646548 kJ/mol
# GULP energy per Si atom -5584.551455 kJ/mol
# Density = 2.585667 g / cm^3
# Si number density = 25.915654 Si / 1000 Ang^3
#
#
#
# Elastic Constant Matrix: (Units=GPa)
#
#
# Indices 1 2 3 4 5 6 
#
# 1 92.1362 17.6337 49.6111 0.0000 0.0000 0.0000
# 2 17.6337 54.5618 11.4505 0.0000 0.0000 0.0000
# 3 49.6111 11.4505 225.6147 0.0000 0.0000 0.0000
# 4 0.0000 0.0000 0.0000 8.5598 0.0000 0.0000
# 5 0.0000 0.0000 0.0000 0.0000 43.4408 0.0000
# 6 0.0000 0.0000 0.0000 0.0000 0.0000 15.4350
#
#
#
# Elastic Compliance Matrix: (Units=1/GPa)
#
#
# Indices 1 2 3 4 5 6 
#
# 1 0.012988 -0.003637 -0.002671 0.000000 0.000000 0.000000
# 2 -0.003637 0.019544 -0.000192 0.000000 0.000000 0.000000
# 3 -0.002671 -0.000192 0.005030 0.000000 0.000000 0.000000
# 4 0.000000 0.000000 0.000000 0.116825 0.000000 0.000000
# 5 0.000000 0.000000 0.000000 0.000000 0.023020 0.000000
# 6 0.000000 0.000000 0.000000 0.000000 0.000000 0.064788
#
#
# Mechanical properties :
#
#
# Convention : Reuss Voigt Hill
#
# Bulk Modulus (GPa) = 40.71639 58.85593 49.78616
# Shear Modulus (GPa) = 18.98392 33.06163 26.02277
#
# Velocity S-wave (km/s) = 2.70946 3.57562 3.17224
# Velocity P-wave (km/s) = 5.05306 6.30925 5.71577
#
# Compressibility (1/GPa) = 0.02456013
#
# Stress axis : x y z
#
# Youngs Moduli (GPa) = 76.99428 51.16777 198.82670
#
# Poissons Ratio (x) = 0.18609 0.53114
# Poissons Ratio (y) = 0.28002 0.03821
# Poissons Ratio (z) = 0.20568 0.00983
#
# Static dielectric constant tensor:
#      x y z
#    x 2.105470 0.000000 0.000000 
#    y 0.000000 2.089910 0.000000 
#    z 0.000000 0.000000 2.117460 
# 
# From -- ./inp_files/6868.got.cif
#   From: 2010.05.17/outbox.cif.g08.bks.cpg/sg33_4_cif.got.tgz:6868.got - 2010.06.03 17:15:25.
