data_PCOD9344958
_publ_section_title
;
Structure prediction by ZEFSAII (Michael W. Deem and Ramdas Pophale) SiO2 
 PCOD9344958
Probable space group: P N A 21
;
_chemical_formula_sum "Si O2"
_cell_formula_units_Z 24
_cell_length_a 15.387006
_cell_length_b 5.072185
_cell_length_c 15.645597
_cell_angle_alpha 90.000000
_cell_angle_beta 90.000000
_cell_angle_gamma 90.000000
_cell_volume 1221.072212
_symmetry_space_group_name_H-M "P N A 21"
_symmetry_group_IT_number 33
_symmetry_cell_setting 'orthorhombic'
loop_
_space_group_symop_operation_xyz
x,y,z
-x,-y,1/2+z
1/2-x,1/2+y,1/2+z
1/2+x,1/2-y,z
loop_
_atom_site_type_symbol
_atom_site_label
_atom_site_fract_x
_atom_site_fract_y
_atom_site_fract_z
Si Si1 0.060054 0.418403 0.919560
Si Si2 0.808223 0.721450 0.764523
Si Si3 0.535777 0.437453 0.670726
Si Si4 0.808218 0.721450 0.266179
Si Si5 0.060050 0.418399 0.111141
Si Si6 0.964229 0.937455 0.859973
O O1 0.130445 0.348520 0.846941
O O2 0.021391 0.705346 0.900257
O O3 0.981987 0.205796 0.910332
O O4 0.095726 0.405732 0.015351
O O5 0.757116 0.457474 0.788867
O O6 0.868083 0.830473 0.841745
O O7 0.869560 0.651482 0.683761
O O8 0.742889 0.957474 0.741836
O O9 0.631923 0.330473 0.688956
O O10 0.518016 0.705789 0.620365
O O11 0.500003 0.500004 0.765350
O O12 0.478615 0.205340 0.630444
#
# Coordination Sequence:
#
# PCOD9344958 Si02
#       6
#     4   4   4   4   4   4
#     4  11  22  39  60  85 116 153 197 245 284 330
#     4  11  21  37  60  85 116 152 191 236 291 352
#     4  10  20  38  61  82 109 153 198 227 275 354
#     4  11  21  37  60  85 116 152 191 236 291 352
#     4  11  22  39  60  85 116 153 197 245 284 330
#     4  10  20  38  61  82 109 153 198 227 275 354
#
# _framework density 19.654857
#
# number of rings (size 3 to 8) (size 9 to 14) (size 15 to 20)
#    0.000    1.333    0.000   11.000    0.000    0.000 
#    0.000   10.000    0.000    0.000    0.000    0.000 
#    0.000    0.000    0.000    0.000    0.000    0.000 
#
# Total GULP energy -133997.482139 kJ/mol
# GULP energy per Si atom -5583.228422 kJ/mol
# Density = 1.961012 g / cm^3
# Si number density = 19.654857 Si / 1000 Ang^3
#
#
#
# Elastic Constant Matrix: (Units=GPa)
#
#
# Indices 1 2 3 4 5 6 
#
# 1 41.4864 -8.3639 3.9725 0.0000 0.0000 0.0000
# 2 -8.3639 97.9696 3.0019 0.0000 0.0000 0.0000
# 3 3.9725 3.0019 37.7157 0.0000 0.0000 0.0000
# 4 0.0000 0.0000 0.0000 11.0707 0.0000 0.0000
# 5 0.0000 0.0000 0.0000 0.0000 0.8958 0.0000
# 6 0.0000 0.0000 0.0000 0.0000 0.0000 30.8490
#
#
#
# Elastic Compliance Matrix: (Units=1/GPa)
#
#
# Indices 1 2 3 4 5 6 
#
# 1 0.024816 0.002204 -0.002789 0.000000 0.000000 0.000000
# 2 0.002204 0.010428 -0.001062 0.000000 0.000000 0.000000
# 3 -0.002789 -0.001062 0.026892 0.000000 0.000000 0.000000
# 4 0.000000 0.000000 0.000000 0.090329 0.000000 0.000000
# 5 0.000000 0.000000 0.000000 0.000000 1.116318 0.000000
# 6 0.000000 0.000000 0.000000 0.000000 0.000000 0.032416
#
#
# Mechanical properties :
#
#
# Convention : Reuss Voigt Hill
#
# Bulk Modulus (GPa) = 16.99479 19.37695 18.18587
# Shear Modulus (GPa) = 3.77613 20.46718 12.12165
#
# Velocity S-wave (km/s) = 1.38758 3.23046 2.48609
# Velocity P-wave (km/s) = 3.35150 4.87797 4.18492
#
# Compressibility (1/GPa) = 0.05884157
#
# Stress axis : x y z
#
# Youngs Moduli (GPa) = 40.29708 95.89604 37.18514
#
# Poissons Ratio (x) = -0.21136 0.10372
# Poissons Ratio (y) = -0.08882 0.03950
# Poissons Ratio (z) = 0.11240 0.10185
#
# Static dielectric constant tensor:
#      x y z
#    x 1.726570 0.000000 0.000000 
#    y 0.000000 1.687980 0.000000 
#    z 0.000000 0.000000 1.692200 
# 
# From -- ./inp_files/8056.got.cif
#   From: 2010.05.17/outbox.cif.g08.bks.cpg/sg33_5_cif.got.tgz:8056.got - 2010.06.03 17:15:25.
