data_PCOD9344009
_publ_section_title
;
Structure prediction by ZEFSAII (Michael W. Deem and Ramdas Pophale) SiO2 
 PCOD9344009
Probable space group: P B A 2
;
_chemical_formula_sum "Si O2"
_cell_formula_units_Z 30
_cell_length_a 5.071815
_cell_length_b 16.058997
_cell_length_c 17.254476
_cell_angle_alpha 90.000000
_cell_angle_beta 90.000000
_cell_angle_gamma 90.000000
_cell_volume 1405.347080
_symmetry_space_group_name_H-M "P B A 2"
_symmetry_group_IT_number 32
_symmetry_cell_setting 'orthorhombic'
loop_
_space_group_symop_operation_xyz
x,y,z
-x,-y,z
1/2-x,1/2+y,z
1/2+x,1/2-y,z
loop_
_atom_site_type_symbol
_atom_site_label
_atom_site_fract_x
_atom_site_fract_y
_atom_site_fract_z
Si Si1 0.874700 0.192712 0.032100
Si Si2 0.500000 0.500000 0.604526
Si Si3 0.013583 0.190825 0.362534
Si Si4 0.915438 0.192249 0.859186
Si Si5 0.950113 0.303834 0.595230
Si Si6 0.842542 0.585705 0.726268
Si Si7 0.155899 0.576037 0.471804
Si Si8 0.955579 0.807446 0.189445
O O1 0.580117 0.229310 0.034122
O O2 0.459807 0.354882 0.110682
O O3 0.904548 0.155637 0.946593
O O4 0.627915 0.565586 0.661145
O O5 0.285407 0.535915 0.547600
O O6 0.228475 0.265990 0.370454
O O7 0.123058 0.120460 0.420005
O O8 0.016214 0.154836 0.274676
O O9 0.707612 0.269325 0.850916
O O10 0.809550 0.125664 0.798072
O O11 0.653771 0.271639 0.591634
O O12 0.017337 0.355491 0.516959
O O13 0.979227 0.349812 0.677909
O O14 0.000000 0.500000 0.743828
O O15 0.000000 0.500000 0.431851
O O16 0.661474 0.770386 0.187450
#
# Coordination Sequence:
#
# PCOD9344009 Si02
#       8
#     4   2   4   4   4   4   4   4
#     4   8  14  28  52  83 121 148 179 229 290 351
#     4  12  24  44  60  76 118 162 222 238 306 378
#     4  10  22  38  59  91 123 152 200 255 303 353
#     4  10  22  38  59  91 123 152 200 255 303 353
#     4  12  24  40  61  83 108 152 210 266 312 350
#     4  12  25  41  59  83 118 165 207 254 308 378
#     4  12  25  41  59  83 118 165 207 254 308 378
#     4   8  14  28  52  83 121 148 179 229 290 351
#
# _framework density 21.347041000000001
#
# number of rings (size 3 to 8) (size 9 to 14) (size 15 to 20)
#    0.000    1.600    2.667    2.400    3.733    0.000 
#    0.000    0.000    0.000    0.000    0.000    0.933 
#    0.000    0.000    0.000    0.000    0.000    2.133 
#
# Total GULP energy -167358.272638 kJ/mol
# GULP energy per Si atom -5578.609088 kJ/mol
# Density = 2.129845 g / cm^3
# Si number density = 21.347041 Si / 1000 Ang^3
#
#
#
# Elastic Constant Matrix: (Units=GPa)
#
#
# Indices 1 2 3 4 5 6 
#
# 1 73.2796 4.5166 13.5602 0.0000 0.0000 0.0000
# 2 4.5166 46.1820 36.2817 0.0000 0.0000 0.0000
# 3 13.5602 36.2817 173.8921 0.0000 0.0000 0.0000
# 4 0.0000 0.0000 0.0000 -9.2386 0.0000 0.0000
# 5 0.0000 0.0000 0.0000 0.0000 35.4032 0.0000
# 6 0.0000 0.0000 0.0000 0.0000 0.0000 13.0465
#
#
#
# Elastic Compliance Matrix: (Units=1/GPa)
#
#
# Indices 1 2 3 4 5 6 
#
# 1 0.013860 -0.000606 -0.000954 0.000000 0.000000 0.000000
# 2 -0.000606 0.025925 -0.005362 0.000000 0.000000 0.000000
# 3 -0.000954 -0.005362 0.006944 0.000000 0.000000 0.000000
# 4 0.000000 0.000000 0.000000 -0.108241 0.000000 0.000000
# 5 0.000000 0.000000 0.000000 0.000000 0.028246 0.000000
# 6 0.000000 0.000000 0.000000 0.000000 0.000000 0.076649
#
#
# Mechanical properties :
#
#
# Convention : Reuss Voigt Hill
#
# Bulk Modulus (GPa) = 30.40884 44.67453 37.54168
# Shear Modulus (GPa) = 73.32606 23.77524 48.55065
#
# Velocity S-wave (km/s) = 5.86720 3.34091 4.77419
# Velocity P-wave (km/s) = 7.75724 5.98794 6.92929
#
# Compressibility (1/GPa) = 0.03288518
#
# Stress axis : x y z
#
# Youngs Moduli (GPa) = 72.14847 38.57258 144.01212
#
# Poissons Ratio (x) = 0.02336 0.13745
# Poissons Ratio (y) = 0.04370 0.77218
# Poissons Ratio (z) = 0.06886 0.20682
#
# Static dielectric constant tensor:
#      x y z
#    x 1.948320 0.000000 0.000000 
#    y 0.000000 2.743440 0.000000 
#    z 0.000000 0.000000 1.854470 
# 
# From -- ./inp_files/4212.got.cif
#   From: 2010.05.17/outbox.cif.g08.bks.cpg/sg32_3_cif.got.tgz:4212.got - 2010.06.03 17:12:27.
