data_PCOD9344406
_publ_section_title
;
Structure prediction by ZEFSAII (Michael W. Deem and Ramdas Pophale) SiO2 
 PCOD9344406
Probable space group: P N A 21
;
_chemical_formula_sum "Si O2"
_cell_formula_units_Z 32
_cell_length_a 5.525426
_cell_length_b 9.018001
_cell_length_c 29.429743
_cell_angle_alpha 90.000000
_cell_angle_beta 90.000000
_cell_angle_gamma 90.000000
_cell_volume 1466.433981
_symmetry_space_group_name_H-M "P N A 21"
_symmetry_group_IT_number 33
_symmetry_cell_setting 'orthorhombic'
loop_
_space_group_symop_operation_xyz
x,y,z
-x,-y,1/2+z
1/2-x,1/2+y,1/2+z
1/2+x,1/2-y,z
loop_
_atom_site_type_symbol
_atom_site_label
_atom_site_fract_x
_atom_site_fract_y
_atom_site_fract_z
Si Si1 0.688035 0.432588 0.392760
Si Si2 0.769231 0.085818 0.629015
Si Si3 0.189788 0.401487 0.357208
Si Si4 0.612168 0.245048 0.805009
Si Si5 0.230619 0.573424 0.093095
Si Si6 0.839717 0.498591 0.228155
Si Si7 0.161848 0.938365 0.757099
Si Si8 0.766580 0.845828 0.990649
O O1 0.424608 0.485826 0.376632
O O2 0.669773 0.254667 0.383290
O O3 0.730227 0.448879 0.446178
O O4 0.928012 0.475826 0.364711
O O5 0.782015 0.253049 0.609190
O O6 0.530156 0.011415 0.607597
O O7 0.728893 0.086987 0.682856
O O8 0.026314 0.013118 0.616565
O O9 0.256459 0.367309 0.304973
O O10 0.362197 0.249074 0.831052
O O11 0.623281 0.106505 0.771014
O O12 0.622114 0.388765 0.771750
O O13 0.262138 0.573529 0.039067
O O14 0.605509 0.397211 0.239328
O O15 0.108491 0.429917 0.223717
O O16 0.517807 0.748927 0.988890
#
# Coordination Sequence:
#
# PCOD9344406 Si02
#       8
#     4   4   4   4   4   4   4   4
#     4  10  19  30  48  58  78 108 128 188 207 266
#     4  10  18  25  36  53  76 108 138 170 189 212
#     4  10  18  30  42  62  74  97 139 174 226 236
#     4   8  16  25  36  51  68 100 132 164 195 216
#     4  10  19  24  38  58  79 103 133 191 170 229
#     4  10  19  28  40  54  78 114 144 172 197 226
#     4  10  19  28  40  56  77  99 137 195 192 239
#     4  12  16  30  40  62  80 101 139 168 218 230
#
# _framework density 21.821646000000001
#
# number of rings (size 3 to 8) (size 9 to 14) (size 15 to 20)
#    0.000    2.000    5.000    1.500   10.500    0.000 
#    0.000    0.000    0.000    0.000    0.000    0.000 
#    0.000    0.000    0.000    0.000    0.000    0.000 
#
# Total GULP energy -178424.199492 kJ/mol
# GULP energy per Si atom -5575.756234 kJ/mol
# Density = 2.177198 g / cm^3
# Si number density = 21.821646 Si / 1000 Ang^3
#
#
#
# Elastic Constant Matrix: (Units=GPa)
#
#
# Indices 1 2 3 4 5 6 
#
# 1 237.4285 4.5016 6.7553 0.0000 0.0000 0.0000
# 2 4.5016 34.2320 -2.0798 0.0000 0.0000 0.0000
# 3 6.7553 -2.0798 100.6562 0.0000 0.0000 0.0000
# 4 0.0000 0.0000 0.0000 14.0070 0.0000 0.0000
# 5 0.0000 0.0000 0.0000 0.0000 37.9475 0.0000
# 6 0.0000 0.0000 0.0000 0.0000 0.0000 122.4621
#
#
#
# Elastic Compliance Matrix: (Units=1/GPa)
#
#
# Indices 1 2 3 4 5 6 
#
# 1 0.004231 -0.000574 -0.000296 0.000000 0.000000 0.000000
# 2 -0.000574 0.029327 0.000645 0.000000 0.000000 0.000000
# 3 -0.000296 0.000645 0.009968 0.000000 0.000000 0.000000
# 4 0.000000 0.000000 0.000000 0.071393 0.000000 0.000000
# 5 0.000000 0.000000 0.000000 0.000000 0.026352 0.000000
# 6 0.000000 0.000000 0.000000 0.000000 0.000000 0.008166
#
#
# Mechanical properties :
#
#
# Convention : Reuss Voigt Hill
#
# Bulk Modulus (GPa) = 23.21541 43.40787 33.31164
# Shear Modulus (GPa) = 30.44201 59.09262 44.76731
#
# Velocity S-wave (km/s) = 3.73907 5.20947 4.53427
# Velocity P-wave (km/s) = 5.41319 7.49134 6.53540
#
# Compressibility (1/GPa) = 0.04307483
#
# Stress axis : x y z
#
# Youngs Moduli (GPa) = 236.34511 34.09816 100.32123
#
# Poissons Ratio (x) = 0.01958 0.02968
# Poissons Ratio (y) = 0.13575 -0.06466
# Poissons Ratio (z) = 0.06992 -0.02198
#
# Static dielectric constant tensor:
#      x y z
#    x 1.956940 0.000000 0.000000 
#    y 0.000000 1.841870 0.000000 
#    z 0.000000 0.000000 1.762260 
# 
# From -- ./inp_files/9218.got.cif
#   From: 2010.05.17/outbox.cif.g08.bks.cpg/sg33_5_cif.got.tgz:9218.got - 2010.06.03 17:15:25.
