data_PCOD9344426
_publ_section_title
;
Structure prediction by ZEFSAII (Michael W. Deem and Ramdas Pophale) SiO2 
 PCOD9344426
Probable space group: P N A 21
;
_chemical_formula_sum "Si O2"
_cell_formula_units_Z 32
_cell_length_a 21.286206
_cell_length_b 7.543215
_cell_length_c 8.969280
_cell_angle_alpha 90.000000
_cell_angle_beta 90.000000
_cell_angle_gamma 90.000000
_cell_volume 1440.165255
_symmetry_space_group_name_H-M "P N A 21"
_symmetry_group_IT_number 33
_symmetry_cell_setting 'orthorhombic'
loop_
_space_group_symop_operation_xyz
x,y,z
-x,-y,1/2+z
1/2-x,1/2+y,1/2+z
1/2+x,1/2-y,z
loop_
_atom_site_type_symbol
_atom_site_label
_atom_site_fract_x
_atom_site_fract_y
_atom_site_fract_z
Si Si1 0.043369 0.296244 0.945160
Si Si2 0.662390 0.077997 0.807187
Si Si3 0.559900 0.323635 0.284748
Si Si4 0.571657 0.562043 0.782702
Si Si5 0.779910 0.132969 0.984180
Si Si6 0.791668 0.175757 0.320604
Si Si7 0.913072 0.184469 0.940879
Si Si8 0.327893 0.773729 0.981114
O O1 0.096325 0.431129 0.892922
O O2 0.968613 0.329127 0.934306
O O3 0.053066 0.133225 0.831705
O O4 0.059406 0.229927 0.111784
O O5 0.654759 0.165873 0.646286
O O6 0.689938 0.881635 0.804235
O O7 0.717892 0.180826 0.893777
O O8 0.486592 0.315033 0.335101
O O9 0.577512 0.531010 0.316849
O O10 0.611527 0.212620 0.374986
O O11 0.640766 0.589586 0.848398
O O12 0.577335 0.591514 0.604273
O O13 0.765065 0.133459 0.158045
O O14 0.841348 0.249151 0.942981
O O15 0.806338 0.932327 0.963718
O O16 0.737061 0.131665 0.435628
#
# Coordination Sequence:
#
# PCOD9344426 Si02
#       8
#     4   4   4   4   4   4   4   4
#     4  10  18  31  56  79 103 136 172 212 256 303
#     4  11  22  34  52  79 105 134 170 212 262 310
#     4   9  17  32  55  80 101 135 181 215 245 297
#     4   9  18  34  56  79 105 136 172 216 258 301
#     4   9  19  37  55  73 101 135 173 213 252 302
#     4  10  21  36  54  77 106 134 167 215 266 310
#     4   8  16  32  54  77 100 131 177 218 246 292
#     4  10  21  36  54  76 103 135 178 217 249 305
#
# _framework density 22.219671999999999
#
# number of rings (size 3 to 8) (size 9 to 14) (size 15 to 20)
#    0.000    2.500    0.000    3.000    0.000    6.000 
#    0.000    3.750    0.000    3.000    0.000    0.000 
#    0.000    0.000    0.000    0.000    0.000    0.000 
#
# Total GULP energy -178420.348611 kJ/mol
# GULP energy per Si atom -5575.635894 kJ/mol
# Density = 2.216910 g / cm^3
# Si number density = 22.219672 Si / 1000 Ang^3
#
#
#
# Elastic Constant Matrix: (Units=GPa)
#
#
# Indices 1 2 3 4 5 6 
#
# 1 64.4702 12.8417 18.0865 0.0000 0.0000 0.0000
# 2 12.8417 21.6136 -1.4873 0.0000 0.0000 0.0000
# 3 18.0865 -1.4873 24.5977 0.0000 0.0000 0.0000
# 4 0.0000 0.0000 0.0000 7.6101 0.0000 0.0000
# 5 0.0000 0.0000 0.0000 0.0000 12.8558 0.0000
# 6 0.0000 0.0000 0.0000 0.0000 0.0000 -7.4662
#
#
#
# Elastic Compliance Matrix: (Units=1/GPa)
#
#
# Indices 1 2 3 4 5 6 
#
# 1 0.023725 -0.015361 -0.018374 0.000000 0.000000 0.000000
# 2 -0.015361 0.056406 0.014705 0.000000 0.000000 0.000000
# 3 -0.018374 0.014705 0.055053 0.000000 0.000000 0.000000
# 4 0.000000 0.000000 0.000000 0.131405 0.000000 0.000000
# 5 0.000000 0.000000 0.000000 0.000000 0.077786 0.000000
# 6 0.000000 0.000000 0.000000 0.000000 0.000000 -0.133936
#
#
# Mechanical properties :
#
#
# Convention : Reuss Voigt Hill
#
# Bulk Modulus (GPa) = 10.29593 18.84036 14.56815
# Shear Modulus (GPa) = 17.80167 8.01598 12.90882
#
# Velocity S-wave (km/s) = 2.83356 1.90143 2.41293
# Velocity P-wave (km/s) = 3.91780 3.64940 3.78598
#
# Compressibility (1/GPa) = 0.09712576
#
# Stress axis : x y z
#
# Youngs Moduli (GPa) = 42.14909 17.72869 18.16418
#
# Poissons Ratio (x) = 0.27233 0.33375
# Poissons Ratio (y) = 0.64744 -0.26711
# Poissons Ratio (z) = 0.77444 -0.26070
#
# Static dielectric constant tensor:
#      x y z
#    x 1.919080 0.000000 0.000000 
#    y 0.000000 1.919600 0.000000 
#    z 0.000000 0.000000 1.777740 
# 
# From -- ./inp_files/5048.got.cif
#   From: 2010.05.17/outbox.cif.g08.bks.cpg/sg33_3_cif.got.tgz:5048.got - 2010.06.03 17:15:25.
