data_PCOD9344462
_publ_section_title
;
Structure prediction by ZEFSAII (Michael W. Deem and Ramdas Pophale) SiO2 
 PCOD9344462
Probable space group: P N A 21
;
_chemical_formula_sum "Si O2"
_cell_formula_units_Z 28
_cell_length_a 13.881453
_cell_length_b 7.149001
_cell_length_c 11.507620
_cell_angle_alpha 90.000000
_cell_angle_beta 90.000000
_cell_angle_gamma 90.000000
_cell_volume 1141.999193
_symmetry_space_group_name_H-M "P N A 21"
_symmetry_group_IT_number 33
_symmetry_cell_setting 'orthorhombic'
loop_
_space_group_symop_operation_xyz
x,y,z
-x,-y,1/2+z
1/2-x,1/2+y,1/2+z
1/2+x,1/2-y,z
loop_
_atom_site_type_symbol
_atom_site_label
_atom_site_fract_x
_atom_site_fract_y
_atom_site_fract_z
Si Si1 0.025140 0.785371 0.191480
Si Si2 0.472838 0.113049 0.080844
Si Si3 0.811699 0.319619 0.254879
Si Si4 0.179700 0.308774 0.061218
Si Si5 0.659997 0.831567 0.380834
Si Si6 0.813200 0.749010 0.212280
Si Si7 0.818578 0.247480 0.515499
O O1 0.087084 0.804977 0.309135
O O2 0.092603 0.845565 0.084273
O O3 0.006739 0.565708 0.156790
O O4 0.915741 0.848475 0.207680
O O5 0.399309 0.218612 0.166084
O O6 0.566650 0.231049 0.047276
O O7 0.416786 0.058667 0.961692
O O8 0.715365 0.263566 0.186302
O O9 0.815275 0.545796 0.274431
O O10 0.820128 0.222086 0.378956
O O11 0.182130 0.530319 0.038208
O O12 0.258053 0.227629 0.972376
O O13 0.731086 0.874812 0.272414
O O14 0.777717 0.691300 0.083666
#
# Coordination Sequence:
#
# PCOD9344462 Si02
#       7
#     4   4   4   4   4   4   4
#     4   9  20  34  60  90 115 154 210 242 296 366
#     4   9  20  34  60  90 115 154 210 242 296 366
#     4  10  21  39  60  87 124 155 201 258 304 363
#     4  10  20  39  61  86 121 158 202 251 305 366
#     4  10  18  34  60  84 116 158 190 252 304 344
#     4  10  20  39  61  86 121 158 202 251 305 366
#     4  10  21  39  60  87 124 155 201 258 304 363
#
# _framework density 24.518407
#
# number of rings (size 3 to 8) (size 9 to 14) (size 15 to 20)
#    0.000    2.286    1.429    0.857    6.000    1.143 
#   20.571    5.714    6.286    0.000    0.000    0.000 
#    0.000    0.000    0.000    0.000    0.000    0.000 
#
# Total GULP energy -156033.899501 kJ/mol
# GULP energy per Si atom -5572.639268 kJ/mol
# Density = 2.446260 g / cm^3
# Si number density = 24.518407 Si / 1000 Ang^3
#
#
#
# Elastic Constant Matrix: (Units=GPa)
#
#
# Indices 1 2 3 4 5 6 
#
# 1 189.4344 2.1290 58.4265 0.0000 0.0000 0.0000
# 2 2.1290 79.5329 -2.9060 0.0000 0.0000 0.0000
# 3 58.4265 -2.9060 165.8441 0.0000 0.0000 0.0000
# 4 0.0000 0.0000 0.0000 17.8478 0.0000 0.0000
# 5 0.0000 0.0000 0.0000 0.0000 26.0371 0.0000
# 6 0.0000 0.0000 0.0000 0.0000 0.0000 -78.8202
#
#
#
# Elastic Compliance Matrix: (Units=1/GPa)
#
#
# Indices 1 2 3 4 5 6 
#
# 1 0.005927 -0.000235 -0.002092 0.000000 0.000000 0.000000
# 2 -0.000235 0.012591 0.000303 0.000000 0.000000 0.000000
# 3 -0.002092 0.000303 0.006772 0.000000 0.000000 0.000000
# 4 0.000000 0.000000 0.000000 0.056029 0.000000 0.000000
# 5 0.000000 0.000000 0.000000 0.000000 0.038407 0.000000
# 6 0.000000 0.000000 0.000000 0.000000 0.000000 -0.012687
#
#
# Mechanical properties :
#
#
# Convention : Reuss Voigt Hill
#
# Bulk Modulus (GPa) = 47.07617 61.12338 54.09977
# Shear Modulus (GPa) = 42.31301 18.15707 30.23504
#
# Velocity S-wave (km/s) = 4.15874 2.72425 3.51544
# Velocity P-wave (km/s) = 6.50401 5.90586 6.21214
#
# Compressibility (1/GPa) = 0.02124217
#
# Stress axis : x y z
#
# Youngs Moduli (GPa) = 168.72588 79.42314 147.66426
#
# Poissons Ratio (x) = 0.01867 0.30893
# Poissons Ratio (y) = 0.03967 -0.04481
# Poissons Ratio (z) = 0.35299 -0.02410
#
# Static dielectric constant tensor:
#      x y z
#    x 2.002400 0.000000 0.000000 
#    y 0.000000 2.068210 0.000000 
#    z 0.000000 0.000000 1.970970 
# 
# From -- ./inp_files/6424.got.cif
#   From: 2010.05.17/outbox.cif.g08.bks.cpg/sg33_4_cif.got.tgz:6424.got - 2010.06.03 17:15:25.
