data_PCOD9344176
_publ_section_title
;
Structure prediction by ZEFSAII (Michael W. Deem and Ramdas Pophale) SiO2 
 PCOD9344176
Probable space group: P B A 2
;
_chemical_formula_sum "Si O2"
_cell_formula_units_Z 30
_cell_length_a 19.073324
_cell_length_b 13.059369
_cell_length_c 5.242178
_cell_angle_alpha 90.000000
_cell_angle_beta 90.000000
_cell_angle_gamma 90.000000
_cell_volume 1305.750928
_symmetry_space_group_name_H-M "P B A 2"
_symmetry_group_IT_number 32
_symmetry_cell_setting 'orthorhombic'
loop_
_space_group_symop_operation_xyz
x,y,z
-x,-y,z
1/2-x,1/2+y,z
1/2+x,1/2-y,z
loop_
_atom_site_type_symbol
_atom_site_label
_atom_site_fract_x
_atom_site_fract_y
_atom_site_fract_z
Si Si1 0.501715 0.787754 0.237950
Si Si2 0.701501 0.058005 0.607117
Si Si3 0.602483 0.885519 0.634567
Si Si4 0.139344 0.006406 0.632745
Si Si5 0.871760 0.199433 0.899975
Si Si6 0.778555 0.683987 0.107364
Si Si7 0.377863 0.632177 0.130390
Si Si8 0.500000 0.000000 0.006896
O O1 0.544170 0.818723 0.490548
O O2 0.437884 0.710113 0.225482
O O3 0.561152 0.738120 0.055957
O O4 0.474995 0.900504 0.157702
O O5 0.705133 0.139980 0.383862
O O6 0.648861 0.971092 0.502262
O O7 0.776601 0.004570 0.650637
O O8 0.687589 0.118433 0.873259
O O9 0.653093 0.799885 0.747627
O O10 0.561845 0.953107 0.840472
O O11 0.124460 0.045392 0.348363
O O12 0.111630 0.894127 0.711854
O O13 0.110817 0.082499 0.852138
O O14 0.805204 0.172462 0.072232
O O15 0.807718 0.799393 0.105437
#
# Coordination Sequence:
#
# PCOD9344176 Si02
#       8
#     4   4   4   4   4   4   4   2
#     4  11  27  44  73 105 143 191 235 300 370 437
#     4  11  25  44  75 108 139 186 234 303 365 426
#     4  11  25  42  77 100 147 183 236 295 370 436
#     4  11  26  48  69 101 144 190 248 291 349 424
#     4  10  26  47  69 103 141 192 243 297 350 432
#     4  11  25  45  76 106 146 182 243 298 364 427
#     4  12  27  46  73 103 145 189 240 298 359 426
#     4  10  24  46  68 110 142 176 234 294 366 450
#
# _framework density 22.975287000000002
#
# number of rings (size 3 to 8) (size 9 to 14) (size 15 to 20)
#    0.000    1.067    0.000    4.400   18.667    0.533 
#    0.000    0.000    0.000    0.000    0.000    0.000 
#    0.000    0.000    0.000    0.000    0.000    0.000 
#
# Total GULP energy -167637.142241 kJ/mol
# GULP energy per Si atom -5587.904741 kJ/mol
# Density = 2.292299 g / cm^3
# Si number density = 22.975287 Si / 1000 Ang^3
#
#
#
# Elastic Constant Matrix: (Units=GPa)
#
#
# Indices 1 2 3 4 5 6 
#
# 1 41.9257 23.3177 9.2484 0.0000 0.0000 0.0000
# 2 23.3177 93.6892 7.5358 0.0000 0.0000 0.0000
# 3 9.2484 7.5358 84.4032 0.0000 0.0000 0.0000
# 4 0.0000 0.0000 0.0000 39.9301 0.0000 0.0000
# 5 0.0000 0.0000 0.0000 0.0000 11.3209 0.0000
# 6 0.0000 0.0000 0.0000 0.0000 0.0000 47.4087
#
#
#
# Elastic Compliance Matrix: (Units=1/GPa)
#
#
# Indices 1 2 3 4 5 6 
#
# 1 0.028190 -0.006817 -0.002480 0.000000 0.000000 0.000000
# 2 -0.006817 0.012399 -0.000360 0.000000 0.000000 0.000000
# 3 -0.002480 -0.000360 0.012152 0.000000 0.000000 0.000000
# 4 0.000000 0.000000 0.000000 0.025044 0.000000 0.000000
# 5 0.000000 0.000000 0.000000 0.000000 0.088332 0.000000
# 6 0.000000 0.000000 0.000000 0.000000 0.000000 0.021093
#
#
# Mechanical properties :
#
#
# Convention : Reuss Voigt Hill
#
# Bulk Modulus (GPa) = 29.91592 33.35798 31.63695
# Shear Modulus (GPa) = 22.97093 31.72634 27.34863
#
# Velocity S-wave (km/s) = 3.16541 3.72006 3.45389
# Velocity P-wave (km/s) = 5.13896 5.74477 5.45029
#
# Compressibility (1/GPa) = 0.03342702
#
# Stress axis : x y z
#
# Youngs Moduli (GPa) = 35.47356 80.65111 82.29223
#
# Poissons Ratio (x) = 0.54976 0.20411
# Poissons Ratio (y) = 0.24181 0.02963
# Poissons Ratio (z) = 0.08798 0.02904
#
# Static dielectric constant tensor:
#      x y z
#    x 3.159210 0.000000 0.000000 
#    y 0.000000 1.862050 0.000000 
#    z 0.000000 0.000000 1.897810 
# 
# From -- ./inp_files/1601.got.cif
#   From: 2010.05.17/outbox.cif.g08.bks.cpg/sg32_1_cif.got.tgz:1601.got - 2010.06.03 17:12:27.
