data_PCOD9344417
_publ_section_title
;
Structure prediction by ZEFSAII (Michael W. Deem and Ramdas Pophale) SiO2 
 PCOD9344417
Probable space group: P N A 21
;
_chemical_formula_sum "Si O2"
_cell_formula_units_Z 32
_cell_length_a 5.452106
_cell_length_b 26.871801
_cell_length_c 7.997698
_cell_angle_alpha 90.000000
_cell_angle_beta 90.000000
_cell_angle_gamma 90.000000
_cell_volume 1171.725999
_symmetry_space_group_name_H-M "P N A 21"
_symmetry_group_IT_number 33
_symmetry_cell_setting 'orthorhombic'
loop_
_space_group_symop_operation_xyz
x,y,z
-x,-y,1/2+z
1/2-x,1/2+y,1/2+z
1/2+x,1/2-y,z
loop_
_atom_site_type_symbol
_atom_site_label
_atom_site_fract_x
_atom_site_fract_y
_atom_site_fract_z
Si Si1 0.131255 0.856684 0.044030
Si Si2 0.542675 0.586851 0.521966
Si Si3 0.266111 0.767425 0.836573
Si Si4 0.956784 0.388167 0.069054
Si Si5 0.624900 0.899660 0.942837
Si Si6 0.401959 0.731543 0.220067
Si Si7 0.509643 0.495295 0.738770
Si Si8 0.009492 0.493260 0.570858
O O1 0.403472 0.879703 0.061007
O O2 0.893416 0.890277 0.013345
O O3 0.040060 0.820736 0.191991
O O4 0.167252 0.822304 0.878293
O O5 0.302128 0.619111 0.483684
O O6 0.522512 0.555955 0.701776
O O7 0.548873 0.538737 0.399809
O O8 0.771152 0.624223 0.514430
O O9 0.535003 0.761208 0.755852
O O10 0.332443 0.747007 0.025579
O O11 0.908895 0.375816 0.262018
O O12 0.986322 0.448325 0.048053
O O13 0.568054 0.958140 0.917603
O O14 0.624918 0.765561 0.293370
O O15 0.283032 0.479223 0.622355
O O16 0.786631 0.479918 0.693988
#
# Coordination Sequence:
#
# PCOD9344417 Si02
#       8
#     4   4   4   4   4   4   4   4
#     4  10  18  29  46  68 102 130 172 206 248 297
#     4  10  21  34  55  71  88 113 158 216 273 312
#     4   8  13  24  42  66  94 130 170 186 222 302
#     4  10  23  34  51  65  96 120 172 216 270 297
#     4  12  22  33  48  72  98 136 172 222 264 299
#     4   8  13  24  42  66  94 130 170 186 222 302
#     4  10  21  34  55  71  88 113 158 216 273 312
#     4  10  23  34  51  65  96 120 172 216 270 297
#
# _framework density 27.310141999999999
#
# number of rings (size 3 to 8) (size 9 to 14) (size 15 to 20)
#    0.000    2.500    0.000    5.250   14.000    0.000 
#    0.000    0.000    0.000    0.000    0.000    0.000 
#    0.000    0.000    0.000    0.000    0.000 2835.000 
#
# Total GULP energy -178371.175708 kJ/mol
# GULP energy per Si atom -5574.099241 kJ/mol
# Density = 2.724798 g / cm^3
# Si number density = 27.310142 Si / 1000 Ang^3
#
#
#
# Elastic Constant Matrix: (Units=GPa)
#
#
# Indices 1 2 3 4 5 6 
#
# 1 288.4868 22.4102 5.1615 0.0000 0.0000 0.0000
# 2 22.4102 38.1718 -9.7488 0.0000 0.0000 0.0000
# 3 5.1615 -9.7488 21.2607 0.0000 0.0000 0.0000
# 4 0.0000 0.0000 0.0000 -9.7210 0.0000 0.0000
# 5 0.0000 0.0000 0.0000 0.0000 26.3266 0.0000
# 6 0.0000 0.0000 0.0000 0.0000 0.0000 37.8492
#
#
#
# Elastic Compliance Matrix: (Units=1/GPa)
#
#
# Indices 1 2 3 4 5 6 
#
# 1 0.003717 -0.002733 -0.002156 0.000000 0.000000 0.000000
# 2 -0.002733 0.031681 0.015190 0.000000 0.000000 0.000000
# 3 -0.002156 0.015190 0.054524 0.000000 0.000000 0.000000
# 4 0.000000 0.000000 0.000000 -0.102870 0.000000 0.000000
# 5 0.000000 0.000000 0.000000 0.000000 0.037984 0.000000
# 6 0.000000 0.000000 0.000000 0.000000 0.000000 0.026421
#
#
# Mechanical properties :
#
#
# Convention : Reuss Voigt Hill
#
# Bulk Modulus (GPa) = 9.04760 42.61834 25.83297
# Shear Modulus (GPa) = 73.86045 32.89739 53.37892
#
# Velocity S-wave (km/s) = 5.20613 3.47448 4.42582
# Velocity P-wave (km/s) = 6.28160 5.63340 5.96631
#
# Compressibility (1/GPa) = 0.11052659
#
# Stress axis : x y z
#
# Youngs Moduli (GPa) = 269.01808 31.56438 18.34058
#
# Poissons Ratio (x) = 0.08626 0.03953
# Poissons Ratio (y) = 0.73518 -0.27860
# Poissons Ratio (z) = 0.57988 -0.47948
#
# Static dielectric constant tensor:
#      x y z
#    x 2.359120 0.000000 0.000000 
#    y 0.000000 2.198970 0.000000 
#    z 0.000000 0.000000 2.289020 
# 
# From -- ./inp_files/2868.got.cif
#   From: 2010.05.17/outbox.cif.g08.bks.cpg/sg33_2_cif.got.tgz:2868.got - 2010.06.03 17:15:25.
