data_PCOD9344181
_publ_section_title
;
Structure prediction by ZEFSAII (Michael W. Deem and Ramdas Pophale) SiO2 
 PCOD9344181
Probable space group: P B A 2
;
_chemical_formula_sum "Si O2"
_cell_formula_units_Z 22
_cell_length_a 10.479482
_cell_length_b 16.240766
_cell_length_c 5.237155
_cell_angle_alpha 90.000000
_cell_angle_beta 90.000000
_cell_angle_gamma 90.000000
_cell_volume 891.336626
_symmetry_space_group_name_H-M "P B A 2"
_symmetry_group_IT_number 32
_symmetry_cell_setting 'orthorhombic'
loop_
_space_group_symop_operation_xyz
x,y,z
-x,-y,z
1/2-x,1/2+y,z
1/2+x,1/2-y,z
loop_
_atom_site_type_symbol
_atom_site_label
_atom_site_fract_x
_atom_site_fract_y
_atom_site_fract_z
Si Si1 0.215702 0.527868 0.850670
Si Si2 0.430207 0.350172 0.260865
Si Si3 0.829312 0.282629 0.892145
Si Si4 0.682089 0.070751 0.375492
Si Si5 0.584040 0.236189 0.561704
Si Si6 0.500000 0.500000 0.895241
O O1 0.182969 0.620172 0.931519
O O2 0.148285 0.493630 0.597017
O O3 0.365770 0.525529 0.775429
O O4 0.186020 0.469231 0.094357
O O5 0.325224 0.394655 0.434836
O O6 0.557923 0.314617 0.383517
O O7 0.354476 0.273304 0.138664
O O8 0.466749 0.419400 0.059670
O O9 0.704527 0.250438 0.743779
O O10 0.955377 0.269057 0.724467
O O11 0.597569 0.152424 0.400933
#
# Coordination Sequence:
#
# PCOD9344181 Si02
#       6
#     4   4   4   4   4   2
#     4  11  28  48  77 117 157 209 261 330 399 486
#     4  11  27  48  80 114 156 207 266 339 391 486
#     4  12  29  49  80 118 157 214 268 337 410 491
#     4  11  27  50  74 114 158 204 262 330 395 483
#     4  12  27  49  80 111 158 209 270 326 415 482
#     4  10  24  46  80 108 156 198 274 314 398 468
#
# _framework density 24.682030000000001
#
# number of rings (size 3 to 8) (size 9 to 14) (size 15 to 20)
#    0.000    0.727    1.818    3.273   17.818    1.455 
#    0.000    0.000    0.000    0.000    0.000    0.000 
#    0.000    0.000    0.000    0.000    0.000    0.000 
#
# Total GULP energy -123249.440289 kJ/mol
# GULP energy per Si atom -5602.247286 kJ/mol
# Density = 2.462585 g / cm^3
# Si number density = 24.682030 Si / 1000 Ang^3
#
#
#
# Elastic Constant Matrix: (Units=GPa)
#
#
# Indices 1 2 3 4 5 6 
#
# 1 122.2566 18.2417 24.2996 0.0000 0.0000 0.0000
# 2 18.2417 136.1359 41.6473 0.0000 0.0000 0.0000
# 3 24.2996 41.6473 83.0408 0.0000 0.0000 0.0000
# 4 0.0000 0.0000 0.0000 66.2410 0.0000 0.0000
# 5 0.0000 0.0000 0.0000 0.0000 72.3043 0.0000
# 6 0.0000 0.0000 0.0000 0.0000 0.0000 39.3555
#
#
#
# Elastic Compliance Matrix: (Units=1/GPa)
#
#
# Indices 1 2 3 4 5 6 
#
# 1 0.008709 -0.000458 -0.002319 0.000000 0.000000 0.000000
# 2 -0.000458 0.008701 -0.004230 0.000000 0.000000 0.000000
# 3 -0.002319 -0.004230 0.014842 0.000000 0.000000 0.000000
# 4 0.000000 0.000000 0.000000 0.015096 0.000000 0.000000
# 5 0.000000 0.000000 0.000000 0.000000 0.013830 0.000000
# 6 0.000000 0.000000 0.000000 0.000000 0.000000 0.025409
#
#
# Mechanical properties :
#
#
# Convention : Reuss Voigt Hill
#
# Bulk Modulus (GPa) = 54.82678 56.64559 55.73619
# Shear Modulus (GPa) = 46.86895 52.72981 49.79938
#
# Velocity S-wave (km/s) = 4.36238 4.62710 4.49668
# Velocity P-wave (km/s) = 6.90183 7.17960 7.04208
#
# Compressibility (1/GPa) = 0.01823926
#
# Stress axis : x y z
#
# Youngs Moduli (GPa) = 114.82788 114.93020 67.37524
#
# Poissons Ratio (x) = 0.05258 0.15624
# Poissons Ratio (y) = 0.05254 0.28499
# Poissons Ratio (z) = 0.26627 0.48614
#
# Static dielectric constant tensor:
#      x y z
#    x 1.945500 0.000000 0.000000 
#    y 0.000000 1.882390 0.000000 
#    z 0.000000 0.000000 2.058240 
# 
# From -- ./inp_files/831.got.cif
#   From: 2010.05.17/outbox.cif.g08.bks.cpg/sg32_1_cif.got.tgz:831.got - 2010.06.03 17:12:27.
