data_PCOD9344689
_publ_section_title
;
Structure prediction by ZEFSAII (Michael W. Deem and Ramdas Pophale) SiO2 
 PCOD9344689
Probable space group: P N A 21
;
_chemical_formula_sum "Si O2"
_cell_formula_units_Z 28
_cell_length_a 5.377483
_cell_length_b 13.449157
_cell_length_c 15.088429
_cell_angle_alpha 90.000000
_cell_angle_beta 90.000000
_cell_angle_gamma 90.000000
_cell_volume 1091.234613
_symmetry_space_group_name_H-M "P N A 21"
_symmetry_group_IT_number 33
_symmetry_cell_setting 'orthorhombic'
loop_
_space_group_symop_operation_xyz
x,y,z
-x,-y,1/2+z
1/2-x,1/2+y,1/2+z
1/2+x,1/2-y,z
loop_
_atom_site_type_symbol
_atom_site_label
_atom_site_fract_x
_atom_site_fract_y
_atom_site_fract_z
Si Si1 0.935337 0.030087 0.461190
Si Si2 0.943684 0.297610 0.169986
Si Si3 0.529643 0.313243 0.615220
Si Si4 0.452761 0.286314 0.369380
Si Si5 0.108185 0.650426 0.367319
Si Si6 0.110233 0.874645 0.300503
Si Si7 0.935405 0.569682 0.527065
O O1 0.993311 0.121858 0.529435
O O2 0.975748 0.094496 0.369415
O O3 0.162209 0.959946 0.496096
O O4 0.651682 0.002614 0.490322
O O5 0.665769 0.274644 0.137692
O O6 0.934622 0.273627 0.274942
O O7 0.028106 0.402876 0.129412
O O8 0.305850 0.232715 0.621213
O O9 0.482748 0.383036 0.701284
O O10 0.691231 0.237985 0.413042
O O11 0.144848 0.756438 0.321552
O O12 0.888191 0.588535 0.319653
O O13 0.011480 0.665352 0.466691
O O14 0.376525 0.596269 0.363274
#
# Coordination Sequence:
#
# PCOD9344689 Si02
#       7
#     4   4   4   4   4   4   4
#     4  12  26  43  65 103 141 173 221 290 355 385
#     4  10  23  43  72  97 130 185 241 274 328 427
#     4  12  21  41  69  94 133 170 228 269 324 417
#     4  10  21  45  73  96 127 186 243 274 324 428
#     4  10  20  36  61  88 131 159 206 264 324 400
#     4  10  19  37  61  97 112 161 223 260 314 388
#     4  12  26  43  63 105 142 172 220 293 353 387
#
# _framework density 25.659013000000002
#
# number of rings (size 3 to 8) (size 9 to 14) (size 15 to 20)
#    0.000    1.143    2.857    4.286    4.000    0.000 
#    0.000   17.143    0.000    0.000    0.000    0.000 
#    0.000    0.000    0.000    0.000    0.000    0.000 
#
# Total GULP energy -156150.200742 kJ/mol
# GULP energy per Si atom -5576.792884 kJ/mol
# Density = 2.560061 g / cm^3
# Si number density = 25.659013 Si / 1000 Ang^3
#
#
#
# Elastic Constant Matrix: (Units=GPa)
#
#
# Indices 1 2 3 4 5 6 
#
# 1 139.1105 17.8571 -14.4331 0.0000 0.0000 0.0000
# 2 17.8571 31.5105 -4.7131 0.0000 0.0000 0.0000
# 3 -14.4331 -4.7131 73.4211 0.0000 0.0000 0.0000
# 4 0.0000 0.0000 0.0000 2.5957 0.0000 0.0000
# 5 0.0000 0.0000 0.0000 0.0000 11.6216 0.0000
# 6 0.0000 0.0000 0.0000 0.0000 0.0000 40.1198
#
#
#
# Elastic Compliance Matrix: (Units=1/GPa)
#
#
# Indices 1 2 3 4 5 6 
#
# 1 0.007869 -0.004269 0.001273 0.000000 0.000000 0.000000
# 2 -0.004269 0.034359 0.001366 0.000000 0.000000 0.000000
# 3 0.001273 0.001366 0.013958 0.000000 0.000000 0.000000
# 4 0.000000 0.000000 0.000000 0.385254 0.000000 0.000000
# 5 0.000000 0.000000 0.000000 0.000000 0.086047 0.000000
# 6 0.000000 0.000000 0.000000 0.000000 0.000000 0.024925
#
#
# Mechanical properties :
#
#
# Convention : Reuss Voigt Hill
#
# Bulk Modulus (GPa) = 18.89413 26.82930 22.86171
# Shear Modulus (GPa) = 8.72124 27.22282 17.97203
#
# Velocity S-wave (km/s) = 1.84561 3.26075 2.64941
# Velocity P-wave (km/s) = 3.45271 4.96543 4.27649
#
# Compressibility (1/GPa) = 0.05292649
#
# Stress axis : x y z
#
# Youngs Moduli (GPa) = 127.08819 29.10445 71.64354
#
# Poissons Ratio (x) = 0.12424 -0.09119
# Poissons Ratio (y) = 0.54251 -0.09790
# Poissons Ratio (z) = -0.16175 -0.03977
#
# Static dielectric constant tensor:
#      x y z
#    x 2.164390 0.000000 0.000000 
#    y 0.000000 2.342650 0.000000 
#    z 0.000000 0.000000 2.216300 
# 
# From -- ./inp_files/7419.got.cif
#   From: 2010.05.17/outbox.cif.g08.bks.cpg/sg33_4_cif.got.tgz:7419.got - 2010.06.03 17:15:25.
