data_PCOD9344695
_publ_section_title
;
Structure prediction by ZEFSAII (Michael W. Deem and Ramdas Pophale) SiO2 
 PCOD9344695
Probable space group: P N A 21
;
_chemical_formula_sum "Si O2"
_cell_formula_units_Z 24
_cell_length_a 5.449184
_cell_length_b 8.090100
_cell_length_c 22.527160
_cell_angle_alpha 90.000000
_cell_angle_beta 90.000000
_cell_angle_gamma 90.000000
_cell_volume 993.097312
_symmetry_space_group_name_H-M "P N A 21"
_symmetry_group_IT_number 33
_symmetry_cell_setting 'orthorhombic'
loop_
_space_group_symop_operation_xyz
x,y,z
-x,-y,1/2+z
1/2-x,1/2+y,1/2+z
1/2+x,1/2-y,z
loop_
_atom_site_type_symbol
_atom_site_label
_atom_site_fract_x
_atom_site_fract_y
_atom_site_fract_z
Si Si1 0.009045 0.645796 0.094410
Si Si2 0.590548 0.409107 0.928646
Si Si3 0.950296 0.658410 0.673655
Si Si4 0.497524 0.661847 0.290817
Si Si5 0.091666 0.456318 0.973028
Si Si6 0.553875 0.286533 0.302648
O O1 0.744400 0.733582 0.093904
O O2 0.030581 0.525818 0.150540
O O3 0.033824 0.528456 0.036933
O O4 0.522733 0.346695 0.862911
O O5 0.359859 0.513935 0.951405
O O6 0.614838 0.243784 0.968898
O O7 0.855575 0.493319 0.932072
O O8 0.694435 0.742298 0.653498
O O9 0.947868 0.668594 0.745129
O O10 0.737259 0.763347 0.271680
O O11 0.539698 0.470541 0.276330
O O12 0.305280 0.244989 0.336157
#
# Coordination Sequence:
#
# PCOD9344695 Si02
#       6
#     4   4   4   4   4   4
#     4  12  26  43  65 103 136 172 223 283 331 385
#     4  10  19  37  63  94 125 177 214 253 314 400
#     4  10  23  45  70  93 128 175 223 270 339 406
#     4  12  21  40  69 101 131 171 230 274 323 390
#     4  10  20  36  61  91 134 167 218 253 319 392
#     4  10  23  45  64  96 132 170 224 273 340 395
#
# _framework density 24.166816000000001
#
# number of rings (size 3 to 8) (size 9 to 14) (size 15 to 20)
#    0.000    1.333    3.333    3.000    4.667    0.000 
#    0.000   25.000    0.000    0.000    0.000    0.000 
#    0.000    0.000    0.000    0.000    0.000    0.000 
#
# Total GULP energy -134222.543964 kJ/mol
# GULP energy per Si atom -5592.605998 kJ/mol
# Density = 2.411181 g / cm^3
# Si number density = 24.166816 Si / 1000 Ang^3
#
#
#
# Elastic Constant Matrix: (Units=GPa)
#
#
# Indices 1 2 3 4 5 6 
#
# 1 213.6483 13.7750 -8.6875 0.0000 0.0000 0.0000
# 2 13.7750 57.4682 21.3666 0.0000 0.0000 0.0000
# 3 -8.6875 21.3666 39.5998 0.0000 0.0000 0.0000
# 4 0.0000 0.0000 0.0000 40.1040 0.0000 0.0000
# 5 0.0000 0.0000 0.0000 0.0000 14.1398 0.0000
# 6 0.0000 0.0000 0.0000 0.0000 0.0000 43.8153
#
#
#
# Elastic Compliance Matrix: (Units=1/GPa)
#
#
# Indices 1 2 3 4 5 6 
#
# 1 0.004894 -0.001967 0.002135 0.000000 0.000000 0.000000
# 2 -0.001967 0.022558 -0.012603 0.000000 0.000000 0.000000
# 3 0.002135 -0.012603 0.032521 0.000000 0.000000 0.000000
# 4 0.000000 0.000000 0.000000 0.024935 0.000000 0.000000
# 5 0.000000 0.000000 0.000000 0.000000 0.070722 0.000000
# 6 0.000000 0.000000 0.000000 0.000000 0.000000 0.022823
#
#
# Mechanical properties :
#
#
# Convention : Reuss Voigt Hill
#
# Bulk Modulus (GPa) = 28.48712 40.40270 34.44491
# Shear Modulus (GPa) = 23.25308 38.56264 30.90786
#
# Velocity S-wave (km/s) = 3.10528 3.99894 3.58010
# Velocity P-wave (km/s) = 4.96693 6.17062 5.60120
#
# Compressibility (1/GPa) = 0.03510359
#
# Stress axis : x y z
#
# Youngs Moduli (GPa) = 204.32263 44.32980 30.74921
#
# Poissons Ratio (x) = 0.08719 -0.06565
# Poissons Ratio (y) = 0.40189 0.38753
# Poissons Ratio (z) = -0.43623 0.55869
#
# Static dielectric constant tensor:
#      x y z
#    x 2.028780 0.000000 0.000000 
#    y 0.000000 1.906570 0.000000 
#    z 0.000000 0.000000 1.897200 
# 
# From -- ./inp_files/9314.got.cif
#   From: 2010.05.17/outbox.cif.g08.bks.cpg/sg33_5_cif.got.tgz:9314.got - 2010.06.03 17:15:25.
