data_PCOD9344995
_publ_section_title
;
Structure prediction by ZEFSAII (Michael W. Deem and Ramdas Pophale) SiO2 
 PCOD9344995
Probable space group: P N A 21
;
_chemical_formula_sum "Si O2"
_cell_formula_units_Z 28
_cell_length_a 7.871464
_cell_length_b 15.859883
_cell_length_c 9.869529
_cell_angle_alpha 90.000000
_cell_angle_beta 90.000000
_cell_angle_gamma 90.000000
_cell_volume 1232.116916
_symmetry_space_group_name_H-M "P N A 21"
_symmetry_group_IT_number 33
_symmetry_cell_setting 'orthorhombic'
loop_
_space_group_symop_operation_xyz
x,y,z
-x,-y,1/2+z
1/2-x,1/2+y,1/2+z
1/2+x,1/2-y,z
loop_
_atom_site_type_symbol
_atom_site_label
_atom_site_fract_x
_atom_site_fract_y
_atom_site_fract_z
Si Si1 0.764236 0.677834 0.068050
Si Si2 0.366147 0.378466 0.937207
Si Si3 0.695044 0.933808 0.273152
Si Si4 0.829687 0.483603 0.262578
Si Si5 0.616537 0.504572 0.014992
Si Si6 0.310687 0.734187 0.361021
Si Si7 0.352346 0.144100 0.491385
O O1 0.625022 0.603907 0.048339
O O2 0.798810 0.715241 0.218757
O O3 0.705117 0.759850 0.988443
O O4 0.944809 0.642614 0.017750
O O5 0.282220 0.442299 0.830207
O O6 0.516138 0.318135 0.879146
O O7 0.228620 0.306106 0.972234
O O8 0.455742 0.443441 0.040324
O O9 0.677674 0.843557 0.350146
O O10 0.730587 0.904296 0.119783
O O11 0.522186 0.985513 0.269411
O O12 0.831682 0.986917 0.358864
O O13 0.766374 0.470094 0.111154
O O14 0.806864 0.403051 0.355331
#
# Coordination Sequence:
#
# PCOD9344995 Si02
#       7
#     4   4   4   4   4   4   4
#     4  11  21  40  66  98 126 171 225 269 319 395
#     4  11  23  37  65  94 129 169 222 270 321 383
#     4  10  20  41  70  98 124 174 216 272 326 397
#     4  12  22  42  63 100 134 170 214 278 336 389
#     4  11  24  40  67  98 135 165 224 272 329 398
#     4  10  20  38  65  95 125 165 222 269 316 383
#     4  11  24  38  70  93 133 174 221 272 329 389
#
# _framework density 22.725116
#
# number of rings (size 3 to 8) (size 9 to 14) (size 15 to 20)
#    0.000    1.143    4.286    2.571    2.000    2.286 
#    0.000    2.857    6.286    0.000    0.000    0.000 
#    0.000    0.000    0.000    0.000    0.000    0.000 
#
# Total GULP energy -156304.383977 kJ/mol
# GULP energy per Si atom -5582.299428 kJ/mol
# Density = 2.267339 g / cm^3
# Si number density = 22.725116 Si / 1000 Ang^3
#
#
#
# Elastic Constant Matrix: (Units=GPa)
#
#
# Indices 1 2 3 4 5 6 
#
# 1 42.3106 13.1189 -6.7770 0.0000 0.0000 0.0000
# 2 13.1189 155.8987 31.0581 0.0000 0.0000 0.0000
# 3 -6.7770 31.0581 41.7983 0.0000 0.0000 0.0000
# 4 0.0000 0.0000 0.0000 40.6686 0.0000 0.0000
# 5 0.0000 0.0000 0.0000 0.0000 13.5177 0.0000
# 6 0.0000 0.0000 0.0000 0.0000 0.0000 39.0063
#
#
#
# Elastic Compliance Matrix: (Units=1/GPa)
#
#
# Indices 1 2 3 4 5 6 
#
# 1 0.025820 -0.003529 0.006809 0.000000 0.000000 0.000000
# 2 -0.003529 0.008011 -0.006525 0.000000 0.000000 0.000000
# 3 0.006809 -0.006525 0.029877 0.000000 0.000000 0.000000
# 4 0.000000 0.000000 0.000000 0.024589 0.000000 0.000000
# 5 0.000000 0.000000 0.000000 0.000000 0.073977 0.000000
# 6 0.000000 0.000000 0.000000 0.000000 0.000000 0.025637
#
#
# Mechanical properties :
#
#
# Convention : Reuss Voigt Hill
#
# Bulk Modulus (GPa) = 17.47748 34.97862 26.22805
# Shear Modulus (GPa) = 23.42207 32.14568 27.78388
#
# Velocity S-wave (km/s) = 3.21389 3.76512 3.50037
# Velocity P-wave (km/s) = 4.63461 5.85893 5.28236
#
# Compressibility (1/GPa) = 0.05721649
#
# Stress axis : x y z
#
# Youngs Moduli (GPa) = 38.73040 124.82365 33.47089
#
# Poissons Ratio (x) = 0.44052 -0.22789
# Poissons Ratio (y) = 0.13668 0.21840
# Poissons Ratio (z) = -0.26370 0.81447
#
# Static dielectric constant tensor:
#      x y z
#    x 1.937460 0.000000 0.000000 
#    y 0.000000 1.851920 0.000000 
#    z 0.000000 0.000000 1.848200 
# 
# From -- ./inp_files/5927.got.cif
#   From: 2010.05.17/outbox.cif.g08.bks.cpg/sg33_3_cif.got.tgz:5927.got - 2010.06.03 17:15:25.
