data_PCOD9344599
_publ_section_title
;
Structure prediction by ZEFSAII (Michael W. Deem and Ramdas Pophale) SiO2 
 PCOD9344599
Probable space group: P N A 21
;
_chemical_formula_sum "Si O2"
_cell_formula_units_Z 24
_cell_length_a 5.307316
_cell_length_b 20.430725
_cell_length_c 8.054146
_cell_angle_alpha 90.000000
_cell_angle_beta 90.000000
_cell_angle_gamma 90.000000
_cell_volume 873.329686
_symmetry_space_group_name_H-M "P N A 21"
_symmetry_group_IT_number 33
_symmetry_cell_setting 'orthorhombic'
loop_
_space_group_symop_operation_xyz
x,y,z
-x,-y,1/2+z
1/2-x,1/2+y,1/2+z
1/2+x,1/2-y,z
loop_
_atom_site_type_symbol
_atom_site_label
_atom_site_fract_x
_atom_site_fract_y
_atom_site_fract_z
Si Si1 0.329700 0.613348 0.341740
Si Si2 0.302531 0.989932 0.664116
Si Si3 0.360145 0.089035 0.366352
Si Si4 0.361061 0.355691 0.265467
Si Si5 0.661924 0.179956 0.940662
Si Si6 0.171837 0.226693 0.618453
O O1 0.618996 0.633499 0.366843
O O2 0.284289 0.537642 0.312394
O O3 0.109362 0.644731 0.456019
O O4 0.270169 0.653065 0.169935
O O5 0.300949 0.035363 0.505258
O O6 0.571907 0.958782 0.710339
O O7 0.131819 0.925741 0.663450
O O8 0.142054 0.142067 0.334274
O O9 0.628849 0.126754 0.387816
O O10 0.270550 0.304429 0.124535
O O11 0.636067 0.236002 0.800104
O O12 0.906351 0.239002 0.532587
#
# Coordination Sequence:
#
# PCOD9344599 Si02
#       6
#     4   4   4   4   4   4
#     4  10  20  31  58  82 110 141 185 238 282 320
#     4  10  24  35  55  77 121 145 191 220 282 338
#     4  10  24  35  52  77 113 156 180 223 270 344
#     4  10  23  33  54  76 112 150 190 219 281 328
#     4  10  19  35  55  82 110 144 182 244 270 331
#     4   8  16  31  50  82 104 130 184 236 281 307
#
# _framework density 27.481034000000001
#
# number of rings (size 3 to 8) (size 9 to 14) (size 15 to 20)
#    1.000    1.333    0.000    2.000    9.333    0.000 
#    0.000    0.000    0.000    0.000    0.000   63.000 
#    0.000    0.000    0.000    0.000    0.000    0.000 
#
# Total GULP energy -134002.871941 kJ/mol
# GULP energy per Si atom -5583.452998 kJ/mol
# Density = 2.741849 g / cm^3
# Si number density = 27.481034 Si / 1000 Ang^3
#
#
#
# Elastic Constant Matrix: (Units=GPa)
#
#
# Indices 1 2 3 4 5 6 
#
# 1 123.4370 2.1227 -15.7014 0.0000 0.0000 0.0000
# 2 2.1227 94.3323 -3.8313 0.0000 0.0000 0.0000
# 3 -15.7014 -3.8313 42.5455 0.0000 0.0000 0.0000
# 4 0.0000 0.0000 0.0000 37.8398 0.0000 0.0000
# 5 0.0000 0.0000 0.0000 0.0000 28.7978 0.0000
# 6 0.0000 0.0000 0.0000 0.0000 0.0000 36.1080
#
#
#
# Elastic Compliance Matrix: (Units=1/GPa)
#
#
# Indices 1 2 3 4 5 6 
#
# 1 0.008501 -0.000064 0.003131 0.000000 0.000000 0.000000
# 2 -0.000064 0.010640 0.000935 0.000000 0.000000 0.000000
# 3 0.003131 0.000935 0.024744 0.000000 0.000000 0.000000
# 4 0.000000 0.000000 0.000000 0.026427 0.000000 0.000000
# 5 0.000000 0.000000 0.000000 0.000000 0.034725 0.000000
# 6 0.000000 0.000000 0.000000 0.000000 0.000000 0.027695
#
#
# Mechanical properties :
#
#
# Convention : Reuss Voigt Hill
#
# Bulk Modulus (GPa) = 19.27203 25.05498 22.16350
# Shear Modulus (GPa) = 35.20523 39.06410 37.13466
#
# Velocity S-wave (km/s) = 3.58309 3.77436 3.67997
# Velocity P-wave (km/s) = 4.91387 5.30390 5.11261
#
# Compressibility (1/GPa) = 0.05188867
#
# Stress axis : x y z
#
# Youngs Moduli (GPa) = 117.63704 93.98300 40.41372
#
# Poissons Ratio (x) = 0.00602 -0.12655
# Poissons Ratio (y) = 0.00754 -0.03777
# Poissons Ratio (z) = -0.36837 -0.08783
#
# Static dielectric constant tensor:
#      x y z
#    x 2.152870 0.000000 0.000000 
#    y 0.000000 2.127220 0.000000 
#    z 0.000000 0.000000 2.355760 
# 
# From -- ./inp_files/2761.got.cif
#   From: 2010.05.17/outbox.cif.g08.bks.cpg/sg33_2_cif.got.tgz:2761.got - 2010.06.03 17:15:25.
