data_PCOD9344653
_publ_section_title
;
Structure prediction by ZEFSAII (Michael W. Deem and Ramdas Pophale) SiO2 
 PCOD9344653
Probable space group: P N A 21
;
_chemical_formula_sum "Si O2"
_cell_formula_units_Z 24
_cell_length_a 5.432829
_cell_length_b 15.760507
_cell_length_c 10.130173
_cell_angle_alpha 90.000000
_cell_angle_beta 90.000000
_cell_angle_gamma 90.000000
_cell_volume 867.387346
_symmetry_space_group_name_H-M "P N A 21"
_symmetry_group_IT_number 33
_symmetry_cell_setting 'orthorhombic'
loop_
_space_group_symop_operation_xyz
x,y,z
-x,-y,1/2+z
1/2-x,1/2+y,1/2+z
1/2+x,1/2-y,z
loop_
_atom_site_type_symbol
_atom_site_label
_atom_site_fract_x
_atom_site_fract_y
_atom_site_fract_z
Si Si1 0.501822 0.987775 0.547380
Si Si2 0.323624 0.064797 0.304060
Si Si3 0.186041 0.804586 0.936362
Si Si4 0.021643 0.803847 0.195114
Si Si5 0.805666 0.256538 0.155828
Si Si6 0.990993 0.062738 0.925733
O O1 0.467540 0.064947 0.443480
O O2 0.540148 0.998733 0.702565
O O3 0.747070 0.940941 0.495778
O O4 0.246258 0.937341 0.522720
O O5 0.309227 0.154157 0.233527
O O6 0.063477 0.023809 0.342638
O O7 0.448876 0.759096 0.956464
O O8 0.102402 0.859803 0.064142
O O9 0.188140 0.811841 0.776488
O O10 0.745778 0.764531 0.197964
O O11 0.033940 0.863289 0.321337
O O12 0.555595 0.250677 0.077617
#
# Coordination Sequence:
#
# PCOD9344653 Si02
#       6
#     4   4   4   4   4   4
#     4  10  25  44  70 100 138 177 239 273 353 406
#     4  10  26  46  73  99 141 182 234 286 343 419
#     4   8  16  31  51  86 124 155 209 265 321 381
#     4  10  19  36  60  93 135 167 217 277 334 398
#     4  10  22  39  62  97 130 174 223 278 338 402
#     4  10  24  42  66 101 134 181 226 281 343 408
#
# _framework density 27.669301000000001
#
# number of rings (size 3 to 8) (size 9 to 14) (size 15 to 20)
#    1.000    1.333    0.000    1.000    4.667    4.000 
#   12.000    5.000    0.000    0.000    0.000    0.000 
#    0.000    0.000    0.000    0.000    0.000    0.000 
#
# Total GULP energy -133997.727759 kJ/mol
# GULP energy per Si atom -5583.238657 kJ/mol
# Density = 2.760632 g / cm^3
# Si number density = 27.669301 Si / 1000 Ang^3
#
#
#
# Elastic Constant Matrix: (Units=GPa)
#
#
# Indices 1 2 3 4 5 6 
#
# 1 249.1463 28.0093 26.0179 0.0000 0.0000 0.0000
# 2 28.0093 51.2461 38.4460 0.0000 0.0000 0.0000
# 3 26.0179 38.4460 93.2227 0.0000 0.0000 0.0000
# 4 0.0000 0.0000 0.0000 40.5717 0.0000 0.0000
# 5 0.0000 0.0000 0.0000 0.0000 38.4392 0.0000
# 6 0.0000 0.0000 0.0000 0.0000 0.0000 21.3687
#
#
#
# Elastic Compliance Matrix: (Units=1/GPa)
#
#
# Indices 1 2 3 4 5 6 
#
# 1 0.004284 -0.002091 -0.000333 0.000000 0.000000 0.000000
# 2 -0.002091 0.029277 -0.011491 0.000000 0.000000 0.000000
# 3 -0.000333 -0.011491 0.015559 0.000000 0.000000 0.000000
# 4 0.000000 0.000000 0.000000 0.024648 0.000000 0.000000
# 5 0.000000 0.000000 0.000000 0.000000 0.026015 0.000000
# 6 0.000000 0.000000 0.000000 0.000000 0.000000 0.046797
#
#
# Mechanical properties :
#
#
# Convention : Reuss Voigt Hill
#
# Bulk Modulus (GPa) = 46.97118 64.28463 55.62791
# Shear Modulus (GPa) = 27.54726 40.15205 33.84965
#
# Velocity S-wave (km/s) = 3.15872 3.81352 3.50146
# Velocity P-wave (km/s) = 5.50601 6.53255 6.04112
#
# Compressibility (1/GPa) = 0.02128965
#
# Stress axis : x y z
#
# Youngs Moduli (GPa) = 233.44838 34.15624 64.27254
#
# Poissons Ratio (x) = 0.07144 0.02140
# Poissons Ratio (y) = 0.48824 0.73852
# Poissons Ratio (z) = 0.07774 0.39247
#
# Static dielectric constant tensor:
#      x y z
#    x 2.187780 0.000000 0.000000 
#    y 0.000000 2.437290 0.000000 
#    z 0.000000 0.000000 2.220640 
# 
# From -- ./inp_files/5459.got.cif
#   From: 2010.05.17/outbox.cif.g08.bks.cpg/sg33_3_cif.got.tgz:5459.got - 2010.06.03 17:15:25.
