data_PCOD9344802
_publ_section_title
;
Structure prediction by ZEFSAII (Michael W. Deem and Ramdas Pophale) SiO2 
 PCOD9344802
Probable space group: P N A 21
;
_chemical_formula_sum "Si O2"
_cell_formula_units_Z 32
_cell_length_a 8.964471
_cell_length_b 18.936292
_cell_length_c 9.866467
_cell_angle_alpha 90.000000
_cell_angle_beta 90.000000
_cell_angle_gamma 90.000000
_cell_volume 1674.870665
_symmetry_space_group_name_H-M "P N A 21"
_symmetry_group_IT_number 33
_symmetry_cell_setting 'orthorhombic'
loop_
_space_group_symop_operation_xyz
x,y,z
-x,-y,1/2+z
1/2-x,1/2+y,1/2+z
1/2+x,1/2-y,z
loop_
_atom_site_type_symbol
_atom_site_label
_atom_site_fract_x
_atom_site_fract_y
_atom_site_fract_z
Si Si1 0.952209 0.841041 0.175700
Si Si2 0.122367 0.908333 0.953152
Si Si3 0.818469 0.490780 0.451448
Si Si4 0.674219 0.483555 0.744102
Si Si5 0.441564 0.886536 0.041477
Si Si6 0.590195 0.909679 0.438393
Si Si7 0.240407 0.509589 0.656488
Si Si8 0.874695 0.288338 0.735762
O O1 0.929970 0.914791 0.253651
O O2 0.793951 0.802287 0.189232
O O3 0.080544 0.792995 0.240318
O O4 0.999693 0.858739 0.021200
O O5 0.774829 0.989240 0.089038
O O6 0.110602 0.944897 0.808084
O O7 0.285987 0.871412 0.965592
O O8 0.726198 0.484941 0.313536
O O9 0.931981 0.424051 0.452474
O O10 0.924374 0.559692 0.452279
O O11 0.819432 0.461287 0.833991
O O12 0.364065 0.474836 0.558960
O O13 0.515438 0.824183 0.125297
O O14 0.390166 0.949889 0.142727
O O15 0.675236 0.922021 0.580684
O O16 0.599551 0.832582 0.373316
#
# Coordination Sequence:
#
# PCOD9344802 Si02
#       8
#     4   4   4   4   4   4   4   4
#     4  11  23  36  56  84 111 157 192 249 295 349
#     4   9  20  36  51  84 114 147 188 250 295 343
#     4  11  14  28  55  94 114 147 184 235 297 356
#     4  10  20  33  56  88 120 147 196 254 300 349
#     4   9  17  30  54  83 115 148 187 238 283 355
#     4   9  15  30  51  85 114 148 187 239 283 350
#     4   8  17  26  54  83 121 133 187 227 302 337
#     4  11  20  37  55  87 115 155 207 242 293 369
#
# _framework density 19.105954000000001
#
# number of rings (size 3 to 8) (size 9 to 14) (size 15 to 20)
#    0.750    1.500    5.000    1.500    0.000    1.000 
#    0.000    0.000    0.000    0.000   26.000    0.000 
#    0.000    0.000    0.000    0.000    0.000    0.000 
#
# Total GULP energy -178209.446492 kJ/mol
# GULP energy per Si atom -5569.045203 kJ/mol
# Density = 1.906247 g / cm^3
# Si number density = 19.105954 Si / 1000 Ang^3
#
#
#
# Elastic Constant Matrix: (Units=GPa)
#
#
# Indices 1 2 3 4 5 6 
#
# 1 80.5506 24.0932 22.7170 0.0000 0.0000 0.0000
# 2 24.0932 45.7231 25.7250 0.0000 0.0000 0.0000
# 3 22.7170 25.7250 106.9248 0.0000 0.0000 0.0000
# 4 0.0000 0.0000 0.0000 22.2474 0.0000 0.0000
# 5 0.0000 0.0000 0.0000 0.0000 18.1632 0.0000
# 6 0.0000 0.0000 0.0000 0.0000 0.0000 31.4892
#
#
#
# Elastic Compliance Matrix: (Units=1/GPa)
#
#
# Indices 1 2 3 4 5 6 
#
# 1 0.014937 -0.007038 -0.001480 0.000000 0.000000 0.000000
# 2 -0.007038 0.028611 -0.005388 0.000000 0.000000 0.000000
# 3 -0.001480 -0.005388 0.010963 0.000000 0.000000 0.000000
# 4 0.000000 0.000000 0.000000 0.044949 0.000000 0.000000
# 5 0.000000 0.000000 0.000000 0.000000 0.055056 0.000000
# 6 0.000000 0.000000 0.000000 0.000000 0.000000 0.031757
#
#
# Mechanical properties :
#
#
# Convention : Reuss Voigt Hill
#
# Bulk Modulus (GPa) = 37.45567 42.02988 39.74277
# Shear Modulus (GPa) = 22.42290 25.09084 23.75687
#
# Velocity S-wave (km/s) = 3.42951 3.62781 3.53005
# Velocity P-wave (km/s) = 5.94381 6.29238 6.12057
#
# Compressibility (1/GPa) = 0.02669823
#
# Stress axis : x y z
#
# Youngs Moduli (GPa) = 66.94707 34.95160 91.21430
#
# Poissons Ratio (x) = 0.24599 0.13502
# Poissons Ratio (y) = 0.47118 0.49148
# Poissons Ratio (z) = 0.09910 0.18833
#
# Static dielectric constant tensor:
#      x y z
#    x 1.744940 0.000000 0.000000 
#    y 0.000000 1.688510 0.000000 
#    z 0.000000 0.000000 1.689890 
# 
# From -- ./inp_files/6112.got.cif
#   From: 2010.05.17/outbox.cif.g08.bks.cpg/sg33_4_cif.got.tgz:6112.got - 2010.06.03 17:15:25.
