data_PCOD9344567
_publ_section_title
;
Structure prediction by ZEFSAII (Michael W. Deem and Ramdas Pophale) SiO2 
 PCOD9344567
Probable space group: P N A 21
;
_chemical_formula_sum "Si O2"
_cell_formula_units_Z 28
_cell_length_a 10.963433
_cell_length_b 7.895817
_cell_length_c 13.276298
_cell_angle_alpha 90.000000
_cell_angle_beta 90.000000
_cell_angle_gamma 90.000000
_cell_volume 1149.266197
_symmetry_space_group_name_H-M "P N A 21"
_symmetry_group_IT_number 33
_symmetry_cell_setting 'orthorhombic'
loop_
_space_group_symop_operation_xyz
x,y,z
-x,-y,1/2+z
1/2-x,1/2+y,1/2+z
1/2+x,1/2-y,z
loop_
_atom_site_type_symbol
_atom_site_label
_atom_site_fract_x
_atom_site_fract_y
_atom_site_fract_z
Si Si1 0.501180 0.945227 0.596410
Si Si2 0.594056 0.335695 0.822123
Si Si3 0.980255 0.550912 0.822772
Si Si4 0.172232 0.652464 0.967663
Si Si5 0.347861 0.490911 0.820815
Si Si6 0.290423 0.824282 0.150066
Si Si7 0.197230 0.648356 0.445512
O O1 0.465407 0.890659 0.708449
O O2 0.383677 0.988518 0.528878
O O3 0.576773 0.121077 0.611036
O O4 0.609412 0.839671 0.542388
O O5 0.544724 0.139052 0.822198
O O6 0.489706 0.470428 0.799606
O O7 0.688016 0.329829 0.727873
O O8 0.658034 0.372042 0.929567
O O9 0.064830 0.675560 0.886858
O O10 0.859298 0.508364 0.883532
O O11 0.290194 0.623051 0.897596
O O12 0.206096 0.779249 0.056484
O O13 0.271368 0.471729 0.717648
O O14 0.324640 0.318517 0.883478
#
# Coordination Sequence:
#
# PCOD9344567 Si02
#       7
#     4   4   4   4   4   4   4
#     4  10  19  33  57  82 109 153 185 229 294 345
#     4   9  16  33  53  81 112 140 186 235 284 337
#     4   9  17  33  56  79 110 142 189 237 274 342
#     4  11  19  34  62  85 111 148 198 238 290 345
#     4  10  19  36  58  85 112 144 192 244 281 344
#     4  10  19  35  59  83 107 151 195 235 289 350
#     4   9  17  30  57  79 107 146 185 226 284 343
#
# _framework density 24.363371000000001
#
# number of rings (size 3 to 8) (size 9 to 14) (size 15 to 20)
#    0.000    2.286    4.286    3.429    0.000    0.000 
#    5.143    0.000   12.571    0.000    0.000    0.000 
#    0.000    0.000    0.000    0.000    0.000    0.000 
#
# Total GULP energy -155989.108164 kJ/mol
# GULP energy per Si atom -5571.039577 kJ/mol
# Density = 2.430792 g / cm^3
# Si number density = 24.363371 Si / 1000 Ang^3
#
#
#
# Elastic Constant Matrix: (Units=GPa)
#
#
# Indices 1 2 3 4 5 6 
#
# 1 47.0523 14.9673 0.6897 0.0000 0.0000 0.0000
# 2 14.9673 54.5010 26.1352 0.0000 0.0000 0.0000
# 3 0.6897 26.1352 135.4966 0.0000 0.0000 0.0000
# 4 0.0000 0.0000 0.0000 25.6170 0.0000 0.0000
# 5 0.0000 0.0000 0.0000 0.0000 38.1763 0.0000
# 6 0.0000 0.0000 0.0000 0.0000 0.0000 10.0777
#
#
#
# Elastic Compliance Matrix: (Units=1/GPa)
#
#
# Indices 1 2 3 4 5 6 
#
# 1 0.023474 -0.007041 0.001239 0.000000 0.000000 0.000000
# 2 -0.007041 0.022330 -0.004271 0.000000 0.000000 0.000000
# 3 0.001239 -0.004271 0.008198 0.000000 0.000000 0.000000
# 4 0.000000 0.000000 0.000000 0.039037 0.000000 0.000000
# 5 0.000000 0.000000 0.000000 0.000000 0.026194 0.000000
# 6 0.000000 0.000000 0.000000 0.000000 0.000000 0.099229
#
#
# Mechanical properties :
#
#
# Convention : Reuss Voigt Hill
#
# Bulk Modulus (GPa) = 29.53717 35.62600 32.58158
# Shear Modulus (GPa) = 20.00850 27.79139 23.89994
#
# Velocity S-wave (km/s) = 2.86886 3.38109 3.13546
# Velocity P-wave (km/s) = 4.80871 5.46781 5.14882
#
# Compressibility (1/GPa) = 0.03385565
#
# Stress axis : x y z
#
# Youngs Moduli (GPa) = 42.59964 44.78275 121.98367
#
# Poissons Ratio (x) = 0.31529 -0.15108
# Poissons Ratio (y) = 0.29992 0.52103
# Poissons Ratio (z) = -0.05276 0.19128
#
# Static dielectric constant tensor:
#      x y z
#    x 2.062190 0.000000 0.000000 
#    y 0.000000 1.999280 0.000000 
#    z 0.000000 0.000000 2.007550 
# 
# From -- ./inp_files/6401.got.cif
#   From: 2010.05.17/outbox.cif.g08.bks.cpg/sg33_4_cif.got.tgz:6401.got - 2010.06.03 17:15:25.
