data_PCOD9344529
_publ_section_title
;
Structure prediction by ZEFSAII (Michael W. Deem and Ramdas Pophale) SiO2 
 PCOD9344529
Probable space group: P N A 21
;
_chemical_formula_sum "Si O2"
_cell_formula_units_Z 24
_cell_length_a 7.245365
_cell_length_b 25.286123
_cell_length_c 5.065778
_cell_angle_alpha 90.000000
_cell_angle_beta 90.000000
_cell_angle_gamma 90.000000
_cell_volume 928.086955
_symmetry_space_group_name_H-M "P N A 21"
_symmetry_group_IT_number 33
_symmetry_cell_setting 'orthorhombic'
loop_
_space_group_symop_operation_xyz
x,y,z
-x,-y,1/2+z
1/2-x,1/2+y,1/2+z
1/2+x,1/2-y,z
loop_
_atom_site_type_symbol
_atom_site_label
_atom_site_fract_x
_atom_site_fract_y
_atom_site_fract_z
Si Si1 0.222707 0.775332 0.307150
Si Si2 0.878199 0.167359 0.300632
Si Si3 0.988730 0.396548 0.325856
Si Si4 0.230856 0.971954 0.000861
Si Si5 0.495187 0.432930 0.012520
Si Si6 0.888789 0.337385 0.804456
O O1 0.144658 0.785381 0.596557
O O2 0.243897 0.712658 0.293913
O O3 0.416106 0.806080 0.291377
O O4 0.102141 0.804025 0.080436
O O5 0.004418 0.125375 0.139655
O O6 0.686507 0.134616 0.328357
O O7 0.060197 0.452887 0.444351
O O8 0.857365 0.372151 0.546338
O O9 0.913082 0.377696 0.045164
O O10 0.116378 0.939086 0.231357
O O11 0.183573 0.033420 0.043823
O O12 0.135275 0.962899 0.719453
#
# Coordination Sequence:
#
# PCOD9344529 Si02
#       6
#     4   4   4   4   4   4
#     4  10  19  30  44  61  84 114 145 177 212 250
#     4   9  16  27  41  59  84 113 140 170 212 255
#     4   9  16  27  41  59  84 113 140 170 212 255
#     4   9  15  23  37  58  84 113 140 167 208 263
#     4   9  15  23  37  58  84 113 140 167 208 263
#     4  10  19  30  44  61  84 114 145 177 212 250
#
# _framework density 25.859643999999999
#
# number of rings (size 3 to 8) (size 9 to 14) (size 15 to 20)
#    0.000    2.667    0.000    6.000    0.000    0.000 
#    0.000    0.000    0.000    0.000    0.000    0.000 
#    0.000    5.333    0.000   15.333    0.000    0.000 
#
# Total GULP energy -133802.292683 kJ/mol
# GULP energy per Si atom -5575.095528 kJ/mol
# Density = 2.580079 g / cm^3
# Si number density = 25.859644 Si / 1000 Ang^3
#
#
#
# Elastic Constant Matrix: (Units=GPa)
#
#
# Indices 1 2 3 4 5 6 
#
# 1 62.7132 42.6195 21.1207 0.0000 0.0000 0.0000
# 2 42.6195 77.0466 20.6423 0.0000 0.0000 0.0000
# 3 21.1207 20.6423 144.7125 0.0000 0.0000 0.0000
# 4 0.0000 0.0000 0.0000 27.5470 0.0000 0.0000
# 5 0.0000 0.0000 0.0000 0.0000 -8.1442 0.0000
# 6 0.0000 0.0000 0.0000 0.0000 0.0000 28.8104
#
#
#
# Elastic Compliance Matrix: (Units=1/GPa)
#
#
# Indices 1 2 3 4 5 6 
#
# 1 0.026000 -0.013897 -0.001812 0.000000 0.000000 0.000000
# 2 -0.013897 0.020923 -0.000956 0.000000 0.000000 0.000000
# 3 -0.001812 -0.000956 0.007311 0.000000 0.000000 0.000000
# 4 0.000000 0.000000 0.000000 0.036302 0.000000 0.000000
# 5 0.000000 0.000000 0.000000 0.000000 -0.122786 0.000000
# 6 0.000000 0.000000 0.000000 0.000000 0.000000 0.034710
#
#
# Mechanical properties :
#
#
# Convention : Reuss Voigt Hill
#
# Bulk Modulus (GPa) = 47.84003 50.35970 49.09986
# Shear Modulus (GPa) = 116.93882 22.98197 69.96039
#
# Velocity S-wave (km/s) = 6.73192 2.98437 5.20698
# Velocity P-wave (km/s) = 8.88623 5.60284 7.42822
#
# Compressibility (1/GPa) = 0.02090300
#
# Stress axis : x y z
#
# Youngs Moduli (GPa) = 38.46124 47.79519 136.77692
#
# Poissons Ratio (x) = 0.66420 0.24790
# Poissons Ratio (y) = 0.53449 0.13079
# Poissons Ratio (z) = 0.06971 0.04570
#
# Static dielectric constant tensor:
#      x y z
#    x 2.177300 0.000000 0.000000 
#    y 0.000000 2.216490 0.000000 
#    z 0.000000 0.000000 1.987900 
# 
# From -- ./inp_files/521.got.cif
#   From: 2010.05.17/outbox.cif.g08.bks.cpg/sg33_1_cif.got.tgz:521.got - 2010.06.03 17:15:25.
