data_PCOD9344470
_publ_section_title
;
Structure prediction by ZEFSAII (Michael W. Deem and Ramdas Pophale) SiO2 
 PCOD9344470
Probable space group: P N A 21
;
_chemical_formula_sum "Si O2"
_cell_formula_units_Z 32
_cell_length_a 5.843393
_cell_length_b 17.479838
_cell_length_c 11.859101
_cell_angle_alpha 90.000000
_cell_angle_beta 90.000000
_cell_angle_gamma 90.000000
_cell_volume 1211.307112
_symmetry_space_group_name_H-M "P N A 21"
_symmetry_group_IT_number 33
_symmetry_cell_setting 'orthorhombic'
loop_
_space_group_symop_operation_xyz
x,y,z
-x,-y,1/2+z
1/2-x,1/2+y,1/2+z
1/2+x,1/2-y,z
loop_
_atom_site_type_symbol
_atom_site_label
_atom_site_fract_x
_atom_site_fract_y
_atom_site_fract_z
Si Si1 0.728705 0.070577 0.328070
Si Si2 0.919208 0.333696 0.751911
Si Si3 0.086099 0.280934 0.062463
Si Si4 0.646334 0.867537 0.994908
Si Si5 0.381891 0.682870 0.782453
Si Si6 0.917610 0.150979 0.749883
Si Si7 0.542099 0.540383 0.040484
Si Si8 0.077237 0.567875 0.642692
O O1 0.568813 0.109765 0.421173
O O2 0.882343 0.137526 0.278285
O O3 0.896580 0.026208 0.409419
O O4 0.603276 0.028381 0.226744
O O5 0.916800 0.335911 0.615361
O O6 0.920111 0.242234 0.766956
O O7 0.675976 0.368472 0.793048
O O8 0.160811 0.369642 0.792980
O O9 0.840434 0.244900 0.018457
O O10 0.093085 0.249989 0.192411
O O11 0.049019 0.372425 0.059801
O O12 0.802301 0.812534 0.913572
O O13 0.771590 0.948198 0.023400
O O14 0.201190 0.625462 0.728836
O O15 0.919809 0.116161 0.621283
O O16 0.713256 0.481260 0.098190
#
# Coordination Sequence:
#
# PCOD9344470 Si02
#       8
#     4   4   4   4   4   4   4   4
#     4  10  18  35  51  75 106 146 187 230 271 338
#     4   9  16  29  43  67  98 131 176 217 269 310
#     4  10  19  36  52  78 112 146 189 231 287 346
#     4   9  18  31  48  72 107 146 182 227 272 343
#     4   9  19  33  49  71 105 143 186 230 282 335
#     4   9  17  29  44  67 101 136 176 218 256 324
#     4  10  20  33  49  76 114 152 193 225 282 342
#     4  10  21  34  52  78 115 156 187 234 287 342
#
# _framework density 26.417743000000002
#
# number of rings (size 3 to 8) (size 9 to 14) (size 15 to 20)
#    0.000    2.500    2.500    0.000    0.000    2.000 
#   13.500    0.000    0.000    0.000    0.000    0.000 
#   22.500    0.000    0.000    0.000    0.000    0.000 
#
# Total GULP energy -178158.645324 kJ/mol
# GULP energy per Si atom -5567.457666 kJ/mol
# Density = 2.635762 g / cm^3
# Si number density = 26.417743 Si / 1000 Ang^3
#
#
#
# Elastic Constant Matrix: (Units=GPa)
#
#
# Indices 1 2 3 4 5 6 
#
# 1 151.9779 3.1648 -3.8365 0.0000 0.0000 0.0000
# 2 3.1648 48.2925 13.6444 0.0000 0.0000 0.0000
# 3 -3.8365 13.6444 76.4822 0.0000 0.0000 0.0000
# 4 0.0000 0.0000 0.0000 11.6714 0.0000 0.0000
# 5 0.0000 0.0000 0.0000 0.0000 22.5476 0.0000
# 6 0.0000 0.0000 0.0000 0.0000 0.0000 29.4615
#
#
#
# Elastic Compliance Matrix: (Units=1/GPa)
#
#
# Indices 1 2 3 4 5 6 
#
# 1 0.006602 -0.000554 0.000430 0.000000 0.000000 0.000000
# 2 -0.000554 0.021853 -0.003926 0.000000 0.000000 0.000000
# 3 0.000430 -0.003926 0.013797 0.000000 0.000000 0.000000
# 4 0.000000 0.000000 0.000000 0.085680 0.000000 0.000000
# 5 0.000000 0.000000 0.000000 0.000000 0.044351 0.000000
# 6 0.000000 0.000000 0.000000 0.000000 0.000000 0.033943
#
#
# Mechanical properties :
#
#
# Convention : Reuss Voigt Hill
#
# Bulk Modulus (GPa) = 29.28159 33.63312 31.45736
# Shear Modulus (GPa) = 22.15235 30.32142 26.23688
#
# Velocity S-wave (km/s) = 2.89890 3.39155 3.15485
# Velocity P-wave (km/s) = 4.72366 5.30054 5.02039
#
# Compressibility (1/GPa) = 0.03415115
#
# Stress axis : x y z
#
# Youngs Moduli (GPa) = 151.46240 45.76068 72.47965
#
# Poissons Ratio (x) = 0.02536 -0.03117
# Poissons Ratio (y) = 0.08394 0.28458
# Poissons Ratio (z) = -0.06514 0.17967
#
# Static dielectric constant tensor:
#      x y z
#    x 2.293610 0.000000 0.000000 
#    y 0.000000 2.104420 0.000000 
#    z 0.000000 0.000000 2.125260 
# 
# From -- ./inp_files/7459.got.cif
#   From: 2010.05.17/outbox.cif.g08.bks.cpg/sg33_4_cif.got.tgz:7459.got - 2010.06.03 17:15:25.
