data_PCOD9344568
_publ_section_title
;
Structure prediction by ZEFSAII (Michael W. Deem and Ramdas Pophale) SiO2 
 PCOD9344568
Probable space group: P N A 21
;
_chemical_formula_sum "Si O2"
_cell_formula_units_Z 28
_cell_length_a 9.304232
_cell_length_b 12.446205
_cell_length_c 8.706104
_cell_angle_alpha 90.000000
_cell_angle_beta 90.000000
_cell_angle_gamma 90.000000
_cell_volume 1008.187554
_symmetry_space_group_name_H-M "P N A 21"
_symmetry_group_IT_number 33
_symmetry_cell_setting 'orthorhombic'
loop_
_space_group_symop_operation_xyz
x,y,z
-x,-y,1/2+z
1/2-x,1/2+y,1/2+z
1/2+x,1/2-y,z
loop_
_atom_site_type_symbol
_atom_site_label
_atom_site_fract_x
_atom_site_fract_y
_atom_site_fract_z
Si Si1 0.277064 0.999170 0.910510
Si Si2 0.631645 0.886567 0.961308
Si Si3 0.419416 0.690092 0.505958
Si Si4 0.665027 0.554124 0.590003
Si Si5 0.523848 0.831880 0.285920
Si Si6 0.582078 0.620030 0.096998
Si Si7 0.397295 0.742734 0.850513
O O1 0.247999 0.937273 0.751150
O O2 0.408977 0.080417 0.901868
O O3 0.151568 0.088010 0.928820
O O4 0.239534 0.924991 0.056157
O O5 0.494949 0.852575 0.856943
O O6 0.751534 0.791535 0.941491
O O7 0.734575 0.991512 0.966467
O O8 0.552128 0.890765 0.125741
O O9 0.587631 0.662232 0.535660
O O10 0.395186 0.786834 0.388158
O O11 0.364737 0.712239 0.676338
O O12 0.529417 0.475776 0.633503
O O13 0.580200 0.714401 0.221931
O O14 0.509300 0.665645 0.940711
#
# Coordination Sequence:
#
# PCOD9344568 Si02
#       7
#     4   4   4   4   4   4   4
#     4  10  19  33  57  86 115 159 199 259 321 372
#     4   9  21  37  61  82 120 163 201 247 323 380
#     4  11  21  33  58  89 120 145 210 268 306 365
#     4   9  17  34  57  84 112 148 203 259 304 362
#     4  10  21  35  55  87 121 154 198 261 323 378
#     4   9  17  34  55  82 113 153 195 255 313 363
#     4  10  20  36  57  88 115 158 204 259 306 378
#
# _framework density 27.77261
#
# number of rings (size 3 to 8) (size 9 to 14) (size 15 to 20)
#    0.000    2.286    2.857    0.000    4.000    0.000 
#    0.000    0.000    0.000    5.143    0.000    0.000 
#    0.000    0.000    0.000    0.000    0.000    0.000 
#
# Total GULP energy -156039.751497 kJ/mol
# GULP energy per Si atom -5572.848268 kJ/mol
# Density = 2.770940 g / cm^3
# Si number density = 27.772610 Si / 1000 Ang^3
#
#
#
# Elastic Constant Matrix: (Units=GPa)
#
#
# Indices 1 2 3 4 5 6 
#
# 1 126.9309 26.6679 -4.3590 0.0000 0.0000 0.0000
# 2 26.6679 103.8047 15.7083 0.0000 0.0000 0.0000
# 3 -4.3590 15.7083 86.5056 0.0000 0.0000 0.0000
# 4 0.0000 0.0000 0.0000 23.0429 0.0000 0.0000
# 5 0.0000 0.0000 0.0000 0.0000 14.8780 0.0000
# 6 0.0000 0.0000 0.0000 0.0000 0.0000 30.9153
#
#
#
# Elastic Compliance Matrix: (Units=1/GPa)
#
#
# Indices 1 2 3 4 5 6 
#
# 1 0.008386 -0.002281 0.000837 0.000000 0.000000 0.000000
# 2 -0.002281 0.010526 -0.002026 0.000000 0.000000 0.000000
# 3 0.000837 -0.002026 0.011970 0.000000 0.000000 0.000000
# 4 0.000000 0.000000 0.000000 0.043397 0.000000 0.000000
# 5 0.000000 0.000000 0.000000 0.000000 0.067213 0.000000
# 6 0.000000 0.000000 0.000000 0.000000 0.000000 0.032346
#
#
# Mechanical properties :
#
#
# Convention : Reuss Voigt Hill
#
# Bulk Modulus (GPa) = 41.76902 43.69728 42.73315
# Shear Modulus (GPa) = 26.48850 32.38219 29.43534
#
# Velocity S-wave (km/s) = 3.09166 3.41834 3.25910
# Velocity P-wave (km/s) = 5.27416 5.59895 5.43898
#
# Compressibility (1/GPa) = 0.02394119
#
# Stress axis : x y z
#
# Youngs Moduli (GPa) = 119.24222 95.00159 83.54170
#
# Poissons Ratio (x) = 0.21671 -0.06991
# Poissons Ratio (y) = 0.27200 0.16929
# Poissons Ratio (z) = -0.09978 0.19251
#
# Static dielectric constant tensor:
#      x y z
#    x 2.258740 0.000000 0.000000 
#    y 0.000000 2.341950 0.000000 
#    z 0.000000 0.000000 2.087420 
# 
# From -- ./inp_files/3884.got.cif
#   From: 2010.05.17/outbox.cif.g08.bks.cpg/sg33_2_cif.got.tgz:3884.got - 2010.06.03 17:15:25.
