data_PCOD9344778
_publ_section_title
;
Structure prediction by ZEFSAII (Michael W. Deem and Ramdas Pophale) SiO2 
 PCOD9344778
Probable space group: P N A 21
;
_chemical_formula_sum "Si O2"
_cell_formula_units_Z 24
_cell_length_a 8.438908
_cell_length_b 19.166392
_cell_length_c 5.704248
_cell_angle_alpha 90.000000
_cell_angle_beta 90.000000
_cell_angle_gamma 90.000000
_cell_volume 922.624573
_symmetry_space_group_name_H-M "P N A 21"
_symmetry_group_IT_number 33
_symmetry_cell_setting 'orthorhombic'
loop_
_space_group_symop_operation_xyz
x,y,z
-x,-y,1/2+z
1/2-x,1/2+y,1/2+z
1/2+x,1/2-y,z
loop_
_atom_site_type_symbol
_atom_site_label
_atom_site_fract_x
_atom_site_fract_y
_atom_site_fract_z
Si Si1 0.710639 0.974656 0.099090
Si Si2 0.318312 0.790983 0.632365
Si Si3 0.649860 0.974471 0.605344
Si Si4 0.662113 0.590479 0.335889
Si Si5 0.913957 0.280253 0.459827
Si Si6 0.129751 0.180864 0.765414
O O1 0.709164 0.944562 0.360242
O O2 0.538821 0.014911 0.096434
O O3 0.704528 0.937400 0.844512
O O4 0.842352 0.034182 0.049322
O O5 0.256121 0.842998 0.435115
O O6 0.183359 0.779794 0.824838
O O7 0.477248 0.815824 0.761399
O O8 0.344110 0.713900 0.521711
O O9 0.734430 0.050334 0.640511
O O10 0.491436 0.616513 0.256065
O O11 0.032759 0.242398 0.635389
O O12 0.791900 0.321935 0.620620
#
# Coordination Sequence:
#
# PCOD9344778 Si02
#       6
#     4   4   4   4   4   4
#     4   8  16  29  46  73 107 134 168 226 283 335
#     4  11  20  35  47  79 108 150 183 227 267 340
#     4   8  16  29  46  73 107 134 168 226 283 335
#     4  10  20  28  55  74 112 145 178 230 294 328
#     4  10  22  32  53  66 118 147 186 224 268 320
#     4  11  20  35  47  79 108 150 183 227 267 340
#
# _framework density 26.012747000000001
#
# number of rings (size 3 to 8) (size 9 to 14) (size 15 to 20)
#    1.000    1.333    3.333    0.000    2.333    0.000 
#    0.000    0.000    0.000    0.000    0.000    0.000 
#   10.000    0.000    0.000    0.000    0.000    0.000 
#
# Total GULP energy -134098.918846 kJ/mol
# GULP energy per Si atom -5587.454952 kJ/mol
# Density = 2.595354 g / cm^3
# Si number density = 26.012747 Si / 1000 Ang^3
#
#
#
# Elastic Constant Matrix: (Units=GPa)
#
#
# Indices 1 2 3 4 5 6 
#
# 1 104.4657 10.6798 20.3122 0.0000 0.0000 0.0000
# 2 10.6798 57.9789 22.7845 0.0000 0.0000 0.0000
# 3 20.3122 22.7845 148.0236 0.0000 0.0000 0.0000
# 4 0.0000 0.0000 0.0000 47.5622 0.0000 0.0000
# 5 0.0000 0.0000 0.0000 0.0000 29.4593 0.0000
# 6 0.0000 0.0000 0.0000 0.0000 0.0000 29.7211
#
#
#
# Elastic Compliance Matrix: (Units=1/GPa)
#
#
# Indices 1 2 3 4 5 6 
#
# 1 0.009937 -0.001378 -0.001152 0.000000 0.000000 0.000000
# 2 -0.001378 0.018549 -0.002666 0.000000 0.000000 0.000000
# 3 -0.001152 -0.002666 0.007324 0.000000 0.000000 0.000000
# 4 0.000000 0.000000 0.000000 0.021025 0.000000 0.000000
# 5 0.000000 0.000000 0.000000 0.000000 0.033945 0.000000
# 6 0.000000 0.000000 0.000000 0.000000 0.000000 0.033646
#
#
# Mechanical properties :
#
#
# Convention : Reuss Voigt Hill
#
# Bulk Modulus (GPa) = 39.33995 46.44680 42.89338
# Shear Modulus (GPa) = 34.89395 38.46127 36.67761
#
# Velocity S-wave (km/s) = 3.66651 3.84937 3.75905
# Velocity P-wave (km/s) = 5.75157 6.13604 5.94691
#
# Compressibility (1/GPa) = 0.02541945
#
# Stress axis : x y z
#
# Youngs Moduli (GPa) = 100.63100 53.91067 136.53603
#
# Poissons Ratio (x) = 0.07429 0.15722
# Poissons Ratio (y) = 0.13866 0.36402
# Poissons Ratio (z) = 0.11588 0.14373
#
# Static dielectric constant tensor:
#      x y z
#    x 1.998560 0.000000 0.000000 
#    y 0.000000 2.093890 0.000000 
#    z 0.000000 0.000000 2.031570 
# 
# From -- ./inp_files/518.got.cif
#   From: 2010.05.17/outbox.cif.g08.bks.cpg/sg33_1_cif.got.tgz:518.got - 2010.06.03 17:15:25.
