data_PCOD9344506
_publ_section_title
;
Structure prediction by ZEFSAII (Michael W. Deem and Ramdas Pophale) SiO2 
 PCOD9344506
Probable space group: P N A 21
;
_chemical_formula_sum "Si O2"
_cell_formula_units_Z 32
_cell_length_a 14.053004
_cell_length_b 9.177235
_cell_length_c 12.683970
_cell_angle_alpha 90.000000
_cell_angle_beta 90.000000
_cell_angle_gamma 90.000000
_cell_volume 1635.822694
_symmetry_space_group_name_H-M "P N A 21"
_symmetry_group_IT_number 33
_symmetry_cell_setting 'orthorhombic'
loop_
_space_group_symop_operation_xyz
x,y,z
-x,-y,1/2+z
1/2-x,1/2+y,1/2+z
1/2+x,1/2-y,z
loop_
_atom_site_type_symbol
_atom_site_label
_atom_site_fract_x
_atom_site_fract_y
_atom_site_fract_z
Si Si1 0.917496 0.771272 0.044620
Si Si2 0.258002 0.214412 0.672469
Si Si3 0.351809 0.944640 0.750888
Si Si4 0.447369 0.379222 0.716631
Si Si5 0.850290 0.868692 0.831841
Si Si6 0.335310 0.954994 0.312252
Si Si7 0.529017 0.849830 0.400296
Si Si8 0.541940 0.948423 0.617227
O O1 0.805705 0.762516 0.070727
O O2 0.957181 0.608624 0.062244
O O3 0.966684 0.868515 0.134902
O O4 0.921109 0.837129 0.928982
O O5 0.361061 0.287883 0.664532
O O6 0.204738 0.303127 0.765279
O O7 0.272602 0.046160 0.698988
O O8 0.319662 0.787776 0.788372
O O9 0.440744 0.926182 0.672198
O O10 0.395575 0.039974 0.846752
O O11 0.407549 0.536529 0.746120
O O12 0.469814 0.292279 0.825404
O O13 0.755068 0.960183 0.858185
O O14 0.423957 0.920442 0.387705
O O15 0.379986 0.040011 0.210539
O O16 0.555402 0.834880 0.522469
#
# Coordination Sequence:
#
# PCOD9344506 Si02
#       8
#     4   4   4   4   4   4   4   4
#     4  11  20  39  65  89 117 169 208 246 315 377
#     4   9  18  38  61  79 117 163 200 247 306 366
#     4  10  20  37  57  89 120 153 205 256 293 371
#     4  10  21  41  62  86 129 159 203 263 304 372
#     4  11  24  38  60  96 126 152 209 267 309 364
#     4   9  20  38  57  89 121 157 205 263 300 373
#     4  10  18  38  64  83 114 170 205 239 314 375
#     4  10  19  37  66  85 120 167 209 245 311 378
#
# _framework density 19.562024000000001
#
# number of rings (size 3 to 8) (size 9 to 14) (size 15 to 20)
#    0.000    2.000    6.250    0.000    1.750    1.000 
#    6.750    1.250    2.750    0.000    0.000    0.000 
#    0.000    0.000    0.000    0.000    0.000    0.000 
#
# Total GULP energy -178444.412770 kJ/mol
# GULP energy per Si atom -5576.387899 kJ/mol
# Density = 1.951750 g / cm^3
# Si number density = 19.562024 Si / 1000 Ang^3
#
#
#
# Elastic Constant Matrix: (Units=GPa)
#
#
# Indices 1 2 3 4 5 6 
#
# 1 49.1917 -5.9911 -2.0729 0.0000 0.0000 0.0000
# 2 -5.9911 65.9722 -5.1344 0.0000 0.0000 0.0000
# 3 -2.0729 -5.1344 45.3172 0.0000 0.0000 0.0000
# 4 0.0000 0.0000 0.0000 22.7219 0.0000 0.0000
# 5 0.0000 0.0000 0.0000 0.0000 11.5049 0.0000
# 6 0.0000 0.0000 0.0000 0.0000 0.0000 18.1285
#
#
#
# Elastic Compliance Matrix: (Units=1/GPa)
#
#
# Indices 1 2 3 4 5 6 
#
# 1 0.020617 0.001963 0.001165 0.000000 0.000000 0.000000
# 2 0.001963 0.015480 0.001844 0.000000 0.000000 0.000000
# 3 0.001165 0.001844 0.022329 0.000000 0.000000 0.000000
# 4 0.000000 0.000000 0.000000 0.044010 0.000000 0.000000
# 5 0.000000 0.000000 0.000000 0.000000 0.086920 0.000000
# 6 0.000000 0.000000 0.000000 0.000000 0.000000 0.055162
#
#
# Mechanical properties :
#
#
# Convention : Reuss Voigt Hill
#
# Bulk Modulus (GPa) = 14.62643 14.89826 14.76235
# Shear Modulus (GPa) = 19.42781 22.04968 20.73875
#
# Velocity S-wave (km/s) = 3.15483 3.36097 3.25953
# Velocity P-wave (km/s) = 4.55673 4.76382 4.66142
#
# Compressibility (1/GPa) = 0.06836938
#
# Stress axis : x y z
#
# Youngs Moduli (GPa) = 48.50406 64.60099 44.78511
#
# Poissons Ratio (x) = -0.12681 -0.05219
# Poissons Ratio (y) = -0.09521 -0.08257
# Poissons Ratio (z) = -0.05653 -0.11910
#
# Static dielectric constant tensor:
#      x y z
#    x 1.674530 0.000000 0.000000 
#    y 0.000000 1.681780 0.000000 
#    z 0.000000 0.000000 1.706890 
# 
# From -- ./inp_files/8155.got.cif
#   From: 2010.05.17/outbox.cif.g08.bks.cpg/sg33_5_cif.got.tgz:8155.got - 2010.06.03 17:15:25.
