data_PCOD9344192
_publ_section_title
;
Structure prediction by ZEFSAII (Michael W. Deem and Ramdas Pophale) SiO2 
 PCOD9344192
Probable space group: P B A 2
;
_chemical_formula_sum "Si O2"
_cell_formula_units_Z 20
_cell_length_a 16.941637
_cell_length_b 8.657234
_cell_length_c 4.751456
_cell_angle_alpha 90.000000
_cell_angle_beta 90.000000
_cell_angle_gamma 90.000000
_cell_volume 696.885198
_symmetry_space_group_name_H-M "P B A 2"
_symmetry_group_IT_number 32
_symmetry_cell_setting 'orthorhombic'
loop_
_space_group_symop_operation_xyz
x,y,z
-x,-y,z
1/2-x,1/2+y,z
1/2+x,1/2-y,z
loop_
_atom_site_type_symbol
_atom_site_label
_atom_site_fract_x
_atom_site_fract_y
_atom_site_fract_z
Si Si1 0.500000 0.000000 0.807621
Si Si2 0.906921 0.783601 0.040201
Si Si3 0.343160 0.113218 0.473533
Si Si4 0.858251 0.054148 0.365029
Si Si5 0.724030 0.052315 0.942076
Si Si6 0.500000 0.500000 0.625633
O O1 0.425022 0.051630 0.611908
O O2 0.530370 0.143254 0.999642
O O3 0.825600 0.707998 0.936540
O O4 0.880632 0.869155 0.329587
O O5 0.941323 0.914973 0.838114
O O6 0.326289 0.292203 0.522670
O O7 0.327997 0.059223 0.153126
O O8 0.273485 0.024450 0.638681
O O9 0.807982 0.069327 0.082479
O O10 0.949554 0.106873 0.418415
#
# Coordination Sequence:
#
# PCOD9344192 Si02
#       6
#     2   4   4   4   4   2
#     4  10  24  52  80 120 172 224 302 354 462 522
#     4  11  27  49  82 125 171 238 297 378 449 550
#     4  11  27  50  83 117 168 229 285 371 438 545
#     4  12  28  51  84 124 174 230 298 377 456 541
#     4  11  29  51  83 120 174 233 299 363 460 538
#     4  12  28  48  84 130 174 226 308 376 466 536
#
# _framework density 28.69913
#
# number of rings (size 3 to 8) (size 9 to 14) (size 15 to 20)
#    0.000    0.800    2.000    1.800   11.200   11.200 
#    0.000    0.000    0.000    0.000    0.000    0.000 
#    0.000    0.000    0.000    0.000    0.000    0.000 
#
# Total GULP energy -111605.652250 kJ/mol
# GULP energy per Si atom -5580.282613 kJ/mol
# Density = 2.863381 g / cm^3
# Si number density = 28.699130 Si / 1000 Ang^3
#
#
#
# Elastic Constant Matrix: (Units=GPa)
#
#
# Indices 1 2 3 4 5 6 
#
# 1 77.4301 56.8002 -15.0877 0.0000 0.0000 0.0000
# 2 56.8002 173.6280 38.7216 0.0000 0.0000 0.0000
# 3 -15.0877 38.7216 84.3621 0.0000 0.0000 0.0000
# 4 0.0000 0.0000 0.0000 525.7833 0.0000 0.0000
# 5 0.0000 0.0000 0.0000 0.0000 53.0437 0.0000
# 6 0.0000 0.0000 0.0000 0.0000 0.0000 70.5415
#
#
#
# Elastic Compliance Matrix: (Units=1/GPa)
#
#
# Indices 1 2 3 4 5 6 
#
# 1 0.020544 -0.008400 0.007530 0.000000 0.000000 0.000000
# 2 -0.008400 0.009851 -0.006024 0.000000 0.000000 0.000000
# 3 0.007530 -0.006024 0.015965 0.000000 0.000000 0.000000
# 4 0.000000 0.000000 0.000000 0.001902 0.000000 0.000000
# 5 0.000000 0.000000 0.000000 0.000000 0.018852 0.000000
# 6 0.000000 0.000000 0.000000 0.000000 0.000000 0.014176
#
#
# Mechanical properties :
#
#
# Convention : Reuss Voigt Hill
#
# Bulk Modulus (GPa) = 30.70125 55.14315 42.92220
# Shear Modulus (GPa) = 47.19855 146.87278 97.03566
#
# Velocity S-wave (km/s) = 4.05976 7.16155 5.82106
# Velocity P-wave (km/s) = 5.71808 9.36161 7.75681
#
# Compressibility (1/GPa) = 0.03257196
#
# Stress axis : x y z
#
# Youngs Moduli (GPa) = 48.67606 101.51518 62.63646
#
# Poissons Ratio (x) = 0.85272 -0.47163
# Poissons Ratio (y) = 0.40888 0.37730
# Poissons Ratio (z) = -0.36652 0.61150
#
# Static dielectric constant tensor:
#      x y z
#    x 2.314500 0.000000 0.000000 
#    y 0.000000 2.173880 0.000000 
#    z 0.000000 0.000000 2.265450 
# 
# From -- ./inp_files/1393.got.cif
#   From: 2010.05.17/outbox.cif.g08.bks.cpg/sg32_1_cif.got.tgz:1393.got - 2010.06.03 17:12:27.
