data_PCOD9344917
_publ_section_title
;
Structure prediction by ZEFSAII (Michael W. Deem and Ramdas Pophale) SiO2 
 PCOD9344917
Probable space group: P N A 21
;
_chemical_formula_sum "Si O2"
_cell_formula_units_Z 32
_cell_length_a 18.987639
_cell_length_b 8.226724
_cell_length_c 9.693781
_cell_angle_alpha 90.000000
_cell_angle_beta 90.000000
_cell_angle_gamma 90.000000
_cell_volume 1514.227389
_symmetry_space_group_name_H-M "P N A 21"
_symmetry_group_IT_number 33
_symmetry_cell_setting 'orthorhombic'
loop_
_space_group_symop_operation_xyz
x,y,z
-x,-y,1/2+z
1/2-x,1/2+y,1/2+z
1/2+x,1/2-y,z
loop_
_atom_site_type_symbol
_atom_site_label
_atom_site_fract_x
_atom_site_fract_y
_atom_site_fract_z
Si Si1 0.242379 0.577661 0.552410
Si Si2 0.932239 0.574631 0.279073
Si Si3 0.249491 0.094682 0.358090
Si Si4 0.988874 0.387587 0.507347
Si Si5 0.383122 0.273978 0.333248
Si Si6 0.271213 0.927495 0.621564
Si Si7 0.858705 0.656618 0.882197
Si Si8 0.159513 0.107289 0.794729
O O1 0.257384 0.515239 0.707740
O O2 0.225618 0.766718 0.585552
O O3 0.182384 0.473730 0.478040
O O4 0.309122 0.592746 0.449962
O O5 0.992567 0.601057 0.166243
O O6 0.901585 0.392167 0.249877
O O7 0.878333 0.722997 0.267597
O O8 0.961129 0.552447 0.434287
O O9 0.299701 0.254151 0.358371
O O10 0.174664 0.164553 0.404747
O O11 0.289456 0.988161 0.469885
O O12 0.060308 0.346893 0.423051
O O13 0.929847 0.254845 0.469208
O O14 0.392985 0.453368 0.275212
O O15 0.335097 0.883933 0.724328
O O16 0.225167 0.066801 0.695041
#
# Coordination Sequence:
#
# PCOD9344917 Si02
#       8
#     4   4   4   4   4   4   4   4
#     4  10  20  37  62  95 125 164 212 267 332 381
#     4  10  24  43  68  88 133 175 214 269 340 388
#     4  11  20  37  64  93 126 164 210 274 320 381
#     4  10  24  41  62  94 127 177 217 266 337 397
#     4  10  22  42  66  91 133 167 218 267 326 393
#     4  10  22  35  63  98 125 160 221 267 323 387
#     4  10  21  39  60  88 128 163 215 260 327 395
#     4  11  21  46  65  95 131 176 215 272 329 394
#
# _framework density 21.13289
#
# number of rings (size 3 to 8) (size 9 to 14) (size 15 to 20)
#    0.750    1.000    3.750    2.250    1.750    3.000 
#    2.250    1.250    0.000    0.000    0.000    0.000 
#    0.000    0.000    0.000    0.000    0.000    0.000 
#
# Total GULP energy -178216.369671 kJ/mol
# GULP energy per Si atom -5569.261552 kJ/mol
# Density = 2.108479 g / cm^3
# Si number density = 21.132890 Si / 1000 Ang^3
#
#
#
# Elastic Constant Matrix: (Units=GPa)
#
#
# Indices 1 2 3 4 5 6 
#
# 1 51.8831 11.6933 -2.0769 0.0000 0.0000 0.0000
# 2 11.6933 86.0657 16.6950 0.0000 0.0000 0.0000
# 3 -2.0769 16.6950 109.8084 0.0000 0.0000 0.0000
# 4 0.0000 0.0000 0.0000 24.0570 0.0000 0.0000
# 5 0.0000 0.0000 0.0000 0.0000 29.4879 0.0000
# 6 0.0000 0.0000 0.0000 0.0000 0.0000 29.0996
#
#
#
# Elastic Compliance Matrix: (Units=1/GPa)
#
#
# Indices 1 2 3 4 5 6 
#
# 1 0.019953 -0.002869 0.000814 0.000000 0.000000 0.000000
# 2 -0.002869 0.012385 -0.001937 0.000000 0.000000 0.000000
# 3 0.000814 -0.001937 0.009417 0.000000 0.000000 0.000000
# 4 0.000000 0.000000 0.000000 0.041568 0.000000 0.000000
# 5 0.000000 0.000000 0.000000 0.000000 0.033912 0.000000
# 6 0.000000 0.000000 0.000000 0.000000 0.000000 0.034365
#
#
# Mechanical properties :
#
#
# Convention : Reuss Voigt Hill
#
# Bulk Modulus (GPa) = 29.61234 33.37558 31.49396
# Shear Modulus (GPa) = 29.26703 31.29195 30.27949
#
# Velocity S-wave (km/s) = 3.72547 3.85219 3.78936
# Velocity P-wave (km/s) = 5.70512 5.96769 5.83788
#
# Compressibility (1/GPa) = 0.03376970
#
# Stress axis : x y z
#
# Youngs Moduli (GPa) = 50.11718 80.74568 106.19452
#
# Poissons Ratio (x) = 0.23164 -0.08639
# Poissons Ratio (y) = 0.14377 0.20572
# Poissons Ratio (z) = -0.04077 0.15642
#
# Static dielectric constant tensor:
#      x y z
#    x 1.787270 0.000000 0.000000 
#    y 0.000000 1.816410 0.000000 
#    z 0.000000 0.000000 1.872880 
# 
# From -- ./inp_files/5051.got.cif
#   From: 2010.05.17/outbox.cif.g08.bks.cpg/sg33_3_cif.got.tgz:5051.got - 2010.06.03 17:15:25.
