data_PCOD9344651
_publ_section_title
;
Structure prediction by ZEFSAII (Michael W. Deem and Ramdas Pophale) SiO2 
 PCOD9344651
Probable space group: P N A 21
;
_chemical_formula_sum "Si O2"
_cell_formula_units_Z 24
_cell_length_a 8.183718
_cell_length_b 14.692339
_cell_length_c 7.082838
_cell_angle_alpha 90.000000
_cell_angle_beta 90.000000
_cell_angle_gamma 90.000000
_cell_volume 851.625986
_symmetry_space_group_name_H-M "P N A 21"
_symmetry_group_IT_number 33
_symmetry_cell_setting 'orthorhombic'
loop_
_space_group_symop_operation_xyz
x,y,z
-x,-y,1/2+z
1/2-x,1/2+y,1/2+z
1/2+x,1/2-y,z
loop_
_atom_site_type_symbol
_atom_site_label
_atom_site_fract_x
_atom_site_fract_y
_atom_site_fract_z
Si Si1 0.108969 0.444454 0.071670
Si Si2 0.773412 0.226280 0.989994
Si Si3 0.608969 0.444454 0.359276
Si Si4 0.773412 0.273720 0.440952
Si Si5 0.596688 0.108589 0.498262
Si Si6 0.903312 0.891411 0.432684
O O1 0.120262 0.345172 0.974004
O O2 0.140857 0.420781 0.286875
O O3 0.250000 0.500000 0.965473
O O4 0.955283 0.512594 0.085926
O O5 0.787937 0.250000 0.215473
O O6 0.737248 0.319836 0.878765
O O7 0.934420 0.170708 0.938438
O O8 0.620261 0.345172 0.456942
O O9 0.640856 0.420781 0.144071
O O10 0.455283 0.512595 0.345019
O O11 0.737248 0.180164 0.552181
O O12 0.934420 0.329293 0.492508
#
# Coordination Sequence:
#
# PCOD9344651 Si02
#       6
#     4   4   4   4   4   4
#     4   9  19  35  57  86 116 150 192 239 288 347
#     4   9  17  33  57  81 108 148 190 226 276 346
#     4   9  19  35  57  86 116 150 192 239 288 347
#     4   9  17  33  57  81 108 148 190 226 276 346
#     4  10  19  36  60  83 111 148 193 239 284 339
#     4  10  19  36  60  83 111 148 193 239 284 339
#
# _framework density 28.181387000000001
#
# number of rings (size 3 to 8) (size 9 to 14) (size 15 to 20)
#    0.000    2.667    0.000    3.000    0.000    0.000 
#    0.000   28.333    0.000   24.000    0.000    0.000 
#    0.000    0.000    0.000    0.000    0.000    0.000 
#
# Total GULP energy -134234.191969 kJ/mol
# GULP energy per Si atom -5593.091332 kJ/mol
# Density = 2.811725 g / cm^3
# Si number density = 28.181387 Si / 1000 Ang^3
#
#
#
# Elastic Constant Matrix: (Units=GPa)
#
#
# Indices 1 2 3 4 5 6 
#
# 1 150.5195 66.8800 36.9322 0.0000 0.0000 0.0000
# 2 66.8800 96.4088 68.1741 0.0000 0.0000 0.0000
# 3 36.9322 68.1741 65.3575 0.0000 0.0000 0.0000
# 4 0.0000 0.0000 0.0000 44.1597 0.0000 0.0000
# 5 0.0000 0.0000 0.0000 0.0000 33.3510 0.0000
# 6 0.0000 0.0000 0.0000 0.0000 0.0000 77.7321
#
#
#
# Elastic Compliance Matrix: (Units=1/GPa)
#
#
# Indices 1 2 3 4 5 6 
#
# 1 0.010218 -0.011454 0.006174 0.000000 0.000000 0.000000
# 2 -0.011454 0.052370 -0.048155 0.000000 0.000000 0.000000
# 3 0.006174 -0.048155 0.062042 0.000000 0.000000 0.000000
# 4 0.000000 0.000000 0.000000 0.022645 0.000000 0.000000
# 5 0.000000 0.000000 0.000000 0.000000 0.029984 0.000000
# 6 0.000000 0.000000 0.000000 0.000000 0.000000 0.012865
#
#
# Mechanical properties :
#
#
# Convention : Reuss Voigt Hill
#
# Bulk Modulus (GPa) = 56.30651 72.91760 64.61206
# Shear Modulus (GPa) = 16.50632 40.40186 28.45409
#
# Velocity S-wave (km/s) = 2.42278 3.79045 3.18099
# Velocity P-wave (km/s) = 5.27730 6.71470 6.03892
#
# Compressibility (1/GPa) = 0.01775994
#
# Stress axis : x y z
#
# Youngs Moduli (GPa) = 97.86406 19.09483 16.11818
#
# Poissons Ratio (x) = 0.21871 -0.09951
# Poissons Ratio (y) = 1.12094 0.77616
# Poissons Ratio (z) = -0.60417 0.91950
#
# Static dielectric constant tensor:
#      x y z
#    x 2.203460 0.000000 0.000000 
#    y 0.000000 2.220250 0.000000 
#    z 0.000000 0.000000 2.204180 
# 
# From -- ./inp_files/3191.got.cif
#   From: 2010.05.17/outbox.cif.g08.bks.cpg/sg33_2_cif.got.tgz:3191.got - 2010.06.03 17:15:25.
