data_PCOD9344459
_publ_section_title
;
Structure prediction by ZEFSAII (Michael W. Deem and Ramdas Pophale) SiO2 
 PCOD9344459
Probable space group: P N A 21
;
_chemical_formula_sum "Si O2"
_cell_formula_units_Z 28
_cell_length_a 9.959797
_cell_length_b 10.585793
_cell_length_c 11.954878
_cell_angle_alpha 90.000000
_cell_angle_beta 90.000000
_cell_angle_gamma 90.000000
_cell_volume 1260.430874
_symmetry_space_group_name_H-M "P N A 21"
_symmetry_group_IT_number 33
_symmetry_cell_setting 'orthorhombic'
loop_
_space_group_symop_operation_xyz
x,y,z
-x,-y,1/2+z
1/2-x,1/2+y,1/2+z
1/2+x,1/2-y,z
loop_
_atom_site_type_symbol
_atom_site_label
_atom_site_fract_x
_atom_site_fract_y
_atom_site_fract_z
Si Si1 0.473530 0.600210 0.187330
Si Si2 0.501527 0.104175 0.095419
Si Si3 0.786627 0.831571 0.835281
Si Si4 0.215820 0.021029 0.098883
Si Si5 0.771177 0.985093 0.033600
Si Si6 0.488970 0.663859 0.441339
Si Si7 0.561297 0.679786 0.778996
O O1 0.619511 0.596564 0.128840
O O2 0.479148 0.663822 0.307730
O O3 0.440992 0.452412 0.216174
O O4 0.351403 0.622135 0.103195
O O5 0.375242 0.009662 0.083453
O O6 0.473724 0.202973 0.197005
O O7 0.647998 0.042983 0.102220
O O8 0.503472 0.195702 0.988307
O O9 0.791804 0.891000 0.710967
O O10 0.705945 0.703276 0.829920
O O11 0.941839 0.823180 0.867838
O O12 0.713096 0.922513 0.921212
O O13 0.139609 0.094777 0.998742
O O14 0.879226 0.087669 0.985599
#
# Coordination Sequence:
#
# PCOD9344459 Si02
#       7
#     4   4   4   4   4   4   4
#     4  10  20  36  60  83 116 153 189 230 298 354
#     4  11  20  35  63  87 114 146 203 249 280 329
#     4  10  19  36  59  87 112 147 194 240 287 339
#     4   9  19  35  55  88 108 142 195 238 279 338
#     4  11  21  37  59  86 116 153 191 241 290 351
#     4  11  19  35  61  87 113 151 193 235 291 352
#     4  10  18  34  59  88 107 146 193 241 279 339
#
# _framework density 22.214627
#
# number of rings (size 3 to 8) (size 9 to 14) (size 15 to 20)
#    0.000    1.714    7.143    1.714    0.000    0.000 
#    7.714    0.000    9.429    0.000    0.000    0.000 
#    0.000    0.000    0.000    0.000    0.000    0.000 
#
# Total GULP energy -156115.890225 kJ/mol
# GULP energy per Si atom -5575.567508 kJ/mol
# Density = 2.216407 g / cm^3
# Si number density = 22.214627 Si / 1000 Ang^3
#
#
#
# Elastic Constant Matrix: (Units=GPa)
#
#
# Indices 1 2 3 4 5 6 
#
# 1 101.5603 -1.5603 21.4787 0.0000 0.0000 0.0000
# 2 -1.5603 7.9329 6.2143 0.0000 0.0000 0.0000
# 3 21.4787 6.2143 80.0660 0.0000 0.0000 0.0000
# 4 0.0000 0.0000 0.0000 14.2590 0.0000 0.0000
# 5 0.0000 0.0000 0.0000 0.0000 10.6046 0.0000
# 6 0.0000 0.0000 0.0000 0.0000 0.0000 13.6560
#
#
#
# Elastic Compliance Matrix: (Units=1/GPa)
#
#
# Indices 1 2 3 4 5 6 
#
# 1 0.010593 0.004589 -0.003198 0.000000 0.000000 0.000000
# 2 0.004589 0.136205 -0.011802 0.000000 0.000000 0.000000
# 3 -0.003198 -0.011802 0.014264 0.000000 0.000000 0.000000
# 4 0.000000 0.000000 0.000000 0.070131 0.000000 0.000000
# 5 0.000000 0.000000 0.000000 0.000000 0.094298 0.000000
# 6 0.000000 0.000000 0.000000 0.000000 0.000000 0.073228
#
#
# Mechanical properties :
#
#
# Convention : Reuss Voigt Hill
#
# Bulk Modulus (GPa) = 7.13072 26.86940 17.00006
# Shear Modulus (GPa) = 10.72297 18.59903 14.66100
#
# Velocity S-wave (km/s) = 2.19942 2.89665 2.57178
# Velocity P-wave (km/s) = 3.10915 4.82795 4.06054
#
# Compressibility (1/GPa) = 0.14023829
#
# Stress axis : x y z
#
# Youngs Moduli (GPa) = 94.40044 7.34187 70.10846
#
# Poissons Ratio (x) = -0.03369 0.22420
# Poissons Ratio (y) = -0.43317 0.82745
# Poissons Ratio (z) = 0.30188 0.08665
#
# Static dielectric constant tensor:
#      x y z
#    x 1.928830 0.000000 0.000000 
#    y 0.000000 1.867200 0.000000 
#    z 0.000000 0.000000 1.939590 
# 
# From -- ./inp_files/6437.got.cif
#   From: 2010.05.17/outbox.cif.g08.bks.cpg/sg33_4_cif.got.tgz:6437.got - 2010.06.03 17:15:25.
