data_PCOD9344629
_publ_section_title
;
Structure prediction by ZEFSAII (Michael W. Deem and Ramdas Pophale) SiO2 
 PCOD9344629
Probable space group: P N A 21
;
_chemical_formula_sum "Si O2"
_cell_formula_units_Z 32
_cell_length_a 16.146187
_cell_length_b 16.364606
_cell_length_c 5.630611
_cell_angle_alpha 90.000000
_cell_angle_beta 90.000000
_cell_angle_gamma 90.000000
_cell_volume 1487.753758
_symmetry_space_group_name_H-M "P N A 21"
_symmetry_group_IT_number 33
_symmetry_cell_setting 'orthorhombic'
loop_
_space_group_symop_operation_xyz
x,y,z
-x,-y,1/2+z
1/2-x,1/2+y,1/2+z
1/2+x,1/2-y,z
loop_
_atom_site_type_symbol
_atom_site_label
_atom_site_fract_x
_atom_site_fract_y
_atom_site_fract_z
Si Si1 0.692958 0.525506 0.573670
Si Si2 0.318234 0.080765 0.729263
Si Si3 0.331563 0.206700 0.083667
Si Si4 0.554782 0.922723 0.854808
Si Si5 0.101542 0.850499 0.274152
Si Si6 0.878606 0.563143 0.046020
Si Si7 0.468439 0.536594 0.288709
Si Si8 0.760138 0.173101 0.402603
O O1 0.760471 0.456587 0.524550
O O2 0.644344 0.564048 0.354944
O O3 0.627706 0.482417 0.749261
O O4 0.733465 0.604493 0.697320
O O5 0.407187 0.094097 0.613743
O O6 0.326355 0.009020 0.921457
O O7 0.289069 0.160830 0.862873
O O8 0.398386 0.143922 0.192900
O O9 0.263907 0.240253 0.269333
O O10 0.381073 0.283134 0.973111
O O11 0.456245 0.915013 0.876253
O O12 0.580499 0.014369 0.768277
O O13 0.005448 0.872725 0.251129
O O14 0.152856 0.826780 0.043216
O O15 0.816032 0.640337 0.064667
O O16 0.491905 0.510521 0.557998
#
# Coordination Sequence:
#
# PCOD9344629 Si02
#       8
#     4   4   4   4   4   4   4   4
#     4   9  19  34  59  88 110 149 201 256 303 366
#     4  10  20  38  59  86 118 151 198 256 314 367
#     4  10  23  37  58  81 122 165 192 247 324 380
#     4  11  20  39  62  90 122 154 205 268 315 373
#     4  10  19  36  60  82 118 162 197 249 315 380
#     4  10  21  35  65  93 112 156 210 257 310 377
#     4  10  19  35  60  93 121 154 206 258 304 371
#     4  10  19  38  59  85 117 159 199 245 313 388
#
# _framework density 21.508937
#
# number of rings (size 3 to 8) (size 9 to 14) (size 15 to 20)
#    0.000    2.000    2.500    1.500    0.000    0.000 
#    2.250    0.000    8.250    0.000    0.000    0.000 
#    0.000    0.000    0.000    0.000    0.000    0.000 
#
# Total GULP energy -178154.092774 kJ/mol
# GULP energy per Si atom -5567.315399 kJ/mol
# Density = 2.145998 g / cm^3
# Si number density = 21.508937 Si / 1000 Ang^3
#
#
#
# Elastic Constant Matrix: (Units=GPa)
#
#
# Indices 1 2 3 4 5 6 
#
# 1 52.8905 32.9201 -4.4190 0.0000 0.0000 0.0000
# 2 32.9201 89.2491 20.7552 0.0000 0.0000 0.0000
# 3 -4.4190 20.7552 56.7939 0.0000 0.0000 0.0000
# 4 0.0000 0.0000 0.0000 30.9654 0.0000 0.0000
# 5 0.0000 0.0000 0.0000 0.0000 24.0320 0.0000
# 6 0.0000 0.0000 0.0000 0.0000 0.0000 19.4777
#
#
#
# Elastic Compliance Matrix: (Units=1/GPa)
#
#
# Indices 1 2 3 4 5 6 
#
# 1 0.026356 -0.011146 0.006124 0.000000 0.000000 0.000000
# 2 -0.011146 0.016959 -0.007065 0.000000 0.000000 0.000000
# 3 0.006124 -0.007065 0.020666 0.000000 0.000000 0.000000
# 4 0.000000 0.000000 0.000000 0.032294 0.000000 0.000000
# 5 0.000000 0.000000 0.000000 0.000000 0.041611 0.000000
# 6 0.000000 0.000000 0.000000 0.000000 0.000000 0.051341
#
#
# Mechanical properties :
#
#
# Convention : Reuss Voigt Hill
#
# Bulk Modulus (GPa) = 25.12103 33.04958 29.08531
# Shear Modulus (GPa) = 22.05862 24.87349 23.46605
#
# Velocity S-wave (km/s) = 3.20590 3.40432 3.30660
# Velocity P-wave (km/s) = 5.04068 5.55440 5.30376
#
# Compressibility (1/GPa) = 0.03980728
#
# Stress axis : x y z
#
# Youngs Moduli (GPa) = 37.94214 58.96684 48.38913
#
# Poissons Ratio (x) = 0.65723 -0.29633
# Poissons Ratio (y) = 0.42289 0.34186
# Poissons Ratio (z) = -0.23235 0.41658
#
# Static dielectric constant tensor:
#      x y z
#    x 1.858490 0.000000 0.000000 
#    y 0.000000 1.815780 0.000000 
#    z 0.000000 0.000000 1.839960 
# 
# From -- ./inp_files/1492.got.cif
#   From: 2010.05.17/outbox.cif.g08.bks.cpg/sg33_1_cif.got.tgz:1492.got - 2010.06.03 17:15:25.
