data_PCOD9344460
_publ_section_title
;
Structure prediction by ZEFSAII (Michael W. Deem and Ramdas Pophale) SiO2 
 PCOD9344460
Probable space group: P N A 21
;
_chemical_formula_sum "Si O2"
_cell_formula_units_Z 32
_cell_length_a 5.993898
_cell_length_b 26.544351
_cell_length_c 7.937076
_cell_angle_alpha 90.000000
_cell_angle_beta 90.000000
_cell_angle_gamma 90.000000
_cell_volume 1262.821591
_symmetry_space_group_name_H-M "P N A 21"
_symmetry_group_IT_number 33
_symmetry_cell_setting 'orthorhombic'
loop_
_space_group_symop_operation_xyz
x,y,z
-x,-y,1/2+z
1/2-x,1/2+y,1/2+z
1/2+x,1/2-y,z
loop_
_atom_site_type_symbol
_atom_site_label
_atom_site_fract_x
_atom_site_fract_y
_atom_site_fract_z
Si Si1 0.269005 0.787156 0.089290
Si Si2 0.327935 0.969561 0.953715
Si Si3 0.872255 0.823950 0.961413
Si Si4 0.400738 0.105773 0.268770
Si Si5 0.817507 0.261372 0.952297
Si Si6 0.515425 0.470716 0.152862
Si Si7 0.637976 0.066816 0.956488
Si Si8 0.128407 0.642329 0.247106
O O1 0.170174 0.772265 0.276192
O O2 0.474465 0.821175 0.137098
O O3 0.136324 0.819915 0.951300
O O4 0.329601 0.733851 0.010449
O O5 0.509225 0.013817 0.970298
O O6 0.462156 0.918675 0.922967
O O7 0.151220 0.979395 0.101673
O O8 0.181646 0.978370 0.785133
O O9 0.719443 0.842555 0.812249
O O10 0.833792 0.862538 0.118849
O O11 0.196596 0.067720 0.226870
O O12 0.565684 0.102690 0.112041
O O13 0.070166 0.252748 0.027795
O O14 0.802426 0.320393 0.899632
O O15 0.396775 0.445693 0.988395
O O16 0.519067 0.095548 0.803701
#
# Coordination Sequence:
#
# PCOD9344460 Si02
#       8
#     4   4   4   4   4   4   4   4
#     4  10  18  34  59  88 122 158 210 278 328 379
#     4  10  22  43  66  92 132 169 212 271 332 405
#     4  11  20  38  64  89 122 161 217 276 327 390
#     4  10  24  41  64  92 130 172 216 264 331 410
#     4   9  15  31  54  82 119 158 203 273 328 375
#     4  10  22  43  65  92 132 174 214 269 336 395
#     4  10  23  42  62  91 137 171 213 266 326 405
#     4  10  20  34  60  92 118 161 215 269 326 389
#
# _framework density 25.340078999999999
#
# number of rings (size 3 to 8) (size 9 to 14) (size 15 to 20)
#    0.000    2.000    5.000    0.750    0.000    9.000 
#    0.000    1.250    8.250    0.000    0.000    0.000 
#    0.000    0.000    0.000    0.000    0.000    0.000 
#
# Total GULP energy -178554.163718 kJ/mol
# GULP energy per Si atom -5579.817616 kJ/mol
# Density = 2.528240 g / cm^3
# Si number density = 25.340079 Si / 1000 Ang^3
#
#
#
# Elastic Constant Matrix: (Units=GPa)
#
#
# Indices 1 2 3 4 5 6 
#
# 1 89.6865 5.4582 -1.7214 0.0000 0.0000 0.0000
# 2 5.4582 48.3120 3.1030 0.0000 0.0000 0.0000
# 3 -1.7214 3.1030 51.0555 0.0000 0.0000 0.0000
# 4 0.0000 0.0000 0.0000 24.4483 0.0000 0.0000
# 5 0.0000 0.0000 0.0000 0.0000 30.6361 0.0000
# 6 0.0000 0.0000 0.0000 0.0000 0.0000 19.6837
#
#
#
# Elastic Compliance Matrix: (Units=1/GPa)
#
#
# Indices 1 2 3 4 5 6 
#
# 1 0.011238 -0.001299 0.000458 0.000000 0.000000 0.000000
# 2 -0.001299 0.020930 -0.001316 0.000000 0.000000 0.000000
# 3 0.000458 -0.001316 0.019682 0.000000 0.000000 0.000000
# 4 0.000000 0.000000 0.000000 0.040903 0.000000 0.000000
# 5 0.000000 0.000000 0.000000 0.000000 0.032641 0.000000
# 6 0.000000 0.000000 0.000000 0.000000 0.000000 0.050803
#
#
# Mechanical properties :
#
#
# Convention : Reuss Voigt Hill
#
# Bulk Modulus (GPa) = 21.03682 22.52596 21.78139
# Shear Modulus (GPa) = 25.46390 27.10124 26.28257
#
# Velocity S-wave (km/s) = 3.17343 3.27387 3.22404
# Velocity P-wave (km/s) = 4.66341 4.81661 4.74063
#
# Compressibility (1/GPa) = 0.04753570
#
# Stress axis : x y z
#
# Youngs Moduli (GPa) = 88.98541 47.77815 50.80805
#
# Poissons Ratio (x) = 0.06207 -0.02326
# Poissons Ratio (y) = 0.11559 0.06686
# Poissons Ratio (z) = -0.04074 0.06287
#
# Static dielectric constant tensor:
#      x y z
#    x 2.146670 0.000000 0.000000 
#    y 0.000000 1.953990 0.000000 
#    z 0.000000 0.000000 2.162040 
# 
# From -- ./inp_files/2867.got.cif
#   From: 2010.05.17/outbox.cif.g08.bks.cpg/sg33_2_cif.got.tgz:2867.got - 2010.06.03 17:15:25.
