data_PCOD9344272
_publ_section_title
;
Structure prediction by ZEFSAII (Michael W. Deem and Ramdas Pophale) SiO2 
 PCOD9344272
Probable space group: P B A 2
;
_chemical_formula_sum "Si O2"
_cell_formula_units_Z 28
_cell_length_a 24.186166
_cell_length_b 8.377651
_cell_length_c 6.304459
_cell_angle_alpha 90.000000
_cell_angle_beta 90.000000
_cell_angle_gamma 90.000000
_cell_volume 1277.430021
_symmetry_space_group_name_H-M "P B A 2"
_symmetry_group_IT_number 32
_symmetry_cell_setting 'orthorhombic'
loop_
_space_group_symop_operation_xyz
x,y,z
-x,-y,z
1/2-x,1/2+y,z
1/2+x,1/2-y,z
loop_
_atom_site_type_symbol
_atom_site_label
_atom_site_fract_x
_atom_site_fract_y
_atom_site_fract_z
Si Si1 0.298208 0.025421 0.573400
Si Si2 0.165824 0.583999 0.151975
Si Si3 0.398763 0.516362 0.738458
Si Si4 0.500000 0.000000 0.643912
Si Si5 0.500000 0.500000 0.062279
Si Si6 0.789680 0.174710 0.814945
Si Si7 0.391192 0.877808 0.802276
Si Si8 0.437171 0.270613 0.372449
O O1 0.261699 0.934712 0.748784
O O2 0.361143 0.988855 0.631188
O O3 0.294581 0.999530 0.324452
O O4 0.290067 0.211064 0.610475
O O5 0.115883 0.691846 0.252920
O O6 0.203513 0.703653 0.010832
O O7 0.135528 0.443764 0.018427
O O8 0.344913 0.428053 0.825198
O O9 0.380966 0.700210 0.717514
O O10 0.418056 0.412838 0.534525
O O11 0.447937 0.526059 0.908504
O O12 0.455482 0.913786 0.791732
O O13 0.529910 0.865367 0.502203
O O14 0.480133 0.353517 0.209609
#
# Coordination Sequence:
#
# PCOD9344272 Si02
#       8
#     4   4   4   2   2   4   4   4
#     4  11  24  48  74 105 147 192 250 314 374 449
#     4  11  24  47  73 108 142 197 247 310 376 459
#     4  12  25  46  69 106 152 194 238 318 367 443
#     4  12  24  44  74 102 158 200 238 318 362 454
#     4  12  26  40  72 104 148 200 246 302 374 458
#     4  11  24  47  74 106 148 189 248 315 375 443
#     4  11  26  42  69 107 149 189 254 301 373 447
#     4  12  25  46  70 111 152 196 252 297 385 447
#
# _framework density 21.919008999999999
#
# number of rings (size 3 to 8) (size 9 to 14) (size 15 to 20)
#    0.000    0.571    4.286    3.857    4.000    3.429 
#    0.000    0.000    0.000    0.000    0.000    0.000 
#    0.000    0.000    0.000    0.000    0.000    0.000 
#
# Total GULP energy -156191.566456 kJ/mol
# GULP energy per Si atom -5578.270231 kJ/mol
# Density = 2.186912 g / cm^3
# Si number density = 21.919009 Si / 1000 Ang^3
#
#
#
# Elastic Constant Matrix: (Units=GPa)
#
#
# Indices 1 2 3 4 5 6 
#
# 1 100.3777 29.1601 42.0473 0.0000 0.0000 0.0000
# 2 29.1601 96.6213 22.4688 0.0000 0.0000 0.0000
# 3 42.0473 22.4688 91.6970 0.0000 0.0000 0.0000
# 4 0.0000 0.0000 0.0000 44.8988 0.0000 0.0000
# 5 0.0000 0.0000 0.0000 0.0000 24.0176 0.0000
# 6 0.0000 0.0000 0.0000 0.0000 0.0000 41.1821
#
#
#
# Elastic Compliance Matrix: (Units=1/GPa)
#
#
# Indices 1 2 3 4 5 6 
#
# 1 0.012954 -0.002681 -0.005283 0.000000 0.000000 0.000000
# 2 -0.002681 0.011530 -0.001596 0.000000 0.000000 0.000000
# 3 -0.005283 -0.001596 0.013719 0.000000 0.000000 0.000000
# 4 0.000000 0.000000 0.000000 0.022272 0.000000 0.000000
# 5 0.000000 0.000000 0.000000 0.000000 0.041636 0.000000
# 6 0.000000 0.000000 0.000000 0.000000 0.000000 0.024282
#
#
# Mechanical properties :
#
#
# Convention : Reuss Voigt Hill
#
# Bulk Modulus (GPa) = 52.40209 52.89428 52.64819
# Shear Modulus (GPa) = 32.92176 35.02104 33.97140
#
# Velocity S-wave (km/s) = 3.87973 4.00152 3.94110
# Velocity P-wave (km/s) = 6.63542 6.74786 6.69188
#
# Compressibility (1/GPa) = 0.01908321
#
# Stress axis : x y z
#
# Youngs Moduli (GPa) = 77.19448 86.73091 72.89104
#
# Poissons Ratio (x) = 0.23253 0.38510
# Poissons Ratio (y) = 0.20696 0.11632
# Poissons Ratio (z) = 0.40783 0.13841
#
# Static dielectric constant tensor:
#      x y z
#    x 1.853890 0.000000 0.000000 
#    y 0.000000 1.635920 0.000000 
#    z 0.000000 0.000000 1.836680 
# 
# From -- ./inp_files/1750.got.cif
#   From: 2010.05.17/outbox.cif.g08.bks.cpg/sg32_1_cif.got.tgz:1750.got - 2010.06.03 17:12:27.
