data_PCOD9344001
_publ_section_title
;
Structure prediction by ZEFSAII (Michael W. Deem and Ramdas Pophale) SiO2 
 PCOD9344001
Probable space group: P B A 2
;
_chemical_formula_sum "Si O2"
_cell_formula_units_Z 30
_cell_length_a 19.638036
_cell_length_b 14.373521
_cell_length_c 6.369338
_cell_angle_alpha 90.000000
_cell_angle_beta 90.000000
_cell_angle_gamma 90.000000
_cell_volume 1797.858533
_symmetry_space_group_name_H-M "P B A 2"
_symmetry_group_IT_number 32
_symmetry_cell_setting 'orthorhombic'
loop_
_space_group_symop_operation_xyz
x,y,z
-x,-y,z
1/2-x,1/2+y,z
1/2+x,1/2-y,z
loop_
_atom_site_type_symbol
_atom_site_label
_atom_site_fract_x
_atom_site_fract_y
_atom_site_fract_z
Si Si1 0.395803 0.516533 0.998740
Si Si2 0.626995 0.659056 0.280560
Si Si3 0.500000 0.500000 0.667633
Si Si4 0.031098 0.150610 0.323856
Si Si5 0.669237 0.260204 0.371017
Si Si6 0.276850 0.591389 0.706939
Si Si7 0.270687 0.245362 0.990184
Si Si8 0.758141 0.118468 0.611558
O O1 0.440595 0.465929 0.820852
O O2 0.336608 0.567106 0.871778
O O3 0.369844 0.440684 0.162992
O O4 0.442760 0.589364 0.125923
O O5 0.547266 0.680643 0.305006
O O6 0.664908 0.734486 0.136844
O O7 0.671953 0.645865 0.489990
O O8 0.469946 0.579872 0.520617
O O9 0.088253 0.228817 0.353870
O O10 0.694929 0.346394 0.515406
O O11 0.706687 0.265202 0.147043
O O12 0.697503 0.168045 0.483683
O O13 0.251023 0.492073 0.626807
O O14 0.225346 0.656722 0.837070
O O15 0.260381 0.334365 0.839851
#
# Coordination Sequence:
#
# PCOD9344001 Si02
#       8
#     4   4   2   4   4   4   4   4
#     4  12  20  31  53  84 116 149 174 215 289 357
#     4  11  21  34  51  82 117 146 185 225 286 348
#     4  12  20  30  48  84 118 146 176 202 288 364
#     4  12  21  32  51  80 117 152 177 221 283 353
#     4  10  22  36  53  84 112 145 191 229 281 343
#     4  11  20  35  58  77 113 149 184 233 278 332
#     4  10  22  36  53  81 112 144 192 232 275 334
#     4  10  22  37  55  81 111 150 191 232 277 331
#
# _framework density 16.686519000000001
#
# number of rings (size 3 to 8) (size 9 to 14) (size 15 to 20)
#    0.000    1.067    6.667    1.600    0.000    0.000 
#    0.000    0.000    0.000    0.000    0.000   22.400 
#    0.000    0.000    0.000    0.000    0.000    0.000 
#
# Total GULP energy -167378.180327 kJ/mol
# GULP energy per Si atom -5579.272678 kJ/mol
# Density = 1.664854 g / cm^3
# Si number density = 16.686519 Si / 1000 Ang^3
#
#
#
# Elastic Constant Matrix: (Units=GPa)
#
#
# Indices 1 2 3 4 5 6 
#
# 1 80.1190 25.5018 22.0024 0.0000 0.0000 0.0000
# 2 25.5018 76.1808 15.7485 0.0000 0.0000 0.0000
# 3 22.0024 15.7485 69.5398 0.0000 0.0000 0.0000
# 4 0.0000 0.0000 0.0000 32.4602 0.0000 0.0000
# 5 0.0000 0.0000 0.0000 0.0000 32.5679 0.0000
# 6 0.0000 0.0000 0.0000 0.0000 0.0000 25.4620
#
#
#
# Elastic Compliance Matrix: (Units=1/GPa)
#
#
# Indices 1 2 3 4 5 6 
#
# 1 0.014846 -0.004195 -0.003747 0.000000 0.000000 0.000000
# 2 -0.004195 0.014957 -0.002060 0.000000 0.000000 0.000000
# 3 -0.003747 -0.002060 0.016032 0.000000 0.000000 0.000000
# 4 0.000000 0.000000 0.000000 0.030807 0.000000 0.000000
# 5 0.000000 0.000000 0.000000 0.000000 0.030705 0.000000
# 6 0.000000 0.000000 0.000000 0.000000 0.000000 0.039274
#
#
# Mechanical properties :
#
#
# Convention : Reuss Voigt Hill
#
# Bulk Modulus (GPa) = 38.71362 39.14944 38.93153
# Shear Modulus (GPa) = 28.53301 28.93716 28.73508
#
# Velocity S-wave (km/s) = 4.13963 4.16885 4.15427
# Velocity P-wave (km/s) = 6.78967 6.83264 6.81119
#
# Compressibility (1/GPa) = 0.02583070
#
# Stress axis : x y z
#
# Youngs Moduli (GPa) = 67.35928 66.85914 62.37384
#
# Poissons Ratio (x) = 0.28048 0.23373
# Poissons Ratio (y) = 0.28258 0.12848
# Poissons Ratio (z) = 0.25241 0.13772
#
# Static dielectric constant tensor:
#      x y z
#    x 1.577460 0.000000 0.000000 
#    y 0.000000 1.553650 0.000000 
#    z 0.000000 0.000000 1.589680 
# 
# From -- ./inp_files/1322.got.cif
#   From: 2010.05.17/outbox.cif.g08.bks.cpg/sg32_1_cif.got.tgz:1322.got - 2010.06.03 17:12:27.
