data_PCOD9344550
_publ_section_title
;
Structure prediction by ZEFSAII (Michael W. Deem and Ramdas Pophale) SiO2 
 PCOD9344550
Probable space group: P N A 21
;
_chemical_formula_sum "Si O2"
_cell_formula_units_Z 28
_cell_length_a 8.384841
_cell_length_b 24.936625
_cell_length_c 5.102782
_cell_angle_alpha 90.000000
_cell_angle_beta 90.000000
_cell_angle_gamma 90.000000
_cell_volume 1066.938829
_symmetry_space_group_name_H-M "P N A 21"
_symmetry_group_IT_number 33
_symmetry_cell_setting 'orthorhombic'
loop_
_space_group_symop_operation_xyz
x,y,z
-x,-y,1/2+z
1/2-x,1/2+y,1/2+z
1/2+x,1/2-y,z
loop_
_atom_site_type_symbol
_atom_site_label
_atom_site_fract_x
_atom_site_fract_y
_atom_site_fract_z
Si Si1 0.707941 0.593252 0.085600
Si Si2 0.568690 0.471427 0.465510
Si Si3 0.156971 0.464986 0.089979
Si Si4 0.302437 0.819579 0.415403
Si Si5 0.271291 0.170815 0.560262
Si Si6 0.484763 0.270567 0.750909
Si Si7 0.593908 0.887659 0.564877
O O1 0.523021 0.583938 0.020364
O O2 0.743266 0.568042 0.370049
O O3 0.781125 0.652182 0.126535
O O4 0.800140 0.557696 0.874432
O O5 0.525257 0.488607 0.169195
O O6 0.754094 0.478425 0.542187
O O7 0.971377 0.449262 0.047613
O O8 0.423826 0.856290 0.570977
O O9 0.388345 0.763200 0.413891
O O10 0.118659 0.805922 0.454521
O O11 0.381623 0.224964 0.598371
O O12 0.092691 0.193082 0.566824
O O13 0.315617 0.134327 0.811633
O O14 0.312221 0.134674 0.311374
#
# Coordination Sequence:
#
# PCOD9344550 Si02
#       7
#     4   4   4   4   4   4   4
#     4   9  16  27  43  67  94 122 151 189 235 276
#     4   8  14  23  39  64  93 118 146 184 231 276
#     4   9  15  26  44  67  94 121 149 188 233 278
#     4   9  18  32  51  71  97 127 160 199 240 284
#     4  10  21  34  49  69  95 125 160 198 237 283
#     4   9  19  35  50  70  95 126 162 199 239 282
#     4  10  19  33  50  72  96 125 158 195 239 285
#
# _framework density 26.243303999999998
#
# number of rings (size 3 to 8) (size 9 to 14) (size 15 to 20)
#    0.000    2.857    0.000    2.571    0.000    4.571 
#    0.000   10.000    0.000    0.000    0.000    2.000 
#    0.000    0.000    0.000    0.571    0.000    0.000 
#
# Total GULP energy -156189.545098 kJ/mol
# GULP energy per Si atom -5578.198039 kJ/mol
# Density = 2.618357 g / cm^3
# Si number density = 26.243304 Si / 1000 Ang^3
#
#
#
# Elastic Constant Matrix: (Units=GPa)
#
#
# Indices 1 2 3 4 5 6 
#
# 1 94.2287 33.8359 23.3565 0.0000 0.0000 0.0000
# 2 33.8359 77.2642 23.1837 0.0000 0.0000 0.0000
# 3 23.3565 23.1837 119.5527 0.0000 0.0000 0.0000
# 4 0.0000 0.0000 0.0000 7.6000 0.0000 0.0000
# 5 0.0000 0.0000 0.0000 0.0000 33.9212 0.0000
# 6 0.0000 0.0000 0.0000 0.0000 0.0000 47.6202
#
#
#
# Elastic Compliance Matrix: (Units=1/GPa)
#
#
# Indices 1 2 3 4 5 6 
#
# 1 0.012843 -0.005172 -0.001506 0.000000 0.000000 0.000000
# 2 -0.005172 0.015825 -0.002058 0.000000 0.000000 0.000000
# 3 -0.001506 -0.002058 0.009058 0.000000 0.000000 0.000000
# 4 0.000000 0.000000 0.000000 0.131579 0.000000 0.000000
# 5 0.000000 0.000000 0.000000 0.000000 0.029480 0.000000
# 6 0.000000 0.000000 0.000000 0.000000 0.000000 0.020999
#
#
# Mechanical properties :
#
#
# Convention : Reuss Voigt Hill
#
# Bulk Modulus (GPa) = 49.37609 50.19975 49.78792
# Shear Modulus (GPa) = 20.49099 31.87292 26.18196
#
# Velocity S-wave (km/s) = 2.79733 3.48877 3.16201
# Velocity P-wave (km/s) = 5.41193 5.94969 5.68717
#
# Compressibility (1/GPa) = 0.02025272
#
# Stress axis : x y z
#
# Youngs Moduli (GPa) = 77.86280 63.18975 110.40087
#
# Poissons Ratio (x) = 0.32684 0.16627
# Poissons Ratio (y) = 0.40274 0.22724
# Poissons Ratio (z) = 0.11727 0.13007
#
# Static dielectric constant tensor:
#      x y z
#    x 2.101550 0.000000 0.000000 
#    y 0.000000 2.230670 0.000000 
#    z 0.000000 0.000000 2.002250 
# 
# From -- ./inp_files/565.got.cif
#   From: 2010.05.17/outbox.cif.g08.bks.cpg/sg33_1_cif.got.tgz:565.got - 2010.06.03 17:15:25.
