data_PCOD9344559
_publ_section_title
;
Structure prediction by ZEFSAII (Michael W. Deem and Ramdas Pophale) SiO2 
 PCOD9344559
Probable space group: P N A 21
;
_chemical_formula_sum "Si O2"
_cell_formula_units_Z 20
_cell_length_a 5.211642
_cell_length_b 19.886986
_cell_length_c 7.501762
_cell_angle_alpha 90.000000
_cell_angle_beta 90.000000
_cell_angle_gamma 90.000000
_cell_volume 777.511507
_symmetry_space_group_name_H-M "P N A 21"
_symmetry_group_IT_number 33
_symmetry_cell_setting 'orthorhombic'
loop_
_space_group_symop_operation_xyz
x,y,z
-x,-y,1/2+z
1/2-x,1/2+y,1/2+z
1/2+x,1/2-y,z
loop_
_atom_site_type_symbol
_atom_site_label
_atom_site_fract_x
_atom_site_fract_y
_atom_site_fract_z
Si Si1 0.410149 0.291169 0.468480
Si Si2 0.578007 0.954431 0.703827
Si Si3 0.553199 0.565074 0.923513
Si Si4 0.738281 0.569085 0.396509
Si Si5 0.441655 0.290934 0.034865
O O1 0.146927 0.255472 0.521075
O O2 0.433744 0.367235 0.539041
O O3 0.408637 0.296797 0.250819
O O4 0.666444 0.032839 0.714342
O O5 0.812565 0.915924 0.791616
O O6 0.320753 0.943817 0.820397
O O7 0.497722 0.929952 0.512229
O O8 0.440353 0.491710 0.977884
O O9 0.610201 0.639454 0.434089
O O10 0.217107 0.238615 0.987321
#
# Coordination Sequence:
#
# PCOD9344559 Si02
#       5
#     4   4   4   4   4
#     4  10  19  33  55  84 118 150 193 248 299 339
#     4  10  23  35  62  85 122 153 203 243 296 350
#     4  10  22  35  58  84 121 156 192 247 290 355
#     4  10  24  38  62  89 124 154 207 240 306 352
#     4  10  22  33  57  86 121 153 193 252 299 346
#
# _framework density 25.723094
#
# number of rings (size 3 to 8) (size 9 to 14) (size 15 to 20)
#    1.200    0.800    2.000    1.200   11.200    0.000 
#    0.000    0.000    0.000    2.400    0.000    0.000 
#    0.000    0.000    0.000    0.000    0.000    0.000 
#
# Total GULP energy -111767.653414 kJ/mol
# GULP energy per Si atom -5588.382671 kJ/mol
# Density = 2.566455 g / cm^3
# Si number density = 25.723094 Si / 1000 Ang^3
#
#
#
# Elastic Constant Matrix: (Units=GPa)
#
#
# Indices 1 2 3 4 5 6 
#
# 1 145.8427 43.1416 -8.5318 0.0000 0.0000 0.0000
# 2 43.1416 146.5587 -8.1236 0.0000 0.0000 0.0000
# 3 -8.5318 -8.1236 43.2752 0.0000 0.0000 0.0000
# 4 0.0000 0.0000 0.0000 22.9304 0.0000 0.0000
# 5 0.0000 0.0000 0.0000 0.0000 15.5953 0.0000
# 6 0.0000 0.0000 0.0000 0.0000 0.0000 58.7868
#
#
#
# Elastic Compliance Matrix: (Units=1/GPa)
#
#
# Indices 1 2 3 4 5 6 
#
# 1 0.007561 -0.002166 0.001084 0.000000 0.000000 0.000000
# 2 -0.002166 0.007515 0.000984 0.000000 0.000000 0.000000
# 3 0.001084 0.000984 0.023506 0.000000 0.000000 0.000000
# 4 0.000000 0.000000 0.000000 0.043610 0.000000 0.000000
# 5 0.000000 0.000000 0.000000 0.000000 0.064122 0.000000
# 6 0.000000 0.000000 0.000000 0.000000 0.000000 0.017011
#
#
# Mechanical properties :
#
#
# Convention : Reuss Voigt Hill
#
# Bulk Modulus (GPa) = 26.05047 43.18321 34.61684
# Shear Modulus (GPa) = 28.35822 40.07520 34.21671
#
# Velocity S-wave (km/s) = 3.32391 3.95136 3.65114
# Velocity P-wave (km/s) = 4.98803 6.13530 5.59117
#
# Compressibility (1/GPa) = 0.03838702
#
# Stress axis : x y z
#
# Youngs Moduli (GPa) = 132.26287 133.06392 42.54176
#
# Poissons Ratio (x) = 0.28815 -0.04612
# Poissons Ratio (y) = 0.28642 -0.04185
# Poissons Ratio (z) = -0.14339 -0.13091
#
# Static dielectric constant tensor:
#      x y z
#    x 1.961980 0.000000 0.000000 
#    y 0.000000 2.035560 0.000000 
#    z 0.000000 0.000000 2.225900 
# 
# From -- ./inp_files/5432.got.cif
#   From: 2010.05.17/outbox.cif.g08.bks.cpg/sg33_3_cif.got.tgz:5432.got - 2010.06.03 17:15:25.
