data_PCOD9344792
_publ_section_title
;
Structure prediction by ZEFSAII (Michael W. Deem and Ramdas Pophale) SiO2 
 PCOD9344792
Probable space group: P N A 21
;
_chemical_formula_sum "Si O2"
_cell_formula_units_Z 28
_cell_length_a 13.397471
_cell_length_b 10.284883
_cell_length_c 8.453986
_cell_angle_alpha 90.000000
_cell_angle_beta 90.000000
_cell_angle_gamma 90.000000
_cell_volume 1164.886750
_symmetry_space_group_name_H-M "P N A 21"
_symmetry_group_IT_number 33
_symmetry_cell_setting 'orthorhombic'
loop_
_space_group_symop_operation_xyz
x,y,z
-x,-y,1/2+z
1/2-x,1/2+y,1/2+z
1/2+x,1/2-y,z
loop_
_atom_site_type_symbol
_atom_site_label
_atom_site_fract_x
_atom_site_fract_y
_atom_site_fract_z
Si Si1 0.204365 0.512412 0.287210
Si Si2 0.436380 0.202894 0.615639
Si Si3 0.414405 0.036472 0.082583
Si Si4 0.304572 0.792885 0.568917
Si Si5 0.341402 0.493457 0.020066
Si Si6 0.005093 0.194329 0.927301
Si Si7 0.809603 0.340574 0.342344
O O1 0.152973 0.640723 0.219202
O O2 0.180221 0.502601 0.469699
O O3 0.146822 0.396460 0.191621
O O4 0.312583 0.504295 0.205592
O O5 0.379476 0.244804 0.456539
O O6 0.510987 0.085402 0.572116
O O7 0.491256 0.296537 0.738026
O O8 0.381811 0.050194 0.265794
O O9 0.460283 0.171694 0.009594
O O10 0.235389 0.880522 0.457759
O O11 0.380976 0.702557 0.481245
O O12 0.228067 0.722376 0.682771
O O13 0.448339 0.434128 0.987335
O O14 0.291622 0.615442 0.932134
#
# Coordination Sequence:
#
# PCOD9344792 Si02
#       7
#     4   4   4   4   4   4   4
#     4   8  18  33  53  85 116 145 194 260 311 368
#     4  10  20  32  60  95 116 150 213 270 310 365
#     4  11  17  33  63  90 115 153 207 270 321 356
#     4  10  20  38  59  88 122 164 202 258 329 378
#     4   9  20  39  55  85 120 159 211 255 308 395
#     4  11  20  37  62  84 125 165 202 258 324 385
#     4  11  21  36  60  87 128 164 205 269 327 381
#
# _framework density 24.036671999999999
#
# number of rings (size 3 to 8) (size 9 to 14) (size 15 to 20)
#    0.857    1.143    2.857    2.571    0.000    1.143 
#    0.000    1.429    3.143    0.000    0.000    0.000 
#    0.000    0.000    0.000    0.000    0.000    0.000 
#
# Total GULP energy -155952.833565 kJ/mol
# GULP energy per Si atom -5569.744056 kJ/mol
# Density = 2.398196 g / cm^3
# Si number density = 24.036672 Si / 1000 Ang^3
#
#
#
# Elastic Constant Matrix: (Units=GPa)
#
#
# Indices 1 2 3 4 5 6 
#
# 1 51.9933 6.5449 19.4008 0.0000 0.0000 0.0000
# 2 6.5449 23.2446 11.0011 0.0000 0.0000 0.0000
# 3 19.4008 11.0011 90.0228 0.0000 0.0000 0.0000
# 4 0.0000 0.0000 0.0000 29.2521 0.0000 0.0000
# 5 0.0000 0.0000 0.0000 0.0000 26.9661 0.0000
# 6 0.0000 0.0000 0.0000 0.0000 0.0000 29.2938
#
#
#
# Elastic Compliance Matrix: (Units=1/GPa)
#
#
# Indices 1 2 3 4 5 6 
#
# 1 0.021269 -0.004054 -0.004088 0.000000 0.000000 0.000000
# 2 -0.004054 0.046434 -0.004801 0.000000 0.000000 0.000000
# 3 -0.004088 -0.004801 0.012576 0.000000 0.000000 0.000000
# 4 0.000000 0.000000 0.000000 0.034186 0.000000 0.000000
# 5 0.000000 0.000000 0.000000 0.000000 0.037084 0.000000
# 6 0.000000 0.000000 0.000000 0.000000 0.000000 0.034137
#
#
# Mechanical properties :
#
#
# Convention : Reuss Voigt Hill
#
# Bulk Modulus (GPa) = 18.38451 26.57269 22.47860
# Shear Modulus (GPa) = 21.76731 25.65665 23.71198
#
# Velocity S-wave (km/s) = 3.01256 3.27065 3.14425
# Velocity P-wave (km/s) = 4.44588 5.03407 4.74909
#
# Compressibility (1/GPa) = 0.05439360
#
# Stress axis : x y z
#
# Youngs Moduli (GPa) = 47.01664 21.53589 79.51626
#
# Poissons Ratio (x) = 0.08730 0.32509
# Poissons Ratio (y) = 0.19059 0.38174
# Poissons Ratio (z) = 0.19222 0.10339
#
# Static dielectric constant tensor:
#      x y z
#    x 2.080990 0.000000 0.000000 
#    y 0.000000 2.071850 0.000000 
#    z 0.000000 0.000000 1.896740 
# 
# From -- ./inp_files/4817.got.cif
#   From: 2010.05.17/outbox.cif.g08.bks.cpg/sg33_3_cif.got.tgz:4817.got - 2010.06.03 17:15:25.
