data_PCOD9344316
_publ_section_title
;
Structure prediction by ZEFSAII (Michael W. Deem and Ramdas Pophale) SiO2 
 PCOD9344316
Probable space group: P B A 2
;
_chemical_formula_sum "Si O2"
_cell_formula_units_Z 16
_cell_length_a 24.680886
_cell_length_b 5.701322
_cell_length_c 5.023169
_cell_angle_alpha 90.000000
_cell_angle_beta 90.000000
_cell_angle_gamma 90.000000
_cell_volume 706.828587
_symmetry_space_group_name_H-M "P B A 2"
_symmetry_group_IT_number 32
_symmetry_cell_setting 'orthorhombic'
loop_
_space_group_symop_operation_xyz
x,y,z
-x,-y,z
1/2-x,1/2+y,z
1/2+x,1/2-y,z
loop_
_atom_site_type_symbol
_atom_site_label
_atom_site_fract_x
_atom_site_fract_y
_atom_site_fract_z
Si Si1 0.217132 0.250013 0.116250
Si Si2 0.054371 0.609894 0.362093
Si Si3 0.554372 0.609893 0.870402
Si Si4 0.861064 0.749999 0.616249
O O1 0.249998 0.500019 0.116249
O O2 0.178664 0.209110 0.370162
O O3 0.178663 0.290900 0.862339
O O4 0.032419 0.750002 0.616247
O O5 0.098693 0.446246 0.499318
O O6 0.000000 0.500000 0.238111
O O7 0.080297 0.750000 0.116247
O O8 0.500000 0.500000 0.994383
O O9 0.598694 0.446248 0.733178
#
# Coordination Sequence:
#
# PCOD9344316 Si02
#       4
#     4   4   4   4
#     4  12  30  54  80 112 152 204 276 340 390 460
#     4  12  26  45  73 112 159 200 251 310 391 491
#     4  12  26  45  73 112 159 200 251 310 391 491
#     4  12  28  50  78 110 150 210 250 322 408 458
#
# _framework density 22.636322
#
# number of rings (size 3 to 8) (size 9 to 14) (size 15 to 20)
#    0.000    0.000    2.500    6.000   14.000    0.000 
#    0.000    0.000    0.000    0.000    0.000    0.000 
#    0.000    0.000    0.000    0.000    0.000    0.000 
#
# Total GULP energy -89284.234945 kJ/mol
# GULP energy per Si atom -5580.264684 kJ/mol
# Density = 2.258480 g / cm^3
# Si number density = 22.636322 Si / 1000 Ang^3
#
#
#
# Elastic Constant Matrix: (Units=GPa)
#
#
# Indices 1 2 3 4 5 6 
#
# 1 144.6377 69.5313 61.7892 0.0000 0.0000 0.0000
# 2 69.5313 123.9256 61.4104 0.0000 0.0000 0.0000
# 3 61.7892 61.4104 201.4292 0.0000 0.0000 0.0000
# 4 0.0000 0.0000 0.0000 59.4721 0.0000 0.0000
# 5 0.0000 0.0000 0.0000 0.0000 98.7452 0.0000
# 6 0.0000 0.0000 0.0000 0.0000 0.0000 71.0381
#
#
#
# Elastic Compliance Matrix: (Units=1/GPa)
#
#
# Indices 1 2 3 4 5 6 
#
# 1 0.009876 -0.004759 -0.001579 0.000000 0.000000 0.000000
# 2 -0.004759 0.011799 -0.002137 0.000000 0.000000 0.000000
# 3 -0.001579 -0.002137 0.006100 0.000000 0.000000 0.000000
# 4 0.000000 0.000000 0.000000 0.016815 0.000000 0.000000
# 5 0.000000 0.000000 0.000000 0.000000 0.010127 0.000000
# 6 0.000000 0.000000 0.000000 0.000000 0.000000 0.014077
#
#
# Mechanical properties :
#
#
# Convention : Reuss Voigt Hill
#
# Bulk Modulus (GPa) = 92.37579 95.05047 93.71313
# Shear Modulus (GPa) = 55.95887 64.33520 60.14704
#
# Velocity S-wave (km/s) = 4.97740 5.33694 5.16030
# Velocity P-wave (km/s) = 8.59825 8.94755 8.77464
#
# Compressibility (1/GPa) = 0.01082535
#
# Stress axis : x y z
#
# Youngs Moduli (GPa) = 101.25643 84.75641 163.92449
#
# Poissons Ratio (x) = 0.40334 0.25878
# Poissons Ratio (y) = 0.48186 0.35035
# Poissons Ratio (z) = 0.15985 0.18115
#
# Static dielectric constant tensor:
#      x y z
#    x 1.855830 0.000000 0.000000 
#    y 0.000000 2.031030 0.000000 
#    z 0.000000 0.000000 1.792910 
# 
# From -- ./inp_files/133.got.cif
#   From: 2010.05.17/outbox.cif.g08.bks.cpg/sg32_1_cif.got.tgz:133.got - 2010.06.03 17:12:27.
