data_PCOD9344513
_publ_section_title
;
Structure prediction by ZEFSAII (Michael W. Deem and Ramdas Pophale) SiO2 
 PCOD9344513
Probable space group: P N A 21
;
_chemical_formula_sum "Si O2"
_cell_formula_units_Z 32
_cell_length_a 8.772922
_cell_length_b 14.555462
_cell_length_c 11.373257
_cell_angle_alpha 90.000000
_cell_angle_beta 90.000000
_cell_angle_gamma 90.000000
_cell_volume 1452.295915
_symmetry_space_group_name_H-M "P N A 21"
_symmetry_group_IT_number 33
_symmetry_cell_setting 'orthorhombic'
loop_
_space_group_symop_operation_xyz
x,y,z
-x,-y,1/2+z
1/2-x,1/2+y,1/2+z
1/2+x,1/2-y,z
loop_
_atom_site_type_symbol
_atom_site_label
_atom_site_fract_x
_atom_site_fract_y
_atom_site_fract_z
Si Si1 0.037008 0.800238 0.278010
Si Si2 0.480159 0.132100 0.940014
Si Si3 0.208879 0.974091 0.381298
Si Si4 0.602017 0.786409 0.053510
Si Si5 0.712592 0.126267 0.480018
Si Si6 0.357621 0.576949 0.088428
Si Si7 0.342920 0.996085 0.768606
Si Si8 0.158303 0.539515 0.648578
O O1 0.978847 0.730112 0.379714
O O2 0.132493 0.881178 0.334768
O O3 0.132516 0.736220 0.189859
O O4 0.940612 0.852059 0.175093
O O5 0.629061 0.064199 0.935546
O O6 0.357279 0.082576 0.855340
O O7 0.396298 0.125366 0.067317
O O8 0.092155 0.019660 0.474454
O O9 0.244592 0.040238 0.269134
O O10 0.431591 0.818612 0.031241
O O11 0.647227 0.695843 0.981950
O O12 0.716549 0.868894 0.028023
O O13 0.668824 0.091226 0.351980
O O14 0.732853 0.038232 0.564840
O O15 0.295812 0.502737 0.180673
O O16 0.496725 0.998982 0.693877
#
# Coordination Sequence:
#
# PCOD9344513 Si02
#       8
#     4   4   4   4   4   4   4   4
#     4  12  24  38  67  99 129 169 227 277 333 392
#     4  10  20  38  70  97 122 170 226 275 317 405
#     4  11  23  42  63  96 135 173 217 280 336 407
#     4  12  20  40  63  97 123 162 218 271 321 394
#     4  11  22  36  68  96 125 167 216 268 322 395
#     4  12  23  41  65  91 135 176 217 269 336 400
#     4  10  20  38  63  95 122 169 218 257 325 400
#     4  10  18  39  67  93 123 166 223 263 328 389
#
# _framework density 22.034075999999999
#
# number of rings (size 3 to 8) (size 9 to 14) (size 15 to 20)
#    0.000    1.000    6.250    3.000    0.000    1.000 
#    0.000    2.500    0.000    0.000    0.000    0.000 
#    0.000    0.000    0.000    0.000    0.000    0.000 
#
# Total GULP energy -178304.399642 kJ/mol
# GULP energy per Si atom -5572.012489 kJ/mol
# Density = 2.198393 g / cm^3
# Si number density = 22.034076 Si / 1000 Ang^3
#
#
#
# Elastic Constant Matrix: (Units=GPa)
#
#
# Indices 1 2 3 4 5 6 
#
# 1 36.6805 21.6770 25.9209 0.0000 0.0000 0.0000
# 2 21.6770 77.2892 52.9815 0.0000 0.0000 0.0000
# 3 25.9209 52.9815 119.6746 0.0000 0.0000 0.0000
# 4 0.0000 0.0000 0.0000 53.7678 0.0000 0.0000
# 5 0.0000 0.0000 0.0000 0.0000 25.7022 0.0000
# 6 0.0000 0.0000 0.0000 0.0000 0.0000 27.2773
#
#
#
# Elastic Compliance Matrix: (Units=1/GPa)
#
#
# Indices 1 2 3 4 5 6 
#
# 1 0.034325 -0.006505 -0.004555 0.000000 0.000000 0.000000
# 2 -0.006505 0.019808 -0.007361 0.000000 0.000000 0.000000
# 3 -0.004555 -0.007361 0.012601 0.000000 0.000000 0.000000
# 4 0.000000 0.000000 0.000000 0.018598 0.000000 0.000000
# 5 0.000000 0.000000 0.000000 0.000000 0.038907 0.000000
# 6 0.000000 0.000000 0.000000 0.000000 0.000000 0.036660
#
#
# Mechanical properties :
#
#
# Convention : Reuss Voigt Hill
#
# Bulk Modulus (GPa) = 33.45095 48.31147 40.88121
# Shear Modulus (GPa) = 24.07243 30.22047 27.14645
#
# Velocity S-wave (km/s) = 3.30890 3.70744 3.51382
# Velocity P-wave (km/s) = 5.46011 6.34824 5.92085
#
# Compressibility (1/GPa) = 0.02989451
#
# Stress axis : x y z
#
# Youngs Moduli (GPa) = 29.13293 50.48363 79.35750
#
# Poissons Ratio (x) = 0.32838 0.36147
# Poissons Ratio (y) = 0.18950 0.58412
# Poissons Ratio (z) = 0.13270 0.37159
#
# Static dielectric constant tensor:
#      x y z
#    x 1.897290 0.000000 0.000000 
#    y 0.000000 1.828130 0.000000 
#    z 0.000000 0.000000 1.841120 
# 
# From -- ./inp_files/6007.got.cif
#   From: 2010.05.17/outbox.cif.g08.bks.cpg/sg33_4_cif.got.tgz:6007.got - 2010.06.03 17:15:25.
