data_PCOD9344143
_publ_section_title
;
Structure prediction by ZEFSAII (Michael W. Deem and Ramdas Pophale) SiO2 
 PCOD9344143
Probable space group: P B A 2
;
_chemical_formula_sum "Si O2"
_cell_formula_units_Z 16
_cell_length_a 9.831868
_cell_length_b 10.217507
_cell_length_c 6.404446
_cell_angle_alpha 90.000000
_cell_angle_beta 90.000000
_cell_angle_gamma 90.000000
_cell_volume 643.372585
_symmetry_space_group_name_H-M "P B A 2"
_symmetry_group_IT_number 32
_symmetry_cell_setting 'orthorhombic'
loop_
_space_group_symop_operation_xyz
x,y,z
-x,-y,z
1/2-x,1/2+y,z
1/2+x,1/2-y,z
loop_
_atom_site_type_symbol
_atom_site_label
_atom_site_fract_x
_atom_site_fract_y
_atom_site_fract_z
Si Si1 0.554615 0.353562 0.159990
Si Si2 0.150250 0.540206 0.520725
Si Si3 0.363669 0.327107 0.509239
Si Si4 0.161300 0.690773 0.926500
O O1 0.500000 0.500000 0.100946
O O2 0.512097 0.347190 0.408678
O O3 0.698424 0.329088 0.048435
O O4 0.462488 0.234261 0.070929
O O5 0.259895 0.438012 0.441899
O O6 0.184583 0.683949 0.441302
O O7 0.145727 0.565918 0.771734
O O8 0.000000 0.500000 0.455464
O O9 0.347345 0.310781 0.757428
#
# Coordination Sequence:
#
# PCOD9344143 Si02
#       4
#     4   4   4   4
#     4  12  27  45  79 117 155 208 275 331 405 491
#     4  10  23  47  78 112 161 216 264 333 422 474
#     4  10  26  45  77 110 162 207 266 331 411 478
#     4  10  26  47  74 111 160 208 261 338 395 491
#
# _framework density 24.868948
#
# number of rings (size 3 to 8) (size 9 to 14) (size 15 to 20)
#    1.500    0.000    0.000    3.000    7.000    3.000 
#    0.000    1.250    0.000    0.000    0.000    0.000 
#    0.000    0.000    0.000    0.000    0.000    0.000 
#
# Total GULP energy -89143.431383 kJ/mol
# GULP energy per Si atom -5571.464461 kJ/mol
# Density = 2.481234 g / cm^3
# Si number density = 24.868948 Si / 1000 Ang^3
#
#
#
# Elastic Constant Matrix: (Units=GPa)
#
#
# Indices 1 2 3 4 5 6 
#
# 1 155.4359 45.0795 41.3969 0.0000 0.0000 0.0000
# 2 45.0795 125.7452 15.0617 0.0000 0.0000 0.0000
# 3 41.3969 15.0617 99.9931 0.0000 0.0000 0.0000
# 4 0.0000 0.0000 0.0000 -19.4510 0.0000 0.0000
# 5 0.0000 0.0000 0.0000 0.0000 46.0358 0.0000
# 6 0.0000 0.0000 0.0000 0.0000 0.0000 37.2327
#
#
#
# Elastic Compliance Matrix: (Units=1/GPa)
#
#
# Indices 1 2 3 4 5 6 
#
# 1 0.007932 -0.002495 -0.002908 0.000000 0.000000 0.000000
# 2 -0.002495 0.008884 -0.000305 0.000000 0.000000 0.000000
# 3 -0.002908 -0.000305 0.011250 0.000000 0.000000 0.000000
# 4 0.000000 0.000000 0.000000 -0.051411 0.000000 0.000000
# 5 0.000000 0.000000 0.000000 0.000000 0.021722 0.000000
# 6 0.000000 0.000000 0.000000 0.000000 0.000000 0.026858
#
#
# Mechanical properties :
#
#
# Convention : Reuss Voigt Hill
#
# Bulk Modulus (GPa) = 60.06187 64.91671 62.48929
# Shear Modulus (GPa) = 118.48050 31.40589 74.94319
#
# Velocity S-wave (km/s) = 6.90980 3.55752 5.49551
# Velocity P-wave (km/s) = 9.37359 6.56009 8.09009
#
# Compressibility (1/GPa) = 0.01664950
#
# Stress axis : x y z
#
# Youngs Moduli (GPa) = 126.07791 112.56629 88.88506
#
# Poissons Ratio (x) = 0.28087 0.25846
# Poissons Ratio (y) = 0.31459 0.02712
# Poissons Ratio (z) = 0.36661 0.03435
#
# Static dielectric constant tensor:
#      x y z
#    x 1.914690 0.000000 0.000000 
#    y 0.000000 2.013920 0.000000 
#    z 0.000000 0.000000 2.145450 
# 
# From -- ./inp_files/2137.got.cif
#   From: 2010.05.17/outbox.cif.g08.bks.cpg/sg32_2_cif.got.tgz:2137.got - 2010.06.03 17:12:27.
