data_PCOD9344592
_publ_section_title
;
Structure prediction by ZEFSAII (Michael W. Deem and Ramdas Pophale) SiO2 
 PCOD9344592
Probable space group: P N A 21
;
_chemical_formula_sum "Si O2"
_cell_formula_units_Z 32
_cell_length_a 19.556389
_cell_length_b 7.357146
_cell_length_c 8.850700
_cell_angle_alpha 90.000000
_cell_angle_beta 90.000000
_cell_angle_gamma 90.000000
_cell_volume 1273.431716
_symmetry_space_group_name_H-M "P N A 21"
_symmetry_group_IT_number 33
_symmetry_cell_setting 'orthorhombic'
loop_
_space_group_symop_operation_xyz
x,y,z
-x,-y,1/2+z
1/2-x,1/2+y,1/2+z
1/2+x,1/2-y,z
loop_
_atom_site_type_symbol
_atom_site_label
_atom_site_fract_x
_atom_site_fract_y
_atom_site_fract_z
Si Si1 0.361984 0.054648 0.243950
Si Si2 0.546929 0.629828 0.813727
Si Si3 0.154894 0.825124 0.343148
Si Si4 0.725466 0.539531 0.054867
Si Si5 0.205426 0.339321 0.990725
Si Si6 0.173990 0.389131 0.334803
Si Si7 0.492910 0.310293 0.975391
Si Si8 0.539172 0.103937 0.494839
O O1 0.384568 0.262320 0.266794
O O2 0.291449 0.031532 0.151438
O O3 0.347593 0.959680 0.401257
O O4 0.421551 0.949140 0.150094
O O5 0.545273 0.425808 0.874970
O O6 0.504464 0.647457 0.655253
O O7 0.517722 0.747386 0.956395
O O8 0.217849 0.894428 0.444655
O O9 0.162703 0.606915 0.344427
O O10 0.081886 0.871251 0.412329
O O11 0.170543 0.888931 0.172804
O O12 0.698661 0.374246 0.954037
O O13 0.763983 0.674521 0.941575
O O14 0.190904 0.345424 0.165853
O O15 0.101448 0.321567 0.392193
O O16 0.492073 0.093022 0.951866
#
# Coordination Sequence:
#
# PCOD9344592 Si02
#       8
#     4   4   4   4   4   4   4   4
#     4   9  21  41  63  92 130 169 215 271 335 393
#     4  11  23  42  69  93 129 179 219 281 329 394
#     4   9  20  41  58  89 135 164 205 276 326 389
#     4   9  19  38  63  91 131 166 209 260 333 401
#     4  10  19  34  63  93 124 165 215 259 328 399
#     4   9  19  35  59  90 124 164 209 262 315 397
#     4  10  24  44  66  97 129 171 231 273 336 398
#     4   9  21  43  65  85 132 172 211 272 336 387
#
# _framework density 25.128948000000001
#
# number of rings (size 3 to 8) (size 9 to 14) (size 15 to 20)
#    0.000    2.500    0.000    2.250    1.750    8.000 
#    6.750    1.250    5.500    0.000    0.000    0.000 
#    0.000    0.000    0.000    0.000    0.000    0.000 
#
# Total GULP energy -178893.175121 kJ/mol
# GULP energy per Si atom -5590.411723 kJ/mol
# Density = 2.507175 g / cm^3
# Si number density = 25.128948 Si / 1000 Ang^3
#
#
#
# Elastic Constant Matrix: (Units=GPa)
#
#
# Indices 1 2 3 4 5 6 
#
# 1 97.7015 12.8906 31.6781 0.0000 0.0000 0.0000
# 2 12.8906 74.6034 14.8004 0.0000 0.0000 0.0000
# 3 31.6781 14.8004 48.2039 0.0000 0.0000 0.0000
# 4 0.0000 0.0000 0.0000 37.6773 0.0000 0.0000
# 5 0.0000 0.0000 0.0000 0.0000 -14.3374 0.0000
# 6 0.0000 0.0000 0.0000 0.0000 0.0000 24.8460
#
#
#
# Elastic Compliance Matrix: (Units=1/GPa)
#
#
# Indices 1 2 3 4 5 6 
#
# 1 0.013031 -0.000589 -0.008383 0.000000 0.000000 0.000000
# 2 -0.000589 0.014300 -0.004004 0.000000 0.000000 0.000000
# 3 -0.008383 -0.004004 0.027484 0.000000 0.000000 0.000000
# 4 0.000000 0.000000 0.000000 0.026541 0.000000 0.000000
# 5 0.000000 0.000000 0.000000 0.000000 -0.069748 0.000000
# 6 0.000000 0.000000 0.000000 0.000000 0.000000 0.040248
#
#
# Mechanical properties :
#
#
# Convention : Reuss Voigt Hill
#
# Bulk Modulus (GPa) = 34.64515 37.69411 36.16963
# Shear Modulus (GPa) = 57.19004 20.37984 38.78494
#
# Velocity S-wave (km/s) = 4.77578 2.85091 3.93292
# Velocity P-wave (km/s) = 6.65038 5.08623 5.92019
#
# Compressibility (1/GPa) = 0.02886407
#
# Stress axis : x y z
#
# Youngs Moduli (GPa) = 76.74073 69.92888 36.38545
#
# Poissons Ratio (x) = 0.04116 0.30501
# Poissons Ratio (y) = 0.04516 0.14569
# Poissons Ratio (z) = 0.64330 0.27999
#
# Static dielectric constant tensor:
#      x y z
#    x 2.220970 0.000000 0.000000 
#    y 0.000000 1.988470 0.000000 
#    z 0.000000 0.000000 2.000170 
# 
# From -- ./inp_files/5204.got.cif
#   From: 2010.05.17/outbox.cif.g08.bks.cpg/sg33_3_cif.got.tgz:5204.got - 2010.06.03 17:15:25.
