data_PCOD9344830
_publ_section_title
;
Structure prediction by ZEFSAII (Michael W. Deem and Ramdas Pophale) SiO2 
 PCOD9344830
Probable space group: P N A 21
;
_chemical_formula_sum "Si O2"
_cell_formula_units_Z 28
_cell_length_a 9.120706
_cell_length_b 15.525673
_cell_length_c 8.212993
_cell_angle_alpha 90.000000
_cell_angle_beta 90.000000
_cell_angle_gamma 90.000000
_cell_volume 1163.001686
_symmetry_space_group_name_H-M "P N A 21"
_symmetry_group_IT_number 33
_symmetry_cell_setting 'orthorhombic'
loop_
_space_group_symop_operation_xyz
x,y,z
-x,-y,1/2+z
1/2-x,1/2+y,1/2+z
1/2+x,1/2-y,z
loop_
_atom_site_type_symbol
_atom_site_label
_atom_site_fract_x
_atom_site_fract_y
_atom_site_fract_z
Si Si1 0.485660 0.844822 0.322090
Si Si2 0.587614 0.694008 0.081937
Si Si3 0.686917 0.949913 0.107742
Si Si4 0.052825 0.060489 0.812093
Si Si5 0.770823 0.375703 0.076718
Si Si6 0.808486 0.786105 0.905624
Si Si7 0.747125 0.037734 0.807487
O O1 0.538323 0.761140 0.222325
O O2 0.551843 0.923467 0.217092
O O3 0.578536 0.848066 0.488749
O O4 0.310992 0.862886 0.309574
O O5 0.543539 0.605286 0.167358
O O6 0.741890 0.702157 0.991818
O O7 0.480363 0.714023 0.930968
O O8 0.813587 0.987534 0.225276
O O9 0.747298 0.861267 0.026467
O O10 0.644423 0.006735 0.956903
O O11 0.909434 0.015874 0.884174
O O12 0.139805 0.119958 0.941312
O O13 0.734845 0.310797 0.223805
O O14 0.773575 0.471409 0.158286
#
# Coordination Sequence:
#
# PCOD9344830 Si02
#       7
#     4   4   4   4   4   4   4
#     4  10  20  35  57  81 112 148 186 233 277 337
#     4  10  20  38  58  80 112 154 188 222 290 342
#     4   8  18  34  49  72 111 145 172 224 291 322
#     4  10  20  35  57  81 112 148 186 233 277 337
#     4  10  22  37  55  83 117 146 183 243 288 314
#     4   9  19  36  55  76 108 147 186 229 275 330
#     4  11  19  33  57  83 106 144 193 228 276 344
#
# _framework density 24.075631000000001
#
# number of rings (size 3 to 8) (size 9 to 14) (size 15 to 20)
#    0.000    2.286    0.000    3.429    0.000    1.143 
#    0.000    1.429    0.000    0.000    0.000    0.000 
#    0.000    0.000    0.000    0.000    0.000    0.000 
#
# Total GULP energy -155930.627646 kJ/mol
# GULP energy per Si atom -5568.950987 kJ/mol
# Density = 2.402083 g / cm^3
# Si number density = 24.075631 Si / 1000 Ang^3
#
#
#
# Elastic Constant Matrix: (Units=GPa)
#
#
# Indices 1 2 3 4 5 6 
#
# 1 50.1450 -13.2061 1.5933 0.0000 0.0000 0.0000
# 2 -13.2061 26.5596 3.2704 0.0000 0.0000 0.0000
# 3 1.5933 3.2704 107.8391 0.0000 0.0000 0.0000
# 4 0.0000 0.0000 0.0000 36.7487 0.0000 0.0000
# 5 0.0000 0.0000 0.0000 0.0000 40.6909 0.0000
# 6 0.0000 0.0000 0.0000 0.0000 0.0000 19.7049
#
#
#
# Elastic Compliance Matrix: (Units=1/GPa)
#
#
# Indices 1 2 3 4 5 6 
#
# 1 0.022998 0.011520 -0.000689 0.000000 0.000000 0.000000
# 2 0.011520 0.043563 -0.001491 0.000000 0.000000 0.000000
# 3 -0.000689 -0.001491 0.009328 0.000000 0.000000 0.000000
# 4 0.000000 0.000000 0.000000 0.027212 0.000000 0.000000
# 5 0.000000 0.000000 0.000000 0.000000 0.024576 0.000000
# 6 0.000000 0.000000 0.000000 0.000000 0.000000 0.050749
#
#
# Mechanical properties :
#
#
# Convention : Reuss Voigt Hill
#
# Bulk Modulus (GPa) = 10.57436 18.65100 14.61268
# Shear Modulus (GPa) = 26.14117 32.28797 29.21457
#
# Velocity S-wave (km/s) = 3.29871 3.66608 3.48724
# Velocity P-wave (km/s) = 4.34860 5.06793 4.72198
#
# Compressibility (1/GPa) = 0.09456833
#
# Stress axis : x y z
#
# Youngs Moduli (GPa) = 43.48214 22.95533 107.19861
#
# Poissons Ratio (x) = -0.26445 0.07388
# Poissons Ratio (y) = -0.50091 0.15987
# Poissons Ratio (z) = 0.02997 0.03423
#
# Static dielectric constant tensor:
#      x y z
#    x 2.329360 0.000000 0.000000 
#    y 0.000000 2.069550 0.000000 
#    z 0.000000 0.000000 2.046140 
# 
# From -- ./inp_files/3294.got.cif
#   From: 2010.05.17/outbox.cif.g08.bks.cpg/sg33_2_cif.got.tgz:3294.got - 2010.06.03 17:15:25.
