data_PCOD9344430
_publ_section_title
;
Structure prediction by ZEFSAII (Michael W. Deem and Ramdas Pophale) SiO2 
 PCOD9344430
Probable space group: P N A 21
;
_chemical_formula_sum "Si O2"
_cell_formula_units_Z 32
_cell_length_a 17.934466
_cell_length_b 11.709108
_cell_length_c 5.592871
_cell_angle_alpha 90.000000
_cell_angle_beta 90.000000
_cell_angle_gamma 90.000000
_cell_volume 1174.483890
_symmetry_space_group_name_H-M "P N A 21"
_symmetry_group_IT_number 33
_symmetry_cell_setting 'orthorhombic'
loop_
_space_group_symop_operation_xyz
x,y,z
-x,-y,1/2+z
1/2-x,1/2+y,1/2+z
1/2+x,1/2-y,z
loop_
_atom_site_type_symbol
_atom_site_label
_atom_site_fract_x
_atom_site_fract_y
_atom_site_fract_z
Si Si1 0.604382 0.252951 0.214880
Si Si2 0.227276 0.057534 0.124199
Si Si3 0.399721 0.143254 0.141695
Si Si4 0.825631 0.994205 0.136674
Si Si5 0.015608 0.940208 0.771865
Si Si6 0.393501 0.944616 0.428651
Si Si7 0.301941 0.770770 0.137289
Si Si8 0.867491 0.315088 0.636181
O O1 0.667012 0.339969 0.112298
O O2 0.539155 0.334327 0.301518
O O3 0.562471 0.154639 0.063073
O O4 0.655273 0.185264 0.402532
O O5 0.309421 0.112315 0.136897
O O6 0.205990 0.993595 0.369737
O O7 0.219804 0.985571 0.881595
O O8 0.431343 0.017243 0.214717
O O9 0.406729 0.215608 0.386319
O O10 0.409963 0.200452 0.885131
O O11 0.837881 0.856671 0.144875
O O12 0.900994 0.062767 0.169169
O O13 0.978176 0.006228 0.540038
O O14 0.328641 0.862108 0.329399
O O15 0.364888 0.046310 0.599962
O O16 0.214391 0.741111 0.139688
#
# Coordination Sequence:
#
# PCOD9344430 Si02
#       8
#     4   4   4   4   4   4   4   4
#     4  11  19  29  44  65  91 125 157 188 229 268
#     4  11  17  30  47  59  84 118 155 185 225 261
#     4  10  18  32  43  65  85 112 154 196 224 268
#     4  11  18  29  43  63  82 121 156 186 216 265
#     4  12  20  29  41  63  91 118 159 195 218 264
#     4  10  20  30  47  65  92 118 159 193 228 279
#     4  11  18  32  48  63  91 123 161 189 234 272
#     4  10  20  31  47  63  86 115 159 192 230 271
#
# _framework density 27.246010999999999
#
# number of rings (size 3 to 8) (size 9 to 14) (size 15 to 20)
#    0.750    0.500    8.750    0.750    0.000    0.000 
#    0.000    0.000    0.000    0.000    0.000    0.000 
#    0.000    0.000    0.000    4.500    3.000    4.000 
#
# Total GULP energy -178477.162409 kJ/mol
# GULP energy per Si atom -5577.411325 kJ/mol
# Density = 2.718400 g / cm^3
# Si number density = 27.246011 Si / 1000 Ang^3
#
#
#
# Elastic Constant Matrix: (Units=GPa)
#
#
# Indices 1 2 3 4 5 6 
#
# 1 51.3859 41.6206 14.1274 0.0000 0.0000 0.0000
# 2 41.6206 119.6674 21.6832 0.0000 0.0000 0.0000
# 3 14.1274 21.6832 199.1806 0.0000 0.0000 0.0000
# 4 0.0000 0.0000 0.0000 27.6190 0.0000 0.0000
# 5 0.0000 0.0000 0.0000 0.0000 12.7105 0.0000
# 6 0.0000 0.0000 0.0000 0.0000 0.0000 25.7429
#
#
#
# Elastic Compliance Matrix: (Units=1/GPa)
#
#
# Indices 1 2 3 4 5 6 
#
# 1 0.027257 -0.009313 -0.000919 0.000000 0.000000 0.000000
# 2 -0.009313 0.011707 -0.000614 0.000000 0.000000 0.000000
# 3 -0.000919 -0.000614 0.005153 0.000000 0.000000 0.000000
# 4 0.000000 0.000000 0.000000 0.036207 0.000000 0.000000
# 5 0.000000 0.000000 0.000000 0.000000 0.078675 0.000000
# 6 0.000000 0.000000 0.000000 0.000000 0.000000 0.038846
#
#
# Mechanical properties :
#
#
# Convention : Reuss Voigt Hill
#
# Bulk Modulus (GPa) = 44.59688 58.34404 51.47046
# Shear Modulus (GPa) = 22.02530 32.73468 27.37999
#
# Velocity S-wave (km/s) = 2.84630 3.46995 3.17348
# Velocity P-wave (km/s) = 5.21590 6.12490 5.68859
#
# Compressibility (1/GPa) = 0.02242309
#
# Stress axis : x y z
#
# Youngs Moduli (GPa) = 36.68801 85.41932 194.07658
#
# Poissons Ratio (x) = 0.79555 0.17843
# Poissons Ratio (y) = 0.34169 0.11914
# Poissons Ratio (z) = 0.03373 0.05244
#
# Static dielectric constant tensor:
#      x y z
#    x 2.131930 0.000000 0.000000 
#    y 0.000000 2.155980 0.000000 
#    z 0.000000 0.000000 2.456810 
# 
# From -- ./inp_files/2328.got.cif
#   From: 2010.05.17/outbox.cif.g08.bks.cpg/sg33_2_cif.got.tgz:2328.got - 2010.06.03 17:15:25.
