data_PCOD9344949
_publ_section_title
;
Structure prediction by ZEFSAII (Michael W. Deem and Ramdas Pophale) SiO2 
 PCOD9344949
Probable space group: P N A 21
;
_chemical_formula_sum "Si O2"
_cell_formula_units_Z 24
_cell_length_a 12.659236
_cell_length_b 9.789255
_cell_length_c 8.274208
_cell_angle_alpha 90.000000
_cell_angle_beta 90.000000
_cell_angle_gamma 90.000000
_cell_volume 1025.377001
_symmetry_space_group_name_H-M "P N A 21"
_symmetry_group_IT_number 33
_symmetry_cell_setting 'orthorhombic'
loop_
_space_group_symop_operation_xyz
x,y,z
-x,-y,1/2+z
1/2-x,1/2+y,1/2+z
1/2+x,1/2-y,z
loop_
_atom_site_type_symbol
_atom_site_label
_atom_site_fract_x
_atom_site_fract_y
_atom_site_fract_z
Si Si1 0.756177 0.355775 0.009400
Si Si2 0.532287 0.410160 0.633176
Si Si3 0.912508 0.365147 0.270313
Si Si4 0.850222 0.668429 0.279470
Si Si5 0.077700 0.149159 0.285354
Si Si6 0.304483 0.360433 0.480097
O O1 0.871968 0.359312 0.085628
O O2 0.672301 0.361440 0.158539
O O3 0.731930 0.219956 0.912324
O O4 0.729004 0.492356 0.906104
O O5 0.568136 0.292058 0.754581
O O6 0.518883 0.556300 0.716477
O O7 0.598440 0.405933 0.466094
O O8 0.414064 0.376168 0.575657
O O9 0.900777 0.522776 0.319286
O O10 0.830752 0.267213 0.367113
O O11 0.027996 0.300560 0.294305
O O12 0.786882 0.660307 0.111434
#
# Coordination Sequence:
#
# PCOD9344949 Si02
#       6
#     4   4   4   4   4   4
#     4  10  22  38  58  82 111 152 188 221 281 342
#     4  10  20  38  59  81 111 150 189 225 275 338
#     4  10  22  38  57  84 112 143 188 236 277 322
#     4  11  22  36  58  85 112 143 185 235 279 324
#     4  10  21  38  60  82 112 151 188 226 275 339
#     4   9  21  40  56  78 112 149 184 223 275 337
#
# _framework density 23.406025
#
# number of rings (size 3 to 8) (size 9 to 14) (size 15 to 20)
#    0.000    2.000    0.000    4.000    0.000   10.667 
#    0.000    3.333    0.000    0.000    0.000    0.000 
#    0.000    0.000    0.000    0.000    0.000    0.000 
#
# Total GULP energy -134048.906489 kJ/mol
# GULP energy per Si atom -5585.371104 kJ/mol
# Density = 2.335275 g / cm^3
# Si number density = 23.406025 Si / 1000 Ang^3
#
#
#
# Elastic Constant Matrix: (Units=GPa)
#
#
# Indices 1 2 3 4 5 6 
#
# 1 19.3792 1.1002 -11.1441 0.0000 0.0000 0.0000
# 2 1.1002 109.2649 26.9011 0.0000 0.0000 0.0000
# 3 -11.1441 26.9011 48.1375 0.0000 0.0000 0.0000
# 4 0.0000 0.0000 0.0000 34.0960 0.0000 0.0000
# 5 0.0000 0.0000 0.0000 0.0000 21.2085 0.0000
# 6 0.0000 0.0000 0.0000 0.0000 0.0000 19.5611
#
#
#
# Elastic Compliance Matrix: (Units=1/GPa)
#
#
# Indices 1 2 3 4 5 6 
#
# 1 0.061616 -0.004792 0.016942 0.000000 0.000000 0.000000
# 2 -0.004792 0.010985 -0.007248 0.000000 0.000000 0.000000
# 3 0.016942 -0.007248 0.028747 0.000000 0.000000 0.000000
# 4 0.000000 0.000000 0.000000 0.029329 0.000000 0.000000
# 5 0.000000 0.000000 0.000000 0.000000 0.047151 0.000000
# 6 0.000000 0.000000 0.000000 0.000000 0.000000 0.051122
#
#
# Mechanical properties :
#
#
# Convention : Reuss Voigt Hill
#
# Bulk Modulus (GPa) = 8.99662 23.38844 16.19253
# Shear Modulus (GPa) = 19.51638 25.63474 22.57556
#
# Velocity S-wave (km/s) = 2.89072 3.31300 3.10904
# Velocity P-wave (km/s) = 3.87218 4.96476 4.45211
#
# Compressibility (1/GPa) = 0.11115290
#
# Stress axis : x y z
#
# Youngs Moduli (GPa) = 16.22946 91.03503 34.78684
#
# Poissons Ratio (x) = 0.43620 -0.58937
# Poissons Ratio (y) = 0.07777 0.25213
# Poissons Ratio (z) = -0.27496 0.65982
#
# Static dielectric constant tensor:
#      x y z
#    x 1.882240 0.000000 0.000000 
#    y 0.000000 1.936380 0.000000 
#    z 0.000000 0.000000 1.935600 
# 
# From -- ./inp_files/4195.got.cif
#   From: 2010.05.17/outbox.cif.g08.bks.cpg/sg33_3_cif.got.tgz:4195.got - 2010.06.03 17:15:25.
