data_PCOD9344611
_publ_section_title
;
Structure prediction by ZEFSAII (Michael W. Deem and Ramdas Pophale) SiO2 
 PCOD9344611
Probable space group: P N A 21
;
_chemical_formula_sum "Si O2"
_cell_formula_units_Z 32
_cell_length_a 18.230998
_cell_length_b 8.280977
_cell_length_c 7.870120
_cell_angle_alpha 90.000000
_cell_angle_beta 90.000000
_cell_angle_gamma 90.000000
_cell_volume 1188.155756
_symmetry_space_group_name_H-M "P N A 21"
_symmetry_group_IT_number 33
_symmetry_cell_setting 'orthorhombic'
loop_
_space_group_symop_operation_xyz
x,y,z
-x,-y,1/2+z
1/2-x,1/2+y,1/2+z
1/2+x,1/2-y,z
loop_
_atom_site_type_symbol
_atom_site_label
_atom_site_fract_x
_atom_site_fract_y
_atom_site_fract_z
Si Si1 0.900620 0.104574 0.313760
Si Si2 0.970723 0.722579 0.693127
Si Si3 0.162745 0.428665 0.104206
Si Si4 0.925182 0.236461 0.679775
Si Si5 0.235191 0.092749 0.805134
Si Si6 0.712242 0.615278 0.322695
Si Si7 0.195947 0.607938 0.653073
Si Si8 0.443484 0.911663 0.076887
O O1 0.917172 0.131581 0.510517
O O2 0.848245 0.952098 0.291772
O O3 0.849979 0.255348 0.249679
O O4 0.977536 0.122547 0.215313
O O5 0.893307 0.717875 0.599439
O O6 0.018174 0.587060 0.595478
O O7 0.953654 0.655757 0.885363
O O8 0.113200 0.589771 0.130862
O O9 0.217181 0.436664 0.264019
O O10 0.220499 0.435556 0.952638
O O11 0.876452 0.148317 0.824414
O O12 0.009934 0.290548 0.697982
O O13 0.256355 0.245602 0.691612
O O14 0.279111 0.171342 0.965826
O O15 0.724980 0.450530 0.215765
O O16 0.138476 0.460766 0.627114
#
# Coordination Sequence:
#
# PCOD9344611 Si02
#       8
#     4   4   4   4   4   4   4   4
#     4  10  19  35  58  82 111 148 192 241 288 345
#     4   9  18  32  57  81 112 147 195 247 290 332
#     4  10  19  36  54  83 116 147 194 241 284 349
#     4   9  18  34  56  83 113 144 191 244 286 340
#     4  11  22  36  54  84 120 146 190 240 291 359
#     4  11  22  35  58  84 116 156 186 239 303 352
#     4  11  20  36  59  85 110 153 197 239 296 349
#     4   9  18  32  54  86 110 145 193 249 292 338
#
# _framework density 26.932497000000001
#
# number of rings (size 3 to 8) (size 9 to 14) (size 15 to 20)
#    0.000    2.000    3.750    0.750    1.750    0.000 
#    0.000    0.000    5.500    0.000    0.000    0.000 
#    0.000    0.000    0.000    0.000    0.000    0.000 
#
# Total GULP energy -178223.681384 kJ/mol
# GULP energy per Si atom -5569.490043 kJ/mol
# Density = 2.687120 g / cm^3
# Si number density = 26.932497 Si / 1000 Ang^3
#
#
#
# Elastic Constant Matrix: (Units=GPa)
#
#
# Indices 1 2 3 4 5 6 
#
# 1 108.3317 32.5133 9.1410 0.0000 0.0000 0.0000
# 2 32.5133 45.5858 -9.9550 0.0000 0.0000 0.0000
# 3 9.1410 -9.9550 33.2076 0.0000 0.0000 0.0000
# 4 0.0000 0.0000 0.0000 15.3540 0.0000 0.0000
# 5 0.0000 0.0000 0.0000 0.0000 -81.2677 0.0000
# 6 0.0000 0.0000 0.0000 0.0000 0.0000 46.4243
#
#
#
# Elastic Compliance Matrix: (Units=1/GPa)
#
#
# Indices 1 2 3 4 5 6 
#
# 1 0.013048 -0.010797 -0.006828 0.000000 0.000000 0.000000
# 2 -0.010797 0.032408 0.012688 0.000000 0.000000 0.000000
# 3 -0.006828 0.012688 0.035797 0.000000 0.000000 0.000000
# 4 0.000000 0.000000 0.000000 0.065130 0.000000 0.000000
# 5 0.000000 0.000000 0.000000 0.000000 -0.012305 0.000000
# 6 0.000000 0.000000 0.000000 0.000000 0.000000 0.021540
#
#
# Mechanical properties :
#
#
# Convention : Reuss Voigt Hill
#
# Bulk Modulus (GPa) = 14.01021 27.83598 20.92309
# Shear Modulus (GPa) = 26.41505 6.46383 16.43944
#
# Velocity S-wave (km/s) = 3.13515 1.55088 2.47330
# Velocity P-wave (km/s) = 4.28005 3.68305 3.99272
#
# Compressibility (1/GPa) = 0.07137651
#
# Stress axis : x y z
#
# Youngs Moduli (GPa) = 76.64233 30.85634 27.93550
#
# Poissons Ratio (x) = 0.33316 0.19075
# Poissons Ratio (y) = 0.82752 -0.35443
# Poissons Ratio (z) = 0.52335 -0.39149
#
# Static dielectric constant tensor:
#      x y z
#    x 2.260670 0.000000 0.000000 
#    y 0.000000 2.223970 0.000000 
#    z 0.000000 0.000000 2.431890 
# 
# From -- ./inp_files/4853.got.cif
#   From: 2010.05.17/outbox.cif.g08.bks.cpg/sg33_3_cif.got.tgz:4853.got - 2010.06.03 17:15:25.
