data_PCOD9344072
_publ_section_title
;
Structure prediction by ZEFSAII (Michael W. Deem and Ramdas Pophale) SiO2 
 PCOD9344072
Probable space group: P B A 2
;
_chemical_formula_sum "Si O2"
_cell_formula_units_Z 26
_cell_length_a 11.117158
_cell_length_b 12.442616
_cell_length_c 8.840731
_cell_angle_alpha 90.000000
_cell_angle_beta 90.000000
_cell_angle_gamma 90.000000
_cell_volume 1222.907624
_symmetry_space_group_name_H-M "P B A 2"
_symmetry_group_IT_number 32
_symmetry_cell_setting 'orthorhombic'
loop_
_space_group_symop_operation_xyz
x,y,z
-x,-y,z
1/2-x,1/2+y,z
1/2+x,1/2-y,z
loop_
_atom_site_type_symbol
_atom_site_label
_atom_site_fract_x
_atom_site_fract_y
_atom_site_fract_z
Si Si1 0.500000 0.500000 0.177840
Si Si2 0.500000 0.000000 0.599430
Si Si3 0.891294 0.365814 0.865560
Si Si4 0.500000 0.000000 0.110825
Si Si5 0.428075 0.348271 0.731312
Si Si6 0.612288 0.686578 0.375734
Si Si7 0.389282 0.855954 0.348022
Si Si8 0.631233 0.428109 0.890592
O O1 0.576495 0.580189 0.281485
O O2 0.572279 0.428280 0.055900
O O3 0.430466 0.081098 0.708504
O O4 0.588442 0.073685 0.499707
O O5 0.868813 0.242885 0.831621
O O6 0.768791 0.416287 0.916596
O O7 0.979547 0.400107 0.997834
O O8 0.600860 0.050578 0.220722
O O9 0.405020 0.335474 0.554983
O O10 0.569161 0.342044 0.778947
O O11 0.387029 0.460727 0.800383
O O12 0.509221 0.777845 0.336841
O O13 0.757709 0.702216 0.348640
#
# Coordination Sequence:
#
# PCOD9344072 Si02
#       8
#     2   2   4   2   4   4   4   4
#     4  10  24  46  64 102 134 186 224 284 342 420
#     4  10  22  44  64 104 136 172 236 294 338 416
#     4  11  22  42  73  94 136 183 221 289 348 407
#     4  10  26  44  64 104 134 186 224 290 340 420
#     4  10  23  41  67 101 130 182 230 281 342 404
#     4  12  25  44  72 101 141 184 232 286 351 413
#     4  11  26  44  68 103 144 180 234 286 352 414
#     4  10  24  43  66 101 141 172 237 283 337 419
#
# _framework density 21.260805000000001
#
# number of rings (size 3 to 8) (size 9 to 14) (size 15 to 20)
#    0.000    1.538    1.538    2.769    6.462    6.154 
#    0.000    0.000    0.000    0.000    0.000    0.000 
#    0.000    0.000    0.000    0.000    0.000    0.000 
#
# Total GULP energy -144832.733699 kJ/mol
# GULP energy per Si atom -5570.489758 kJ/mol
# Density = 2.121241 g / cm^3
# Si number density = 21.260805 Si / 1000 Ang^3
#
#
#
# Elastic Constant Matrix: (Units=GPa)
#
#
# Indices 1 2 3 4 5 6 
#
# 1 82.1259 20.5060 30.8149 0.0000 0.0000 0.0000
# 2 20.5060 51.1203 17.9022 0.0000 0.0000 0.0000
# 3 30.8149 17.9022 120.5122 0.0000 0.0000 0.0000
# 4 0.0000 0.0000 0.0000 19.7050 0.0000 0.0000
# 5 0.0000 0.0000 0.0000 0.0000 9.7057 0.0000
# 6 0.0000 0.0000 0.0000 0.0000 0.0000 35.1972
#
#
#
# Elastic Compliance Matrix: (Units=1/GPa)
#
#
# Indices 1 2 3 4 5 6 
#
# 1 0.014490 -0.004763 -0.002998 0.000000 0.000000 0.000000
# 2 -0.004763 0.022201 -0.002080 0.000000 0.000000 0.000000
# 3 -0.002998 -0.002080 0.009373 0.000000 0.000000 0.000000
# 4 0.000000 0.000000 0.000000 0.050749 0.000000 0.000000
# 5 0.000000 0.000000 0.000000 0.000000 0.103032 0.000000
# 6 0.000000 0.000000 0.000000 0.000000 0.000000 0.028411
#
#
# Mechanical properties :
#
#
# Convention : Reuss Voigt Hill
#
# Bulk Modulus (GPa) = 37.90266 43.57830 40.74048
# Shear Modulus (GPa) = 19.47555 25.22393 22.34974
#
# Velocity S-wave (km/s) = 3.02988 3.44816 3.24577
# Velocity P-wave (km/s) = 5.48693 6.03279 5.76633
#
# Compressibility (1/GPa) = 0.02638338
#
# Stress axis : x y z
#
# Youngs Moduli (GPa) = 69.01113 45.04370 106.68465
#
# Poissons Ratio (x) = 0.21453 0.31981
# Poissons Ratio (y) = 0.32869 0.22191
# Poissons Ratio (z) = 0.20687 0.09369
#
# Static dielectric constant tensor:
#      x y z
#    x 1.877300 0.000000 0.000000 
#    y 0.000000 1.793810 0.000000 
#    z 0.000000 0.000000 1.724740 
# 
# From -- ./inp_files/2772.got.cif
#   From: 2010.05.17/outbox.cif.g08.bks.cpg/sg32_2_cif.got.tgz:2772.got - 2010.06.03 17:12:27.
