data_PCOD9344891
_publ_section_title
;
Structure prediction by ZEFSAII (Michael W. Deem and Ramdas Pophale) SiO2 
 PCOD9344891
Probable space group: P N A 21
;
_chemical_formula_sum "Si O2"
_cell_formula_units_Z 32
_cell_length_a 9.701162
_cell_length_b 17.292282
_cell_length_c 7.550072
_cell_angle_alpha 90.000000
_cell_angle_beta 90.000000
_cell_angle_gamma 90.000000
_cell_volume 1266.564058
_symmetry_space_group_name_H-M "P N A 21"
_symmetry_group_IT_number 33
_symmetry_cell_setting 'orthorhombic'
loop_
_space_group_symop_operation_xyz
x,y,z
-x,-y,1/2+z
1/2-x,1/2+y,1/2+z
1/2+x,1/2-y,z
loop_
_atom_site_type_symbol
_atom_site_label
_atom_site_fract_x
_atom_site_fract_y
_atom_site_fract_z
Si Si1 0.071605 0.649845 0.780570
Si Si2 0.662398 0.140747 0.850995
Si Si3 0.166302 0.086453 0.121144
Si Si4 0.523355 0.271474 0.002499
Si Si5 0.340871 0.414515 0.528308
Si Si6 0.163015 0.622328 0.264493
Si Si7 0.317154 0.955428 0.673151
Si Si8 0.073109 0.758898 0.101915
O O1 0.223722 0.612507 0.769896
O O2 0.064451 0.715855 0.628934
O O3 0.964282 0.582598 0.727375
O O4 0.021059 0.695726 0.956311
O O5 0.734364 0.127568 0.664181
O O6 0.499180 0.126934 0.817559
O O7 0.661436 0.220344 0.963404
O O8 0.725034 0.080815 0.988152
O O9 0.046411 0.148485 0.100490
O O10 0.120792 0.996741 0.117520
O O11 0.250460 0.102000 0.937688
O O12 0.474638 0.282549 0.800639
O O13 0.278019 0.434893 0.338940
O O14 0.439675 0.341229 0.505811
O O15 0.172840 0.546421 0.147182
O O16 0.200809 0.702043 0.165118
#
# Coordination Sequence:
#
# PCOD9344891 Si02
#       8
#     4   4   4   4   4   4   4   4
#     4  11  23  40  69  97 127 160 220 277 325 383
#     4  10  20  36  63  90 126 164 195 270 333 369
#     4  11  22  44  64  93 132 169 218 265 326 389
#     4  10  23  44  63  89 129 177 209 269 327 389
#     4  11  25  39  63  97 130 169 218 262 316 402
#     4  10  20  37  63  93 130 158 204 258 328 386
#     4  10  21  36  60 100 126 161 203 272 326 377
#     4  11  24  42  63  93 126 178 213 263 317 395
#
# _framework density 25.265205000000002
#
# number of rings (size 3 to 8) (size 9 to 14) (size 15 to 20)
#    0.000    1.500    3.750    3.000    8.750    0.000 
#    2.250    0.000    0.000    0.000    0.000    0.000 
#    0.000    0.000    0.000    0.000    0.000    0.000 
#
# Total GULP energy -178390.933819 kJ/mol
# GULP energy per Si atom -5574.716682 kJ/mol
# Density = 2.520770 g / cm^3
# Si number density = 25.265205 Si / 1000 Ang^3
#
#
#
# Elastic Constant Matrix: (Units=GPa)
#
#
# Indices 1 2 3 4 5 6 
#
# 1 9.5829 15.0613 10.4739 0.0000 0.0000 0.0000
# 2 15.0613 216.9183 30.1965 0.0000 0.0000 0.0000
# 3 10.4739 30.1965 125.8869 0.0000 0.0000 0.0000
# 4 0.0000 0.0000 0.0000 37.8510 0.0000 0.0000
# 5 0.0000 0.0000 0.0000 0.0000 20.1569 0.0000
# 6 0.0000 0.0000 0.0000 0.0000 0.0000 22.3772
#
#
#
# Elastic Compliance Matrix: (Units=1/GPa)
#
#
# Indices 1 2 3 4 5 6 
#
# 1 0.125622 -0.007518 -0.008648 0.000000 0.000000 0.000000
# 2 -0.007518 0.005219 -0.000626 0.000000 0.000000 0.000000
# 3 -0.008648 -0.000626 0.008813 0.000000 0.000000 0.000000
# 4 0.000000 0.000000 0.000000 0.026419 0.000000 0.000000
# 5 0.000000 0.000000 0.000000 0.000000 0.049611 0.000000
# 6 0.000000 0.000000 0.000000 0.000000 0.000000 0.044688
#
#
# Mechanical properties :
#
#
# Convention : Reuss Voigt Hill
#
# Bulk Modulus (GPa) = 9.42789 51.53907 30.48348
# Shear Modulus (GPa) = 15.18299 35.85411 25.51855
#
# Velocity S-wave (km/s) = 2.45408 3.77119 3.18154
# Velocity P-wave (km/s) = 3.43069 6.27742 5.05844
#
# Compressibility (1/GPa) = 0.10606828
#
# Stress axis : x y z
#
# Youngs Moduli (GPa) = 7.96038 191.59811 113.46290
#
# Poissons Ratio (x) = 1.44052 0.98128
# Poissons Ratio (y) = 0.05985 0.07107
# Poissons Ratio (z) = 0.06884 0.12002
#
# Static dielectric constant tensor:
#      x y z
#    x 2.113400 0.000000 0.000000 
#    y 0.000000 2.125190 0.000000 
#    z 0.000000 0.000000 2.007440 
# 
# From -- ./inp_files/3982.got.cif
#   From: 2010.05.17/outbox.cif.g08.bks.cpg/sg33_2_cif.got.tgz:3982.got - 2010.06.03 17:15:25.
