data_PCOD9344228
_publ_section_title
;
Structure prediction by ZEFSAII (Michael W. Deem and Ramdas Pophale) SiO2 
 PCOD9344228
Probable space group: P B A 2
;
_chemical_formula_sum "Si O2"
_cell_formula_units_Z 32
_cell_length_a 33.371228
_cell_length_b 5.232201
_cell_length_c 7.058237
_cell_angle_alpha 90.000000
_cell_angle_beta 90.000000
_cell_angle_gamma 90.000000
_cell_volume 1232.403277
_symmetry_space_group_name_H-M "P B A 2"
_symmetry_group_IT_number 32
_symmetry_cell_setting 'orthorhombic'
loop_
_space_group_symop_operation_xyz
x,y,z
-x,-y,z
1/2-x,1/2+y,z
1/2+x,1/2-y,z
loop_
_atom_site_type_symbol
_atom_site_label
_atom_site_fract_x
_atom_site_fract_y
_atom_site_fract_z
Si Si1 0.555258 0.435591 0.335860
Si Si2 0.728584 0.728069 0.796165
Si Si3 0.273705 0.277646 0.255681
Si Si4 0.601711 0.994209 0.682876
Si Si5 0.025034 0.237387 0.744244
Si Si6 0.861859 0.106137 0.203378
Si Si7 0.071679 0.558849 0.246414
Si Si8 0.645169 0.479857 0.783295
O O1 0.537853 0.388690 0.541251
O O2 0.604314 0.467801 0.329360
O O3 0.542637 0.699841 0.244138
O O4 0.549003 0.196403 0.202378
O O5 0.761977 0.518236 0.742260
O O6 0.687135 0.608242 0.728192
O O7 0.726694 0.729775 0.025664
O O8 0.246102 0.513371 0.317654
O O9 0.320351 0.324252 0.300965
O O10 0.567684 0.139904 0.806352
O O11 0.637119 0.203000 0.694353
O O12 0.584451 0.968553 0.469375
O O13 0.613097 0.706036 0.740372
O O14 0.000000 0.500000 0.719513
O O15 0.000000 0.000000 0.833791
O O16 0.886867 0.362632 0.147717
O O17 0.853998 0.951336 0.012090
#
# Coordination Sequence:
#
# PCOD9344228 Si02
#       8
#     4   4   4   4   4   4   4   4
#     4   9  19  34  58  87 109 143 192 235 277 335
#     4   9  17  32  50  76 112 153 197 239 278 332
#     4   9  18  29  48  78 111 147 193 236 282 331
#     4  11  22  38  56  94 113 148 196 243 285 351
#     4  11  21  38  64  89 111 146 195 235 277 347
#     4   9  22  34  61  83 119 150 193 244 292 336
#     4   9  19  35  57  78 115 146 189 235 279 329
#     4  11  22  34  60  90 118 152 195 246 296 342
#
# _framework density 25.965523000000001
#
# number of rings (size 3 to 8) (size 9 to 14) (size 15 to 20)
#    0.750    1.500    0.000    4.500    3.500    2.000 
#    0.000    0.000    0.000    7.500    3.250    0.000 
#    0.000    0.000    0.000    0.000    0.000    0.000 
#
# Total GULP energy -178643.923737 kJ/mol
# GULP energy per Si atom -5582.622617 kJ/mol
# Density = 2.590642 g / cm^3
# Si number density = 25.965523 Si / 1000 Ang^3
#
#
#
# Elastic Constant Matrix: (Units=GPa)
#
#
# Indices 1 2 3 4 5 6 
#
# 1 93.3508 10.3884 -1.5562 0.0000 0.0000 0.0000
# 2 10.3884 165.4178 -6.6892 0.0000 0.0000 0.0000
# 3 -1.5562 -6.6892 92.6683 0.0000 0.0000 0.0000
# 4 0.0000 0.0000 0.0000 8.1600 0.0000 0.0000
# 5 0.0000 0.0000 0.0000 0.0000 31.2686 0.0000
# 6 0.0000 0.0000 0.0000 0.0000 0.0000 44.9203
#
#
#
# Elastic Compliance Matrix: (Units=1/GPa)
#
#
# Indices 1 2 3 4 5 6 
#
# 1 0.010789 -0.000672 0.000133 0.000000 0.000000 0.000000
# 2 -0.000672 0.006105 0.000429 0.000000 0.000000 0.000000
# 3 0.000133 0.000429 0.010824 0.000000 0.000000 0.000000
# 4 0.000000 0.000000 0.000000 0.122550 0.000000 0.000000
# 5 0.000000 0.000000 0.000000 0.000000 0.031981 0.000000
# 6 0.000000 0.000000 0.000000 0.000000 0.000000 0.022262
#
#
# Mechanical properties :
#
#
# Convention : Reuss Voigt Hill
#
# Bulk Modulus (GPa) = 36.36593 39.52476 37.94535
# Shear Modulus (GPa) = 23.37571 40.15605 31.76588
#
# Velocity S-wave (km/s) = 3.00369 3.93684 3.50149
# Velocity P-wave (km/s) = 5.10543 5.99333 5.56711
#
# Compressibility (1/GPa) = 0.02749826
#
# Stress axis : x y z
#
# Youngs Moduli (GPa) = 92.68444 163.80347 92.38389
#
# Poissons Ratio (x) = 0.11011 -0.01226
# Poissons Ratio (y) = 0.06230 -0.03967
# Poissons Ratio (z) = -0.01230 -0.07034
#
# Static dielectric constant tensor:
#      x y z
#    x 2.066410 0.000000 0.000000 
#    y 0.000000 2.160880 0.000000 
#    z 0.000000 0.000000 2.082910 
# 
# From -- ./inp_files/3432.got.cif
#   From: 2010.05.17/outbox.cif.g08.bks.cpg/sg32_2_cif.got.tgz:3432.got - 2010.06.03 17:12:27.
