data_PCOD9344866
_publ_section_title
;
Structure prediction by ZEFSAII (Michael W. Deem and Ramdas Pophale) SiO2 
 PCOD9344866
Probable space group: P N A 21
;
_chemical_formula_sum "Si O2"
_cell_formula_units_Z 32
_cell_length_a 13.916469
_cell_length_b 13.296302
_cell_length_c 8.102195
_cell_angle_alpha 90.000000
_cell_angle_beta 90.000000
_cell_angle_gamma 90.000000
_cell_volume 1499.210512
_symmetry_space_group_name_H-M "P N A 21"
_symmetry_group_IT_number 33
_symmetry_cell_setting 'orthorhombic'
loop_
_space_group_symop_operation_xyz
x,y,z
-x,-y,1/2+z
1/2-x,1/2+y,1/2+z
1/2+x,1/2-y,z
loop_
_atom_site_type_symbol
_atom_site_label
_atom_site_fract_x
_atom_site_fract_y
_atom_site_fract_z
Si Si1 0.698701 0.098620 0.166560
Si Si2 0.211585 0.178347 0.288710
Si Si3 0.349554 0.019353 0.162227
Si Si4 0.129380 0.938971 0.873172
Si Si5 0.646273 0.774396 0.061181
Si Si6 0.443370 0.525496 0.703460
Si Si7 0.803247 0.129074 0.818910
Si Si8 0.536459 0.967164 0.004361
O O1 0.684907 0.209350 0.240237
O O2 0.765725 0.042152 0.299379
O O3 0.603274 0.040898 0.113941
O O4 0.760452 0.117266 0.999457
O O5 0.287680 0.122314 0.165909
O O6 0.265709 0.174210 0.463675
O O7 0.115903 0.114070 0.288180
O O8 0.419514 0.023365 0.321923
O O9 0.271664 0.931839 0.199543
O O10 0.424859 0.995745 0.018576
O O11 0.054144 0.952729 0.725824
O O12 0.124883 0.826263 0.952008
O O13 0.092848 0.011710 0.017309
O O14 0.680669 0.737797 0.239887
O O15 0.559211 0.853035 0.061819
O O16 0.405176 0.426340 0.796992
#
# Coordination Sequence:
#
# PCOD9344866 Si02
#       8
#     4   4   4   4   4   4   4   4
#     4  10  21  36  55  81 112 143 185 235 282 336
#     4   9  20  37  55  78 108 146 185 229 282 341
#     4   9  20  36  55  79 110 143 182 226 277 333
#     4  10  21  37  57  83 111 146 186 235 287 339
#     4   9  20  36  56  80 113 151 187 228 286 340
#     4  10  20  36  57  80 108 145 187 229 283 341
#     4   9  19  37  55  79 112 145 184 232 279 336
#     4  10  21  37  56  82 112 147 186 230 280 338
#
# _framework density 21.344567999999999
#
# number of rings (size 3 to 8) (size 9 to 14) (size 15 to 20)
#    0.000    2.500    0.000    1.500    0.000   10.000 
#    0.000    7.500    0.000    0.000    0.000    0.000 
#    0.000    0.000    0.000    0.000    0.000    0.000 
#
# Total GULP energy -178614.536992 kJ/mol
# GULP energy per Si atom -5581.704281 kJ/mol
# Density = 2.129599 g / cm^3
# Si number density = 21.344568 Si / 1000 Ang^3
#
#
#
# Elastic Constant Matrix: (Units=GPa)
#
#
# Indices 1 2 3 4 5 6 
#
# 1 85.2521 18.5983 1.0671 0.0000 0.0000 0.0000
# 2 18.5983 48.0387 1.8548 0.0000 0.0000 0.0000
# 3 1.0671 1.8548 50.9901 0.0000 0.0000 0.0000
# 4 0.0000 0.0000 0.0000 11.7698 0.0000 0.0000
# 5 0.0000 0.0000 0.0000 0.0000 30.0178 0.0000
# 6 0.0000 0.0000 0.0000 0.0000 0.0000 8.4178
#
#
#
# Elastic Compliance Matrix: (Units=1/GPa)
#
#
# Indices 1 2 3 4 5 6 
#
# 1 0.012812 -0.004957 -0.000088 0.000000 0.000000 0.000000
# 2 -0.004957 0.022764 -0.000724 0.000000 0.000000 0.000000
# 3 -0.000088 -0.000724 0.019640 0.000000 0.000000 0.000000
# 4 0.000000 0.000000 0.000000 0.084963 0.000000 0.000000
# 5 0.000000 0.000000 0.000000 0.000000 0.033314 0.000000
# 6 0.000000 0.000000 0.000000 0.000000 0.000000 0.118796
#
#
# Mechanical properties :
#
#
# Convention : Reuss Voigt Hill
#
# Bulk Modulus (GPa) = 22.89500 25.25793 24.07646
# Shear Modulus (GPa) = 15.70422 20.89179 18.29800
#
# Velocity S-wave (km/s) = 2.71541 3.13195 2.93109
# Velocity P-wave (km/s) = 4.53662 4.99379 4.77069
#
# Compressibility (1/GPa) = 0.04367766
#
# Stress axis : x y z
#
# Youngs Moduli (GPa) = 78.04929 43.92975 50.91689
#
# Poissons Ratio (x) = 0.21776 0.00447
# Poissons Ratio (y) = 0.38689 0.03688
# Poissons Ratio (z) = 0.00685 0.03182
#
# Static dielectric constant tensor:
#      x y z
#    x 1.746730 0.000000 0.000000 
#    y 0.000000 1.773880 0.000000 
#    z 0.000000 0.000000 1.829580 
# 
# From -- ./inp_files/3922.got.cif
#   From: 2010.05.17/outbox.cif.g08.bks.cpg/sg33_2_cif.got.tgz:3922.got - 2010.06.03 17:15:25.
