data_PCOD9344079
_publ_section_title
;
Structure prediction by ZEFSAII (Michael W. Deem and Ramdas Pophale) SiO2 
 PCOD9344079
Probable space group: P B A 2
;
_chemical_formula_sum "Si O2"
_cell_formula_units_Z 26
_cell_length_a 12.486429
_cell_length_b 16.457256
_cell_length_c 5.654407
_cell_angle_alpha 90.000000
_cell_angle_beta 90.000000
_cell_angle_gamma 90.000000
_cell_volume 1161.937431
_symmetry_space_group_name_H-M "P B A 2"
_symmetry_group_IT_number 32
_symmetry_cell_setting 'orthorhombic'
loop_
_space_group_symop_operation_xyz
x,y,z
-x,-y,z
1/2-x,1/2+y,z
1/2+x,1/2-y,z
loop_
_atom_site_type_symbol
_atom_site_label
_atom_site_fract_x
_atom_site_fract_y
_atom_site_fract_z
Si Si1 0.730238 0.722081 0.643340
Si Si2 0.500000 0.000000 0.114508
Si Si3 0.273507 0.026419 0.339295
Si Si4 0.480558 0.326893 0.895511
Si Si5 0.595166 0.156677 0.889908
Si Si6 0.207953 0.107765 0.834407
Si Si7 0.697280 0.646609 0.223995
O O1 0.620848 0.678114 0.721053
O O2 0.845638 0.675418 0.642197
O O3 0.743244 0.801978 0.799470
O O4 0.708476 0.730894 0.366461
O O5 0.600772 0.980933 0.280726
O O6 0.470127 0.923731 0.947133
O O7 0.251331 0.063810 0.597943
O O8 0.220991 0.937497 0.353291
O O9 0.231452 0.069586 0.093525
O O10 0.525418 0.236184 0.940283
O O11 0.579980 0.380351 0.814619
O O12 0.422035 0.359239 0.126802
O O13 0.705960 0.150276 0.036688
#
# Coordination Sequence:
#
# PCOD9344079 Si02
#       7
#     4   2   4   4   4   4   4
#     4  10  23  42  69 101 136 188 232 301 345 435
#     4  10  22  44  74 100 140 190 228 302 362 420
#     4  11  27  48  68 110 143 188 237 303 357 431
#     4  10  23  43  68 101 134 192 230 287 359 422
#     4   9  21  41  65 100 137 172 242 282 363 415
#     4  11  27  46  73 104 147 181 247 294 351 438
#     4  10  24  43  71  96 147 181 236 295 362 425
#
# _framework density 22.376418999999999
#
# number of rings (size 3 to 8) (size 9 to 14) (size 15 to 20)
#    0.000    1.846    0.000    0.923   17.231    2.462 
#    8.308    0.000    0.000    0.000    0.000    0.000 
#    0.000    0.000    0.000    0.000    0.000    0.000 
#
# Total GULP energy -144834.000168 kJ/mol
# GULP energy per Si atom -5570.538468 kJ/mol
# Density = 2.232549 g / cm^3
# Si number density = 22.376419 Si / 1000 Ang^3
#
#
#
# Elastic Constant Matrix: (Units=GPa)
#
#
# Indices 1 2 3 4 5 6 
#
# 1 155.9393 43.9415 22.6913 0.0000 0.0000 0.0000
# 2 43.9415 87.8389 33.5085 0.0000 0.0000 0.0000
# 3 22.6913 33.5085 68.1405 0.0000 0.0000 0.0000
# 4 0.0000 0.0000 0.0000 44.5754 0.0000 0.0000
# 5 0.0000 0.0000 0.0000 0.0000 17.5019 0.0000
# 6 0.0000 0.0000 0.0000 0.0000 0.0000 29.0001
#
#
#
# Elastic Compliance Matrix: (Units=1/GPa)
#
#
# Indices 1 2 3 4 5 6 
#
# 1 0.007501 -0.003446 -0.000803 0.000000 0.000000 0.000000
# 2 -0.003446 0.015596 -0.006522 0.000000 0.000000 0.000000
# 3 -0.000803 -0.006522 0.018150 0.000000 0.000000 0.000000
# 4 0.000000 0.000000 0.000000 0.022434 0.000000 0.000000
# 5 0.000000 0.000000 0.000000 0.000000 0.057137 0.000000
# 6 0.000000 0.000000 0.000000 0.000000 0.000000 0.034483
#
#
# Mechanical properties :
#
#
# Convention : Reuss Voigt Hill
#
# Bulk Modulus (GPa) = 50.74870 56.91126 53.82998
# Shear Modulus (GPa) = 27.26119 32.33397 29.79758
#
# Velocity S-wave (km/s) = 3.49420 3.80544 3.65314
# Velocity P-wave (km/s) = 6.24564 6.69308 6.47323
#
# Compressibility (1/GPa) = 0.01970494
#
# Stress axis : x y z
#
# Youngs Moduli (GPa) = 133.32256 64.11800 55.09536
#
# Poissons Ratio (x) = 0.22093 0.04426
# Poissons Ratio (y) = 0.45940 0.35934
# Poissons Ratio (z) = 0.10710 0.41818
#
# Static dielectric constant tensor:
#      x y z
#    x 1.785710 0.000000 0.000000 
#    y 0.000000 1.931470 0.000000 
#    z 0.000000 0.000000 2.056880 
# 
# From -- ./inp_files/928.got.cif
#   From: 2010.05.17/outbox.cif.g08.bks.cpg/sg32_1_cif.got.tgz:928.got - 2010.06.03 17:12:27.
