data_PCOD9344680
_publ_section_title
;
Structure prediction by ZEFSAII (Michael W. Deem and Ramdas Pophale) SiO2 
 PCOD9344680
Probable space group: P N A 21
;
_chemical_formula_sum "Si O2"
_cell_formula_units_Z 32
_cell_length_a 8.307441
_cell_length_b 17.323020
_cell_length_c 8.956807
_cell_angle_alpha 90.000000
_cell_angle_beta 90.000000
_cell_angle_gamma 90.000000
_cell_volume 1288.973796
_symmetry_space_group_name_H-M "P N A 21"
_symmetry_group_IT_number 33
_symmetry_cell_setting 'orthorhombic'
loop_
_space_group_symop_operation_xyz
x,y,z
-x,-y,1/2+z
1/2-x,1/2+y,1/2+z
1/2+x,1/2-y,z
loop_
_atom_site_type_symbol
_atom_site_label
_atom_site_fract_x
_atom_site_fract_y
_atom_site_fract_z
Si Si1 0.664823 0.979281 0.317300
Si Si2 0.387261 0.193314 0.850928
Si Si3 0.688571 0.824485 0.692237
Si Si4 0.532434 0.694521 0.837512
Si Si5 0.831888 0.078583 0.113166
Si Si6 0.196421 0.509213 0.786232
Si Si7 0.746153 0.652963 0.300939
Si Si8 0.981294 0.044631 0.484214
O O1 0.683214 0.026141 0.162726
O O2 0.478899 0.993352 0.363543
O O3 0.817366 0.012246 0.409667
O O4 0.691189 0.887503 0.300684
O O5 0.342267 0.269002 0.757517
O O6 0.575613 0.180830 0.836678
O O7 0.345110 0.205414 0.025703
O O8 0.585467 0.783025 0.823573
O O9 0.868405 0.809129 0.745079
O O10 0.666877 0.916152 0.686189
O O11 0.654794 0.646500 0.733112
O O12 0.524145 0.638662 0.982423
O O13 0.827861 0.120271 0.954778
O O14 0.978580 0.016599 0.115121
O O15 0.238966 0.426689 0.708552
O O16 0.347822 0.531764 0.892208
#
# Coordination Sequence:
#
# PCOD9344680 Si02
#       8
#     4   4   4   4   4   4   4   4
#     4  10  21  35  57  81 112 152 185 235 291 346
#     4  11  21  32  56  86 108 142 190 242 283 332
#     4  11  20  33  54  87 114 137 189 243 283 334
#     4  10  21  31  55  86 107 146 184 240 288 329
#     4  10  19  37  57  81 117 150 186 234 295 345
#     4   9  21  36  52  84 116 149 180 234 294 343
#     4  10  21  34  55  83 111 147 184 236 289 334
#     4   9  20  36  54  80 115 149 186 230 291 345
#
# _framework density 24.825949999999999
#
# number of rings (size 3 to 8) (size 9 to 14) (size 15 to 20)
#    0.000    2.000    1.250    2.250    7.000    0.000 
#    0.000    0.000    0.000   12.000    0.000    0.000 
#    0.000    0.000    0.000    0.000    0.000    0.000 
#
# Total GULP energy -178381.721406 kJ/mol
# GULP energy per Si atom -5574.428794 kJ/mol
# Density = 2.476945 g / cm^3
# Si number density = 24.825950 Si / 1000 Ang^3
#
#
#
# Elastic Constant Matrix: (Units=GPa)
#
#
# Indices 1 2 3 4 5 6 
#
# 1 88.4601 53.0342 18.4945 0.0000 0.0000 0.0000
# 2 53.0342 161.3680 12.4907 0.0000 0.0000 0.0000
# 3 18.4945 12.4907 29.2475 0.0000 0.0000 0.0000
# 4 0.0000 0.0000 0.0000 25.8674 0.0000 0.0000
# 5 0.0000 0.0000 0.0000 0.0000 26.1122 0.0000
# 6 0.0000 0.0000 0.0000 0.0000 0.0000 187.8479
#
#
#
# Elastic Compliance Matrix: (Units=1/GPa)
#
#
# Indices 1 2 3 4 5 6 
#
# 1 0.015696 -0.004540 -0.007986 0.000000 0.000000 0.000000
# 2 -0.004540 0.007722 -0.000427 0.000000 0.000000 0.000000
# 3 -0.007986 -0.000427 0.039423 0.000000 0.000000 0.000000
# 4 0.000000 0.000000 0.000000 0.038659 0.000000 0.000000
# 5 0.000000 0.000000 0.000000 0.000000 0.038296 0.000000
# 6 0.000000 0.000000 0.000000 0.000000 0.000000 0.005323
#
#
# Mechanical properties :
#
#
# Convention : Reuss Voigt Hill
#
# Bulk Modulus (GPa) = 27.07480 49.67937 38.37709
# Shear Modulus (GPa) = 27.27178 60.96923 44.12050
#
# Velocity S-wave (km/s) = 3.31799 4.96105 4.22025
# Velocity P-wave (km/s) = 5.06046 7.27121 6.26413
#
# Compressibility (1/GPa) = 0.03693471
#
# Stress axis : x y z
#
# Youngs Moduli (GPa) = 63.70881 129.49505 25.36561
#
# Poissons Ratio (x) = 0.58797 0.20258
# Poissons Ratio (y) = 0.28927 0.01083
# Poissons Ratio (z) = 0.50881 0.05527
#
# Static dielectric constant tensor:
#      x y z
#    x 1.969920 0.000000 0.000000 
#    y 0.000000 2.017860 0.000000 
#    z 0.000000 0.000000 2.171140 
# 
# From -- ./inp_files/6002.got.cif
#   From: 2010.05.17/outbox.cif.g08.bks.cpg/sg33_4_cif.got.tgz:6002.got - 2010.06.03 17:15:25.
