data_PCOD9344036
_publ_section_title
;
Structure prediction by ZEFSAII (Michael W. Deem and Ramdas Pophale) SiO2 
 PCOD9344036
Probable space group: P B A 2
;
_chemical_formula_sum "Si O2"
_cell_formula_units_Z 26
_cell_length_a 8.271181
_cell_length_b 17.736442
_cell_length_c 8.172255
_cell_angle_alpha 90.000000
_cell_angle_beta 90.000000
_cell_angle_gamma 90.000000
_cell_volume 1198.880613
_symmetry_space_group_name_H-M "P B A 2"
_symmetry_group_IT_number 32
_symmetry_cell_setting 'orthorhombic'
loop_
_space_group_symop_operation_xyz
x,y,z
-x,-y,z
1/2-x,1/2+y,z
1/2+x,1/2-y,z
loop_
_atom_site_type_symbol
_atom_site_label
_atom_site_fract_x
_atom_site_fract_y
_atom_site_fract_z
Si Si1 0.940011 0.381562 0.329720
Si Si2 0.500000 0.500000 0.668283
Si Si3 0.411760 0.337126 0.259731
Si Si4 0.731386 0.524992 0.370752
Si Si5 0.237102 0.212525 0.105776
Si Si6 0.340996 0.241354 0.572665
Si Si7 0.932619 0.832451 0.770865
O O1 0.794277 0.441761 0.334718
O O2 0.894876 0.333479 0.168352
O O3 0.939756 0.325550 0.484673
O O4 0.106864 0.425909 0.340799
O O5 0.651491 0.519416 0.549810
O O6 0.536895 0.421973 0.761857
O O7 0.397865 0.427026 0.265443
O O8 0.296724 0.298307 0.124528
O O9 0.592641 0.307288 0.232394
O O10 0.342831 0.305004 0.431801
O O11 0.161327 0.188010 0.935519
O O12 0.178312 0.198508 0.622534
O O13 0.409278 0.282247 0.734422
#
# Coordination Sequence:
#
# PCOD9344036 Si02
#       7
#     4   2   4   4   4   4   4
#     4  10  22  40  67  94 128 171 235 280 338 409
#     4  12  24  42  64 110 136 188 226 302 356 420
#     4  11  21  39  67  93 128 171 234 273 337 407
#     4  11  21  39  69  96 124 172 234 288 329 404
#     4  11  24  42  62 101 135 180 220 286 348 420
#     4  11  21  40  64  97 121 180 227 283 324 417
#     4  12  25  41  67  96 147 175 231 286 364 414
#
# _framework density 21.686896999999998
#
# number of rings (size 3 to 8) (size 9 to 14) (size 15 to 20)
#    0.000    0.923    3.077    6.462    0.000    1.231 
#    0.000    0.000    6.769    0.000    0.000    0.000 
#    0.000    0.000    0.000    0.000    0.000    0.000 
#
# Total GULP energy -145060.297019 kJ/mol
# GULP energy per Si atom -5579.242193 kJ/mol
# Density = 2.163754 g / cm^3
# Si number density = 21.686897 Si / 1000 Ang^3
#
#
#
# Elastic Constant Matrix: (Units=GPa)
#
#
# Indices 1 2 3 4 5 6 
#
# 1 75.2148 29.3240 8.1455 0.0000 0.0000 0.0000
# 2 29.3240 162.9644 34.5957 0.0000 0.0000 0.0000
# 3 8.1455 34.5957 88.7827 0.0000 0.0000 0.0000
# 4 0.0000 0.0000 0.0000 22.8338 0.0000 0.0000
# 5 0.0000 0.0000 0.0000 0.0000 18.6218 0.0000
# 6 0.0000 0.0000 0.0000 0.0000 0.0000 48.6905
#
#
#
# Elastic Compliance Matrix: (Units=1/GPa)
#
#
# Indices 1 2 3 4 5 6 
#
# 1 0.014308 -0.002503 -0.000337 0.000000 0.000000 0.000000
# 2 -0.002503 0.007128 -0.002548 0.000000 0.000000 0.000000
# 3 -0.000337 -0.002548 0.012287 0.000000 0.000000 0.000000
# 4 0.000000 0.000000 0.000000 0.043795 0.000000 0.000000
# 5 0.000000 0.000000 0.000000 0.000000 0.053700 0.000000
# 6 0.000000 0.000000 0.000000 0.000000 0.000000 0.020538
#
#
# Mechanical properties :
#
#
# Convention : Reuss Voigt Hill
#
# Bulk Modulus (GPa) = 43.58003 52.34359 47.96181
# Shear Modulus (GPa) = 29.38063 35.02234 32.20149
#
# Velocity S-wave (km/s) = 3.68471 4.02295 3.85754
# Velocity P-wave (km/s) = 6.18397 6.76515 6.48108
#
# Compressibility (1/GPa) = 0.02294629
#
# Stress axis : x y z
#
# Youngs Moduli (GPa) = 69.89291 140.30084 81.38568
#
# Poissons Ratio (x) = 0.35116 0.02746
# Poissons Ratio (y) = 0.17494 0.20735
# Poissons Ratio (z) = 0.02358 0.35745
#
# Static dielectric constant tensor:
#      x y z
#    x 1.893270 0.000000 0.000000 
#    y 0.000000 1.819890 0.000000 
#    z 0.000000 0.000000 1.806190 
# 
# From -- ./inp_files/2414.got.cif
#   From: 2010.05.17/outbox.cif.g08.bks.cpg/sg32_2_cif.got.tgz:2414.got - 2010.06.03 17:12:27.
