data_PCOD9344989
_publ_section_title
;
Structure prediction by ZEFSAII (Michael W. Deem and Ramdas Pophale) SiO2 
 PCOD9344989
Probable space group: P N A 21
;
_chemical_formula_sum "Si O2"
_cell_formula_units_Z 32
_cell_length_a 19.549214
_cell_length_b 11.400778
_cell_length_c 5.456886
_cell_angle_alpha 90.000000
_cell_angle_beta 90.000000
_cell_angle_gamma 90.000000
_cell_volume 1216.210282
_symmetry_space_group_name_H-M "P N A 21"
_symmetry_group_IT_number 33
_symmetry_cell_setting 'orthorhombic'
loop_
_space_group_symop_operation_xyz
x,y,z
-x,-y,1/2+z
1/2-x,1/2+y,1/2+z
1/2+x,1/2-y,z
loop_
_atom_site_type_symbol
_atom_site_label
_atom_site_fract_x
_atom_site_fract_y
_atom_site_fract_z
Si Si1 0.641052 0.516668 0.103450
Si Si2 0.355776 0.144678 0.143953
Si Si3 0.498297 0.439043 0.576146
Si Si4 0.769561 0.159403 0.216934
Si Si5 0.752563 0.926775 0.005007
Si Si6 0.374988 0.685015 0.273661
Si Si7 0.358254 0.880714 0.961191
Si Si8 0.504119 0.075582 0.215987
O O1 0.576276 0.594811 0.184540
O O2 0.695543 0.471744 0.295673
O O3 0.677930 0.594135 0.897069
O O4 0.609641 0.391859 0.011886
O O5 0.312481 0.254993 0.041821
O O6 0.313469 0.138126 0.400071
O O7 0.436773 0.156309 0.178702
O O8 0.344785 0.019258 0.011096
O O9 0.484281 0.464399 0.288863
O O10 0.563438 0.355875 0.595585
O O11 0.704011 0.202496 0.369350
O O12 0.728805 0.054093 0.090816
O O13 0.800019 0.867300 0.208965
O O14 0.374128 0.822738 0.227314
O O15 0.423256 0.869284 0.784856
O O16 0.490006 0.998347 0.463387
#
# Coordination Sequence:
#
# PCOD9344989 Si02
#       8
#     4   4   4   4   4   4   4   4
#     4  10  22  41  64 102 138 179 232 292 357 422
#     4  11  24  45  69 106 138 184 248 297 360 442
#     4  10  20  38  64  98 141 182 230 283 347 426
#     4  11  24  42  69  98 133 183 233 299 360 422
#     4  11  21  43  67 100 137 176 236 293 360 425
#     4  10  22  40  67  99 143 184 230 290 360 432
#     4  11  23  46  70 103 138 191 237 296 366 435
#     4  10  24  49  72 102 148 195 244 296 354 434
#
# _framework density 26.311242
#
# number of rings (size 3 to 8) (size 9 to 14) (size 15 to 20)
#    0.000    1.500    3.750    0.750    1.750    1.000 
#   11.250    0.000    0.000    0.000    0.000    0.000 
#    0.000    0.000    0.000    0.000    0.000    0.000 
#
# Total GULP energy -178338.357071 kJ/mol
# GULP energy per Si atom -5573.073658 kJ/mol
# Density = 2.625136 g / cm^3
# Si number density = 26.311242 Si / 1000 Ang^3
#
#
#
# Elastic Constant Matrix: (Units=GPa)
#
#
# Indices 1 2 3 4 5 6 
#
# 1 149.5193 30.3624 7.8142 0.0000 0.0000 0.0000
# 2 30.3624 57.2045 11.1840 0.0000 0.0000 0.0000
# 3 7.8142 11.1840 68.4081 0.0000 0.0000 0.0000
# 4 0.0000 0.0000 0.0000 22.4045 0.0000 0.0000
# 5 0.0000 0.0000 0.0000 0.0000 41.2343 0.0000
# 6 0.0000 0.0000 0.0000 0.0000 0.0000 30.8492
#
#
#
# Elastic Compliance Matrix: (Units=1/GPa)
#
#
# Indices 1 2 3 4 5 6 
#
# 1 0.007499 -0.003939 -0.000213 0.000000 0.000000 0.000000
# 2 -0.003939 0.020127 -0.002841 0.000000 0.000000 0.000000
# 3 -0.000213 -0.002841 0.015107 0.000000 0.000000 0.000000
# 4 0.000000 0.000000 0.000000 0.044634 0.000000 0.000000
# 5 0.000000 0.000000 0.000000 0.000000 0.024252 0.000000
# 6 0.000000 0.000000 0.000000 0.000000 0.000000 0.032416
#
#
# Mechanical properties :
#
#
# Convention : Reuss Voigt Hill
#
# Bulk Modulus (GPa) = 34.78393 41.53926 38.16159
# Shear Modulus (GPa) = 29.83272 33.94902 31.89087
#
# Velocity S-wave (km/s) = 3.37091 3.59595 3.48525
# Velocity P-wave (km/s) = 5.32912 5.75005 5.54358
#
# Compressibility (1/GPa) = 0.02874891
#
# Stress axis : x y z
#
# Youngs Moduli (GPa) = 133.35062 49.68442 66.19510
#
# Poissons Ratio (x) = 0.19569 0.01408
# Poissons Ratio (y) = 0.52522 0.18804
# Poissons Ratio (z) = 0.02836 0.14114
#
# Static dielectric constant tensor:
#      x y z
#    x 2.156570 0.000000 0.000000 
#    y 0.000000 2.152070 0.000000 
#    z 0.000000 0.000000 2.215850 
# 
# From -- ./inp_files/2028.got.cif
#   From: 2010.05.17/outbox.cif.g08.bks.cpg/sg33_2_cif.got.tgz:2028.got - 2010.06.03 17:15:25.
