data_PCOD9344872
_publ_section_title
;
Structure prediction by ZEFSAII (Michael W. Deem and Ramdas Pophale) SiO2 
 PCOD9344872
Probable space group: P N A 21
;
_chemical_formula_sum "Si O2"
_cell_formula_units_Z 24
_cell_length_a 9.977589
_cell_length_b 7.404429
_cell_length_c 13.271385
_cell_angle_alpha 90.000000
_cell_angle_beta 90.000000
_cell_angle_gamma 90.000000
_cell_volume 980.468017
_symmetry_space_group_name_H-M "P N A 21"
_symmetry_group_IT_number 33
_symmetry_cell_setting 'orthorhombic'
loop_
_space_group_symop_operation_xyz
x,y,z
-x,-y,1/2+z
1/2-x,1/2+y,1/2+z
1/2+x,1/2-y,z
loop_
_atom_site_type_symbol
_atom_site_label
_atom_site_fract_x
_atom_site_fract_y
_atom_site_fract_z
Si Si1 0.407852 0.406089 0.449180
Si Si2 0.999227 0.238928 0.068667
Si Si3 0.423560 0.313676 0.849178
Si Si4 0.853591 0.711738 0.009280
Si Si5 0.243312 0.955342 0.628366
Si Si6 0.667283 0.194759 0.732746
O O1 0.423821 0.549663 0.541604
O O2 0.489300 0.504080 0.362427
O O3 0.253230 0.368646 0.433352
O O4 0.493309 0.230444 0.478434
O O5 0.933859 0.282738 0.958589
O O6 0.112330 0.370961 0.109654
O O7 0.873439 0.192884 0.138473
O O8 0.517081 0.200662 0.773648
O O9 0.277884 0.371910 0.811071
O O10 0.837855 0.620340 0.119038
O O11 0.803004 0.918444 0.032874
O O12 0.226242 0.102322 0.715089
#
# Coordination Sequence:
#
# PCOD9344872 Si02
#       6
#     4   4   4   4   4   4
#     4   9  20  35  61  82 115 147 198 229 281 345
#     4   9  19  37  58  84 111 151 193 231 277 349
#     4  10  20  36  58  84 114 149 183 243 286 336
#     4   9  19  37  58  86 106 154 193 230 276 353
#     4   9  20  35  61  81 111 148 198 225 282 349
#     4  10  20  36  58  83 113 145 191 234 292 334
#
# _framework density 24.478104999999999
#
# number of rings (size 3 to 8) (size 9 to 14) (size 15 to 20)
#    2.000    0.667    0.000    2.000    0.000    1.333 
#    0.000    1.667    0.000    0.000    0.000    0.000 
#    0.000    0.000    0.000    0.000    0.000    0.000 
#
# Total GULP energy -133740.474679 kJ/mol
# GULP energy per Si atom -5572.519778 kJ/mol
# Density = 2.442239 g / cm^3
# Si number density = 24.478105 Si / 1000 Ang^3
#
#
#
# Elastic Constant Matrix: (Units=GPa)
#
#
# Indices 1 2 3 4 5 6 
#
# 1 95.4457 10.4663 -2.3422 0.0000 0.0000 0.0000
# 2 10.4663 43.2670 -13.1550 0.0000 0.0000 0.0000
# 3 -2.3422 -13.1550 37.0762 0.0000 0.0000 0.0000
# 4 0.0000 0.0000 0.0000 22.1224 0.0000 0.0000
# 5 0.0000 0.0000 0.0000 0.0000 35.9005 0.0000
# 6 0.0000 0.0000 0.0000 0.0000 0.0000 38.5699
#
#
#
# Elastic Compliance Matrix: (Units=1/GPa)
#
#
# Indices 1 2 3 4 5 6 
#
# 1 0.010765 -0.002687 -0.000273 0.000000 0.000000 0.000000
# 2 -0.002687 0.026578 0.009260 0.000000 0.000000 0.000000
# 3 -0.000273 0.009260 0.030240 0.000000 0.000000 0.000000
# 4 0.000000 0.000000 0.000000 0.045203 0.000000 0.000000
# 5 0.000000 0.000000 0.000000 0.000000 0.027855 0.000000
# 6 0.000000 0.000000 0.000000 0.000000 0.000000 0.025927
#
#
# Mechanical properties :
#
#
# Convention : Reuss Voigt Hill
#
# Bulk Modulus (GPa) = 12.47159 18.41412 15.44285
# Shear Modulus (GPa) = 27.67084 31.37321 29.52202
#
# Velocity S-wave (km/s) = 3.36584 3.58395 3.47660
# Velocity P-wave (km/s) = 4.49569 4.96641 4.73690
#
# Compressibility (1/GPa) = 0.08018225
#
# Stress axis : x y z
#
# Youngs Moduli (GPa) = 92.89254 37.62530 33.06897
#
# Poissons Ratio (x) = 0.10111 0.00904
# Poissons Ratio (y) = 0.24962 -0.30623
# Poissons Ratio (z) = 0.02539 -0.34842
#
# Static dielectric constant tensor:
#      x y z
#    x 1.891700 0.000000 0.000000 
#    y 0.000000 2.080660 0.000000 
#    z 0.000000 0.000000 1.965810 
# 
# From -- ./inp_files/8441.got.cif
#   From: 2010.05.17/outbox.cif.g08.bks.cpg/sg33_5_cif.got.tgz:8441.got - 2010.06.03 17:15:25.
