data_PCOD9344785
_publ_section_title
;
Structure prediction by ZEFSAII (Michael W. Deem and Ramdas Pophale) SiO2 
 PCOD9344785
Probable space group: P N A 21
;
_chemical_formula_sum "Si O2"
_cell_formula_units_Z 32
_cell_length_a 19.928162
_cell_length_b 12.615002
_cell_length_c 5.243867
_cell_angle_alpha 90.000000
_cell_angle_beta 90.000000
_cell_angle_gamma 90.000000
_cell_volume 1318.275670
_symmetry_space_group_name_H-M "P N A 21"
_symmetry_group_IT_number 33
_symmetry_cell_setting 'orthorhombic'
loop_
_space_group_symop_operation_xyz
x,y,z
-x,-y,1/2+z
1/2-x,1/2+y,1/2+z
1/2+x,1/2-y,z
loop_
_atom_site_type_symbol
_atom_site_label
_atom_site_fract_x
_atom_site_fract_y
_atom_site_fract_z
Si Si1 0.990171 0.683605 0.030010
Si Si2 0.630883 0.426769 0.903443
Si Si3 0.407436 0.804865 0.535002
Si Si4 0.180868 0.874277 0.096272
Si Si5 0.979225 0.933962 0.047676
Si Si6 0.785770 0.391586 0.047100
Si Si7 0.359880 0.126783 0.554699
Si Si8 0.747209 0.148830 0.090506
O O1 0.949852 0.662100 0.289154
O O2 0.001989 0.811842 0.024678
O O3 0.944222 0.658890 0.788571
O O4 0.060770 0.623692 0.015705
O O5 0.622871 0.545100 0.012399
O O6 0.601065 0.425785 0.618033
O O7 0.709899 0.412209 0.952462
O O8 0.596372 0.324677 0.031841
O O9 0.330788 0.842431 0.526912
O O10 0.157195 0.752760 0.086046
O O11 0.238856 0.882509 0.880854
O O12 0.211138 0.908465 0.367807
O O13 0.005471 0.993935 0.303350
O O14 0.835511 0.422680 0.819765
O O15 0.780747 0.264643 0.073871
O O16 0.817376 0.421006 0.320213
#
# Coordination Sequence:
#
# PCOD9344785 Si02
#       8
#     4   4   4   4   4   4   4   4
#     4  11  21  34  55  78 103 145 184 216 263 322
#     4  10  22  36  55  82 111 147 183 213 266 321
#     4  10  21  36  55  78 109 140 181 223 260 322
#     4  10  20  32  53  77 107 138 170 216 263 320
#     4  11  23  35  50  79 121 154 176 212 261 330
#     4   9  20  35  53  73 106 140 177 228 259 305
#     4  10  20  35  52  78 106 136 178 220 267 310
#     4   9  19  35  51  75 103 138 177 220 267 304
#
# _framework density 24.274132999999999
#
# number of rings (size 3 to 8) (size 9 to 14) (size 15 to 20)
#    0.000    2.000    0.000    3.750    0.000   14.000 
#    0.000    0.000    0.000    0.000    0.000   17.500 
#    0.000    0.000    0.000    0.000    0.000    0.000 
#
# Total GULP energy -178858.318882 kJ/mol
# GULP energy per Si atom -5589.322465 kJ/mol
# Density = 2.421888 g / cm^3
# Si number density = 24.274133 Si / 1000 Ang^3
#
#
#
# Elastic Constant Matrix: (Units=GPa)
#
#
# Indices 1 2 3 4 5 6 
#
# 1 97.1427 -6.9885 46.4046 0.0000 0.0000 0.0000
# 2 -6.9885 45.9734 -5.0890 0.0000 0.0000 0.0000
# 3 46.4046 -5.0890 124.5678 0.0000 0.0000 0.0000
# 4 0.0000 0.0000 0.0000 1.1059 0.0000 0.0000
# 5 0.0000 0.0000 0.0000 0.0000 58.3757 0.0000
# 6 0.0000 0.0000 0.0000 0.0000 0.0000 17.5966
#
#
#
# Elastic Compliance Matrix: (Units=1/GPa)
#
#
# Indices 1 2 3 4 5 6 
#
# 1 0.012612 0.001403 -0.004641 0.000000 0.000000 0.000000
# 2 0.001403 0.022007 0.000376 0.000000 0.000000 0.000000
# 3 -0.004641 0.000376 0.009772 0.000000 0.000000 0.000000
# 4 0.000000 0.000000 0.000000 0.904213 0.000000 0.000000
# 5 0.000000 0.000000 0.000000 0.000000 0.017130 0.000000
# 6 0.000000 0.000000 0.000000 0.000000 0.000000 0.056829
#
#
# Mechanical properties :
#
#
# Convention : Reuss Voigt Hill
#
# Bulk Modulus (GPa) = 25.86108 37.37091 31.61599
# Shear Modulus (GPa) = 4.80227 30.97276 17.88752
#
# Velocity S-wave (km/s) = 1.40806 3.57593 2.71753
# Velocity P-wave (km/s) = 3.64971 5.69899 4.78534
#
# Compressibility (1/GPa) = 0.03866815
#
# Stress axis : x y z
#
# Youngs Moduli (GPa) = 79.28908 45.44075 102.33313
#
# Poissons Ratio (x) = -0.06377 0.47493
# Poissons Ratio (y) = -0.11128 -0.03850
# Poissons Ratio (z) = 0.36798 -0.01710
#
# Static dielectric constant tensor:
#      x y z
#    x 1.907520 0.000000 0.000000 
#    y 0.000000 2.006000 0.000000 
#    z 0.000000 0.000000 1.917740 
# 
# From -- ./inp_files/1797.got.cif
#   From: 2010.05.17/outbox.cif.g08.bks.cpg/sg33_1_cif.got.tgz:1797.got - 2010.06.03 17:15:25.
