data_PCOD9344317
_publ_section_title
;
Structure prediction by ZEFSAII (Michael W. Deem and Ramdas Pophale) SiO2 
 PCOD9344317
Probable space group: P B A 2
;
_chemical_formula_sum "Si O2"
_cell_formula_units_Z 24
_cell_length_a 8.592727
_cell_length_b 12.068852
_cell_length_c 9.792874
_cell_angle_alpha 90.000000
_cell_angle_beta 90.000000
_cell_angle_gamma 90.000000
_cell_volume 1015.563637
_symmetry_space_group_name_H-M "P B A 2"
_symmetry_group_IT_number 32
_symmetry_cell_setting 'orthorhombic'
loop_
_space_group_symop_operation_xyz
x,y,z
-x,-y,z
1/2-x,1/2+y,z
1/2+x,1/2-y,z
loop_
_atom_site_type_symbol
_atom_site_label
_atom_site_fract_x
_atom_site_fract_y
_atom_site_fract_z
Si Si1 0.000000 0.000000 0.373821
Si Si2 0.036947 0.125113 0.846898
Si Si3 0.513561 0.131946 0.453829
Si Si4 0.826878 0.821607 0.559714
Si Si5 0.176257 0.718219 0.971459
Si Si6 0.000000 0.500000 0.015778
Si Si7 0.736589 0.126318 0.206308
O O1 0.861329 0.052186 0.285798
O O2 0.065352 0.100595 0.465007
O O3 0.138163 0.131277 0.709432
O O4 0.145984 0.181973 0.958104
O O5 0.878001 0.194520 0.856181
O O6 0.000000 0.000000 0.880536
O O7 0.341994 0.173475 0.491099
O O8 0.621339 0.193607 0.563219
O O9 0.602322 0.164151 0.313417
O O10 0.500000 0.000000 0.458578
O O11 0.072070 0.609009 0.947027
O O12 0.175844 0.778927 0.118975
O O13 0.142426 0.452351 0.103756
#
# Coordination Sequence:
#
# PCOD9344317 Si02
#       7
#     2   4   4   4   4   2   4
#     4  12  26  46  82 116 152 206 248 330 402 466
#     4  12  28  54  78 112 157 215 269 319 390 474
#     4  12  27  49  77 117 154 203 259 324 400 471
#     4  12  27  50  77 112 159 202 267 322 389 467
#     4  12  29  50  78 113 157 211 263 328 391 475
#     4  12  26  50  68 116 152 196 264 314 400 464
#     4  12  27  46  79 116 161 199 256 327 406 479
#
# _framework density 23.632194999999999
#
# number of rings (size 3 to 8) (size 9 to 14) (size 15 to 20)
#    0.000    0.000    5.000    3.000   10.500    1.333 
#    3.000    0.000    0.000    0.000    0.000    0.000 
#    0.000    0.000    0.000    0.000    0.000    0.000 
#
# Total GULP energy -134231.643176 kJ/mol
# GULP energy per Si atom -5592.985132 kJ/mol
# Density = 2.357841 g / cm^3
# Si number density = 23.632195 Si / 1000 Ang^3
#
#
#
# Elastic Constant Matrix: (Units=GPa)
#
#
# Indices 1 2 3 4 5 6 
#
# 1 127.6135 42.6216 30.4026 0.0000 0.0000 0.0000
# 2 42.6216 125.5035 22.0886 0.0000 0.0000 0.0000
# 3 30.4026 22.0886 33.5586 0.0000 0.0000 0.0000
# 4 0.0000 0.0000 0.0000 20.6906 0.0000 0.0000
# 5 0.0000 0.0000 0.0000 0.0000 18.6552 0.0000
# 6 0.0000 0.0000 0.0000 0.0000 0.0000 35.4760
#
#
#
# Elastic Compliance Matrix: (Units=1/GPa)
#
#
# Indices 1 2 3 4 5 6 
#
# 1 0.010475 -0.002134 -0.008085 0.000000 0.000000 0.000000
# 2 -0.002134 0.009447 -0.004284 0.000000 0.000000 0.000000
# 3 -0.008085 -0.004284 0.039943 0.000000 0.000000 0.000000
# 4 0.000000 0.000000 0.000000 0.048331 0.000000 0.000000
# 5 0.000000 0.000000 0.000000 0.000000 0.053604 0.000000
# 6 0.000000 0.000000 0.000000 0.000000 0.000000 0.028188
#
#
# Mechanical properties :
#
#
# Convention : Reuss Voigt Hill
#
# Bulk Modulus (GPa) = 32.40688 52.98903 42.69796
# Shear Modulus (GPa) = 21.80714 27.73522 24.77118
#
# Velocity S-wave (km/s) = 3.04101 3.42953 3.24110
# Velocity P-wave (km/s) = 5.10619 6.17684 5.66685
#
# Compressibility (1/GPa) = 0.03085764
#
# Stress axis : x y z
#
# Youngs Moduli (GPa) = 95.46297 105.85590 25.03539
#
# Poissons Ratio (x) = 0.22594 0.20242
# Poissons Ratio (y) = 0.20376 0.10726
# Poissons Ratio (z) = 0.77184 0.45352
#
# Static dielectric constant tensor:
#      x y z
#    x 1.980790 0.000000 0.000000 
#    y 0.000000 1.899720 0.000000 
#    z 0.000000 0.000000 1.907950 
# 
# From -- ./inp_files/3678.got.cif
#   From: 2010.05.17/outbox.cif.g08.bks.cpg/sg32_2_cif.got.tgz:3678.got - 2010.06.03 17:12:27.
