data_PCOD9344286
_publ_section_title
;
Structure prediction by ZEFSAII (Michael W. Deem and Ramdas Pophale) SiO2 
 PCOD9344286
Probable space group: P B A 2
;
_chemical_formula_sum "Si O2"
_cell_formula_units_Z 32
_cell_length_a 17.407095
_cell_length_b 14.398666
_cell_length_c 5.347160
_cell_angle_alpha 90.000000
_cell_angle_beta 90.000000
_cell_angle_gamma 90.000000
_cell_volume 1340.206551
_symmetry_space_group_name_H-M "P B A 2"
_symmetry_group_IT_number 32
_symmetry_cell_setting 'orthorhombic'
loop_
_space_group_symop_operation_xyz
x,y,z
-x,-y,z
1/2-x,1/2+y,z
1/2+x,1/2-y,z
loop_
_atom_site_type_symbol
_atom_site_label
_atom_site_fract_x
_atom_site_fract_y
_atom_site_fract_z
Si Si1 0.171693 0.627900 0.326550
Si Si2 0.026261 0.892054 0.083084
Si Si3 0.558363 0.348835 0.576468
Si Si4 0.807418 0.157561 0.284812
Si Si5 0.586842 0.154168 0.725750
Si Si6 0.001148 0.608944 0.229003
Si Si7 0.294022 0.969978 0.989415
Si Si8 0.306988 0.513180 0.607548
O O1 0.201255 0.732659 0.308987
O O2 0.165240 0.561949 0.083873
O O3 0.233582 0.567600 0.486026
O O4 0.080578 0.638841 0.367145
O O5 0.115199 0.866427 0.129678
O O6 0.982098 0.837277 0.307722
O O7 0.000000 0.000000 0.115494
O O8 0.001306 0.866849 0.801337
O O9 0.607385 0.261013 0.673072
O O10 0.615803 0.434350 0.549142
O O11 0.730802 0.112410 0.170810
O O12 0.815277 0.094001 0.530321
O O13 0.557012 0.122474 0.456744
O O14 0.527370 0.152316 0.963691
O O15 0.653786 0.082838 0.792676
O O16 0.000000 0.500000 0.172345
O O17 0.213132 0.011528 0.897085
#
# Coordination Sequence:
#
# PCOD9344286 Si02
#       8
#     4   4   4   4   4   4   4   4
#     4  11  26  47  75 104 148 195 248 302 372 441
#     4  12  25  50  73 111 147 192 243 307 363 439
#     4  12  27  46  76 106 148 193 247 301 369 439
#     4  11  26  47  75 104 148 195 248 302 372 441
#     4  12  27  46  76 106 148 193 247 301 369 439
#     4  12  25  50  73 111 147 192 243 307 363 439
#     4  11  27  47  69 109 144 192 243 306 366 440
#     4  11  27  47  69 109 144 192 243 306 366 440
#
# _framework density 23.876915
#
# number of rings (size 3 to 8) (size 9 to 14) (size 15 to 20)
#    0.000    0.500    2.500    4.500   10.500    0.000 
#    0.000    0.000    0.000    0.000    0.000    0.000 
#    0.000    0.000    0.000    0.000    0.000    0.000 
#
# Total GULP energy -178628.843440 kJ/mol
# GULP energy per Si atom -5582.151358 kJ/mol
# Density = 2.382257 g / cm^3
# Si number density = 23.876915 Si / 1000 Ang^3
#
#
#
# Elastic Constant Matrix: (Units=GPa)
#
#
# Indices 1 2 3 4 5 6 
#
# 1 73.0183 12.4365 16.8639 0.0000 0.0000 0.0000
# 2 12.4365 172.8174 20.8071 0.0000 0.0000 0.0000
# 3 16.8639 20.8071 80.6850 0.0000 0.0000 0.0000
# 4 0.0000 0.0000 0.0000 28.3231 0.0000 0.0000
# 5 0.0000 0.0000 0.0000 0.0000 37.3782 0.0000
# 6 0.0000 0.0000 0.0000 0.0000 0.0000 33.2103
#
#
#
# Elastic Compliance Matrix: (Units=1/GPa)
#
#
# Indices 1 2 3 4 5 6 
#
# 1 0.014471 -0.000699 -0.002844 0.000000 0.000000 0.000000
# 2 -0.000699 0.006006 -0.001403 0.000000 0.000000 0.000000
# 3 -0.002844 -0.001403 0.013350 0.000000 0.000000 0.000000
# 4 0.000000 0.000000 0.000000 0.035307 0.000000 0.000000
# 5 0.000000 0.000000 0.000000 0.000000 0.026754 0.000000
# 6 0.000000 0.000000 0.000000 0.000000 0.000000 0.030111
#
#
# Mechanical properties :
#
#
# Convention : Reuss Voigt Hill
#
# Bulk Modulus (GPa) = 41.77984 47.41508 44.59746
# Shear Modulus (GPa) = 34.75389 38.20985 36.48187
#
# Velocity S-wave (km/s) = 3.81930 4.00469 3.91309
# Velocity P-wave (km/s) = 6.08156 6.42532 6.25580
#
# Compressibility (1/GPa) = 0.02393499
#
# Stress axis : x y z
#
# Youngs Moduli (GPa) = 69.10295 166.51043 74.90582
#
# Poissons Ratio (x) = 0.11638 0.21306
# Poissons Ratio (y) = 0.04830 0.10507
# Poissons Ratio (z) = 0.19655 0.23356
#
# Static dielectric constant tensor:
#      x y z
#    x 1.973310 0.000000 0.000000 
#    y 0.000000 1.977870 0.000000 
#    z 0.000000 0.000000 1.993210 
# 
# From -- ./inp_files/1476.got.cif
#   From: 2010.05.17/outbox.cif.g08.bks.cpg/sg32_1_cif.got.tgz:1476.got - 2010.06.03 17:12:27.
