data_PCOD9344038
_publ_section_title
;
Structure prediction by ZEFSAII (Michael W. Deem and Ramdas Pophale) SiO2 
 PCOD9344038
Probable space group: P B A 2
;
_chemical_formula_sum "Si O2"
_cell_formula_units_Z 22
_cell_length_a 15.441361
_cell_length_b 10.433038
_cell_length_c 5.075420
_cell_angle_alpha 90.000000
_cell_angle_beta 90.000000
_cell_angle_gamma 90.000000
_cell_volume 817.651716
_symmetry_space_group_name_H-M "P B A 2"
_symmetry_group_IT_number 32
_symmetry_cell_setting 'orthorhombic'
loop_
_space_group_symop_operation_xyz
x,y,z
-x,-y,z
1/2-x,1/2+y,z
1/2+x,1/2-y,z
loop_
_atom_site_type_symbol
_atom_site_label
_atom_site_fract_x
_atom_site_fract_y
_atom_site_fract_z
Si Si1 0.244812 0.743796 0.731410
Si Si2 0.563545 0.752544 0.028344
Si Si3 0.202073 0.498472 0.397352
Si Si4 0.641650 0.579363 0.387159
Si Si5 0.895407 0.597685 0.904569
Si Si6 0.000000 0.000000 0.738853
O O1 0.158060 0.735731 0.900382
O O2 0.241409 0.628379 0.528205
O O3 0.230264 0.874808 0.546423
O O4 0.331247 0.775950 0.889355
O O5 0.492395 0.855994 0.960283
O O6 0.523084 0.620268 0.915098
O O7 0.586772 0.705837 0.324562
O O8 0.296496 0.482218 0.176773
O O9 0.125491 0.466147 0.625627
O O10 0.138216 0.485331 0.147837
O O11 0.581492 0.485568 0.545774
#
# Coordination Sequence:
#
# PCOD9344038 Si02
#       6
#     4   4   4   4   4   2
#     4  10  24  46  69 103 147 190 243 310 365 454
#     4  11  23  44  68 106 142 189 252 305 367 444
#     4  11  25  46  70 104 144 195 239 298 383 438
#     4  10  22  44  69 101 141 185 243 305 365 439
#     4  11  26  45  71 104 143 191 248 302 367 444
#     4  10  22  40  68 102 134 186 234 306 368 426
#
# _framework density 26.906321999999999
#
# number of rings (size 3 to 8) (size 9 to 14) (size 15 to 20)
#    0.000    1.455    1.818    1.636    7.636    0.727 
#    9.818    0.000    0.000    0.000    0.000    0.000 
#    0.000    0.000    0.000    0.000    0.000    0.000 
#
# Total GULP energy -122607.092154 kJ/mol
# GULP energy per Si atom -5573.049643 kJ/mol
# Density = 2.684508 g / cm^3
# Si number density = 26.906322 Si / 1000 Ang^3
#
#
#
# Elastic Constant Matrix: (Units=GPa)
#
#
# Indices 1 2 3 4 5 6 
#
# 1 175.5649 44.7273 39.0390 0.0000 0.0000 0.0000
# 2 44.7273 113.5517 24.1619 0.0000 0.0000 0.0000
# 3 39.0390 24.1619 115.2082 0.0000 0.0000 0.0000
# 4 0.0000 0.0000 0.0000 34.1065 0.0000 0.0000
# 5 0.0000 0.0000 0.0000 0.0000 39.4766 0.0000
# 6 0.0000 0.0000 0.0000 0.0000 0.0000 36.6288
#
#
#
# Elastic Compliance Matrix: (Units=1/GPa)
#
#
# Indices 1 2 3 4 5 6 
#
# 1 0.006665 -0.002245 -0.001788 0.000000 0.000000 0.000000
# 2 -0.002245 0.009974 -0.001331 0.000000 0.000000 0.000000
# 3 -0.001788 -0.001331 0.009565 0.000000 0.000000 0.000000
# 4 0.000000 0.000000 0.000000 0.029320 0.000000 0.000000
# 5 0.000000 0.000000 0.000000 0.000000 0.025331 0.000000
# 6 0.000000 0.000000 0.000000 0.000000 0.000000 0.027301
#
#
# Mechanical properties :
#
#
# Convention : Reuss Voigt Hill
#
# Bulk Modulus (GPa) = 64.61358 68.90903 66.76130
# Shear Modulus (GPa) = 40.30850 41.80215 41.05532
#
# Velocity S-wave (km/s) = 3.87474 3.94587 3.91047
# Velocity P-wave (km/s) = 6.63962 6.81368 6.72721
#
# Compressibility (1/GPa) = 0.01547662
#
# Stress axis : x y z
#
# Youngs Moduli (GPa) = 150.02884 100.25968 104.54908
#
# Poissons Ratio (x) = 0.22509 0.18691
# Poissons Ratio (y) = 0.33682 0.13916
# Poissons Ratio (z) = 0.26822 0.13345
#
# Static dielectric constant tensor:
#      x y z
#    x 2.160190 0.000000 0.000000 
#    y 0.000000 2.369590 0.000000 
#    z 0.000000 0.000000 2.251400 
# 
# From -- ./inp_files/843.got.cif
#   From: 2010.05.17/outbox.cif.g08.bks.cpg/sg32_1_cif.got.tgz:843.got - 2010.06.03 17:12:27.
