data_PCOD9344231
_publ_section_title
;
Structure prediction by ZEFSAII (Michael W. Deem and Ramdas Pophale) SiO2 
 PCOD9344231
Probable space group: P B A 2
;
_chemical_formula_sum "Si O2"
_cell_formula_units_Z 24
_cell_length_a 9.962963
_cell_length_b 8.363987
_cell_length_c 12.367975
_cell_angle_alpha 90.000000
_cell_angle_beta 90.000000
_cell_angle_gamma 90.000000
_cell_volume 1030.624507
_symmetry_space_group_name_H-M "P B A 2"
_symmetry_group_IT_number 32
_symmetry_cell_setting 'orthorhombic'
loop_
_space_group_symop_operation_xyz
x,y,z
-x,-y,z
1/2-x,1/2+y,z
1/2+x,1/2-y,z
loop_
_atom_site_type_symbol
_atom_site_label
_atom_site_fract_x
_atom_site_fract_y
_atom_site_fract_z
Si Si1 0.894071 0.871558 0.280160
Si Si2 0.641896 0.552727 0.715386
Si Si3 0.067288 0.212848 0.030206
Si Si4 0.307133 0.187931 0.561895
Si Si5 0.711128 0.593280 0.945325
Si Si6 0.662564 0.063485 0.398973
O O1 0.916958 0.846226 0.153207
O O2 0.913902 0.694103 0.327733
O O3 0.756121 0.959132 0.316215
O O4 0.000000 0.000000 0.324036
O O5 0.500000 0.500000 0.762102
O O6 0.607321 0.704563 0.641327
O O7 0.710772 0.420066 0.638428
O O8 0.731358 0.607849 0.816493
O O9 0.151348 0.373019 0.008680
O O10 0.913242 0.201538 0.990942
O O11 0.155120 0.084203 0.963736
O O12 0.234537 0.314563 0.483254
O O13 0.384850 0.074165 0.480445
#
# Coordination Sequence:
#
# PCOD9344231 Si02
#       6
#     4   4   4   4   4   4
#     4  11  21  40  68  92 132 176 216 278 340 397
#     4  11  21  40  68  92 132 176 216 278 340 397
#     4  11  23  42  67  99 135 175 224 277 338 401
#     4   9  21  40  63  97 130 166 216 274 334 402
#     4  11  23  42  67  99 135 175 224 277 338 401
#     4   9  21  40  63  97 130 166 216 274 334 402
#
# _framework density 23.286850999999999
#
# number of rings (size 3 to 8) (size 9 to 14) (size 15 to 20)
#    0.000    1.667    3.333    2.000    0.000    6.667 
#    0.000   11.667    0.000    0.000    0.000    0.000 
#    0.000    0.000    0.000    0.000    0.000    0.000 
#
# Total GULP energy -133845.186730 kJ/mol
# GULP energy per Si atom -5576.882780 kJ/mol
# Density = 2.323385 g / cm^3
# Si number density = 23.286851 Si / 1000 Ang^3
#
#
#
# Elastic Constant Matrix: (Units=GPa)
#
#
# Indices 1 2 3 4 5 6 
#
# 1 56.2940 7.0157 13.0142 0.0000 0.0000 0.0000
# 2 7.0157 90.8723 32.4206 0.0000 0.0000 0.0000
# 3 13.0142 32.4206 133.2919 0.0000 0.0000 0.0000
# 4 0.0000 0.0000 0.0000 37.6550 0.0000 0.0000
# 5 0.0000 0.0000 0.0000 0.0000 14.7435 0.0000
# 6 0.0000 0.0000 0.0000 0.0000 0.0000 33.7096
#
#
#
# Elastic Compliance Matrix: (Units=1/GPa)
#
#
# Indices 1 2 3 4 5 6 
#
# 1 0.018233 -0.000846 -0.001574 0.000000 0.000000 0.000000
# 2 -0.000846 0.012089 -0.002858 0.000000 0.000000 0.000000
# 3 -0.001574 -0.002858 0.008351 0.000000 0.000000 0.000000
# 4 0.000000 0.000000 0.000000 0.026557 0.000000 0.000000
# 5 0.000000 0.000000 0.000000 0.000000 0.067826 0.000000
# 6 0.000000 0.000000 0.000000 0.000000 0.000000 0.029665
#
#
# Mechanical properties :
#
#
# Convention : Reuss Voigt Hill
#
# Bulk Modulus (GPa) = 35.56540 42.81769 39.19155
# Shear Modulus (GPa) = 27.37455 32.42214 29.89834
#
# Velocity S-wave (km/s) = 3.43233 3.73539 3.58706
# Velocity P-wave (km/s) = 5.56900 6.08533 5.83288
#
# Compressibility (1/GPa) = 0.02811721
#
# Stress axis : x y z
#
# Youngs Moduli (GPa) = 54.84465 82.71716 119.74340
#
# Poissons Ratio (x) = 0.06997 0.18853
# Poissons Ratio (y) = 0.04640 0.34222
# Poissons Ratio (z) = 0.08635 0.23640
#
# Static dielectric constant tensor:
#      x y z
#    x 1.943610 0.000000 0.000000 
#    y 0.000000 1.921680 0.000000 
#    z 0.000000 0.000000 1.860450 
# 
# From -- ./inp_files/3832.got.cif
#   From: 2010.05.17/outbox.cif.g08.bks.cpg/sg32_2_cif.got.tgz:3832.got - 2010.06.03 17:12:27.
