data_PCOD9344245
_publ_section_title
;
Structure prediction by ZEFSAII (Michael W. Deem and Ramdas Pophale) SiO2 
 PCOD9344245
Probable space group: P B A 2
;
_chemical_formula_sum "Si O2"
_cell_formula_units_Z 26
_cell_length_a 11.483422
_cell_length_b 12.037061
_cell_length_c 8.449769
_cell_angle_alpha 90.000000
_cell_angle_beta 90.000000
_cell_angle_gamma 90.000000
_cell_volume 1167.983271
_symmetry_space_group_name_H-M "P B A 2"
_symmetry_group_IT_number 32
_symmetry_cell_setting 'orthorhombic'
loop_
_space_group_symop_operation_xyz
x,y,z
-x,-y,z
1/2-x,1/2+y,z
1/2+x,1/2-y,z
loop_
_atom_site_type_symbol
_atom_site_label
_atom_site_fract_x
_atom_site_fract_y
_atom_site_fract_z
Si Si1 0.941795 0.884868 0.363370
Si Si2 0.187572 0.417984 0.704584
Si Si3 0.000000 0.500000 0.952390
Si Si4 0.499916 0.256905 0.655163
Si Si5 0.940770 0.285035 0.160697
Si Si6 0.415464 0.394093 0.921988
Si Si7 0.822600 0.388692 0.472793
O O1 0.811211 0.884031 0.423478
O O2 0.010788 0.849599 0.520782
O O3 0.954848 0.789263 0.232135
O O4 0.000000 0.000000 0.309735
O O5 0.106410 0.471528 0.838547
O O6 0.312407 0.417228 0.793517
O O7 0.173219 0.487808 0.543741
O O8 0.124538 0.304002 0.653951
O O9 0.026605 0.610259 0.053117
O O10 0.495419 0.308813 0.826584
O O11 0.390283 0.178239 0.612624
O O12 0.884592 0.343621 0.314581
O O13 0.871785 0.185115 0.067274
O O14 0.500000 0.500000 0.956105
#
# Coordination Sequence:
#
# PCOD9344245 Si02
#       7
#     4   4   2   4   4   4   4
#     4  11  25  45  69 104 149 193 248 307 381 453
#     4  12  24  46  78 106 150 199 259 315 371 458
#     4  12  26  48  72 104 144 192 258 304 384 440
#     4  11  22  44  69 108 144 193 259 310 366 449
#     4  11  28  45  71 106 149 194 245 315 387 454
#     4  12  26  46  75 111 153 199 253 311 388 455
#     4  11  24  44  74 106 150 195 258 312 379 449
#
# _framework density 22.260591999999999
#
# number of rings (size 3 to 8) (size 9 to 14) (size 15 to 20)
#    0.000    0.615    3.077    3.692    6.462    4.923 
#    0.000    0.000    0.000    0.000    0.000    0.000 
#    0.000    0.000    0.000    0.000    0.000    0.000 
#
# Total GULP energy -144819.412212 kJ/mol
# GULP energy per Si atom -5569.977393 kJ/mol
# Density = 2.220993 g / cm^3
# Si number density = 22.260592 Si / 1000 Ang^3
#
#
#
# Elastic Constant Matrix: (Units=GPa)
#
#
# Indices 1 2 3 4 5 6 
#
# 1 79.9795 47.7218 8.2766 0.0000 0.0000 0.0000
# 2 47.7218 138.4201 66.0430 0.0000 0.0000 0.0000
# 3 8.2766 66.0430 97.7616 0.0000 0.0000 0.0000
# 4 0.0000 0.0000 0.0000 60.2282 0.0000 0.0000
# 5 0.0000 0.0000 0.0000 0.0000 -5.0756 0.0000
# 6 0.0000 0.0000 0.0000 0.0000 0.0000 13.8503
#
#
#
# Elastic Compliance Matrix: (Units=1/GPa)
#
#
# Indices 1 2 3 4 5 6 
#
# 1 0.016568 -0.007441 0.003624 0.000000 0.000000 0.000000
# 2 -0.007441 0.014003 -0.008829 0.000000 0.000000 0.000000
# 3 0.003624 -0.008829 0.015887 0.000000 0.000000 0.000000
# 4 0.000000 0.000000 0.000000 0.016604 0.000000 0.000000
# 5 0.000000 0.000000 0.000000 0.000000 -0.197022 0.000000
# 6 0.000000 0.000000 0.000000 0.000000 0.000000 0.072201
#
#
# Mechanical properties :
#
#
# Convention : Reuss Voigt Hill
#
# Bulk Modulus (GPa) = 47.24844 62.24931 54.74888
# Shear Modulus (GPa) = -169.99671 26.74190 -71.62740
#
# Velocity S-wave (km/s) = -8.74828 3.46975 -5.67861
# Velocity P-wave (km/s) = 8.98733 6.63904 4.28341
#
# Compressibility (1/GPa) = 0.02116472
#
# Stress axis : x y z
#
# Youngs Moduli (GPa) = 60.35664 71.41552 62.94504
#
# Poissons Ratio (x) = 0.53142 -0.22813
# Poissons Ratio (y) = 0.44913 0.55577
# Poissons Ratio (z) = -0.21875 0.63056
#
# Static dielectric constant tensor:
#      x y z
#    x 1.860570 0.000000 0.000000 
#    y 0.000000 1.821670 0.000000 
#    z 0.000000 0.000000 1.873880 
# 
# From -- ./inp_files/2752.got.cif
#   From: 2010.05.17/outbox.cif.g08.bks.cpg/sg32_2_cif.got.tgz:2752.got - 2010.06.03 17:12:27.
