data_PCOD9344508
_publ_section_title
;
Structure prediction by ZEFSAII (Michael W. Deem and Ramdas Pophale) SiO2 
 PCOD9344508
Probable space group: P N A 21
;
_chemical_formula_sum "Si O2"
_cell_formula_units_Z 32
_cell_length_a 8.911349
_cell_length_b 5.902103
_cell_length_c 25.128491
_cell_angle_alpha 90.000000
_cell_angle_beta 90.000000
_cell_angle_gamma 90.000000
_cell_volume 1321.650566
_symmetry_space_group_name_H-M "P N A 21"
_symmetry_group_IT_number 33
_symmetry_cell_setting 'orthorhombic'
loop_
_space_group_symop_operation_xyz
x,y,z
-x,-y,1/2+z
1/2-x,1/2+y,1/2+z
1/2+x,1/2-y,z
loop_
_atom_site_type_symbol
_atom_site_label
_atom_site_fract_x
_atom_site_fract_y
_atom_site_fract_z
Si Si1 0.481354 0.572929 0.572690
Si Si2 0.452194 0.569843 0.402396
Si Si3 0.921437 0.581370 0.661722
Si Si4 0.319084 0.150144 0.231730
Si Si5 0.460044 0.931208 0.482450
Si Si6 0.773654 0.299012 0.567156
Si Si7 0.329153 0.771193 0.911002
Si Si8 0.443072 0.587821 0.803699
O O1 0.483916 0.706712 0.627570
O O2 0.512423 0.751595 0.526580
O O3 0.601791 0.372067 0.569741
O O4 0.316698 0.463603 0.566248
O O5 0.394570 0.779781 0.434819
O O6 0.090994 0.431807 0.453588
O O7 0.609816 0.478136 0.425612
O O8 0.339587 0.357579 0.407944
O O9 0.066504 0.503636 0.695578
O O10 0.788149 0.682442 0.697772
O O11 0.853173 0.406596 0.619378
O O12 0.430749 0.299306 0.267696
O O13 0.200305 0.019216 0.268874
O O14 0.347113 0.091277 0.514599
O O15 0.387114 0.768031 0.849204
O O16 0.014509 0.108340 0.840356
#
# Coordination Sequence:
#
# PCOD9344508 Si02
#       8
#     4   4   4   4   4   4   4   4
#     4  11  25  43  64  97 127 164 209 265 314 386
#     4  10  21  39  62  92 130 170 207 258 302 371
#     4  10  22  40  72  94 124 164 212 258 324 376
#     4  10  18  38  72  92 122 170 206 262 320 368
#     4  11  24  39  66  94 130 171 210 251 320 370
#     4  11  25  43  64  97 127 164 209 265 314 386
#     4  10  21  39  62  92 130 170 207 258 302 371
#     4   9  18  37  66  94 126 167 210 257 312 362
#
# _framework density 24.212147999999999
#
# number of rings (size 3 to 8) (size 9 to 14) (size 15 to 20)
#    0.750    1.000    2.500    1.500    1.750    6.000 
#    0.000    0.000   16.500    0.000    0.000    0.000 
#    0.000    0.000    0.000    0.000    0.000    0.000 
#
# Total GULP energy -178813.091110 kJ/mol
# GULP energy per Si atom -5587.909097 kJ/mol
# Density = 2.415704 g / cm^3
# Si number density = 24.212148 Si / 1000 Ang^3
#
#
#
# Elastic Constant Matrix: (Units=GPa)
#
#
# Indices 1 2 3 4 5 6 
#
# 1 127.8163 18.2489 48.2318 0.0000 0.0000 0.0000
# 2 18.2489 31.2949 12.2104 0.0000 0.0000 0.0000
# 3 48.2318 12.2104 125.7826 0.0000 0.0000 0.0000
# 4 0.0000 0.0000 0.0000 38.3804 0.0000 0.0000
# 5 0.0000 0.0000 0.0000 0.0000 40.4140 0.0000
# 6 0.0000 0.0000 0.0000 0.0000 0.0000 29.6657
#
#
#
# Elastic Compliance Matrix: (Units=1/GPa)
#
#
# Indices 1 2 3 4 5 6 
#
# 1 0.009689 -0.004366 -0.003292 0.000000 0.000000 0.000000
# 2 -0.004366 0.035179 -0.001741 0.000000 0.000000 0.000000
# 3 -0.003292 -0.001741 0.009381 0.000000 0.000000 0.000000
# 4 0.000000 0.000000 0.000000 0.026055 0.000000 0.000000
# 5 0.000000 0.000000 0.000000 0.000000 0.024744 0.000000
# 6 0.000000 0.000000 0.000000 0.000000 0.000000 0.033709
#
#
# Mechanical properties :
#
#
# Convention : Reuss Voigt Hill
#
# Bulk Modulus (GPa) = 28.20619 49.14177 38.67398
# Shear Modulus (GPa) = 29.52087 35.43886 32.47987
#
# Velocity S-wave (km/s) = 3.49558 3.82996 3.66658
# Velocity P-wave (km/s) = 5.28838 6.31653 5.82518
#
# Compressibility (1/GPa) = 0.03545321
#
# Stress axis : x y z
#
# Youngs Moduli (GPa) = 103.20868 28.42590 106.59410
#
# Poissons Ratio (x) = 0.12410 0.35086
# Poissons Ratio (y) = 0.45058 0.18558
# Poissons Ratio (z) = 0.33971 0.04949
#
# Static dielectric constant tensor:
#      x y z
#    x 1.930010 0.000000 0.000000 
#    y 0.000000 1.915190 0.000000 
#    z 0.000000 0.000000 1.959870 
# 
# From -- ./inp_files/9379.got.cif
#   From: 2010.05.17/outbox.cif.g08.bks.cpg/sg33_5_cif.got.tgz:9379.got - 2010.06.03 17:15:25.
