data_PCOD9344910
_publ_section_title
;
Structure prediction by ZEFSAII (Michael W. Deem and Ramdas Pophale) SiO2 
 PCOD9344910
Probable space group: P N A 21
;
_chemical_formula_sum "Si O2"
_cell_formula_units_Z 24
_cell_length_a 12.736159
_cell_length_b 7.314521
_cell_length_c 10.478326
_cell_angle_alpha 90.000000
_cell_angle_beta 90.000000
_cell_angle_gamma 90.000000
_cell_volume 976.149350
_symmetry_space_group_name_H-M "P N A 21"
_symmetry_group_IT_number 33
_symmetry_cell_setting 'orthorhombic'
loop_
_space_group_symop_operation_xyz
x,y,z
-x,-y,1/2+z
1/2-x,1/2+y,1/2+z
1/2+x,1/2-y,z
loop_
_atom_site_type_symbol
_atom_site_label
_atom_site_fract_x
_atom_site_fract_y
_atom_site_fract_z
Si Si1 0.699178 0.199841 0.281040
Si Si2 0.800821 0.300161 0.872576
Si Si3 0.391706 0.664109 0.041795
Si Si4 0.824462 0.538232 0.528237
Si Si5 0.391706 0.335889 0.611822
Si Si6 0.675539 0.961769 0.625379
O O1 0.627324 0.281057 0.393490
O O2 0.795441 0.333704 0.244456
O O3 0.733678 0.000001 0.326808
O O4 0.639440 0.160374 0.147973
O O5 0.872676 0.218944 0.760126
O O6 0.860559 0.339628 0.005643
O O7 0.704558 0.166299 0.909160
O O8 0.290333 0.542252 0.067808
O O9 0.500000 0.570624 0.076808
O O10 0.389256 0.850980 0.126503
O O11 0.889256 0.350982 0.527115
O O12 0.290333 0.457746 0.585807
#
# Coordination Sequence:
#
# PCOD9344910 Si02
#       6
#     4   4   4   4   4   4
#     4   9  18  37  60  85 121 162 205 254 314 384
#     4   9  18  37  60  85 121 162 205 254 314 384
#     4  10  20  37  61  92 123 161 216 267 320 381
#     4   9  19  38  60  86 125 162 203 261 323 383
#     4  10  20  37  61  92 123 161 216 267 320 381
#     4   9  19  38  60  86 125 162 203 261 323 383
#
# _framework density 24.586404000000002
#
# number of rings (size 3 to 8) (size 9 to 14) (size 15 to 20)
#    0.000    2.667    0.000    1.000    0.000    0.000 
#    0.000   61.667    0.000    0.000    0.000    0.000 
#    0.000    0.000    0.000    0.000    0.000    0.000 
#
# Total GULP energy -133843.998694 kJ/mol
# GULP energy per Si atom -5576.833279 kJ/mol
# Density = 2.453044 g / cm^3
# Si number density = 24.586404 Si / 1000 Ang^3
#
#
#
# Elastic Constant Matrix: (Units=GPa)
#
#
# Indices 1 2 3 4 5 6 
#
# 1 82.0446 -7.9584 25.6916 0.0000 0.0000 0.0000
# 2 -7.9584 91.3950 26.0931 0.0000 0.0000 0.0000
# 3 25.6916 26.0931 138.7063 0.0000 0.0000 0.0000
# 4 0.0000 0.0000 0.0000 43.5001 0.0000 0.0000
# 5 0.0000 0.0000 0.0000 0.0000 12.8394 0.0000
# 6 0.0000 0.0000 0.0000 0.0000 0.0000 9.6722
#
#
#
# Elastic Compliance Matrix: (Units=1/GPa)
#
#
# Indices 1 2 3 4 5 6 
#
# 1 0.013264 0.001962 -0.002826 0.000000 0.000000 0.000000
# 2 0.001962 0.011853 -0.002593 0.000000 0.000000 0.000000
# 3 -0.002826 -0.002593 0.008221 0.000000 0.000000 0.000000
# 4 0.000000 0.000000 0.000000 0.022988 0.000000 0.000000
# 5 0.000000 0.000000 0.000000 0.000000 0.077885 0.000000
# 6 0.000000 0.000000 0.000000 0.000000 0.000000 0.103389
#
#
# Mechanical properties :
#
#
# Convention : Reuss Voigt Hill
#
# Bulk Modulus (GPa) = 37.84613 44.42204 41.13409
# Shear Modulus (GPa) = 19.73775 31.09031 25.41403
#
# Velocity S-wave (km/s) = 2.83643 3.55988 3.21855
# Velocity P-wave (km/s) = 5.11406 5.91642 5.52981
#
# Compressibility (1/GPa) = 0.02642278
#
# Stress axis : x y z
#
# Youngs Moduli (GPa) = 75.39399 84.36931 121.64458
#
# Poissons Ratio (x) = -0.16551 0.34374
# Poissons Ratio (y) = -0.14790 0.31543
# Poissons Ratio (z) = 0.21305 0.21877
#
# Static dielectric constant tensor:
#      x y z
#    x 1.876830 0.000000 0.000000 
#    y 0.000000 2.113170 0.000000 
#    z 0.000000 0.000000 2.130250 
# 
# From -- ./inp_files/6692.got.cif
#   From: 2010.05.17/outbox.cif.g08.bks.cpg/sg33_4_cif.got.tgz:6692.got - 2010.06.03 17:15:25.
