data_PCOD9344681
_publ_section_title
;
Structure prediction by ZEFSAII (Michael W. Deem and Ramdas Pophale) SiO2 
 PCOD9344681
Probable space group: P N A 21
;
_chemical_formula_sum "Si O2"
_cell_formula_units_Z 32
_cell_length_a 14.583297
_cell_length_b 10.052829
_cell_length_c 8.668342
_cell_angle_alpha 90.000000
_cell_angle_beta 90.000000
_cell_angle_gamma 90.000000
_cell_volume 1270.808332
_symmetry_space_group_name_H-M "P N A 21"
_symmetry_group_IT_number 33
_symmetry_cell_setting 'orthorhombic'
loop_
_space_group_symop_operation_xyz
x,y,z
-x,-y,1/2+z
1/2-x,1/2+y,1/2+z
1/2+x,1/2-y,z
loop_
_atom_site_type_symbol
_atom_site_label
_atom_site_fract_x
_atom_site_fract_y
_atom_site_fract_z
Si Si1 0.858909 0.428105 0.176290
Si Si2 0.822262 0.901038 0.839893
Si Si3 0.884353 0.823297 0.539441
Si Si4 0.032301 0.046124 0.587505
Si Si5 0.203177 0.585801 0.353459
Si Si6 0.931975 0.684492 0.243207
Si Si7 0.729443 0.735144 0.099240
Si Si8 0.336217 0.374509 0.294126
O O1 0.756368 0.473482 0.239409
O O2 0.939316 0.524094 0.237611
O O3 0.857855 0.270662 0.220850
O O4 0.863781 0.444083 0.992278
O O5 0.859901 0.792584 0.717447
O O6 0.907235 0.964297 0.930111
O O7 0.762289 0.847745 0.979734
O O8 0.790789 0.853606 0.446645
O O9 0.935365 0.725608 0.422568
O O10 0.946019 0.952935 0.563771
O O11 0.090118 0.975068 0.723749
O O12 0.019280 0.199629 0.641045
O O13 0.171845 0.697826 0.235002
O O14 0.241710 0.456721 0.264807
O O15 0.828595 0.698429 0.170537
O O16 0.674211 0.646053 0.978237
#
# Coordination Sequence:
#
# PCOD9344681 Si02
#       8
#     4   4   4   4   4   4   4   4
#     4  10  22  35  60  89 123 150 197 255 336 368
#     4   9  19  32  51  89 112 151 197 254 303 362
#     4  10  20  35  59  86 114 163 215 245 290 371
#     4  11  21  37  58  83 119 165 213 250 296 368
#     4  10  19  39  58  89 123 160 201 259 310 380
#     4  10  19  37  59  83 119 156 196 261 303 369
#     4   9  18  34  54  83 120 149 192 248 323 350
#     4  11  20  37  57  90 122 160 197 266 309 374
#
# _framework density 25.180824999999999
#
# number of rings (size 3 to 8) (size 9 to 14) (size 15 to 20)
#    0.000    2.000    5.000    0.750    0.000    4.000 
#    0.000    0.000    2.750    0.000    0.000    0.000 
#    0.000    0.000    0.000    0.000    0.000    0.000 
#
# Total GULP energy -178220.946200 kJ/mol
# GULP energy per Si atom -5569.404569 kJ/mol
# Density = 2.512351 g / cm^3
# Si number density = 25.180825 Si / 1000 Ang^3
#
#
#
# Elastic Constant Matrix: (Units=GPa)
#
#
# Indices 1 2 3 4 5 6 
#
# 1 48.7137 23.2799 23.8156 0.0000 0.0000 0.0000
# 2 23.2799 73.5936 15.6846 0.0000 0.0000 0.0000
# 3 23.8156 15.6846 131.7410 0.0000 0.0000 0.0000
# 4 0.0000 0.0000 0.0000 32.2370 0.0000 0.0000
# 5 0.0000 0.0000 0.0000 0.0000 21.9950 0.0000
# 6 0.0000 0.0000 0.0000 0.0000 0.0000 23.5095
#
#
#
# Elastic Compliance Matrix: (Units=1/GPa)
#
#
# Indices 1 2 3 4 5 6 
#
# 1 0.025919 -0.007388 -0.003806 0.000000 0.000000 0.000000
# 2 -0.007388 0.016048 -0.000575 0.000000 0.000000 0.000000
# 3 -0.003806 -0.000575 0.008347 0.000000 0.000000 0.000000
# 4 0.000000 0.000000 0.000000 0.031020 0.000000 0.000000
# 5 0.000000 0.000000 0.000000 0.000000 0.045465 0.000000
# 6 0.000000 0.000000 0.000000 0.000000 0.000000 0.042536
#
#
# Mechanical properties :
#
#
# Convention : Reuss Voigt Hill
#
# Bulk Modulus (GPa) = 37.34644 42.17873 39.76259
# Shear Modulus (GPa) = 24.77713 28.29951 26.53832
#
# Velocity S-wave (km/s) = 3.14023 3.35603 3.24992
# Velocity P-wave (km/s) = 5.29259 5.63950 5.46880
#
# Compressibility (1/GPa) = 0.02677632
#
# Stress axis : x y z
#
# Youngs Moduli (GPa) = 38.58105 62.31411 119.80143
#
# Poissons Ratio (x) = 0.46037 0.45597
# Poissons Ratio (y) = 0.28504 0.06889
# Poissons Ratio (z) = 0.14684 0.03583
#
# Static dielectric constant tensor:
#      x y z
#    x 2.055230 0.000000 0.000000 
#    y 0.000000 2.143290 0.000000 
#    z 0.000000 0.000000 1.984940 
# 
# From -- ./inp_files/4886.got.cif
#   From: 2010.05.17/outbox.cif.g08.bks.cpg/sg33_3_cif.got.tgz:4886.got - 2010.06.03 17:15:25.
