data_PCOD9344734
_publ_section_title
;
Structure prediction by ZEFSAII (Michael W. Deem and Ramdas Pophale) SiO2 
 PCOD9344734
Probable space group: P N A 21
;
_chemical_formula_sum "Si O2"
_cell_formula_units_Z 32
_cell_length_a 12.757221
_cell_length_b 11.943609
_cell_length_c 9.883798
_cell_angle_alpha 90.000000
_cell_angle_beta 90.000000
_cell_angle_gamma 90.000000
_cell_volume 1505.967215
_symmetry_space_group_name_H-M "P N A 21"
_symmetry_group_IT_number 33
_symmetry_cell_setting 'orthorhombic'
loop_
_space_group_symop_operation_xyz
x,y,z
-x,-y,1/2+z
1/2-x,1/2+y,1/2+z
1/2+x,1/2-y,z
loop_
_atom_site_type_symbol
_atom_site_label
_atom_site_fract_x
_atom_site_fract_y
_atom_site_fract_z
Si Si1 0.539674 0.301869 0.908000
Si Si2 0.492792 0.905206 0.762913
Si Si3 0.178452 0.374896 0.034948
Si Si4 0.275385 0.551118 0.384921
Si Si5 0.999294 0.644866 0.191859
Si Si6 0.666774 0.170179 0.475022
Si Si7 0.853080 0.287289 0.087040
Si Si8 0.280164 0.109574 0.572002
O O1 0.604289 0.415777 0.916445
O O2 0.492467 0.264074 0.765685
O O3 0.632068 0.208631 0.924670
O O4 0.449772 0.279603 0.017632
O O5 0.419622 0.902966 0.629692
O O6 0.429244 0.832133 0.869190
O O7 0.601970 0.853105 0.715741
O O8 0.494959 0.037928 0.794331
O O9 0.263357 0.302670 0.116846
O O10 0.226826 0.492527 0.991484
O O11 0.246081 0.424162 0.420658
O O12 0.197519 0.626336 0.478682
O O13 0.256779 0.581720 0.226807
O O14 0.097641 0.639058 0.090819
O O15 0.890859 0.632399 0.112711
O O16 0.718448 0.289223 0.504723
#
# Coordination Sequence:
#
# PCOD9344734 Si02
#       8
#     4   4   4   4   4   4   4   4
#     4  10  20  37  62  92 116 163 217 255 318 392
#     4  10  21  36  62  94 120 162 218 260 316 396
#     4   9  21  38  60  88 125 163 205 268 319 372
#     4  11  20  39  63  90 124 161 210 269 313 388
#     4  11  21  38  65  92 121 168 218 260 325 393
#     4  12  23  40  63  94 129 166 213 266 330 383
#     4  10  19  39  65  84 122 166 204 261 326 374
#     4  11  23  39  60  92 131 167 209 269 325 386
#
# _framework density 21.248802999999999
#
# number of rings (size 3 to 8) (size 9 to 14) (size 15 to 20)
#    0.000    1.500    6.250    0.000    3.500    1.000 
#    2.250    0.000    0.000    0.000    0.000    0.000 
#    0.000    0.000    0.000    0.000    0.000    0.000 
#
# Total GULP energy -178546.885014 kJ/mol
# GULP energy per Si atom -5579.590157 kJ/mol
# Density = 2.120044 g / cm^3
# Si number density = 21.248803 Si / 1000 Ang^3
#
#
#
# Elastic Constant Matrix: (Units=GPa)
#
#
# Indices 1 2 3 4 5 6 
#
# 1 39.7836 6.7183 -15.8727 0.0000 0.0000 0.0000
# 2 6.7183 65.9813 1.8151 0.0000 0.0000 0.0000
# 3 -15.8727 1.8151 28.9442 0.0000 0.0000 0.0000
# 4 0.0000 0.0000 0.0000 27.5461 0.0000 0.0000
# 5 0.0000 0.0000 0.0000 0.0000 28.2621 0.0000
# 6 0.0000 0.0000 0.0000 0.0000 0.0000 25.7091
#
#
#
# Elastic Compliance Matrix: (Units=1/GPa)
#
#
# Indices 1 2 3 4 5 6 
#
# 1 0.033139 -0.003881 0.018416 0.000000 0.000000 0.000000
# 2 -0.003881 0.015636 -0.003109 0.000000 0.000000 0.000000
# 3 0.018416 -0.003109 0.044844 0.000000 0.000000 0.000000
# 4 0.000000 0.000000 0.000000 0.036303 0.000000 0.000000
# 5 0.000000 0.000000 0.000000 0.000000 0.035383 0.000000
# 6 0.000000 0.000000 0.000000 0.000000 0.000000 0.038897
#
#
# Mechanical properties :
#
#
# Convention : Reuss Voigt Hill
#
# Bulk Modulus (GPa) = 8.58571 13.33674 10.96123
# Shear Modulus (GPa) = 22.70948 25.77335 24.24142
#
# Velocity S-wave (km/s) = 3.27271 3.48650 3.38129
# Velocity P-wave (km/s) = 4.28137 4.74317 4.51817
#
# Compressibility (1/GPa) = 0.11647256
#
# Stress axis : x y z
#
# Youngs Moduli (GPa) = 30.17590 63.95296 22.29973
#
# Poissons Ratio (x) = 0.24819 -0.41068
# Poissons Ratio (y) = 0.11711 0.06933
# Poissons Ratio (z) = -0.55573 0.19882
#
# Static dielectric constant tensor:
#      x y z
#    x 1.789720 0.000000 0.000000 
#    y 0.000000 1.799510 0.000000 
#    z 0.000000 0.000000 1.835440 
# 
# From -- ./inp_files/6487.got.cif
#   From: 2010.05.17/outbox.cif.g08.bks.cpg/sg33_4_cif.got.tgz:6487.got - 2010.06.03 17:15:25.
