data_PCOD9344089
_publ_section_title
;
Structure prediction by ZEFSAII (Michael W. Deem and Ramdas Pophale) SiO2 
 PCOD9344089
Probable space group: P B A 2
;
_chemical_formula_sum "Si O2"
_cell_formula_units_Z 20
_cell_length_a 8.689759
_cell_length_b 16.575615
_cell_length_c 5.489484
_cell_angle_alpha 90.000000
_cell_angle_beta 90.000000
_cell_angle_gamma 90.000000
_cell_volume 790.694843
_symmetry_space_group_name_H-M "P B A 2"
_symmetry_group_IT_number 32
_symmetry_cell_setting 'orthorhombic'
loop_
_space_group_symop_operation_xyz
x,y,z
-x,-y,z
1/2-x,1/2+y,z
1/2+x,1/2-y,z
loop_
_atom_site_type_symbol
_atom_site_label
_atom_site_fract_x
_atom_site_fract_y
_atom_site_fract_z
Si Si1 0.321432 0.653581 0.116530
Si Si2 0.000000 0.000000 0.195941
Si Si3 0.277200 0.904258 0.155325
Si Si4 0.099317 0.769714 0.883179
Si Si5 0.448695 0.155045 0.493209
Si Si6 0.500000 0.000000 0.830215
O O1 0.401737 0.568465 0.059413
O O2 0.218321 0.651310 0.359943
O O3 0.196024 0.689600 0.935953
O O4 0.463229 0.714415 0.073993
O O5 0.864209 0.055839 0.309190
O O6 0.403262 0.860610 0.320127
O O7 0.209750 0.844554 0.946313
O O8 0.365053 0.973663 0.010776
O O9 0.035200 0.743329 0.621544
O O10 0.460889 0.076386 0.664801
#
# Coordination Sequence:
#
# PCOD9344089 Si02
#       6
#     4   2   4   4   4   2
#     4  11  24  46  72 107 150 195 257 318 373 461
#     4  10  22  46  74 102 146 194 238 316 376 422
#     4  11  25  48  74 110 156 197 259 319 365 459
#     4  11  26  46  73 109 152 199 256 315 382 457
#     4  12  25  47  78 108 150 208 250 313 392 440
#     4  12  24  46  78 110 150 206 256 308 382 462
#
# _framework density 25.294205999999999
#
# number of rings (size 3 to 8) (size 9 to 14) (size 15 to 20)
#    0.000    0.800    0.000    7.800    0.000    6.400 
#    0.000   25.000    0.000    0.000    0.000    0.000 
#    0.000    0.000    0.000    0.000    0.000    0.000 
#
# Total GULP energy -111567.943853 kJ/mol
# GULP energy per Si atom -5578.397193 kJ/mol
# Density = 2.523664 g / cm^3
# Si number density = 25.294206 Si / 1000 Ang^3
#
#
#
# Elastic Constant Matrix: (Units=GPa)
#
#
# Indices 1 2 3 4 5 6 
#
# 1 199.8589 94.9314 60.6854 0.0000 0.0000 0.0000
# 2 94.9314 132.4006 34.8038 0.0000 0.0000 0.0000
# 3 60.6854 34.8038 71.2221 0.0000 0.0000 0.0000
# 4 0.0000 0.0000 0.0000 29.5655 0.0000 0.0000
# 5 0.0000 0.0000 0.0000 0.0000 7.3971 0.0000
# 6 0.0000 0.0000 0.0000 0.0000 0.0000 70.5814
#
#
#
# Elastic Compliance Matrix: (Units=1/GPa)
#
#
# Indices 1 2 3 4 5 6 
#
# 1 0.008991 -0.005086 -0.005175 0.000000 0.000000 0.000000
# 2 -0.005086 0.011543 -0.001307 0.000000 0.000000 0.000000
# 3 -0.005175 -0.001307 0.019089 0.000000 0.000000 0.000000
# 4 0.000000 0.000000 0.000000 0.033823 0.000000 0.000000
# 5 0.000000 0.000000 0.000000 0.000000 0.135188 0.000000
# 6 0.000000 0.000000 0.000000 0.000000 0.000000 0.014168
#
#
# Mechanical properties :
#
#
# Convention : Reuss Voigt Hill
#
# Bulk Modulus (GPa) = 60.65763 87.14699 73.90231
# Shear Modulus (GPa) = 19.88589 35.71285 27.79937
#
# Velocity S-wave (km/s) = 2.80694 3.76160 3.31878
# Velocity P-wave (km/s) = 5.87691 7.30714 6.63070
#
# Compressibility (1/GPa) = 0.01648597
#
# Stress axis : x y z
#
# Youngs Moduli (GPa) = 111.22519 86.63188 52.38610
#
# Poissons Ratio (x) = 0.44061 0.27112
# Poissons Ratio (y) = 0.56569 0.06848
# Poissons Ratio (z) = 0.57563 0.11324
#
# Static dielectric constant tensor:
#      x y z
#    x 1.940110 0.000000 0.000000 
#    y 0.000000 2.045170 0.000000 
#    z 0.000000 0.000000 2.099530 
# 
# From -- ./inp_files/434.got.cif
#   From: 2010.05.17/outbox.cif.g08.bks.cpg/sg32_1_cif.got.tgz:434.got - 2010.06.03 17:12:27.
