data_PCOD9344968
_publ_section_title
;
Structure prediction by ZEFSAII (Michael W. Deem and Ramdas Pophale) SiO2 
 PCOD9344968
Probable space group: P N A 21
;
_chemical_formula_sum "Si O2"
_cell_formula_units_Z 12
_cell_length_a 11.168508
_cell_length_b 7.799630
_cell_length_c 4.946417
_cell_angle_alpha 90.000000
_cell_angle_beta 90.000000
_cell_angle_gamma 90.000000
_cell_volume 430.883523
_symmetry_space_group_name_H-M "P N A 21"
_symmetry_group_IT_number 33
_symmetry_cell_setting 'orthorhombic'
loop_
_space_group_symop_operation_xyz
x,y,z
-x,-y,1/2+z
1/2-x,1/2+y,1/2+z
1/2+x,1/2-y,z
loop_
_atom_site_type_symbol
_atom_site_label
_atom_site_fract_x
_atom_site_fract_y
_atom_site_fract_z
Si Si1 0.283536 0.033569 0.817200
Si Si2 0.377300 0.863930 0.294278
Si Si3 0.541320 0.592635 0.038148
O O1 0.359732 0.938681 0.589835
O O2 0.227353 0.219211 0.764188
O O3 0.355913 0.020871 0.093616
O O4 0.164055 0.920901 0.875429
O O5 0.493158 0.760462 0.189929
O O6 0.549188 0.459553 0.292601
#
# Coordination Sequence:
#
# PCOD9344968 Si02
#       3
#     4   4   4
#     4  11  22  39  63  91 122 164 209 257 309 369
#     4  11  22  39  63  91 122 164 209 257 309 369
#     4  10  20  38  62  88 124 172 210 244 306 390
#
# _framework density 27.84975
#
# number of rings (size 3 to 8) (size 9 to 14) (size 15 to 20)
#    0.000    1.333    0.000   10.000    0.000    0.000 
#    0.000    6.667    0.000    4.000    0.000    0.000 
#    0.000    0.000    0.000    0.000    0.000    0.000 
#
# Total GULP energy -67222.273776 kJ/mol
# GULP energy per Si atom -5601.856148 kJ/mol
# Density = 2.778636 g / cm^3
# Si number density = 27.849750 Si / 1000 Ang^3
#
#
#
# Elastic Constant Matrix: (Units=GPa)
#
#
# Indices 1 2 3 4 5 6 
#
# 1 94.9518 30.6868 37.3515 0.0000 0.0000 0.0000
# 2 30.6868 134.0657 36.5349 0.0000 0.0000 0.0000
# 3 37.3515 36.5349 183.2036 0.0000 0.0000 0.0000
# 4 0.0000 0.0000 0.0000 61.3775 0.0000 0.0000
# 5 0.0000 0.0000 0.0000 0.0000 50.2013 0.0000
# 6 0.0000 0.0000 0.0000 0.0000 0.0000 48.1990
#
#
#
# Elastic Compliance Matrix: (Units=1/GPa)
#
#
# Indices 1 2 3 4 5 6 
#
# 1 0.012037 -0.002206 -0.002014 0.000000 0.000000 0.000000
# 2 -0.002206 0.008292 -0.001204 0.000000 0.000000 0.000000
# 3 -0.002014 -0.001204 0.006109 0.000000 0.000000 0.000000
# 4 0.000000 0.000000 0.000000 0.016293 0.000000 0.000000
# 5 0.000000 0.000000 0.000000 0.000000 0.019920 0.000000
# 6 0.000000 0.000000 0.000000 0.000000 0.000000 0.020747
#
#
# Mechanical properties :
#
#
# Convention : Reuss Voigt Hill
#
# Bulk Modulus (GPa) = 64.14477 69.04082 66.59279
# Shear Modulus (GPa) = 50.28008 52.46544 51.37276
#
# Velocity S-wave (km/s) = 4.25362 4.34507 4.29959
# Velocity P-wave (km/s) = 6.87072 7.07228 6.97223
#
# Compressibility (1/GPa) = 0.01558974
#
# Stress axis : x y z
#
# Youngs Moduli (GPa) = 83.07721 120.59681 163.68992
#
# Poissons Ratio (x) = 0.26607 0.32969
# Poissons Ratio (y) = 0.18329 0.19705
# Poissons Ratio (z) = 0.16733 0.14517
#
# Static dielectric constant tensor:
#      x y z
#    x 2.335820 0.000000 0.000000 
#    y 0.000000 2.169280 0.000000 
#    z 0.000000 0.000000 2.058630 
# 
# From -- ./inp_files/48.got.cif
#   From: 2010.05.17/outbox.cif.g08.bks.cpg/sg33_1_cif.got.tgz:48.got - 2010.06.03 17:15:25.
