data_PCOD9344128
_publ_section_title
;
Structure prediction by ZEFSAII (Michael W. Deem and Ramdas Pophale) SiO2 
 PCOD9344128
Probable space group: P B A 2
;
_chemical_formula_sum "Si O2"
_cell_formula_units_Z 14
_cell_length_a 13.232510
_cell_length_b 8.543610
_cell_length_c 5.147551
_cell_angle_alpha 90.000000
_cell_angle_beta 90.000000
_cell_angle_gamma 90.000000
_cell_volume 581.948167
_symmetry_space_group_name_H-M "P B A 2"
_symmetry_group_IT_number 32
_symmetry_cell_setting 'orthorhombic'
loop_
_space_group_symop_operation_xyz
x,y,z
-x,-y,z
1/2-x,1/2+y,z
1/2+x,1/2-y,z
loop_
_atom_site_type_symbol
_atom_site_label
_atom_site_fract_x
_atom_site_fract_y
_atom_site_fract_z
Si Si1 0.500000 0.000000 0.727941
Si Si2 0.125089 0.210146 0.749214
Si Si3 0.357092 0.532801 0.247855
Si Si4 0.326479 0.196963 0.461303
O O1 0.432543 0.862855 0.853667
O O2 0.581735 0.902801 0.565982
O O3 0.090833 0.140814 0.469960
O O4 0.255932 0.742693 0.686543
O O5 0.110917 0.076889 0.961647
O O6 0.361184 0.353120 0.320429
O O7 0.240290 0.587287 0.274966
#
# Coordination Sequence:
#
# PCOD9344128 Si02
#       4
#     2   4   4   4
#     4  12  24  50  80 116 152 216 270 310 402 470
#     4  10  24  46  70 114 142 204 247 332 369 473
#     4  10  23  44  72  99 161 190 249 317 396 437
#     4  10  23  45  75 107 155 199 255 322 390 460
#
# _framework density 24.057127000000001
#
# number of rings (size 3 to 8) (size 9 to 14) (size 15 to 20)
#    1.714    0.000    2.857    0.000    8.000    2.286 
#    5.143    2.857    0.000    0.000    0.000    0.000 
#    0.000    0.000    0.000    0.000    0.000    0.000 
#
# Total GULP energy -78192.145638 kJ/mol
# GULP energy per Si atom -5585.153260 kJ/mol
# Density = 2.400237 g / cm^3
# Si number density = 24.057127 Si / 1000 Ang^3
#
#
#
# Elastic Constant Matrix: (Units=GPa)
#
#
# Indices 1 2 3 4 5 6 
#
# 1 129.0614 51.0494 19.0134 0.0000 0.0000 0.0000
# 2 51.0494 127.7612 5.0560 0.0000 0.0000 0.0000
# 3 19.0134 5.0560 89.5787 0.0000 0.0000 0.0000
# 4 0.0000 0.0000 0.0000 37.4365 0.0000 0.0000
# 5 0.0000 0.0000 0.0000 0.0000 -23.1444 0.0000
# 6 0.0000 0.0000 0.0000 0.0000 0.0000 54.5589
#
#
#
# Elastic Compliance Matrix: (Units=1/GPa)
#
#
# Indices 1 2 3 4 5 6 
#
# 1 0.009485 -0.003718 -0.001803 0.000000 0.000000 0.000000
# 2 -0.003718 0.009302 0.000264 0.000000 0.000000 0.000000
# 3 -0.001803 0.000264 0.011531 0.000000 0.000000 0.000000
# 4 0.000000 0.000000 0.000000 0.026712 0.000000 0.000000
# 5 0.000000 0.000000 0.000000 0.000000 -0.043207 0.000000
# 6 0.000000 0.000000 0.000000 0.000000 0.000000 0.018329
#
#
# Mechanical properties :
#
#
# Convention : Reuss Voigt Hill
#
# Bulk Modulus (GPa) = 50.49662 55.18210 52.83936
# Shear Modulus (GPa) = 101.48529 31.85569 66.67049
#
# Velocity S-wave (km/s) = 6.50205 3.64286 5.27006
# Velocity P-wave (km/s) = 8.79800 6.37822 7.68396
#
# Compressibility (1/GPa) = 0.01980330
#
# Stress axis : x y z
#
# Youngs Moduli (GPa) = 105.43274 107.49892 86.72119
#
# Poissons Ratio (x) = 0.39973 0.15638
# Poissons Ratio (y) = 0.39205 -0.02291
# Poissons Ratio (z) = 0.19013 -0.02840
#
# Static dielectric constant tensor:
#      x y z
#    x 2.071140 0.000000 0.000000 
#    y 0.000000 1.856340 0.000000 
#    z 0.000000 0.000000 1.907130 
# 
# From -- ./inp_files/1097.got.cif
#   From: 2010.05.17/outbox.cif.g08.bks.cpg/sg32_1_cif.got.tgz:1097.got - 2010.06.03 17:12:27.
