data_PCOD9344413
_publ_section_title
;
Structure prediction by ZEFSAII (Michael W. Deem and Ramdas Pophale) SiO2 
 PCOD9344413
Probable space group: P N A 21
;
_chemical_formula_sum "Si O2"
_cell_formula_units_Z 20
_cell_length_a 10.310511
_cell_length_b 12.786952
_cell_length_c 5.496310
_cell_angle_alpha 90.000000
_cell_angle_beta 90.000000
_cell_angle_gamma 90.000000
_cell_volume 724.633561
_symmetry_space_group_name_H-M "P N A 21"
_symmetry_group_IT_number 33
_symmetry_cell_setting 'orthorhombic'
loop_
_space_group_symop_operation_xyz
x,y,z
-x,-y,1/2+z
1/2-x,1/2+y,1/2+z
1/2+x,1/2-y,z
loop_
_atom_site_type_symbol
_atom_site_label
_atom_site_fract_x
_atom_site_fract_y
_atom_site_fract_z
Si Si1 0.582203 0.719250 0.105050
Si Si2 0.429667 0.533014 0.105050
Si Si3 0.682480 0.048685 0.605050
Si Si4 0.164016 0.397541 0.105050
Si Si5 0.316433 0.193108 0.105050
O O1 0.443758 0.659014 0.105050
O O2 0.694125 0.627644 0.105050
O O3 0.607805 0.779152 0.356354
O O4 0.607805 0.779152 0.853746
O O5 0.500000 0.500000 0.355050
O O6 0.293751 0.472081 0.105050
O O7 0.604820 0.074309 0.361835
O O8 0.722156 0.927539 0.605050
O O9 0.604820 0.074309 0.848264
O O10 0.199664 0.275955 0.105050
#
# Coordination Sequence:
#
# PCOD9344413 Si02
#       5
#     4   4   4   4   4
#     4  10  19  30  45  69  92 118 147 183 228 265
#     4  12  16  30  48  64  98 116 140 190 236 270
#     4  10  18  29  43  63  95 122 147 178 218 274
#     4  10  19  30  45  69  92 118 147 183 228 265
#     4  10  18  29  43  63  95 122 147 178 218 274
#
# _framework density 27.600155999999998
#
# number of rings (size 3 to 8) (size 9 to 14) (size 15 to 20)
#    0.000    1.600    8.000    1.200    0.000    0.000 
#    0.000    0.000    0.000    0.000    0.000    0.000 
#    0.000  217.600    0.000    0.000    0.000    0.000 
#
# Total GULP energy -112101.068783 kJ/mol
# GULP energy per Si atom -5605.053439 kJ/mol
# Density = 2.753734 g / cm^3
# Si number density = 27.600156 Si / 1000 Ang^3
#
#
#
# Elastic Constant Matrix: (Units=GPa)
#
#
# Indices 1 2 3 4 5 6 
#
# 1 97.3638 68.0595 24.3352 0.0000 0.0000 0.0000
# 2 68.0595 215.6276 78.8639 0.0000 0.0000 0.0000
# 3 24.3352 78.8639 320.5780 0.0000 0.0000 0.0000
# 4 0.0000 0.0000 0.0000 132.6027 0.0000 0.0000
# 5 0.0000 0.0000 0.0000 0.0000 -40.9106 0.0000
# 6 0.0000 0.0000 0.0000 0.0000 0.0000 74.8242
#
#
#
# Elastic Compliance Matrix: (Units=1/GPa)
#
#
# Indices 1 2 3 4 5 6 
#
# 1 0.013179 -0.004169 0.000025 0.000000 0.000000 0.000000
# 2 -0.004169 0.006415 -0.001262 0.000000 0.000000 0.000000
# 3 0.000025 -0.001262 0.003428 0.000000 0.000000 0.000000
# 4 0.000000 0.000000 0.000000 0.007541 0.000000 0.000000
# 5 0.000000 0.000000 0.000000 0.000000 -0.024444 0.000000
# 6 0.000000 0.000000 0.000000 0.000000 0.000000 0.013365
#
#
# Mechanical properties :
#
#
# Convention : Reuss Voigt Hill
#
# Bulk Modulus (GPa) = 81.89548 108.45409 95.17479
# Shear Modulus (GPa) = 145.49877 64.12396 104.81137
#
# Velocity S-wave (km/s) = 7.26850 4.82531 6.16906
# Velocity P-wave (km/s) = 10.00889 8.39195 9.23588
#
# Compressibility (1/GPa) = 0.01221069
#
# Stress axis : x y z
#
# Youngs Moduli (GPa) = 75.88082 155.88752 291.73013
#
# Poissons Ratio (x) = 0.64987 -0.00734
# Poissons Ratio (y) = 0.31633 0.36806
# Poissons Ratio (z) = -0.00191 0.19667
#
# Static dielectric constant tensor:
#      x y z
#    x 2.185200 0.000000 0.000000 
#    y 0.000000 2.104180 0.000000 
#    z 0.000000 0.000000 2.167240 
# 
# From -- ./inp_files/753.got.cif
#   From: 2010.05.17/outbox.cif.g08.bks.cpg/sg33_1_cif.got.tgz:753.got - 2010.06.03 17:15:25.
