data_PCOD9344384
_publ_section_title
;
Structure prediction by ZEFSAII (Michael W. Deem and Ramdas Pophale) SiO2 
 PCOD9344384
Probable space group: P N A 21
;
_chemical_formula_sum "Si O2"
_cell_formula_units_Z 20
_cell_length_a 5.524194
_cell_length_b 9.906751
_cell_length_c 18.634643
_cell_angle_alpha 90.000000
_cell_angle_beta 90.000000
_cell_angle_gamma 90.000000
_cell_volume 1019.814649
_symmetry_space_group_name_H-M "P N A 21"
_symmetry_group_IT_number 33
_symmetry_cell_setting 'orthorhombic'
loop_
_space_group_symop_operation_xyz
x,y,z
-x,-y,1/2+z
1/2-x,1/2+y,1/2+z
1/2+x,1/2-y,z
loop_
_atom_site_type_symbol
_atom_site_label
_atom_site_fract_x
_atom_site_fract_y
_atom_site_fract_z
Si Si1 0.247458 0.164607 0.901790
Si Si2 0.219624 0.532112 0.089096
Si Si3 0.727889 0.333339 0.737897
Si Si4 0.719084 0.517209 0.038385
Si Si5 0.208999 0.242070 0.141968
O O1 0.499909 0.247495 0.911275
O O2 0.243148 0.114551 0.819390
O O3 0.241142 0.047965 0.960516
O O4 0.243738 0.562632 0.173278
O O5 0.458396 0.584163 0.049297
O O6 0.209308 0.367634 0.085660
O O7 0.968692 0.589392 0.058938
O O8 0.462533 0.264879 0.730097
O O9 0.708297 0.395395 0.097085
O O10 0.459183 0.248719 0.183968
#
# Coordination Sequence:
#
# PCOD9344384 Si02
#       5
#     4   4   4   4   4
#     4  10  18  30  48  71 102 127 150 196 251 292
#     4  10  18  29  46  69  95 124 158 191 234 284
#     4  10  21  34  47  68 100 135 163 191 231 283
#     4  10  17  28  48  74  96 115 150 200 249 287
#     4   8  14  23  39  64  89 107 135 182 233 274
#
# _framework density 19.611408999999998
#
# number of rings (size 3 to 8) (size 9 to 14) (size 15 to 20)
#    0.000    2.400    0.000    6.000    0.000    0.000 
#    0.000    0.000    0.000    0.000    0.000   25.200 
#    0.000    0.000    0.000    0.000    0.000    0.000 
#
# Total GULP energy -111349.909180 kJ/mol
# GULP energy per Si atom -5567.495459 kJ/mol
# Density = 1.956677 g / cm^3
# Si number density = 19.611409 Si / 1000 Ang^3
#
#
#
# Elastic Constant Matrix: (Units=GPa)
#
#
# Indices 1 2 3 4 5 6 
#
# 1 167.2809 -5.2791 0.2790 0.0000 0.0000 0.0000
# 2 -5.2791 30.3250 5.8169 0.0000 0.0000 0.0000
# 3 0.2790 5.8169 80.5682 0.0000 0.0000 0.0000
# 4 0.0000 0.0000 0.0000 19.3798 0.0000 0.0000
# 5 0.0000 0.0000 0.0000 0.0000 23.2794 0.0000
# 6 0.0000 0.0000 0.0000 0.0000 0.0000 2.0474
#
#
#
# Elastic Compliance Matrix: (Units=1/GPa)
#
#
# Indices 1 2 3 4 5 6 
#
# 1 0.006012 0.001065 -0.000098 0.000000 0.000000 0.000000
# 2 0.001065 0.033628 -0.002432 0.000000 0.000000 0.000000
# 3 -0.000098 -0.002432 0.012588 0.000000 0.000000 0.000000
# 4 0.000000 0.000000 0.000000 0.051600 0.000000 0.000000
# 5 0.000000 0.000000 0.000000 0.000000 0.042956 0.000000
# 6 0.000000 0.000000 0.000000 0.000000 0.000000 0.488421
#
#
# Mechanical properties :
#
#
# Convention : Reuss Voigt Hill
#
# Bulk Modulus (GPa) = 20.28420 31.08974 25.68697
# Shear Modulus (GPa) = 7.63865 27.43181 17.53523
#
# Velocity S-wave (km/s) = 1.97572 3.74407 2.99345
# Velocity P-wave (km/s) = 3.94590 5.88031 5.00740
#
# Compressibility (1/GPa) = 0.04929946
#
# Stress axis : x y z
#
# Youngs Moduli (GPa) = 166.34094 29.73713 79.44234
#
# Poissons Ratio (x) = -0.03168 0.00776
# Poissons Ratio (y) = -0.17720 0.19317
# Poissons Ratio (z) = 0.01626 0.07231
#
# Static dielectric constant tensor:
#      x y z
#    x 1.881570 0.000000 0.000000 
#    y 0.000000 1.709650 0.000000 
#    z 0.000000 0.000000 1.625920 
# 
# From -- ./inp_files/5393.got.cif
#   From: 2010.05.17/outbox.cif.g08.bks.cpg/sg33_3_cif.got.tgz:5393.got - 2010.06.03 17:15:25.
