data_PCOD9344320
_publ_section_title
;
Structure prediction by ZEFSAII (Michael W. Deem and Ramdas Pophale) SiO2 
 PCOD9344320
Probable space group: P B A 2
;
_chemical_formula_sum "Si O2"
_cell_formula_units_Z 20
_cell_length_a 32.163889
_cell_length_b 5.148072
_cell_length_c 5.241093
_cell_angle_alpha 90.000000
_cell_angle_beta 90.000000
_cell_angle_gamma 90.000000
_cell_volume 867.830747
_symmetry_space_group_name_H-M "P B A 2"
_symmetry_group_IT_number 32
_symmetry_cell_setting 'orthorhombic'
loop_
_space_group_symop_operation_xyz
x,y,z
-x,-y,z
1/2-x,1/2+y,z
1/2+x,1/2-y,z
loop_
_atom_site_type_symbol
_atom_site_label
_atom_site_fract_x
_atom_site_fract_y
_atom_site_fract_z
Si Si1 0.952260 0.582188 0.115030
Si Si2 0.047648 0.080874 0.636591
Si Si3 0.222312 0.286860 0.902444
Si Si4 0.390515 0.246050 0.379581
Si Si5 0.832938 0.756685 0.405195
O O1 0.921931 0.340022 0.156930
O O2 0.000000 0.500000 0.077158
O O3 0.950810 0.751733 0.375246
O O4 0.938420 0.750009 0.875231
O O5 0.139021 0.992969 0.343690
O O6 0.077365 0.835739 0.597117
O O7 0.000000 0.000000 0.676340
O O8 0.241092 0.574979 0.881245
O O9 0.199606 0.268471 0.174482
O O10 0.190787 0.223102 0.673357
O O11 0.361821 0.997169 0.424378
#
# Coordination Sequence:
#
# PCOD9344320 Si02
#       5
#     4   4   4   4   4
#     4  12  27  47  74 107 153 214 268 319 379 451
#     4  12  27  47  74 107 153 214 268 319 379 451
#     4  12  26  52  80 110 150 192 244 298 380 482
#     4  12  28  50  74 116 160 194 260 322 382 438
#     4  12  28  46  80 116 150 194 244 314 386 448
#
# _framework density 23.045970000000001
#
# number of rings (size 3 to 8) (size 9 to 14) (size 15 to 20)
#    0.000    0.000    4.000    4.800    2.800    3.200 
#    0.000    0.000    0.000    0.000    0.000    0.000 
#    0.000    0.000    0.000    0.000    0.000    0.000 
#
# Total GULP energy -112157.818207 kJ/mol
# GULP energy per Si atom -5607.890910 kJ/mol
# Density = 2.299352 g / cm^3
# Si number density = 23.045970 Si / 1000 Ang^3
#
#
#
# Elastic Constant Matrix: (Units=GPa)
#
#
# Indices 1 2 3 4 5 6 
#
# 1 70.9602 25.0734 1.4159 0.0000 0.0000 0.0000
# 2 25.0734 137.7437 40.7362 0.0000 0.0000 0.0000
# 3 1.4159 40.7362 135.5946 0.0000 0.0000 0.0000
# 4 0.0000 0.0000 0.0000 48.3296 0.0000 0.0000
# 5 0.0000 0.0000 0.0000 0.0000 -303.8681 0.0000
# 6 0.0000 0.0000 0.0000 0.0000 0.0000 51.4175
#
#
#
# Elastic Compliance Matrix: (Units=1/GPa)
#
#
# Indices 1 2 3 4 5 6 
#
# 1 0.015127 -0.002971 0.000735 0.000000 0.000000 0.000000
# 2 -0.002971 0.008551 -0.002538 0.000000 0.000000 0.000000
# 3 0.000735 -0.002538 0.008130 0.000000 0.000000 0.000000
# 4 0.000000 0.000000 0.000000 0.020691 0.000000 0.000000
# 5 0.000000 0.000000 0.000000 0.000000 -0.003291 0.000000
# 6 0.000000 0.000000 0.000000 0.000000 0.000000 0.019449
#
#
# Mechanical properties :
#
#
# Convention : Reuss Voigt Hill
#
# Bulk Modulus (GPa) = 44.92394 53.19438 49.05916
# Shear Modulus (GPa) = 58.39349 -22.35265 18.02042
#
# Velocity S-wave (km/s) = 5.03913 -3.11773 2.79934
# Velocity P-wave (km/s) = 7.30703 3.18931 5.63757
#
# Compressibility (1/GPa) = 0.02225985
#
# Stress axis : x y z
#
# Youngs Moduli (GPa) = 66.10479 116.94225 123.00527
#
# Poissons Ratio (x) = 0.34742 -0.09036
# Poissons Ratio (y) = 0.19639 0.31219
# Poissons Ratio (z) = -0.04856 0.29680
#
# Static dielectric constant tensor:
#      x y z
#    x 1.843240 0.000000 0.000000 
#    y 0.000000 1.864950 0.000000 
#    z 0.000000 0.000000 1.847550 
# 
# From -- ./inp_files/1711.got.cif
#   From: 2010.05.17/outbox.cif.g08.bks.cpg/sg32_1_cif.got.tgz:1711.got - 2010.06.03 17:12:27.
