data_PCOD9344539
_publ_section_title
;
Structure prediction by ZEFSAII (Michael W. Deem and Ramdas Pophale) SiO2 
 PCOD9344539
Probable space group: P N A 21
;
_chemical_formula_sum "Si O2"
_cell_formula_units_Z 32
_cell_length_a 14.402240
_cell_length_b 22.699948
_cell_length_c 6.243537
_cell_angle_alpha 90.000000
_cell_angle_beta 90.000000
_cell_angle_gamma 90.000000
_cell_volume 2041.200170
_symmetry_space_group_name_H-M "P N A 21"
_symmetry_group_IT_number 33
_symmetry_cell_setting 'orthorhombic'
loop_
_space_group_symop_operation_xyz
x,y,z
-x,-y,1/2+z
1/2-x,1/2+y,1/2+z
1/2+x,1/2-y,z
loop_
_atom_site_type_symbol
_atom_site_label
_atom_site_fract_x
_atom_site_fract_y
_atom_site_fract_z
Si Si1 0.698307 0.273808 0.612120
Si Si2 0.332012 0.815828 0.489119
Si Si3 0.331420 0.260292 0.234306
Si Si4 0.923637 0.563835 0.372157
Si Si5 0.963956 0.363321 0.552528
Si Si6 0.036711 0.249605 0.315503
Si Si7 0.309641 0.150984 0.910597
Si Si8 0.105930 0.556794 0.673223
O O1 0.785768 0.258279 0.460122
O O2 0.612435 0.285837 0.453265
O O3 0.722318 0.327745 0.770282
O O4 0.680791 0.216769 0.761797
O O5 0.237686 0.806840 0.623957
O O6 0.363141 0.883548 0.473829
O O7 0.411002 0.778050 0.612482
O O8 0.438380 0.279224 0.256178
O O9 0.326487 0.202472 0.083402
O O10 0.874700 0.503919 0.296810
O O11 0.962226 0.592547 0.154291
O O12 0.011710 0.550347 0.528716
O O13 0.894801 0.349046 0.745254
O O14 0.914862 0.395792 0.357173
O O15 0.008960 0.304661 0.463575
O O16 0.315753 0.087456 0.025132
#
# Coordination Sequence:
#
# PCOD9344539 Si02
#       8
#     4   4   4   4   4   4   4   4
#     4  10  20  31  49  71  98 142 168 212 254 309
#     4  10  21  31  48  73 103 140 169 209 254 314
#     4  10  20  33  48  70 100 141 171 208 258 315
#     4  11  20  31  44  72 101 143 179 197 252 308
#     4  11  18  30  48  69 102 140 170 204 247 304
#     4  11  18  31  51  69  98 143 172 210 258 311
#     4  10  19  32  46  68  98 138 173 207 253 300
#     4  11  20  29  48  68 102 143 176 207 240 317
#
# _framework density 15.677051000000001
#
# number of rings (size 3 to 8) (size 9 to 14) (size 15 to 20)
#    0.000    1.500    6.250    0.750    0.000    0.000 
#    0.000    0.000    0.000    0.000    0.000    0.000 
#    0.000    0.000  191.250    0.000    0.000    0.000 
#
# Total GULP energy -178292.695525 kJ/mol
# GULP energy per Si atom -5571.646735 kJ/mol
# Density = 1.564137 g / cm^3
# Si number density = 15.677051 Si / 1000 Ang^3
#
#
#
# Elastic Constant Matrix: (Units=GPa)
#
#
# Indices 1 2 3 4 5 6 
#
# 1 86.2274 35.3070 25.8093 0.0000 0.0000 0.0000
# 2 35.3070 72.4576 24.5799 0.0000 0.0000 0.0000
# 3 25.8093 24.5799 74.0820 0.0000 0.0000 0.0000
# 4 0.0000 0.0000 0.0000 29.2373 0.0000 0.0000
# 5 0.0000 0.0000 0.0000 0.0000 22.2146 0.0000
# 6 0.0000 0.0000 0.0000 0.0000 0.0000 20.1473
#
#
#
# Elastic Compliance Matrix: (Units=1/GPa)
#
#
# Indices 1 2 3 4 5 6 
#
# 1 0.015126 -0.006291 -0.003182 0.000000 0.000000 0.000000
# 2 -0.006291 0.018168 -0.003836 0.000000 0.000000 0.000000
# 3 -0.003182 -0.003836 0.015880 0.000000 0.000000 0.000000
# 4 0.000000 0.000000 0.000000 0.034203 0.000000 0.000000
# 5 0.000000 0.000000 0.000000 0.000000 0.045015 0.000000
# 6 0.000000 0.000000 0.000000 0.000000 0.000000 0.049634
#
#
# Mechanical properties :
#
#
# Convention : Reuss Voigt Hill
#
# Bulk Modulus (GPa) = 44.33671 44.90659 44.62165
# Shear Modulus (GPa) = 23.56670 24.12456 23.84563
#
# Velocity S-wave (km/s) = 3.88140 3.92707 3.90430
# Velocity P-wave (km/s) = 6.95914 7.01922 6.98925
#
# Compressibility (1/GPa) = 0.02255467
#
# Stress axis : x y z
#
# Youngs Moduli (GPa) = 66.11288 55.04184 62.97183
#
# Poissons Ratio (x) = 0.34626 0.20040
# Poissons Ratio (y) = 0.41591 0.24158
# Poissons Ratio (z) = 0.21039 0.21116
#
# Static dielectric constant tensor:
#      x y z
#    x 1.548240 0.000000 0.000000 
#    y 0.000000 1.520140 0.000000 
#    z 0.000000 0.000000 1.558180 
# 
# From -- ./inp_files/1149.got.cif
#   From: 2010.05.17/outbox.cif.g08.bks.cpg/sg33_1_cif.got.tgz:1149.got - 2010.06.03 17:15:25.
