data_PCOD9344590
_publ_section_title
;
Structure prediction by ZEFSAII (Michael W. Deem and Ramdas Pophale) SiO2 
 PCOD9344590
Probable space group: P N A 21
;
_chemical_formula_sum "Si O2"
_cell_formula_units_Z 32
_cell_length_a 10.819341
_cell_length_b 15.577425
_cell_length_c 9.541302
_cell_angle_alpha 90.000000
_cell_angle_beta 90.000000
_cell_angle_gamma 90.000000
_cell_volume 1608.066928
_symmetry_space_group_name_H-M "P N A 21"
_symmetry_group_IT_number 33
_symmetry_cell_setting 'orthorhombic'
loop_
_space_group_symop_operation_xyz
x,y,z
-x,-y,1/2+z
1/2-x,1/2+y,1/2+z
1/2+x,1/2-y,z
loop_
_atom_site_type_symbol
_atom_site_label
_atom_site_fract_x
_atom_site_fract_y
_atom_site_fract_z
Si Si1 0.096125 0.040325 0.006190
Si Si2 0.876248 0.533123 0.673586
Si Si3 0.327594 0.251596 0.329310
Si Si4 0.331690 0.137499 0.058698
Si Si5 0.918649 0.674441 0.893281
Si Si6 0.037273 0.415214 0.878164
Si Si7 0.599174 0.559103 0.740120
Si Si8 0.310945 0.945093 0.133011
O O1 0.170891 0.962142 0.084161
O O2 0.201457 0.113354 0.985728
O O3 0.048140 0.003399 0.860524
O O4 0.992304 0.070658 0.111610
O O5 0.906370 0.626297 0.743107
O O6 0.945424 0.466110 0.774044
O O7 0.730053 0.521334 0.691045
O O8 0.909483 0.532102 0.510159
O O9 0.317469 0.207957 0.176919
O O10 0.190195 0.254080 0.395217
O O11 0.441106 0.205740 0.408742
O O12 0.370380 0.349223 0.307949
O O13 0.356371 0.044941 0.136166
O O14 0.445169 0.152515 0.952678
O O15 0.879211 0.605598 0.009661
O O16 0.153512 0.397792 0.776602
#
# Coordination Sequence:
#
# PCOD9344590 Si02
#       8
#     4   4   4   4   4   4   4   4
#     4  10  21  41  58  94 124 165 212 263 299 394
#     4  11  19  35  58  93 120 161 201 266 306 372
#     4  11  21  37  65  91 125 171 209 260 321 379
#     4  10  19  34  61  89 118 154 211 260 297 367
#     4  11  20  40  61  88 128 168 212 260 322 377
#     4  12  18  34  62  94 116 154 213 260 315 351
#     4  11  23  38  62  92 127 165 214 253 321 383
#     4  10  21  37  63  87 128 158 212 270 299 375
#
# _framework density 19.899668999999999
#
# number of rings (size 3 to 8) (size 9 to 14) (size 15 to 20)
#    0.750    0.500    7.500    0.750    1.750    0.000 
#    0.000    1.250    8.250    0.000    0.000    0.000 
#    0.000    0.000    0.000    0.000    0.000    0.000 
#
# Total GULP energy -178166.693251 kJ/mol
# GULP energy per Si atom -5567.709164 kJ/mol
# Density = 1.985438 g / cm^3
# Si number density = 19.899669 Si / 1000 Ang^3
#
#
#
# Elastic Constant Matrix: (Units=GPa)
#
#
# Indices 1 2 3 4 5 6 
#
# 1 51.6462 -0.7888 8.4223 0.0000 0.0000 0.0000
# 2 -0.7888 21.1136 -0.3800 0.0000 0.0000 0.0000
# 3 8.4223 -0.3800 83.5853 0.0000 0.0000 0.0000
# 4 0.0000 0.0000 0.0000 28.1942 0.0000 0.0000
# 5 0.0000 0.0000 0.0000 0.0000 32.6940 0.0000
# 6 0.0000 0.0000 0.0000 0.0000 0.0000 20.3854
#
#
#
# Elastic Compliance Matrix: (Units=1/GPa)
#
#
# Indices 1 2 3 4 5 6 
#
# 1 0.019696 0.000700 -0.001981 0.000000 0.000000 0.000000
# 2 0.000700 0.047392 0.000145 0.000000 0.000000 0.000000
# 3 -0.001981 0.000145 0.012164 0.000000 0.000000 0.000000
# 4 0.000000 0.000000 0.000000 0.035468 0.000000 0.000000
# 5 0.000000 0.000000 0.000000 0.000000 0.030587 0.000000
# 6 0.000000 0.000000 0.000000 0.000000 0.000000 0.049055
#
#
# Mechanical properties :
#
#
# Convention : Reuss Voigt Hill
#
# Bulk Modulus (GPa) = 12.99048 18.98355 15.98702
# Shear Modulus (GPa) = 22.49270 26.19415 24.34342
#
# Velocity S-wave (km/s) = 3.36565 3.63204 3.50138
# Velocity P-wave (km/s) = 4.65248 5.21049 4.93938
#
# Compressibility (1/GPa) = 0.07697943
#
# Stress axis : x y z
#
# Youngs Moduli (GPa) = 50.77083 21.10075 82.20887
#
# Poissons Ratio (x) = -0.01477 0.16289
# Poissons Ratio (y) = -0.03555 -0.01191
# Poissons Ratio (z) = 0.10060 -0.00306
#
# Static dielectric constant tensor:
#      x y z
#    x 1.800960 0.000000 0.000000 
#    y 0.000000 1.694770 0.000000 
#    z 0.000000 0.000000 1.702340 
# 
# From -- ./inp_files/4062.got.cif
#   From: 2010.05.17/outbox.cif.g08.bks.cpg/sg33_3_cif.got.tgz:4062.got - 2010.06.03 17:15:25.
