data_PCOD9344920
_publ_section_title
;
Structure prediction by ZEFSAII (Michael W. Deem and Ramdas Pophale) SiO2 
 PCOD9344920
Probable space group: P N A 21
;
_chemical_formula_sum "Si O2"
_cell_formula_units_Z 28
_cell_length_a 9.529233
_cell_length_b 15.717627
_cell_length_c 6.959255
_cell_angle_alpha 90.000000
_cell_angle_beta 90.000000
_cell_angle_gamma 90.000000
_cell_volume 1042.335848
_symmetry_space_group_name_H-M "P N A 21"
_symmetry_group_IT_number 33
_symmetry_cell_setting 'orthorhombic'
loop_
_space_group_symop_operation_xyz
x,y,z
-x,-y,1/2+z
1/2-x,1/2+y,1/2+z
1/2+x,1/2-y,z
loop_
_atom_site_type_symbol
_atom_site_label
_atom_site_fract_x
_atom_site_fract_y
_atom_site_fract_z
Si Si1 0.471061 0.853126 0.826870
Si Si2 0.805063 0.940251 0.390936
Si Si3 0.205995 0.011516 0.440068
Si Si4 0.557131 0.666597 0.357002
Si Si5 0.992970 0.493162 0.021606
Si Si6 0.956155 0.111871 0.437601
Si Si7 0.207539 0.759091 0.691445
O O1 0.453196 0.905230 0.027449
O O2 0.365869 0.777849 0.761554
O O3 0.626219 0.816227 0.799367
O O4 0.135037 0.843670 0.778456
O O5 0.897564 0.855577 0.423666
O O6 0.644443 0.943237 0.453405
O O7 0.881804 0.021705 0.485920
O O8 0.806870 0.960385 0.163344
O O9 0.368243 0.003389 0.385133
O O10 0.105862 0.083795 0.352926
O O11 0.138571 0.921272 0.395852
O O12 0.545030 0.672089 0.125590
O O13 0.646502 0.736533 0.472556
O O14 0.940095 0.570494 0.677270
#
# Coordination Sequence:
#
# PCOD9344920 Si02
#       7
#     4   4   4   4   4   4   4
#     4  12  30  46  78 104 158 187 255 299 386 429
#     4  10  20  37  63 105 145 186 247 295 354 449
#     4  10  20  37  63 105 145 186 247 295 354 449
#     4  10  21  39  70 100 140 192 238 300 366 437
#     4  12  22  44  66 104 136 206 232 302 334 466
#     4  10  21  39  70 100 140 192 238 300 366 437
#     4  12  26  54  64 116 146 189 241 319 368 451
#
# _framework density 26.862742999999998
#
# number of rings (size 3 to 8) (size 9 to 14) (size 15 to 20)
#    0.000    1.143    5.714    0.000    8.000    0.000 
#    2.571    0.000    0.000    0.000    0.000    0.000 
#    0.000    0.000    0.000    0.000    0.000    0.000 
#
# Total GULP energy -156357.655857 kJ/mol
# GULP energy per Si atom -5584.201995 kJ/mol
# Density = 2.680160 g / cm^3
# Si number density = 26.862743 Si / 1000 Ang^3
#
#
#
# Elastic Constant Matrix: (Units=GPa)
#
#
# Indices 1 2 3 4 5 6 
#
# 1 179.8957 21.9346 -13.9236 0.0000 0.0000 0.0000
# 2 21.9346 102.7829 5.2590 0.0000 0.0000 0.0000
# 3 -13.9236 5.2590 50.8007 0.0000 0.0000 0.0000
# 4 0.0000 0.0000 0.0000 33.3454 0.0000 0.0000
# 5 0.0000 0.0000 0.0000 0.0000 28.0666 0.0000
# 6 0.0000 0.0000 0.0000 0.0000 0.0000 45.0439
#
#
#
# Elastic Compliance Matrix: (Units=1/GPa)
#
#
# Indices 1 2 3 4 5 6 
#
# 1 0.005857 -0.001339 0.001744 0.000000 0.000000 0.000000
# 2 -0.001339 0.010087 -0.001411 0.000000 0.000000 0.000000
# 3 0.001744 -0.001411 0.020309 0.000000 0.000000 0.000000
# 4 0.000000 0.000000 0.000000 0.029989 0.000000 0.000000
# 5 0.000000 0.000000 0.000000 0.000000 0.035630 0.000000
# 6 0.000000 0.000000 0.000000 0.000000 0.000000 0.022201
#
#
# Mechanical properties :
#
#
# Convention : Reuss Voigt Hill
#
# Bulk Modulus (GPa) = 29.20551 40.00215 34.60383
# Shear Modulus (GPa) = 36.36394 42.63846 39.50120
#
# Velocity S-wave (km/s) = 3.68325 3.98838 3.83885
# Velocity P-wave (km/s) = 5.38369 6.01109 5.70602
#
# Compressibility (1/GPa) = 0.03424011
#
# Stress axis : x y z
#
# Youngs Moduli (GPa) = 170.73481 99.13512 49.23957
#
# Poissons Ratio (x) = 0.13276 -0.08587
# Poissons Ratio (y) = 0.22864 0.06949
# Poissons Ratio (z) = -0.29775 0.13991
#
# Static dielectric constant tensor:
#      x y z
#    x 2.153400 0.000000 0.000000 
#    y 0.000000 2.083100 0.000000 
#    z 0.000000 0.000000 2.823510 
# 
# From -- ./inp_files/3361.got.cif
#   From: 2010.05.17/outbox.cif.g08.bks.cpg/sg33_2_cif.got.tgz:3361.got - 2010.06.03 17:15:25.
