data_PCOD9344865
_publ_section_title
;
Structure prediction by ZEFSAII (Michael W. Deem and Ramdas Pophale) SiO2 
 PCOD9344865
Probable space group: P N A 21
;
_chemical_formula_sum "Si O2"
_cell_formula_units_Z 24
_cell_length_a 14.018660
_cell_length_b 5.072114
_cell_length_c 13.701880
_cell_angle_alpha 90.000000
_cell_angle_beta 90.000000
_cell_angle_gamma 90.000000
_cell_volume 974.261787
_symmetry_space_group_name_H-M "P N A 21"
_symmetry_group_IT_number 33
_symmetry_cell_setting 'orthorhombic'
loop_
_space_group_symop_operation_xyz
x,y,z
-x,-y,1/2+z
1/2-x,1/2+y,1/2+z
1/2+x,1/2-y,z
loop_
_atom_site_type_symbol
_atom_site_label
_atom_site_fract_x
_atom_site_fract_y
_atom_site_fract_z
Si Si1 0.303439 0.754297 0.327340
Si Si2 0.508318 0.537663 0.631950
Si Si3 0.760486 0.952277 0.126536
Si Si4 0.233370 0.552018 0.526954
Si Si5 0.936392 0.245285 0.327797
Si Si6 0.508244 0.034195 0.530154
O O1 0.243627 0.671710 0.232220
O O2 0.245089 0.709001 0.426063
O O3 0.385869 0.535391 0.340847
O O4 0.354416 0.034088 0.308980
O O5 0.623738 0.494434 0.623615
O O6 0.496632 0.687864 0.734560
O O7 0.472526 0.243681 0.611087
O O8 0.472768 0.738925 0.549183
O O9 0.726025 0.247007 0.107433
O O10 0.728154 0.743718 0.043616
O O11 0.121354 0.502579 0.541131
O O12 0.987559 0.346874 0.424586
#
# Coordination Sequence:
#
# PCOD9344865 Si02
#       6
#     4   4   4   4   4   4
#     4  11  21  36  58  84 110 145 187 231 276 329
#     4   9  18  34  56  78 107 148 185 216 270 341
#     4   9  18  34  56  78 106 146 185 217 268 341
#     4  10  20  36  57  80 108 145 186 226 271 328
#     4  11  21  36  58  85 112 145 187 231 276 329
#     4  10  20  36  57  81 109 145 186 227 271 328
#
# _framework density 24.634038
#
# number of rings (size 3 to 8) (size 9 to 14) (size 15 to 20)
#    0.000    2.000    0.000    7.000    0.000    0.000 
#    0.000    5.000    0.000    0.000    0.000    0.000 
#    0.000    0.000    0.000    0.000    0.000    0.000 
#
# Total GULP energy -134023.616965 kJ/mol
# GULP energy per Si atom -5584.317374 kJ/mol
# Density = 2.457797 g / cm^3
# Si number density = 24.634038 Si / 1000 Ang^3
#
#
#
# Elastic Constant Matrix: (Units=GPa)
#
#
# Indices 1 2 3 4 5 6 
#
# 1 63.5671 1.2608 -1.3370 0.0000 0.0000 0.0000
# 2 1.2608 128.1506 54.4668 0.0000 0.0000 0.0000
# 3 -1.3370 54.4668 129.9445 0.0000 0.0000 0.0000
# 4 0.0000 0.0000 0.0000 37.9582 0.0000 0.0000
# 5 0.0000 0.0000 0.0000 0.0000 26.9943 0.0000
# 6 0.0000 0.0000 0.0000 0.0000 0.0000 -0.3048
#
#
#
# Elastic Compliance Matrix: (Units=1/GPa)
#
#
# Indices 1 2 3 4 5 6 
#
# 1 0.015743 -0.000272 0.000276 0.000000 0.000000 0.000000
# 2 -0.000272 0.009500 -0.003985 0.000000 0.000000 0.000000
# 3 0.000276 -0.003985 0.009369 0.000000 0.000000 0.000000
# 4 0.000000 0.000000 0.000000 0.026345 0.000000 0.000000
# 5 0.000000 0.000000 0.000000 0.000000 0.037045 0.000000
# 6 0.000000 0.000000 0.000000 0.000000 0.000000 -3.280893
#
#
# Mechanical properties :
#
#
# Convention : Reuss Voigt Hill
#
# Bulk Modulus (GPa) = 37.52443 47.82703 42.67573
# Shear Modulus (GPa) = -1.57926 30.74766 14.58420
#
# Velocity S-wave (km/s) = -0.80155 3.53679 2.43582
# Velocity P-wave (km/s) = 3.79594 6.01129 5.02717
#
# Compressibility (1/GPa) = 0.02664930
#
# Stress axis : x y z
#
# Youngs Moduli (GPa) = 63.52187 105.26845 106.73971
#
# Poissons Ratio (x) = 0.02866 -0.02947
# Poissons Ratio (y) = 0.01729 0.42531
# Poissons Ratio (z) = -0.01754 0.41945
#
# Static dielectric constant tensor:
#      x y z
#    x 1.996970 0.000000 0.000000 
#    y 0.000000 1.917320 0.000000 
#    z 0.000000 0.000000 2.091100 
# 
# From -- ./inp_files/6907.got.cif
#   From: 2010.05.17/outbox.cif.g08.bks.cpg/sg33_4_cif.got.tgz:6907.got - 2010.06.03 17:15:25.
