data_PCOD9344017
_publ_section_title
;
Structure prediction by ZEFSAII (Michael W. Deem and Ramdas Pophale) SiO2 
 PCOD9344017
Probable space group: P B A 2
;
_chemical_formula_sum "Si O2"
_cell_formula_units_Z 30
_cell_length_a 8.897292
_cell_length_b 9.968790
_cell_length_c 12.809232
_cell_angle_alpha 90.000000
_cell_angle_beta 90.000000
_cell_angle_gamma 90.000000
_cell_volume 1136.117849
_symmetry_space_group_name_H-M "P B A 2"
_symmetry_group_IT_number 32
_symmetry_cell_setting 'orthorhombic'
loop_
_space_group_symop_operation_xyz
x,y,z
-x,-y,z
1/2-x,1/2+y,z
1/2+x,1/2-y,z
loop_
_atom_site_type_symbol
_atom_site_label
_atom_site_fract_x
_atom_site_fract_y
_atom_site_fract_z
Si Si1 0.547449 0.640729 0.254550
Si Si2 0.323690 0.162496 0.434635
Si Si3 0.309910 0.630659 0.847966
Si Si4 0.000000 0.500000 0.301307
Si Si5 0.339021 0.360232 0.717591
Si Si6 0.849011 0.689965 0.142194
Si Si7 0.018925 0.645411 0.930297
Si Si8 0.080036 0.268394 0.580666
O O1 0.500000 0.500000 0.303407
O O2 0.619455 0.725987 0.351462
O O3 0.679861 0.651594 0.167554
O O4 0.395199 0.663633 0.182377
O O5 0.354841 0.027483 0.371506
O O6 0.166863 0.194254 0.486960
O O7 0.440097 0.158398 0.529783
O O8 0.331766 0.482888 0.800295
O O9 0.209052 0.718238 0.768971
O O10 0.454563 0.721421 0.873994
O O11 0.198205 0.642182 0.948526
O O12 0.957802 0.619138 0.226550
O O13 0.201123 0.367128 0.634470
O O14 0.497982 0.337607 0.658914
O O15 0.916836 0.644419 0.032918
O O16 0.000000 0.500000 0.873903
#
# Coordination Sequence:
#
# PCOD9344017 Si02
#       8
#     4   4   4   2   4   4   4   4
#     4  11  26  45  76 110 165 211 269 328 399 487
#     4  10  22  45  69 117 149 211 258 323 382 464
#     4  12  27  51  81 113 156 203 269 335 423 485
#     4  10  22  38  78 100 160 198 262 318 390 462
#     4  11  26  49  77 116 154 209 259 334 416 481
#     4  11  25  46  74 112 153 210 262 326 408 476
#     4  12  26  51  79 115 154 205 264 342 403 508
#     4  10  24  46  75 111 156 202 269 325 393 488
#
# _framework density 26.405711
#
# number of rings (size 3 to 8) (size 9 to 14) (size 15 to 20)
#    0.000    1.067    2.000    3.200    5.600    5.333 
#    7.200    0.000    0.000    0.000    0.000    0.000 
#    0.000    0.000    0.000    0.000    0.000    0.000 
#
# Total GULP energy -167520.721842 kJ/mol
# GULP energy per Si atom -5584.024061 kJ/mol
# Density = 2.634561 g / cm^3
# Si number density = 26.405711 Si / 1000 Ang^3
#
#
#
# Elastic Constant Matrix: (Units=GPa)
#
#
# Indices 1 2 3 4 5 6 
#
# 1 161.6740 46.1401 31.0908 0.0000 0.0000 0.0000
# 2 46.1401 117.5628 46.0560 0.0000 0.0000 0.0000
# 3 31.0908 46.0560 100.0932 0.0000 0.0000 0.0000
# 4 0.0000 0.0000 0.0000 46.8444 0.0000 0.0000
# 5 0.0000 0.0000 0.0000 0.0000 53.1719 0.0000
# 6 0.0000 0.0000 0.0000 0.0000 0.0000 24.1831
#
#
#
# Elastic Compliance Matrix: (Units=1/GPa)
#
#
# Indices 1 2 3 4 5 6 
#
# 1 0.007067 -0.002334 -0.001121 0.000000 0.000000 0.000000
# 2 -0.002334 0.011148 -0.004404 0.000000 0.000000 0.000000
# 3 -0.001121 -0.004404 0.012365 0.000000 0.000000 0.000000
# 4 0.000000 0.000000 0.000000 0.021347 0.000000 0.000000
# 5 0.000000 0.000000 0.000000 0.000000 0.018807 0.000000
# 6 0.000000 0.000000 0.000000 0.000000 0.000000 0.041351
#
#
# Mechanical properties :
#
#
# Convention : Reuss Voigt Hill
#
# Bulk Modulus (GPa) = 67.29146 69.54487 68.41817
# Shear Modulus (GPa) = 37.66231 41.90942 39.78586
#
# Velocity S-wave (km/s) = 3.78073 3.98821 3.88585
# Velocity P-wave (km/s) = 6.67814 6.89942 6.78968
#
# Compressibility (1/GPa) = 0.01486073
#
# Stress axis : x y z
#
# Youngs Moduli (GPa) = 141.50074 89.70453 80.87061
#
# Poissons Ratio (x) = 0.20941 0.09066
# Poissons Ratio (y) = 0.33033 0.35618
# Poissons Ratio (z) = 0.15862 0.39508
#
# Static dielectric constant tensor:
#      x y z
#    x 2.062630 0.000000 0.000000 
#    y 0.000000 1.934560 0.000000 
#    z 0.000000 0.000000 2.161980 
# 
# From -- ./inp_files/4126.got.cif
#   From: 2010.05.17/outbox.cif.g08.bks.cpg/sg32_3_cif.got.tgz:4126.got - 2010.06.03 17:12:27.
