data_PCOD9344249
_publ_section_title
;
Structure prediction by ZEFSAII (Michael W. Deem and Ramdas Pophale) SiO2 
 PCOD9344249
Probable space group: P B A 2
;
_chemical_formula_sum "Si O2"
_cell_formula_units_Z 32
_cell_length_a 15.223772
_cell_length_b 10.770426
_cell_length_c 9.224295
_cell_angle_alpha 90.000000
_cell_angle_beta 90.000000
_cell_angle_gamma 90.000000
_cell_volume 1512.475456
_symmetry_space_group_name_H-M "P B A 2"
_symmetry_group_IT_number 32
_symmetry_cell_setting 'orthorhombic'
loop_
_space_group_symop_operation_xyz
x,y,z
-x,-y,z
1/2-x,1/2+y,z
1/2+x,1/2-y,z
loop_
_atom_site_type_symbol
_atom_site_label
_atom_site_fract_x
_atom_site_fract_y
_atom_site_fract_z
Si Si1 0.444542 0.682698 0.731070
Si Si2 0.674269 0.269888 0.271295
Si Si3 0.586279 0.419579 0.049933
Si Si4 0.866554 0.282105 0.765244
Si Si5 0.150010 0.439949 0.778322
Si Si6 0.777268 0.138405 0.026121
Si Si7 0.758979 0.157065 0.537678
Si Si8 0.900140 0.981401 0.451829
O O1 0.549344 0.699036 0.726674
O O2 0.406327 0.821812 0.728548
O O3 0.413420 0.596119 0.600258
O O4 0.416331 0.624738 0.883934
O O5 0.596101 0.299534 0.154952
O O6 0.687427 0.181985 0.412461
O O7 0.665952 0.400865 0.353441
O O8 0.749099 0.220384 0.163433
O O9 0.500000 0.500000 0.076803
O O10 0.666682 0.516505 0.064692
O O11 0.892622 0.425254 0.782454
O O12 0.829484 0.226266 0.914453
O O13 0.790748 0.268261 0.643234
O O14 0.193851 0.408712 0.932682
O O15 0.225064 0.442575 0.654371
O O16 0.849113 0.109191 0.468554
O O17 0.000000 0.000000 0.396514
#
# Coordination Sequence:
#
# PCOD9344249 Si02
#       8
#     4   4   4   4   4   4   4   4
#     4  12  22  45  71 103 133 173 237 288 346 402
#     4  12  25  42  63  99 137 179 220 271 343 408
#     4  12  24  45  73 100 138 179 228 287 337 404
#     4  11  23  42  69 100 135 177 223 288 348 398
#     4  11  23  40  66  96 139 178 222 284 341 398
#     4  11  24  41  67 101 136 174 229 281 336 410
#     4  11  24  41  67 101 136 174 229 281 336 410
#     4  12  24  45  73 100 138 179 228 287 337 404
#
# _framework density 21.157367000000001
#
# number of rings (size 3 to 8) (size 9 to 14) (size 15 to 20)
#    0.000    0.500    5.000    4.875    3.500    0.000 
#    0.000    0.000    0.000    1.500    0.000    0.000 
#    0.000    0.000    0.000    0.000    0.000    0.000 
#
# Total GULP energy -178411.046230 kJ/mol
# GULP energy per Si atom -5575.345195 kJ/mol
# Density = 2.110921 g / cm^3
# Si number density = 21.157367 Si / 1000 Ang^3
#
#
#
# Elastic Constant Matrix: (Units=GPa)
#
#
# Indices 1 2 3 4 5 6 
#
# 1 50.2477 21.7015 22.3246 0.0000 0.0000 0.0000
# 2 21.7015 96.5112 39.6328 0.0000 0.0000 0.0000
# 3 22.3246 39.6328 142.2426 0.0000 0.0000 0.0000
# 4 0.0000 0.0000 0.0000 21.5022 0.0000 0.0000
# 5 0.0000 0.0000 0.0000 0.0000 18.4082 0.0000
# 6 0.0000 0.0000 0.0000 0.0000 0.0000 40.2030
#
#
#
# Elastic Compliance Matrix: (Units=1/GPa)
#
#
# Indices 1 2 3 4 5 6 
#
# 1 0.022758 -0.004122 -0.002423 0.000000 0.000000 0.000000
# 2 -0.004122 0.012447 -0.002821 0.000000 0.000000 0.000000
# 3 -0.002423 -0.002821 0.008197 0.000000 0.000000 0.000000
# 4 0.000000 0.000000 0.000000 0.046507 0.000000 0.000000
# 5 0.000000 0.000000 0.000000 0.000000 0.054324 0.000000
# 6 0.000000 0.000000 0.000000 0.000000 0.000000 0.024874
#
#
# Mechanical properties :
#
#
# Convention : Reuss Voigt Hill
#
# Bulk Modulus (GPa) = 40.53734 50.70215 45.61975
# Shear Modulus (GPa) = 25.50207 29.71218 27.60713
#
# Velocity S-wave (km/s) = 3.47558 3.75152 3.61619
# Velocity P-wave (km/s) = 5.94203 6.54076 6.24857
#
# Compressibility (1/GPa) = 0.02466861
#
# Stress axis : x y z
#
# Youngs Moduli (GPa) = 43.93969 80.34108 122.00175
#
# Poissons Ratio (x) = 0.33119 0.29564
# Poissons Ratio (y) = 0.18113 0.34418
# Poissons Ratio (z) = 0.10648 0.22665
#
# Static dielectric constant tensor:
#      x y z
#    x 1.816110 0.000000 0.000000 
#    y 0.000000 1.771590 0.000000 
#    z 0.000000 0.000000 1.802850 
# 
# From -- ./inp_files/3080.got.cif
#   From: 2010.05.17/outbox.cif.g08.bks.cpg/sg32_2_cif.got.tgz:3080.got - 2010.06.03 17:12:27.
