data_PCOD9344873
_publ_section_title
;
Structure prediction by ZEFSAII (Michael W. Deem and Ramdas Pophale) SiO2 
 PCOD9344873
Probable space group: P N A 21
;
_chemical_formula_sum "Si O2"
_cell_formula_units_Z 28
_cell_length_a 8.648002
_cell_length_b 14.063065
_cell_length_c 8.634896
_cell_angle_alpha 90.000000
_cell_angle_beta 90.000000
_cell_angle_gamma 90.000000
_cell_volume 1050.153724
_symmetry_space_group_name_H-M "P N A 21"
_symmetry_group_IT_number 33
_symmetry_cell_setting 'orthorhombic'
loop_
_space_group_symop_operation_xyz
x,y,z
-x,-y,1/2+z
1/2-x,1/2+y,1/2+z
1/2+x,1/2-y,z
loop_
_atom_site_type_symbol
_atom_site_label
_atom_site_fract_x
_atom_site_fract_y
_atom_site_fract_z
Si Si1 0.606432 0.222813 0.758370
Si Si2 0.310146 0.434951 0.438789
Si Si3 0.962933 0.431912 0.978219
Si Si4 0.099588 0.270347 0.405722
Si Si5 0.800406 0.075394 0.098986
Si Si6 0.811589 0.295472 0.201357
Si Si7 0.080056 0.892682 0.276661
O O1 0.556282 0.237709 0.581275
O O2 0.782043 0.188048 0.769017
O O3 0.568586 0.327774 0.820086
O O4 0.516394 0.135396 0.837604
O O5 0.135067 0.474662 0.449288
O O6 0.265553 0.324353 0.412553
O O7 0.362343 0.465746 0.264326
O O8 0.395683 0.439299 0.604764
O O9 0.836581 0.370774 0.068684
O O10 0.120203 0.451595 0.073440
O O11 0.158884 0.182335 0.302405
O O12 0.964272 0.311784 0.303678
O O13 0.803850 0.191227 0.118865
O O14 0.879328 0.050827 0.934862
#
# Coordination Sequence:
#
# PCOD9344873 Si02
#       7
#     4   4   4   4   4   4   4
#     4  10  20  36  58  89 114 156 204 252 296 372
#     4  10  22  37  56  92 124 150 201 259 310 352
#     4  11  22  36  61  90 124 160 202 260 314 366
#     4  10  21  34  61  89 124 157 208 258 309 368
#     4  10  21  36  58  90 119 158 201 254 305 368
#     4  11  19  38  57  94 118 164 202 257 305 372
#     4  10  21  37  61  88 119 157 202 252 307 362
#
# _framework density 26.662763999999999
#
# number of rings (size 3 to 8) (size 9 to 14) (size 15 to 20)
#    0.000    1.714    4.286    2.571    6.000    0.000 
#    0.000    0.000    0.000    5.143    7.429    0.000 
#    0.000    0.000    0.000    0.000    0.000    0.000 
#
# Total GULP energy -156216.496137 kJ/mol
# GULP energy per Si atom -5579.160576 kJ/mol
# Density = 2.660208 g / cm^3
# Si number density = 26.662764 Si / 1000 Ang^3
#
#
#
# Elastic Constant Matrix: (Units=GPa)
#
#
# Indices 1 2 3 4 5 6 
#
# 1 63.1298 19.1365 81.6870 0.0000 0.0000 0.0000
# 2 19.1365 28.4270 22.7302 0.0000 0.0000 0.0000
# 3 81.6870 22.7302 211.4249 0.0000 0.0000 0.0000
# 4 0.0000 0.0000 0.0000 30.3500 0.0000 0.0000
# 5 0.0000 0.0000 0.0000 0.0000 46.2820 0.0000
# 6 0.0000 0.0000 0.0000 0.0000 0.0000 37.4867
#
#
#
# Elastic Compliance Matrix: (Units=1/GPa)
#
#
# Indices 1 2 3 4 5 6 
#
# 1 0.036440 -0.014521 -0.012518 0.000000 0.000000 0.000000
# 2 -0.014521 0.044273 0.000851 0.000000 0.000000 0.000000
# 3 -0.012518 0.000851 0.009475 0.000000 0.000000 0.000000
# 4 0.000000 0.000000 0.000000 0.032949 0.000000 0.000000
# 5 0.000000 0.000000 0.000000 0.000000 0.021607 0.000000
# 6 0.000000 0.000000 0.000000 0.000000 0.000000 0.026676
#
#
# Mechanical properties :
#
#
# Convention : Reuss Voigt Hill
#
# Bulk Modulus (GPa) = 26.44748 61.12101 43.78425
# Shear Modulus (GPa) = 21.15061 34.78558 27.96809
#
# Velocity S-wave (km/s) = 2.81955 3.61591 3.24227
# Velocity P-wave (km/s) = 4.53217 6.35662 5.52029
#
# Compressibility (1/GPa) = 0.03781079
#
# Stress axis : x y z
#
# Youngs Moduli (GPa) = 27.44259 22.58707 105.54327
#
# Poissons Ratio (x) = 0.32799 1.32117
# Poissons Ratio (y) = 0.39850 -0.08979
# Poissons Ratio (z) = 0.34352 -0.01922
#
# Static dielectric constant tensor:
#      x y z
#    x 2.140660 0.000000 0.000000 
#    y 0.000000 2.206220 0.000000 
#    z 0.000000 0.000000 2.233240 
# 
# From -- ./inp_files/3292.got.cif
#   From: 2010.05.17/outbox.cif.g08.bks.cpg/sg33_2_cif.got.tgz:3292.got - 2010.06.03 17:15:25.
