data_PCOD9344880
_publ_section_title
;
Structure prediction by ZEFSAII (Michael W. Deem and Ramdas Pophale) SiO2 
 PCOD9344880
Probable space group: P N A 21
;
_chemical_formula_sum "Si O2"
_cell_formula_units_Z 28
_cell_length_a 8.319028
_cell_length_b 5.503754
_cell_length_c 23.631315
_cell_angle_alpha 90.000000
_cell_angle_beta 90.000000
_cell_angle_gamma 90.000000
_cell_volume 1081.980639
_symmetry_space_group_name_H-M "P N A 21"
_symmetry_group_IT_number 33
_symmetry_cell_setting 'orthorhombic'
loop_
_space_group_symop_operation_xyz
x,y,z
-x,-y,1/2+z
1/2-x,1/2+y,1/2+z
1/2+x,1/2-y,z
loop_
_atom_site_type_symbol
_atom_site_label
_atom_site_fract_x
_atom_site_fract_y
_atom_site_fract_z
Si Si1 0.259305 0.664872 0.517280
Si Si2 0.481070 0.380846 0.357900
Si Si3 0.008205 0.912092 0.597884
Si Si4 0.948207 0.456291 0.250693
Si Si5 0.719401 0.223215 0.842543
Si Si6 0.471250 0.014779 0.447336
Si Si7 0.269246 0.904045 0.676037
O O1 0.390841 0.489530 0.548006
O O2 0.351740 0.906740 0.495137
O O3 0.129423 0.739001 0.564017
O O4 0.148904 0.561013 0.467425
O O5 0.501320 0.204728 0.304597
O O6 0.302354 0.492058 0.351599
O O7 0.613782 0.587860 0.348747
O O8 0.490266 0.284077 0.422047
O O9 0.888309 0.754382 0.636274
O O10 0.135243 0.049921 0.638983
O O11 0.102616 0.540750 0.215315
O O12 0.850985 0.669193 0.280658
O O13 0.832582 0.287189 0.213146
O O14 0.608406 0.107507 0.891835
#
# Coordination Sequence:
#
# PCOD9344880 Si02
#       7
#     4   4   4   4   4   4   4
#     4   9  17  36  62 103 138 183 217 280 350 410
#     4  11  25  41  60  92 136 186 236 282 326 415
#     4   8  16  30  61 101 139 168 231 268 348 403
#     4  10  20  36  61  93 136 177 229 266 344 396
#     4  11  24  40  60  91 131 185 233 280 329 411
#     4  10  22  39  65  95 136 175 234 273 349 403
#     4   9  16  32  59 101 134 180 218 281 338 398
#
# _framework density 25.878468000000002
#
# number of rings (size 3 to 8) (size 9 to 14) (size 15 to 20)
#    0.000    2.286    1.429    0.857    2.000    3.429 
#    0.000    2.857    0.000    0.000    0.000  252.000 
#    0.000    0.000    0.000    0.000    0.000    0.000 
#
# Total GULP energy -156289.214781 kJ/mol
# GULP energy per Si atom -5581.757671 kJ/mol
# Density = 2.581957 g / cm^3
# Si number density = 25.878468 Si / 1000 Ang^3
#
#
#
# Elastic Constant Matrix: (Units=GPa)
#
#
# Indices 1 2 3 4 5 6 
#
# 1 174.1880 36.4306 86.0492 0.0000 0.0000 0.0000
# 2 36.4306 31.6417 16.9461 0.0000 0.0000 0.0000
# 3 86.0492 16.9461 129.1182 0.0000 0.0000 0.0000
# 4 0.0000 0.0000 0.0000 8.2226 0.0000 0.0000
# 5 0.0000 0.0000 0.0000 0.0000 80.7706 0.0000
# 6 0.0000 0.0000 0.0000 0.0000 0.0000 23.2533
#
#
#
# Elastic Compliance Matrix: (Units=1/GPa)
#
#
# Indices 1 2 3 4 5 6 
#
# 1 0.010486 -0.008961 -0.005812 0.000000 0.000000 0.000000
# 2 -0.008961 0.041650 0.000505 0.000000 0.000000 0.000000
# 3 -0.005812 0.000505 0.011552 0.000000 0.000000 0.000000
# 4 0.000000 0.000000 0.000000 0.121616 0.000000 0.000000
# 5 0.000000 0.000000 0.000000 0.000000 0.012381 0.000000
# 6 0.000000 0.000000 0.000000 0.000000 0.000000 0.043005
#
#
# Mechanical properties :
#
#
# Convention : Reuss Voigt Hill
#
# Bulk Modulus (GPa) = 28.44703 68.19998 48.32350
# Shear Modulus (GPa) = 17.79722 35.48410 26.64066
#
# Velocity S-wave (km/s) = 2.62529 3.70697 3.21199
# Velocity P-wave (km/s) = 4.49510 6.68829 5.69821
#
# Compressibility (1/GPa) = 0.03515305
#
# Stress axis : x y z
#
# Youngs Moduli (GPa) = 95.36208 24.00963 86.56379
#
# Poissons Ratio (x) = 0.21514 0.50315
# Poissons Ratio (y) = 0.85449 -0.04374
# Poissons Ratio (z) = 0.55429 -0.01213
#
# Static dielectric constant tensor:
#      x y z
#    x 2.046070 0.000000 0.000000 
#    y 0.000000 2.141610 0.000000 
#    z 0.000000 0.000000 2.093390 
# 
# From -- ./inp_files/9252.got.cif
#   From: 2010.05.17/outbox.cif.g08.bks.cpg/sg33_5_cif.got.tgz:9252.got - 2010.06.03 17:15:25.
