data_PCOD9344476
_publ_section_title
;
Structure prediction by ZEFSAII (Michael W. Deem and Ramdas Pophale) SiO2 
 PCOD9344476
Probable space group: P N A 21
;
_chemical_formula_sum "Si O2"
_cell_formula_units_Z 32
_cell_length_a 12.278712
_cell_length_b 11.552817
_cell_length_c 12.783273
_cell_angle_alpha 90.000000
_cell_angle_beta 90.000000
_cell_angle_gamma 90.000000
_cell_volume 1813.354736
_symmetry_space_group_name_H-M "P N A 21"
_symmetry_group_IT_number 33
_symmetry_cell_setting 'orthorhombic'
loop_
_space_group_symop_operation_xyz
x,y,z
-x,-y,1/2+z
1/2-x,1/2+y,1/2+z
1/2+x,1/2-y,z
loop_
_atom_site_type_symbol
_atom_site_label
_atom_site_fract_x
_atom_site_fract_y
_atom_site_fract_z
Si Si1 0.295696 0.304854 0.195960
Si Si2 0.869868 0.463017 0.175609
Si Si3 0.595597 0.687031 0.907265
Si Si4 0.658933 0.947277 0.899817
Si Si5 0.852057 0.040423 0.607323
Si Si6 0.597463 0.482750 0.345958
Si Si7 0.584945 0.117446 0.074926
Si Si8 0.019272 0.855389 0.529072
O O1 0.321232 0.167749 0.186839
O O2 0.314708 0.339690 0.316698
O O3 0.175942 0.334178 0.154403
O O4 0.387850 0.360262 0.119497
O O5 0.879030 0.508593 0.293176
O O6 0.778443 0.530113 0.111214
O O7 0.988467 0.453386 0.128828
O O8 0.594855 0.826433 0.911854
O O9 0.490531 0.619802 0.860942
O O10 0.616966 0.639735 0.024139
O O11 0.787418 0.929297 0.881535
O O12 0.643005 0.033131 0.994680
O O13 0.890269 0.035786 0.729137
O O14 0.913634 0.929004 0.561193
O O15 0.566063 0.585878 0.425081
O O16 0.523163 0.224764 0.020281
#
# Coordination Sequence:
#
# PCOD9344476 Si02
#       8
#     4   4   4   4   4   4   4   4
#     4  10  18  35  58  88 107 150 201 241 284 349
#     4   9  21  34  56  82 115 151 190 242 289 346
#     4  10  22  35  63  88 115 154 198 246 294 357
#     4  10  22  38  57  87 118 158 190 248 305 348
#     4  10  19  37  58  87 115 152 197 243 292 351
#     4  10  20  38  63  84 121 156 201 245 296 357
#     4  11  21  36  60  85 120 151 201 245 292 358
#     4  10  19  35  61  85 111 154 202 244 290 346
#
# _framework density 17.646850000000001
#
# number of rings (size 3 to 8) (size 9 to 14) (size 15 to 20)
#    0.000    2.000    3.750    0.000    0.000    2.000 
#    2.250    0.000   13.750    0.000    0.000    0.000 
#    0.000    0.000    0.000    0.000    0.000    0.000 
#
# Total GULP energy -178215.368647 kJ/mol
# GULP energy per Si atom -5569.230270 kJ/mol
# Density = 1.760669 g / cm^3
# Si number density = 17.646850 Si / 1000 Ang^3
#
#
#
# Elastic Constant Matrix: (Units=GPa)
#
#
# Indices 1 2 3 4 5 6 
#
# 1 78.4741 8.7709 34.2617 0.0000 0.0000 0.0000
# 2 8.7709 29.9912 19.6676 0.0000 0.0000 0.0000
# 3 34.2617 19.6676 92.3565 0.0000 0.0000 0.0000
# 4 0.0000 0.0000 0.0000 18.0288 0.0000 0.0000
# 5 0.0000 0.0000 0.0000 0.0000 22.9511 0.0000
# 6 0.0000 0.0000 0.0000 0.0000 0.0000 18.4123
#
#
#
# Elastic Compliance Matrix: (Units=1/GPa)
#
#
# Indices 1 2 3 4 5 6 
#
# 1 0.015225 -0.000870 -0.005463 0.000000 0.000000 0.000000
# 2 -0.000870 0.038805 -0.007941 0.000000 0.000000 0.000000
# 3 -0.005463 -0.007941 0.014545 0.000000 0.000000 0.000000
# 4 0.000000 0.000000 0.000000 0.055467 0.000000 0.000000
# 5 0.000000 0.000000 0.000000 0.000000 0.043571 0.000000
# 6 0.000000 0.000000 0.000000 0.000000 0.000000 0.054312
#
#
# Mechanical properties :
#
#
# Convention : Reuss Voigt Hill
#
# Bulk Modulus (GPa) = 24.98266 36.24691 30.61479
# Shear Modulus (GPa) = 18.95266 21.08655 20.01960
#
# Velocity S-wave (km/s) = 3.28074 3.46051 3.37183
# Velocity P-wave (km/s) = 5.34217 6.04579 5.70484
#
# Compressibility (1/GPa) = 0.04002776
#
# Stress axis : x y z
#
# Youngs Moduli (GPa) = 65.67965 25.76990 68.75123
#
# Poissons Ratio (x) = 0.02243 0.37558
# Poissons Ratio (y) = 0.05716 0.54594
# Poissons Ratio (z) = 0.35880 0.20463
#
# Static dielectric constant tensor:
#      x y z
#    x 1.618640 0.000000 0.000000 
#    y 0.000000 1.586490 0.000000 
#    z 0.000000 0.000000 1.625270 
# 
# From -- ./inp_files/6460.got.cif
#   From: 2010.05.17/outbox.cif.g08.bks.cpg/sg33_4_cif.got.tgz:6460.got - 2010.06.03 17:15:25.
