data_PCOD9344614
_publ_section_title
;
Structure prediction by ZEFSAII (Michael W. Deem and Ramdas Pophale) SiO2 
 PCOD9344614
Probable space group: P N A 21
;
_chemical_formula_sum "Si O2"
_cell_formula_units_Z 32
_cell_length_a 9.331318
_cell_length_b 9.044824
_cell_length_c 15.602861
_cell_angle_alpha 90.000000
_cell_angle_beta 90.000000
_cell_angle_gamma 90.000000
_cell_volume 1316.883481
_symmetry_space_group_name_H-M "P N A 21"
_symmetry_group_IT_number 33
_symmetry_cell_setting 'orthorhombic'
loop_
_space_group_symop_operation_xyz
x,y,z
-x,-y,1/2+z
1/2-x,1/2+y,1/2+z
1/2+x,1/2-y,z
loop_
_atom_site_type_symbol
_atom_site_label
_atom_site_fract_x
_atom_site_fract_y
_atom_site_fract_z
Si Si1 0.643542 0.094293 0.597300
Si Si2 0.903087 0.366000 0.714561
Si Si3 0.347665 0.446725 0.758978
Si Si4 0.690392 0.276578 0.967248
Si Si5 0.410089 0.993210 0.359295
Si Si6 0.656547 0.587120 0.740010
Si Si7 0.937312 0.257918 0.077997
Si Si8 0.197657 0.401677 0.416314
O O1 0.509389 0.183122 0.638200
O O2 0.765293 0.059104 0.667611
O O3 0.573161 0.935436 0.574009
O O4 0.714416 0.163202 0.511923
O O5 0.857837 0.229319 0.773775
O O6 0.765035 0.466740 0.697799
O O7 0.007866 0.466049 0.770596
O O8 0.250934 0.525940 0.830372
O O9 0.505254 0.510962 0.758892
O O10 0.604553 0.162597 0.908749
O O11 0.737368 0.430653 0.925248
O O12 0.831718 0.199245 0.004258
O O13 0.592512 0.300254 0.051785
O O14 0.524114 0.096584 0.406109
O O15 0.619188 0.709261 0.669894
O O16 0.728496 0.646556 0.827655
#
# Coordination Sequence:
#
# PCOD9344614 Si02
#       8
#     4   4   4   4   4   4   4   4
#     4  10  21  42  62  85 126 171 205 252 317 378
#     4  10  21  37  61  84 120 162 205 252 314 368
#     4  11  22  37  63  91 122 156 208 257 314 368
#     4  11  19  35  59  92 122 154 212 264 308 353
#     4  10  19  35  58  89 117 149 194 264 315 346
#     4  11  22  36  59  95 123 156 207 264 316 365
#     4  11  23  36  62  91 126 163 204 262 316 375
#     4  10  21  36  58  87 124 163 203 251 306 375
#
# _framework density 24.299795
#
# number of rings (size 3 to 8) (size 9 to 14) (size 15 to 20)
#    0.000    1.500    2.500    6.000    1.750    0.000 
#    0.000    0.000   13.750    0.000    0.000    0.000 
#    0.000    0.000    0.000    0.000    0.000    0.000 
#
# Total GULP energy -178675.009890 kJ/mol
# GULP energy per Si atom -5583.594059 kJ/mol
# Density = 2.424449 g / cm^3
# Si number density = 24.299795 Si / 1000 Ang^3
#
#
#
# Elastic Constant Matrix: (Units=GPa)
#
#
# Indices 1 2 3 4 5 6 
#
# 1 129.5703 13.0611 29.8384 0.0000 0.0000 0.0000
# 2 13.0611 45.1091 -0.3933 0.0000 0.0000 0.0000
# 3 29.8384 -0.3933 102.3408 0.0000 0.0000 0.0000
# 4 0.0000 0.0000 0.0000 28.1495 0.0000 0.0000
# 5 0.0000 0.0000 0.0000 0.0000 39.8957 0.0000
# 6 0.0000 0.0000 0.0000 0.0000 0.0000 10.3007
#
#
#
# Elastic Compliance Matrix: (Units=1/GPa)
#
#
# Indices 1 2 3 4 5 6 
#
# 1 0.008545 -0.002496 -0.002501 0.000000 0.000000 0.000000
# 2 -0.002496 0.022898 0.000816 0.000000 0.000000 0.000000
# 3 -0.002501 0.000816 0.010504 0.000000 0.000000 0.000000
# 4 0.000000 0.000000 0.000000 0.035525 0.000000 0.000000
# 5 0.000000 0.000000 0.000000 0.000000 0.025065 0.000000
# 6 0.000000 0.000000 0.000000 0.000000 0.000000 0.097081
#
#
# Mechanical properties :
#
#
# Convention : Reuss Voigt Hill
#
# Bulk Modulus (GPa) = 29.77562 40.22584 35.00073
# Shear Modulus (GPa) = 22.81277 31.30345 27.05811
#
# Velocity S-wave (km/s) = 3.06732 3.59307 3.34055
# Velocity P-wave (km/s) = 4.98243 5.81407 5.41424
#
# Compressibility (1/GPa) = 0.03358453
#
# Stress axis : x y z
#
# Youngs Moduli (GPa) = 117.02201 43.67130 95.20528
#
# Poissons Ratio (x) = 0.10901 0.23812
# Poissons Ratio (y) = 0.29210 -0.07766
# Poissons Ratio (z) = 0.29268 -0.03563
#
# Static dielectric constant tensor:
#      x y z
#    x 1.975630 0.000000 0.000000 
#    y 0.000000 1.975060 0.000000 
#    z 0.000000 0.000000 2.061580 
# 
# From -- ./inp_files/7705.got.cif
#   From: 2010.05.17/outbox.cif.g08.bks.cpg/sg33_4_cif.got.tgz:7705.got - 2010.06.03 17:15:25.
