data_PCOD9344464
_publ_section_title
;
Structure prediction by ZEFSAII (Michael W. Deem and Ramdas Pophale) SiO2 
 PCOD9344464
Probable space group: P N A 21
;
_chemical_formula_sum "Si O2"
_cell_formula_units_Z 32
_cell_length_a 15.346788
_cell_length_b 6.589571
_cell_length_c 14.005130
_cell_angle_alpha 90.000000
_cell_angle_beta 90.000000
_cell_angle_gamma 90.000000
_cell_volume 1416.321279
_symmetry_space_group_name_H-M "P N A 21"
_symmetry_group_IT_number 33
_symmetry_cell_setting 'orthorhombic'
loop_
_space_group_symop_operation_xyz
x,y,z
-x,-y,1/2+z
1/2-x,1/2+y,1/2+z
1/2+x,1/2-y,z
loop_
_atom_site_type_symbol
_atom_site_label
_atom_site_fract_x
_atom_site_fract_y
_atom_site_fract_z
Si Si1 0.667558 0.321498 0.451810
Si Si2 0.594518 0.463693 0.024036
Si Si3 0.344958 0.108172 0.541186
Si Si4 0.909258 0.675451 0.365016
Si Si5 0.235353 0.234653 0.129277
Si Si6 0.403394 0.079513 0.859525
Si Si7 0.080509 0.837829 0.554842
Si Si8 0.772207 0.110688 0.786386
O O1 0.753183 0.283607 0.514073
O O2 0.597429 0.432627 0.517971
O O3 0.703231 0.496417 0.383337
O O4 0.631823 0.140554 0.387993
O O5 0.593961 0.697455 0.053866
O O6 0.691263 0.372471 0.037783
O O7 0.520513 0.343558 0.085040
O O8 0.574984 0.396111 0.914694
O O9 0.384351 0.979686 0.451958
O O10 0.316831 0.947921 0.622844
O O11 0.827636 0.681542 0.294223
O O12 0.998459 0.593422 0.320345
O O13 0.338220 0.279276 0.121451
O O14 0.217589 0.065608 0.208577
O O15 0.338291 0.202187 0.791201
O O16 0.411023 0.189804 0.963538
#
# Coordination Sequence:
#
# PCOD9344464 Si02
#       8
#     4   4   4   4   4   4   4   4
#     4   9  17  32  55  82 111 147 194 245 288 342
#     4  10  18  34  61  83 111 151 201 246 284 338
#     4   9  17  32  57  83 110 148 197 243 290 340
#     4   9  19  34  57  89 110 147 201 250 283 340
#     4  10  21  36  53  81 123 155 185 235 299 359
#     4  10  18  34  61  84 111 151 202 242 289 339
#     4   9  19  34  57  86 111 147 200 250 284 340
#     4  10  21  36  53  82 123 154 186 237 297 358
#
# _framework density 22.593744999999998
#
# number of rings (size 3 to 8) (size 9 to 14) (size 15 to 20)
#    0.000    2.500    0.000    4.500    0.000    1.000 
#    2.250    0.000   11.000    0.000    0.000    0.000 
#    0.000    0.000    0.000    0.000    0.000    0.000 
#
# Total GULP energy -178199.080229 kJ/mol
# GULP energy per Si atom -5568.721257 kJ/mol
# Density = 2.254232 g / cm^3
# Si number density = 22.593745 Si / 1000 Ang^3
#
#
#
# Elastic Constant Matrix: (Units=GPa)
#
#
# Indices 1 2 3 4 5 6 
#
# 1 149.8932 41.7068 9.1065 0.0000 0.0000 0.0000
# 2 41.7068 88.8349 11.1199 0.0000 0.0000 0.0000
# 3 9.1065 11.1199 14.8734 0.0000 0.0000 0.0000
# 4 0.0000 0.0000 0.0000 33.1525 0.0000 0.0000
# 5 0.0000 0.0000 0.0000 0.0000 3.0383 0.0000
# 6 0.0000 0.0000 0.0000 0.0000 0.0000 29.6543
#
#
#
# Elastic Compliance Matrix: (Units=1/GPa)
#
#
# Indices 1 2 3 4 5 6 
#
# 1 0.007740 -0.003355 -0.002231 0.000000 0.000000 0.000000
# 2 -0.003355 0.013873 -0.008318 0.000000 0.000000 0.000000
# 3 -0.002231 -0.008318 0.074819 0.000000 0.000000 0.000000
# 4 0.000000 0.000000 0.000000 0.030164 0.000000 0.000000
# 5 0.000000 0.000000 0.000000 0.000000 0.329130 0.000000
# 6 0.000000 0.000000 0.000000 0.000000 0.000000 0.033722
#
#
# Mechanical properties :
#
#
# Convention : Reuss Voigt Hill
#
# Bulk Modulus (GPa) = 14.57196 41.94088 28.25642
# Shear Modulus (GPa) = 9.25701 25.94690 17.60196
#
# Velocity S-wave (km/s) = 2.02634 3.39250 2.79420
# Velocity P-wave (km/s) = 3.45518 5.82655 4.78994
#
# Compressibility (1/GPa) = 0.06862496
#
# Stress axis : x y z
#
# Youngs Moduli (GPa) = 129.19237 72.08219 13.36554
#
# Poissons Ratio (x) = 0.24182 0.02982
# Poissons Ratio (y) = 0.43341 0.11118
# Poissons Ratio (z) = 0.28824 0.59958
#
# Static dielectric constant tensor:
#      x y z
#    x 1.925840 0.000000 0.000000 
#    y 0.000000 1.879330 0.000000 
#    z 0.000000 0.000000 1.898390 
# 
# From -- ./inp_files/8796.got.cif
#   From: 2010.05.17/outbox.cif.g08.bks.cpg/sg33_5_cif.got.tgz:8796.got - 2010.06.03 17:15:25.
