data_PCOD9344266
_publ_section_title
;
Structure prediction by ZEFSAII (Michael W. Deem and Ramdas Pophale) SiO2 
 PCOD9344266
Probable space group: P B A 2
;
_chemical_formula_sum "Si O2"
_cell_formula_units_Z 32
_cell_length_a 27.526512
_cell_length_b 9.117300
_cell_length_c 4.918464
_cell_angle_alpha 90.000000
_cell_angle_beta 90.000000
_cell_angle_gamma 90.000000
_cell_volume 1234.374456
_symmetry_space_group_name_H-M "P B A 2"
_symmetry_group_IT_number 32
_symmetry_cell_setting 'orthorhombic'
loop_
_space_group_symop_operation_xyz
x,y,z
-x,-y,z
1/2-x,1/2+y,z
1/2+x,1/2-y,z
loop_
_atom_site_type_symbol
_atom_site_label
_atom_site_fract_x
_atom_site_fract_y
_atom_site_fract_z
Si Si1 0.397053 0.489683 0.307280
Si Si2 0.281042 0.201189 0.546061
Si Si3 0.267130 0.475809 0.880406
Si Si4 0.453310 0.581541 0.802746
Si Si5 0.484147 0.164496 0.588154
Si Si6 0.307545 0.663365 0.365411
Si Si7 0.665793 0.026610 0.187656
Si Si8 0.918299 0.316424 0.080829
O O1 0.438434 0.489964 0.536102
O O2 0.352858 0.560061 0.473191
O O3 0.389188 0.326356 0.189123
O O4 0.414115 0.582025 0.043323
O O5 0.232745 0.099178 0.630766
O O6 0.246537 0.271031 0.321412
O O7 0.318344 0.091585 0.419828
O O8 0.288281 0.324161 0.767760
O O9 0.296389 0.556452 0.108563
O O10 0.209532 0.477032 0.960116
O O11 0.500000 0.500000 0.929667
O O12 0.471424 0.733851 0.679385
O O13 0.464546 0.172483 0.280871
O O14 0.500000 0.000000 0.644242
O O15 0.438581 0.202529 0.780811
O O16 0.338767 0.813350 0.312873
O O17 0.616176 0.957930 0.080982
#
# Coordination Sequence:
#
# PCOD9344266 Si02
#       8
#     4   4   4   4   4   4   4   4
#     4  12  27  44  77 108 141 186 238 300 355 434
#     4  11  24  45  71  94 143 189 236 295 355 425
#     4  11  24  45  71  94 141 192 236 291 357 426
#     4  12  24  50  75 100 143 186 239 291 357 431
#     4  12  28  48  75 104 144 189 236 291 367 433
#     4  11  27  43  67 109 136 185 246 292 362 429
#     4  11  27  43  67 106 141 183 238 302 357 429
#     4  12  27  47  73 109 145 183 239 297 362 433
#
# _framework density 25.924064000000001
#
# number of rings (size 3 to 8) (size 9 to 14) (size 15 to 20)
#    0.000    0.500    5.000    1.500   10.500    0.000 
#    0.000    0.000    0.000    0.000    0.000    0.000 
#    0.000    0.000    0.000    0.000    0.000    0.000 
#
# Total GULP energy -178770.793334 kJ/mol
# GULP energy per Si atom -5586.587292 kJ/mol
# Density = 2.586506 g / cm^3
# Si number density = 25.924064 Si / 1000 Ang^3
#
#
#
# Elastic Constant Matrix: (Units=GPa)
#
#
# Indices 1 2 3 4 5 6 
#
# 1 52.5833 21.4657 15.3639 0.0000 0.0000 0.0000
# 2 21.4657 141.1253 19.0825 0.0000 0.0000 0.0000
# 3 15.3639 19.0825 108.8919 0.0000 0.0000 0.0000
# 4 0.0000 0.0000 0.0000 22.8631 0.0000 0.0000
# 5 0.0000 0.0000 0.0000 0.0000 34.5112 0.0000
# 6 0.0000 0.0000 0.0000 0.0000 0.0000 41.6719
#
#
#
# Elastic Compliance Matrix: (Units=1/GPa)
#
#
# Indices 1 2 3 4 5 6 
#
# 1 0.020895 -0.002847 -0.002449 0.000000 0.000000 0.000000
# 2 -0.002847 0.007646 -0.000938 0.000000 0.000000 0.000000
# 3 -0.002449 -0.000938 0.009693 0.000000 0.000000 0.000000
# 4 0.000000 0.000000 0.000000 0.043739 0.000000 0.000000
# 5 0.000000 0.000000 0.000000 0.000000 0.028976 0.000000
# 6 0.000000 0.000000 0.000000 0.000000 0.000000 0.023997
#
#
# Mechanical properties :
#
#
# Convention : Reuss Voigt Hill
#
# Bulk Modulus (GPa) = 38.81157 46.04719 42.42938
# Shear Modulus (GPa) = 32.05053 36.25513 34.15283
#
# Velocity S-wave (km/s) = 3.51995 3.74373 3.63356
# Velocity P-wave (km/s) = 5.61461 6.04055 5.83147
#
# Compressibility (1/GPa) = 0.02576552
#
# Stress axis : x y z
#
# Youngs Moduli (GPa) = 47.85767 130.79056 103.16302
#
# Poissons Ratio (x) = 0.37237 0.25267
# Poissons Ratio (y) = 0.13625 0.09678
# Poissons Ratio (z) = 0.11722 0.12270
#
# Static dielectric constant tensor:
#      x y z
#    x 2.086730 0.000000 0.000000 
#    y 0.000000 2.134410 0.000000 
#    z 0.000000 0.000000 2.020280 
# 
# From -- ./inp_files/1825.got.cif
#   From: 2010.05.17/outbox.cif.g08.bks.cpg/sg32_1_cif.got.tgz:1825.got - 2010.06.03 17:12:27.
