data_PCOD9344357
_publ_section_title
;
Structure prediction by ZEFSAII (Michael W. Deem and Ramdas Pophale) SiO2 
 PCOD9344357
Probable space group: P N A 21
;
_chemical_formula_sum "Si O2"
_cell_formula_units_Z 32
_cell_length_a 7.700985
_cell_length_b 17.213767
_cell_length_c 9.917506
_cell_angle_alpha 90.000000
_cell_angle_beta 90.000000
_cell_angle_gamma 90.000000
_cell_volume 1314.693966
_symmetry_space_group_name_H-M "P N A 21"
_symmetry_group_IT_number 33
_symmetry_cell_setting 'orthorhombic'
loop_
_space_group_symop_operation_xyz
x,y,z
-x,-y,1/2+z
1/2-x,1/2+y,1/2+z
1/2+x,1/2-y,z
loop_
_atom_site_type_symbol
_atom_site_label
_atom_site_fract_x
_atom_site_fract_y
_atom_site_fract_z
Si Si1 0.082569 0.616181 0.836340
Si Si2 0.282225 0.146552 0.775296
Si Si3 0.406250 0.736743 0.857628
Si Si4 0.058886 0.800996 0.151778
Si Si5 0.257788 0.014794 0.566952
Si Si6 0.131938 0.932319 0.987702
Si Si7 0.078106 0.879202 0.683706
Si Si8 0.793090 0.415284 0.053190
O O1 0.237564 0.681204 0.850696
O O2 0.909598 0.669359 0.851887
O O3 0.091006 0.586176 0.684839
O O4 0.134198 0.547831 0.939582
O O5 0.364548 0.222165 0.707784
O O6 0.320239 0.067872 0.692404
O O7 0.075568 0.162554 0.758152
O O8 0.339925 0.139289 0.929145
O O9 0.537387 0.708327 0.737440
O O10 0.469978 0.718555 0.008413
O O11 0.189228 0.866283 0.095486
O O12 0.058089 0.042531 0.542904
O O13 0.227674 0.922847 0.596952
O O14 0.271681 0.999206 0.995669
O O15 0.090294 0.918877 0.830711
O O16 0.900250 0.895130 0.604516
#
# Coordination Sequence:
#
# PCOD9344357 Si02
#       8
#     4   4   4   4   4   4   4   4
#     4  11  20  34  54  78 109 140 179 219 270 332
#     4  11  20  32  52  79 109 137 178 224 270 320
#     4  10  18  34  53  81 104 142 180 217 271 327
#     4  10  19  33  54  80 105 141 179 222 267 327
#     4  10  16  29  49  76  99 132 175 226 259 307
#     4   9  16  30  51  77 104 132 181 225 265 309
#     4   9  17  29  51  77 105 133 176 228 268 306
#     4  10  20  31  50  82 109 137 174 233 280 304
#
# _framework density 24.340264999999999
#
# number of rings (size 3 to 8) (size 9 to 14) (size 15 to 20)
#    0.000    2.000    7.500    0.000    0.000    2.000 
#    0.000    0.000    0.000    1.500    0.000    0.000 
#    0.000    0.000    0.000    0.000    0.000    0.000 
#
# Total GULP energy -178464.611104 kJ/mol
# GULP energy per Si atom -5577.019097 kJ/mol
# Density = 2.428487 g / cm^3
# Si number density = 24.340265 Si / 1000 Ang^3
#
#
#
# Elastic Constant Matrix: (Units=GPa)
#
#
# Indices 1 2 3 4 5 6 
#
# 1 73.4579 21.5324 26.0547 0.0000 0.0000 0.0000
# 2 21.5324 46.5001 11.3283 0.0000 0.0000 0.0000
# 3 26.0547 11.3283 108.9555 0.0000 0.0000 0.0000
# 4 0.0000 0.0000 0.0000 45.9977 0.0000 0.0000
# 5 0.0000 0.0000 0.0000 0.0000 11.9907 0.0000
# 6 0.0000 0.0000 0.0000 0.0000 0.0000 27.1163
#
#
#
# Elastic Compliance Matrix: (Units=1/GPa)
#
#
# Indices 1 2 3 4 5 6 
#
# 1 0.016832 -0.006991 -0.003298 0.000000 0.000000 0.000000
# 2 -0.006991 0.024968 -0.000924 0.000000 0.000000 0.000000
# 3 -0.003298 -0.000924 0.010063 0.000000 0.000000 0.000000
# 4 0.000000 0.000000 0.000000 0.021740 0.000000 0.000000
# 5 0.000000 0.000000 0.000000 0.000000 0.083398 0.000000
# 6 0.000000 0.000000 0.000000 0.000000 0.000000 0.036878
#
#
# Mechanical properties :
#
#
# Convention : Reuss Voigt Hill
#
# Bulk Modulus (GPa) = 33.97182 38.52715 36.24948
# Shear Modulus (GPa) = 22.11232 28.35413 25.23322
#
# Velocity S-wave (km/s) = 3.01735 3.41677 3.22325
# Velocity P-wave (km/s) = 5.11141 5.60613 5.36448
#
# Compressibility (1/GPa) = 0.02943617
#
# Stress axis : x y z
#
# Youngs Moduli (GPa) = 59.40951 40.05175 99.37512
#
# Poissons Ratio (x) = 0.28000 0.32777
# Poissons Ratio (y) = 0.41532 0.09184
# Poissons Ratio (z) = 0.19595 0.03702
#
# Static dielectric constant tensor:
#      x y z
#    x 2.059690 0.000000 0.000000 
#    y 0.000000 2.046350 0.000000 
#    z 0.000000 0.000000 1.886050 
# 
# From -- ./inp_files/3489.got.cif
#   From: 2010.05.17/outbox.cif.g08.bks.cpg/sg33_2_cif.got.tgz:3489.got - 2010.06.03 17:15:25.
