data_PCOD9344400
_publ_section_title
;
Structure prediction by ZEFSAII (Michael W. Deem and Ramdas Pophale) SiO2 
 PCOD9344400
Probable space group: P N A 21
;
_chemical_formula_sum "Si O2"
_cell_formula_units_Z 28
_cell_length_a 9.479655
_cell_length_b 17.864416
_cell_length_c 8.839706
_cell_angle_alpha 90.000000
_cell_angle_beta 90.000000
_cell_angle_gamma 90.000000
_cell_volume 1496.990956
_symmetry_space_group_name_H-M "P N A 21"
_symmetry_group_IT_number 33
_symmetry_cell_setting 'orthorhombic'
loop_
_space_group_symop_operation_xyz
x,y,z
-x,-y,1/2+z
1/2-x,1/2+y,1/2+z
1/2+x,1/2-y,z
loop_
_atom_site_type_symbol
_atom_site_label
_atom_site_fract_x
_atom_site_fract_y
_atom_site_fract_z
Si Si1 0.657225 0.482708 0.869760
Si Si2 0.639243 0.114398 0.327338
Si Si3 0.120522 0.787750 0.944792
Si Si4 0.255399 0.152609 0.060448
Si Si5 0.831031 0.379660 0.411147
Si Si6 0.488867 0.758915 0.624227
Si Si7 0.446935 0.581623 0.069539
O O1 0.761490 0.544006 0.795590
O O2 0.567098 0.441756 0.742011
O O3 0.745275 0.421699 0.962971
O O4 0.552663 0.526664 0.981551
O O5 0.732884 0.167182 0.436553
O O6 0.489544 0.089046 0.397105
O O7 0.599080 0.170091 0.189879
O O8 0.149131 0.702205 0.986811
O O9 0.057353 0.780584 0.773354
O O10 0.009970 0.835559 0.040865
O O11 0.276500 0.133375 0.238879
O O12 0.386625 0.206587 0.024902
O O13 0.112822 0.200079 0.046671
O O14 0.709413 0.422532 0.498295
#
# Coordination Sequence:
#
# PCOD9344400 Si02
#       7
#     4   4   4   4   4   4   4
#     4  11  25  38  55  86 124 155 195 242 302 353
#     4   9  18  33  56  87 112 149 192 245 287 355
#     4   9  16  33  59  87 105 148 201 237 280 350
#     4  10  20  36  59  89 113 151 202 245 285 354
#     4  10  18  34  65  84 109 150 200 239 292 354
#     4  10  17  34  66  84 107 155 205 239 288 358
#     4  11  22  38  58  81 120 158 191 241 296 358
#
# _framework density 18.704187000000001
#
# number of rings (size 3 to 8) (size 9 to 14) (size 15 to 20)
#    0.000    2.286    4.286    1.714    2.000    2.286 
#    2.571    0.000    0.000    0.000    0.000    0.000 
#    0.000    0.000    0.000    0.000    0.000    0.000 
#
# Total GULP energy -156093.640324 kJ/mol
# GULP energy per Si atom -5574.772869 kJ/mol
# Density = 1.866162 g / cm^3
# Si number density = 18.704187 Si / 1000 Ang^3
#
#
#
# Elastic Constant Matrix: (Units=GPa)
#
#
# Indices 1 2 3 4 5 6 
#
# 1 87.5632 23.6360 6.9646 0.0000 0.0000 0.0000
# 2 23.6360 57.9528 22.0037 0.0000 0.0000 0.0000
# 3 6.9646 22.0037 37.8782 0.0000 0.0000 0.0000
# 4 0.0000 0.0000 0.0000 15.4986 0.0000 0.0000
# 5 0.0000 0.0000 0.0000 0.0000 16.7281 0.0000
# 6 0.0000 0.0000 0.0000 0.0000 0.0000 12.8406
#
#
#
# Elastic Compliance Matrix: (Units=1/GPa)
#
#
# Indices 1 2 3 4 5 6 
#
# 1 0.012856 -0.005575 0.000875 0.000000 0.000000 0.000000
# 2 -0.005575 0.024556 -0.013240 0.000000 0.000000 0.000000
# 3 0.000875 -0.013240 0.033931 0.000000 0.000000 0.000000
# 4 0.000000 0.000000 0.000000 0.064522 0.000000 0.000000
# 5 0.000000 0.000000 0.000000 0.000000 0.059780 0.000000
# 6 0.000000 0.000000 0.000000 0.000000 0.000000 0.077878
#
#
# Mechanical properties :
#
#
# Convention : Reuss Voigt Hill
#
# Bulk Modulus (GPa) = 28.19898 32.06699 30.13299
# Shear Modulus (GPa) = 15.56549 17.73278 16.64913
#
# Velocity S-wave (km/s) = 2.88790 3.08241 2.98674
# Velocity P-wave (km/s) = 5.12143 5.46350 5.29523
#
# Compressibility (1/GPa) = 0.03546227
#
# Stress axis : x y z
#
# Youngs Moduli (GPa) = 77.78655 40.72281 29.47189
#
# Poissons Ratio (x) = 0.22705 -0.02579
# Poissons Ratio (y) = 0.43369 0.39020
# Poissons Ratio (z) = -0.06807 0.53916
#
# Static dielectric constant tensor:
#      x y z
#    x 1.679150 0.000000 0.000000 
#    y 0.000000 1.646100 0.000000 
#    z 0.000000 0.000000 1.629070 
# 
# From -- ./inp_files/3335.got.cif
#   From: 2010.05.17/outbox.cif.g08.bks.cpg/sg33_2_cif.got.tgz:3335.got - 2010.06.03 17:15:25.
