data_PCOD9344315
_publ_section_title
;
Structure prediction by ZEFSAII (Michael W. Deem and Ramdas Pophale) SiO2 
 PCOD9344315
Probable space group: P B A 2
;
_chemical_formula_sum "Si O2"
_cell_formula_units_Z 20
_cell_length_a 11.701004
_cell_length_b 13.401343
_cell_length_c 4.774889
_cell_angle_alpha 90.000000
_cell_angle_beta 90.000000
_cell_angle_gamma 90.000000
_cell_volume 748.746372
_symmetry_space_group_name_H-M "P B A 2"
_symmetry_group_IT_number 32
_symmetry_cell_setting 'orthorhombic'
loop_
_space_group_symop_operation_xyz
x,y,z
-x,-y,z
1/2-x,1/2+y,z
1/2+x,1/2-y,z
loop_
_atom_site_type_symbol
_atom_site_label
_atom_site_fract_x
_atom_site_fract_y
_atom_site_fract_z
Si Si1 0.081084 0.584499 0.450750
Si Si2 0.403071 0.428919 0.920034
Si Si3 0.550330 0.256958 0.108928
Si Si4 0.206784 0.218925 0.574722
Si Si5 0.261415 0.436221 0.410700
O O1 0.007490 0.660367 0.259100
O O2 0.179312 0.651752 0.603015
O O3 0.162913 0.506278 0.293845
O O4 0.000000 0.500000 0.603485
O O5 0.500000 0.500000 0.810234
O O6 0.292228 0.448451 0.734351
O O7 0.450291 0.317364 0.948232
O O8 0.371539 0.457126 0.231942
O O9 0.608540 0.320420 0.361784
O O10 0.645697 0.249643 0.863370
O O11 0.237751 0.318917 0.402724
#
# Coordination Sequence:
#
# PCOD9344315 Si02
#       5
#     4   4   4   4   4
#     4  12  28  53  83 124 165 228 279 351 431 511
#     4  12  25  48  77 111 157 214 269 339 417 500
#     4  12  27  51  81 114 166 219 273 353 428 498
#     4  12  27  51  76 119 165 210 282 352 417 515
#     4  12  26  48  75 117 160 210 278 340 411 510
#
# _framework density 26.711314999999999
#
# number of rings (size 3 to 8) (size 9 to 14) (size 15 to 20)
#    0.000    0.000    4.000    5.400    0.000    1.600 
#    0.000    0.000    0.000    0.000    0.000    0.000 
#    0.000    0.000    0.000    0.000    0.000    0.000 
#
# Total GULP energy -111659.204397 kJ/mol
# GULP energy per Si atom -5582.960220 kJ/mol
# Density = 2.665052 g / cm^3
# Si number density = 26.711315 Si / 1000 Ang^3
#
#
#
# Elastic Constant Matrix: (Units=GPa)
#
#
# Indices 1 2 3 4 5 6 
#
# 1 159.6263 82.0761 54.9101 0.0000 0.0000 0.0000
# 2 82.0761 175.7669 36.6207 0.0000 0.0000 0.0000
# 3 54.9101 36.6207 135.2895 0.0000 0.0000 0.0000
# 4 0.0000 0.0000 0.0000 21.0582 0.0000 0.0000
# 5 0.0000 0.0000 0.0000 0.0000 42.1712 0.0000
# 6 0.0000 0.0000 0.0000 0.0000 0.0000 73.1445
#
#
#
# Elastic Compliance Matrix: (Units=1/GPa)
#
#
# Indices 1 2 3 4 5 6 
#
# 1 0.009083 -0.003681 -0.002690 0.000000 0.000000 0.000000
# 2 -0.003681 0.007521 -0.000542 0.000000 0.000000 0.000000
# 3 -0.002690 -0.000542 0.008630 0.000000 0.000000 0.000000
# 4 0.000000 0.000000 0.000000 0.047487 0.000000 0.000000
# 5 0.000000 0.000000 0.000000 0.000000 0.023713 0.000000
# 6 0.000000 0.000000 0.000000 0.000000 0.000000 0.013672
#
#
# Mechanical properties :
#
#
# Convention : Reuss Voigt Hill
#
# Bulk Modulus (GPa) = 87.65578 90.87741 89.26660
# Shear Modulus (GPa) = 39.14398 47.07982 43.11190
#
# Velocity S-wave (km/s) = 3.83227 4.20282 4.02181
# Velocity P-wave (km/s) = 7.24354 7.59260 7.42012
#
# Compressibility (1/GPa) = 0.01140826
#
# Stress axis : x y z
#
# Youngs Moduli (GPa) = 110.10176 132.96095 115.87425
#
# Poissons Ratio (x) = 0.48939 0.31170
# Poissons Ratio (y) = 0.40525 0.06280
# Poissons Ratio (z) = 0.29618 0.07205
#
# Static dielectric constant tensor:
#      x y z
#    x 2.175790 0.000000 0.000000 
#    y 0.000000 2.186830 0.000000 
#    z 0.000000 0.000000 2.018010 
# 
# From -- ./inp_files/770.got.cif
#   From: 2010.05.17/outbox.cif.g08.bks.cpg/sg32_1_cif.got.tgz:770.got - 2010.06.03 17:12:27.
