data_PCOD9344473
_publ_section_title
;
Structure prediction by ZEFSAII (Michael W. Deem and Ramdas Pophale) SiO2 
 PCOD9344473
Probable space group: P N A 21
;
_chemical_formula_sum "Si O2"
_cell_formula_units_Z 28
_cell_length_a 5.518512
_cell_length_b 7.544330
_cell_length_c 26.031510
_cell_angle_alpha 90.000000
_cell_angle_beta 90.000000
_cell_angle_gamma 90.000000
_cell_volume 1083.782237
_symmetry_space_group_name_H-M "P N A 21"
_symmetry_group_IT_number 33
_symmetry_cell_setting 'orthorhombic'
loop_
_space_group_symop_operation_xyz
x,y,z
-x,-y,1/2+z
1/2-x,1/2+y,1/2+z
1/2+x,1/2-y,z
loop_
_atom_site_type_symbol
_atom_site_label
_atom_site_fract_x
_atom_site_fract_y
_atom_site_fract_z
Si Si1 0.723143 0.659040 0.553680
Si Si2 0.292252 0.550126 0.740958
Si Si3 0.172859 0.420727 0.934305
Si Si4 0.177006 0.352724 0.647290
Si Si5 0.706498 0.046052 0.280907
Si Si6 0.170333 0.026807 0.897007
Si Si7 0.831320 0.766860 0.038691
O O1 0.479251 0.759347 0.569611
O O2 0.749851 0.643798 0.491221
O O3 0.683381 0.455001 0.567371
O O4 0.224175 0.525412 0.681437
O O5 0.313518 0.753192 0.759241
O O6 0.554745 0.467733 0.753464
O O7 0.060544 0.467959 0.770594
O O8 0.146479 0.241868 0.900412
O O9 0.400559 0.532227 0.913500
O O10 0.907077 0.507076 0.932111
O O11 0.412700 0.229905 0.659514
O O12 0.176814 0.371266 0.585545
O O13 0.765141 0.041281 0.340897
O O14 0.581931 0.744323 0.009667
#
# Coordination Sequence:
#
# PCOD9344473 Si02
#       7
#     4   4   4   4   4   4   4
#     4  12  21  40  73 104 134 174 239 279 342 408
#     4  10  21  40  61  91 123 172 210 271 329 394
#     4  10  19  35  58  89 127 174 213 257 324 399
#     4  10  21  42  68  89 124 170 220 259 337 406
#     4  10  21  37  63  87 127 167 222 275 327 379
#     4  10  18  35  55  87 123 174 216 262 318 385
#     4  10  23  43  72  97 138 177 224 285 345 423
#
# _framework density 25.835446000000001
#
# number of rings (size 3 to 8) (size 9 to 14) (size 15 to 20)
#    0.000    1.714    2.857    2.571    0.000    0.000 
#   15.429    0.000   94.286    0.000    0.000    0.000 
#    0.000    0.000    0.000    0.000    0.000    0.000 
#
# Total GULP energy -156416.185766 kJ/mol
# GULP energy per Si atom -5586.292349 kJ/mol
# Density = 2.577664 g / cm^3
# Si number density = 25.835446 Si / 1000 Ang^3
#
#
#
# Elastic Constant Matrix: (Units=GPa)
#
#
# Indices 1 2 3 4 5 6 
#
# 1 280.5613 15.9486 -2.3096 0.0000 0.0000 0.0000
# 2 15.9486 73.0054 11.5964 0.0000 0.0000 0.0000
# 3 -2.3096 11.5964 49.0192 0.0000 0.0000 0.0000
# 4 0.0000 0.0000 0.0000 47.8750 0.0000 0.0000
# 5 0.0000 0.0000 0.0000 0.0000 32.6668 0.0000
# 6 0.0000 0.0000 0.0000 0.0000 0.0000 20.3518
#
#
#
# Elastic Compliance Matrix: (Units=1/GPa)
#
#
# Indices 1 2 3 4 5 6 
#
# 1 0.003616 -0.000849 0.000371 0.000000 0.000000 0.000000
# 2 -0.000849 0.014432 -0.003454 0.000000 0.000000 0.000000
# 3 0.000371 -0.003454 0.021235 0.000000 0.000000 0.000000
# 4 0.000000 0.000000 0.000000 0.020888 0.000000 0.000000
# 5 0.000000 0.000000 0.000000 0.000000 0.030612 0.000000
# 6 0.000000 0.000000 0.000000 0.000000 0.000000 0.049136
#
#
# Mechanical properties :
#
#
# Convention : Reuss Voigt Hill
#
# Bulk Modulus (GPa) = 31.82827 50.33964 41.08395
# Shear Modulus (GPa) = 31.59476 45.33541 38.46508
#
# Velocity S-wave (km/s) = 3.50083 4.19355 3.86275
# Velocity P-wave (km/s) = 5.35606 6.55552 5.98591
#
# Compressibility (1/GPa) = 0.03141861
#
# Stress axis : x y z
#
# Youngs Moduli (GPa) = 276.58009 69.29185 47.09249
#
# Poissons Ratio (x) = 0.05882 -0.01748
# Poissons Ratio (y) = 0.23476 0.16266
# Poissons Ratio (z) = -0.10265 0.23934
#
# Static dielectric constant tensor:
#      x y z
#    x 2.120920 0.000000 0.000000 
#    y 0.000000 2.054180 0.000000 
#    z 0.000000 0.000000 1.983860 
# 
# From -- ./inp_files/9193.got.cif
#   From: 2010.05.17/outbox.cif.g08.bks.cpg/sg33_5_cif.got.tgz:9193.got - 2010.06.03 17:15:25.
