data_PCOD9344367
_publ_section_title
;
Structure prediction by ZEFSAII (Michael W. Deem and Ramdas Pophale) SiO2 
 PCOD9344367
Probable space group: P N A 21
;
_chemical_formula_sum "Si O2"
_cell_formula_units_Z 32
_cell_length_a 7.854073
_cell_length_b 18.457324
_cell_length_c 8.794708
_cell_angle_alpha 90.000000
_cell_angle_beta 90.000000
_cell_angle_gamma 90.000000
_cell_volume 1274.926341
_symmetry_space_group_name_H-M "P N A 21"
_symmetry_group_IT_number 33
_symmetry_cell_setting 'orthorhombic'
loop_
_space_group_symop_operation_xyz
x,y,z
-x,-y,1/2+z
1/2-x,1/2+y,1/2+z
1/2+x,1/2-y,z
loop_
_atom_site_type_symbol
_atom_site_label
_atom_site_fract_x
_atom_site_fract_y
_atom_site_fract_z
Si Si1 0.435374 0.223669 0.475170
Si Si2 0.275706 0.492766 0.112810
Si Si3 0.627775 0.128588 0.695833
Si Si4 0.531056 0.988588 0.818705
Si Si5 0.685196 0.813542 0.401310
Si Si6 0.948241 0.337008 0.178467
Si Si7 0.305655 0.344833 0.995539
Si Si8 0.106204 0.152830 0.623130
O O1 0.588967 0.174264 0.545640
O O2 0.439954 0.229545 0.294425
O O3 0.264111 0.183472 0.523939
O O4 0.452145 0.301639 0.554456
O O5 0.170195 0.496022 0.272530
O O6 0.374765 0.417603 0.076696
O O7 0.386323 0.566273 0.109647
O O8 0.131279 0.492987 0.975699
O O9 0.464202 0.154083 0.798026
O O10 0.613714 0.042252 0.692081
O O11 0.778560 0.140700 0.814983
O O12 0.558838 0.904946 0.790324
O O13 0.698657 0.855990 0.557477
O O14 0.630393 0.737403 0.478866
O O15 0.845775 0.818255 0.291999
O O16 0.125889 0.336905 0.086999
#
# Coordination Sequence:
#
# PCOD9344367 Si02
#       8
#     4   4   4   4   4   4   4   4
#     4  11  21  36  55  87 113 152 189 247 290 361
#     4  10  19  31  54  83 113 147 187 254 292 344
#     4   9  17  32  54  79 109 147 187 235 288 354
#     4  10  16  31  50  83 115 135 184 249 301 329
#     4  10  19  34  52  78 113 151 189 231 297 366
#     4  10  21  30  53  83 115 142 186 247 303 338
#     4   9  19  32  51  80 109 150 185 236 291 349
#     4  11  22  38  59  83 117 152 199 239 302 359
#
# _framework density 25.099489999999999
#
# number of rings (size 3 to 8) (size 9 to 14) (size 15 to 20)
#    0.000    2.000    5.000    0.750    1.750    0.000 
#    0.000    0.000    0.000    3.000   13.000    0.000 
#    0.000    0.000    0.000    0.000    0.000    0.000 
#
# Total GULP energy -178241.316693 kJ/mol
# GULP energy per Si atom -5570.041147 kJ/mol
# Density = 2.504236 g / cm^3
# Si number density = 25.099490 Si / 1000 Ang^3
#
#
#
# Elastic Constant Matrix: (Units=GPa)
#
#
# Indices 1 2 3 4 5 6 
#
# 1 48.9040 19.5957 19.5876 0.0000 0.0000 0.0000
# 2 19.5957 75.8561 11.0790 0.0000 0.0000 0.0000
# 3 19.5876 11.0790 131.4637 0.0000 0.0000 0.0000
# 4 0.0000 0.0000 0.0000 31.2379 0.0000 0.0000
# 5 0.0000 0.0000 0.0000 0.0000 13.2928 0.0000
# 6 0.0000 0.0000 0.0000 0.0000 0.0000 24.3888
#
#
#
# Elastic Compliance Matrix: (Units=1/GPa)
#
#
# Indices 1 2 3 4 5 6 
#
# 1 0.023988 -0.005745 -0.003090 0.000000 0.000000 0.000000
# 2 -0.005745 0.014723 -0.000385 0.000000 0.000000 0.000000
# 3 -0.003090 -0.000385 0.008099 0.000000 0.000000 0.000000
# 4 0.000000 0.000000 0.000000 0.032012 0.000000 0.000000
# 5 0.000000 0.000000 0.000000 0.000000 0.075228 0.000000
# 6 0.000000 0.000000 0.000000 0.000000 0.000000 0.041002
#
#
# Mechanical properties :
#
#
# Convention : Reuss Voigt Hill
#
# Bulk Modulus (GPa) = 35.24788 39.63871 37.44329
# Shear Modulus (GPa) = 22.42644 27.51468 24.97056
#
# Velocity S-wave (km/s) = 2.99239 3.31452 3.15757
# Velocity P-wave (km/s) = 5.10029 5.52041 5.31451
#
# Compressibility (1/GPa) = 0.02837050
#
# Stress axis : x y z
#
# Youngs Moduli (GPa) = 41.68742 67.91980 123.46484
#
# Poissons Ratio (x) = 0.39023 0.38150
# Poissons Ratio (y) = 0.23951 0.04750
# Poissons Ratio (z) = 0.12881 0.02613
#
# Static dielectric constant tensor:
#      x y z
#    x 2.051150 0.000000 0.000000 
#    y 0.000000 2.116770 0.000000 
#    z 0.000000 0.000000 2.053040 
# 
# From -- ./inp_files/4058.got.cif
#   From: 2010.05.17/outbox.cif.g08.bks.cpg/sg33_3_cif.got.tgz:4058.got - 2010.06.03 17:15:25.
