data_PCOD9344503
_publ_section_title
;
Structure prediction by ZEFSAII (Michael W. Deem and Ramdas Pophale) SiO2 
 PCOD9344503
Probable space group: P N A 21
;
_chemical_formula_sum "Si O2"
_cell_formula_units_Z 32
_cell_length_a 9.615168
_cell_length_b 14.349202
_cell_length_c 11.844510
_cell_angle_alpha 90.000000
_cell_angle_beta 90.000000
_cell_angle_gamma 90.000000
_cell_volume 1634.186901
_symmetry_space_group_name_H-M "P N A 21"
_symmetry_group_IT_number 33
_symmetry_cell_setting 'orthorhombic'
loop_
_space_group_symop_operation_xyz
x,y,z
-x,-y,1/2+z
1/2-x,1/2+y,1/2+z
1/2+x,1/2-y,z
loop_
_atom_site_type_symbol
_atom_site_label
_atom_site_fract_x
_atom_site_fract_y
_atom_site_fract_z
Si Si1 0.669559 0.647822 0.013330
Si Si2 0.174527 0.530930 0.946372
Si Si3 0.381569 0.941760 0.851861
Si Si4 0.094380 0.241948 0.810722
Si Si5 0.488462 0.920067 0.613865
Si Si6 0.865647 0.823404 0.065144
Si Si7 0.205378 0.438990 0.718073
Si Si8 0.653686 0.843034 0.420421
O O1 0.768353 0.735126 0.040311
O O2 0.511573 0.678386 0.999746
O O3 0.680917 0.580385 0.122801
O O4 0.744485 0.597348 0.910011
O O5 0.238581 0.503373 0.825592
O O6 0.025830 0.579797 0.918570
O O7 0.124941 0.442354 0.018436
O O8 0.276229 0.589841 0.023197
O O9 0.408363 0.898716 0.728899
O O10 0.368301 0.055101 0.860918
O O11 0.098733 0.179873 0.697848
O O12 0.157638 0.341118 0.770944
O O13 0.190282 0.192024 0.903292
O O14 0.943238 0.268202 0.856532
O O15 0.598556 0.854877 0.548606
O O16 0.577852 0.011228 0.651859
#
# Coordination Sequence:
#
# PCOD9344503 Si02
#       8
#     4   4   4   4   4   4   4   4
#     4  11  22  40  61  99 122 169 214 270 310 394
#     4  10  19  38  63  88 123 167 209 259 320 372
#     4  10  20  39  68  86 126 169 224 245 328 386
#     4  11  21  38  60  96 123 164 209 268 314 378
#     4  10  18  37  66  90 117 181 205 255 319 398
#     4  11  24  37  65  92 130 160 218 270 323 366
#     4  10  19  37  65  89 128 159 213 258 313 379
#     4  11  21  38  62  92 127 165 212 267 321 379
#
# _framework density 19.581603000000001
#
# number of rings (size 3 to 8) (size 9 to 14) (size 15 to 20)
#    0.000    1.500    6.250    3.000    1.750    0.000 
#    6.750    3.750    0.000    0.000    0.000    0.000 
#    0.000    0.000    0.000    0.000    0.000    0.000 
#
# Total GULP energy -178386.158144 kJ/mol
# GULP energy per Si atom -5574.567442 kJ/mol
# Density = 1.953703 g / cm^3
# Si number density = 19.581603 Si / 1000 Ang^3
#
#
#
# Elastic Constant Matrix: (Units=GPa)
#
#
# Indices 1 2 3 4 5 6 
#
# 1 84.9217 14.1563 2.0873 0.0000 0.0000 0.0000
# 2 14.1563 20.3014 -1.6578 0.0000 0.0000 0.0000
# 3 2.0873 -1.6578 82.3723 0.0000 0.0000 0.0000
# 4 0.0000 0.0000 0.0000 31.8470 0.0000 0.0000
# 5 0.0000 0.0000 0.0000 0.0000 19.8324 0.0000
# 6 0.0000 0.0000 0.0000 0.0000 0.0000 32.7013
#
#
#
# Elastic Compliance Matrix: (Units=1/GPa)
#
#
# Indices 1 2 3 4 5 6 
#
# 1 0.013347 -0.009350 -0.000526 0.000000 0.000000 0.000000
# 2 -0.009350 0.055889 0.001362 0.000000 0.000000 0.000000
# 3 -0.000526 0.001362 0.012181 0.000000 0.000000 0.000000
# 4 0.000000 0.000000 0.000000 0.031400 0.000000 0.000000
# 5 0.000000 0.000000 0.000000 0.000000 0.050423 0.000000
# 6 0.000000 0.000000 0.000000 0.000000 0.000000 0.030580
#
#
# Mechanical properties :
#
#
# Convention : Reuss Voigt Hill
#
# Bulk Modulus (GPa) = 15.53104 24.08523 19.80814
# Shear Modulus (GPa) = 21.52290 28.41011 24.96650
#
# Velocity S-wave (km/s) = 3.31892 3.81314 3.57459
# Velocity P-wave (km/s) = 4.75769 5.63146 5.21292
#
# Compressibility (1/GPa) = 0.06438718
#
# Stress axis : x y z
#
# Youngs Moduli (GPa) = 74.92254 17.89272 82.09679
#
# Poissons Ratio (x) = 0.16730 0.04322
# Poissons Ratio (y) = 0.70053 -0.11179
# Poissons Ratio (z) = 0.03944 -0.02436
#
# Static dielectric constant tensor:
#      x y z
#    x 1.682310 0.000000 0.000000 
#    y 0.000000 1.717790 0.000000 
#    z 0.000000 0.000000 1.732920 
# 
# From -- ./inp_files/5964.got.cif
#   From: 2010.05.17/outbox.cif.g08.bks.cpg/sg33_3_cif.got.tgz:5964.got - 2010.06.03 17:15:25.
