data_PCOD9344762
_publ_section_title
;
Structure prediction by ZEFSAII (Michael W. Deem and Ramdas Pophale) SiO2 
 PCOD9344762
Probable space group: P N A 21
;
_chemical_formula_sum "Si O2"
_cell_formula_units_Z 28
_cell_length_a 28.326980
_cell_length_b 8.380183
_cell_length_c 5.069249
_cell_angle_alpha 90.000000
_cell_angle_beta 90.000000
_cell_angle_gamma 90.000000
_cell_volume 1203.365074
_symmetry_space_group_name_H-M "P N A 21"
_symmetry_group_IT_number 33
_symmetry_cell_setting 'orthorhombic'
loop_
_space_group_symop_operation_xyz
x,y,z
-x,-y,1/2+z
1/2-x,1/2+y,1/2+z
1/2+x,1/2-y,z
loop_
_atom_site_type_symbol
_atom_site_label
_atom_site_fract_x
_atom_site_fract_y
_atom_site_fract_z
Si Si1 0.947164 0.124033 0.804580
Si Si2 0.555684 0.394926 0.811241
Si Si3 0.698120 0.048226 0.576611
Si Si4 0.820627 0.973773 0.997429
Si Si5 0.649154 0.280821 0.978222
Si Si6 0.855976 0.309983 0.785972
Si Si7 0.729777 0.811943 0.908526
O O1 0.940190 0.030001 0.533559
O O2 0.911480 0.272301 0.788035
O O3 0.937155 0.992197 0.036263
O O4 0.002212 0.168556 0.822035
O O5 0.594039 0.264183 0.903242
O O6 0.678514 0.137393 0.839446
O O7 0.738697 0.160042 0.463547
O O8 0.654321 0.985826 0.404495
O O9 0.723030 0.875824 0.615264
O O10 0.838801 0.845172 0.772772
O O11 0.764289 0.953433 0.008626
O O12 0.838080 0.147329 0.926940
O O13 0.837892 0.927921 0.285632
O O14 0.822274 0.304930 0.528561
#
# Coordination Sequence:
#
# PCOD9344762 Si02
#       7
#     4   4   4   4   4   4   4
#     4  10  22  38  69 108 132 177 230 287 349 418
#     4  10  19  41  71 101 138 174 230 287 348 425
#     4  11  29  40  71  91 143 176 242 274 361 398
#     4  11  25  42  70  97 137 177 236 277 345 406
#     4  11  23  46  68 102 133 186 225 289 342 417
#     4  12  25  43  67 101 135 183 229 296 336 420
#     4  11  27  44  62  98 136 189 226 290 337 424
#
# _framework density 23.268086
#
# number of rings (size 3 to 8) (size 9 to 14) (size 15 to 20)
#    0.000    1.143    4.286    0.000   14.000    0.000 
#    0.000    0.000    3.143    0.000    0.000    0.000 
#    0.000    0.000    0.000    0.000    0.000    0.000 
#
# Total GULP energy -156144.174534 kJ/mol
# GULP energy per Si atom -5576.577662 kJ/mol
# Density = 2.321513 g / cm^3
# Si number density = 23.268086 Si / 1000 Ang^3
#
#
#
# Elastic Constant Matrix: (Units=GPa)
#
#
# Indices 1 2 3 4 5 6 
#
# 1 143.0461 37.1317 24.6988 0.0000 0.0000 0.0000
# 2 37.1317 100.5021 21.9286 0.0000 0.0000 0.0000
# 3 24.6988 21.9286 84.2188 0.0000 0.0000 0.0000
# 4 0.0000 0.0000 0.0000 38.5844 0.0000 0.0000
# 5 0.0000 0.0000 0.0000 0.0000 30.4284 0.0000
# 6 0.0000 0.0000 0.0000 0.0000 0.0000 43.5948
#
#
#
# Elastic Compliance Matrix: (Units=1/GPa)
#
#
# Indices 1 2 3 4 5 6 
#
# 1 0.007945 -0.002573 -0.001660 0.000000 0.000000 0.000000
# 2 -0.002573 0.011383 -0.002209 0.000000 0.000000 0.000000
# 3 -0.001660 -0.002209 0.012936 0.000000 0.000000 0.000000
# 4 0.000000 0.000000 0.000000 0.025917 0.000000 0.000000
# 5 0.000000 0.000000 0.000000 0.000000 0.032864 0.000000
# 6 0.000000 0.000000 0.000000 0.000000 0.000000 0.022939
#
#
# Mechanical properties :
#
#
# Convention : Reuss Voigt Hill
#
# Bulk Modulus (GPa) = 51.60234 55.03170 53.31702
# Shear Modulus (GPa) = 37.50135 38.78872 38.14503
#
# Velocity S-wave (km/s) = 4.01896 4.08736 4.05331
# Velocity P-wave (km/s) = 6.61525 6.78070 6.69849
#
# Compressibility (1/GPa) = 0.01937897
#
# Stress axis : x y z
#
# Youngs Moduli (GPa) = 125.85961 87.85198 77.30421
#
# Poissons Ratio (x) = 0.22607 0.12833
# Poissons Ratio (y) = 0.32387 0.17078
# Poissons Ratio (z) = 0.20894 0.19408
#
# Static dielectric constant tensor:
#      x y z
#    x 2.070550 0.000000 0.000000 
#    y 0.000000 1.908070 0.000000 
#    z 0.000000 0.000000 1.966010 
# 
# From -- ./inp_files/2441.got.cif
#   From: 2010.05.17/outbox.cif.g08.bks.cpg/sg33_2_cif.got.tgz:2441.got - 2010.06.03 17:15:25.
