data_PCOD9344964
_publ_section_title
;
Structure prediction by ZEFSAII (Michael W. Deem and Ramdas Pophale) SiO2 
 PCOD9344964
Probable space group: P N A 21
;
_chemical_formula_sum "Si O2"
_cell_formula_units_Z 28
_cell_length_a 8.481829
_cell_length_b 16.948461
_cell_length_c 7.923926
_cell_angle_alpha 90.000000
_cell_angle_beta 90.000000
_cell_angle_gamma 90.000000
_cell_volume 1139.095646
_symmetry_space_group_name_H-M "P N A 21"
_symmetry_group_IT_number 33
_symmetry_cell_setting 'orthorhombic'
loop_
_space_group_symop_operation_xyz
x,y,z
-x,-y,1/2+z
1/2-x,1/2+y,1/2+z
1/2+x,1/2-y,z
loop_
_atom_site_type_symbol
_atom_site_label
_atom_site_fract_x
_atom_site_fract_y
_atom_site_fract_z
Si Si1 0.486684 0.230120 0.776980
Si Si2 0.330271 0.464547 0.508002
Si Si3 0.818403 0.382458 0.993733
Si Si4 0.041903 0.171518 0.443502
Si Si5 0.634079 0.089684 0.183710
Si Si6 0.772823 0.248323 0.251059
Si Si7 0.206071 0.871350 0.357299
O O1 0.495621 0.268169 0.592314
O O2 0.652153 0.191290 0.825347
O O3 0.440217 0.311094 0.873949
O O4 0.372737 0.154413 0.814157
O O5 0.326706 0.558267 0.505230
O O6 0.493101 0.418788 0.470923
O O7 0.200910 0.447948 0.356887
O O8 0.291893 0.426470 0.690940
O O9 0.787381 0.303166 0.093370
O O10 0.963321 0.425141 0.097713
O O11 0.923715 0.197274 0.295500
O O12 0.218831 0.191579 0.396734
O O13 0.638511 0.182535 0.227851
O O14 0.754946 0.081468 0.027157
#
# Coordination Sequence:
#
# PCOD9344964 Si02
#       7
#     4   4   4   4   4   4   4
#     4  10  20  38  61  90 115 159 213 262 300 377
#     4  10  24  41  58  93 132 163 206 264 321 382
#     4  11  23  38  64  93 128 164 213 264 323 375
#     4  10  21  40  65  89 126 164 212 260 314 381
#     4  10  21  39  63  89 120 167 204 267 307 381
#     4  11  20  40  66  93 119 165 215 258 314 377
#     4  10  21  38  63  89 120 160 211 259 313 373
#
# _framework density 24.580905000000001
#
# number of rings (size 3 to 8) (size 9 to 14) (size 15 to 20)
#    0.000    1.714    2.857    2.571    4.000    0.000 
#    2.571    4.286    0.000    0.000    0.000    0.000 
#    0.000    0.000    0.000    0.000    0.000    0.000 
#
# Total GULP energy -156129.979977 kJ/mol
# GULP energy per Si atom -5576.070713 kJ/mol
# Density = 2.452496 g / cm^3
# Si number density = 24.580905 Si / 1000 Ang^3
#
#
#
# Elastic Constant Matrix: (Units=GPa)
#
#
# Indices 1 2 3 4 5 6 
#
# 1 20.1908 8.0632 -7.9580 0.0000 0.0000 0.0000
# 2 8.0632 75.3468 25.7550 0.0000 0.0000 0.0000
# 3 -7.9580 25.7550 113.0229 0.0000 0.0000 0.0000
# 4 0.0000 0.0000 0.0000 18.0624 0.0000 0.0000
# 5 0.0000 0.0000 0.0000 0.0000 14.5972 0.0000
# 6 0.0000 0.0000 0.0000 0.0000 0.0000 25.1331
#
#
#
# Elastic Compliance Matrix: (Units=1/GPa)
#
#
# Indices 1 2 3 4 5 6 
#
# 1 0.054865 -0.007799 0.005640 0.000000 0.000000 0.000000
# 2 -0.007799 0.015502 -0.004082 0.000000 0.000000 0.000000
# 3 0.005640 -0.004082 0.010175 0.000000 0.000000 0.000000
# 4 0.000000 0.000000 0.000000 0.055364 0.000000 0.000000
# 5 0.000000 0.000000 0.000000 0.000000 0.068506 0.000000
# 6 0.000000 0.000000 0.000000 0.000000 0.000000 0.039788
#
#
# Mechanical properties :
#
#
# Convention : Reuss Voigt Hill
#
# Bulk Modulus (GPa) = 14.69276 28.92011 21.80644
# Shear Modulus (GPa) = 17.89752 23.73855 20.81803
#
# Velocity S-wave (km/s) = 2.70127 3.11099 2.91334
# Velocity P-wave (km/s) = 3.96478 4.96943 4.49525
#
# Compressibility (1/GPa) = 0.06806073
#
# Stress axis : x y z
#
# Youngs Moduli (GPa) = 18.22649 64.50875 98.28020
#
# Poissons Ratio (x) = 0.50313 -0.55433
# Poissons Ratio (y) = 0.14215 0.40114
# Poissons Ratio (z) = -0.10280 0.26330
#
# Static dielectric constant tensor:
#      x y z
#    x 2.032400 0.000000 0.000000 
#    y 0.000000 1.919020 0.000000 
#    z 0.000000 0.000000 2.060890 
# 
# From -- ./inp_files/3291.got.cif
#   From: 2010.05.17/outbox.cif.g08.bks.cpg/sg33_2_cif.got.tgz:3291.got - 2010.06.03 17:15:25.
