data_PCOD9344307
_publ_section_title
;
Structure prediction by ZEFSAII (Michael W. Deem and Ramdas Pophale) SiO2 
 PCOD9344307
Probable space group: P B A 2
;
_chemical_formula_sum "Si O2"
_cell_formula_units_Z 20
_cell_length_a 5.269169
_cell_length_b 32.623798
_cell_length_c 4.896780
_cell_angle_alpha 90.000000
_cell_angle_beta 90.000000
_cell_angle_gamma 90.000000
_cell_volume 841.757976
_symmetry_space_group_name_H-M "P B A 2"
_symmetry_group_IT_number 32
_symmetry_cell_setting 'orthorhombic'
loop_
_space_group_symop_operation_xyz
x,y,z
-x,-y,z
1/2-x,1/2+y,z
1/2+x,1/2-y,z
loop_
_atom_site_type_symbol
_atom_site_label
_atom_site_fract_x
_atom_site_fract_y
_atom_site_fract_z
Si Si1 0.249242 0.989890 0.032840
Si Si2 0.172245 0.829010 0.381140
Si Si3 0.577336 0.932349 0.749885
Si Si4 0.594181 0.724792 0.880329
Si Si5 0.828114 0.378487 0.249748
O O1 0.305921 0.947865 0.873946
O O2 0.500000 0.000000 0.205184
O O3 0.258348 0.027111 0.812415
O O4 0.000000 0.000000 0.195072
O O5 0.114028 0.789867 0.191665
O O6 0.450327 0.845470 0.303668
O O7 0.949356 0.861523 0.321432
O O8 0.153172 0.814312 0.691737
O O9 0.664844 0.895231 0.943183
O O10 0.594554 0.916006 0.447163
O O11 0.314866 0.742246 0.824900
#
# Coordination Sequence:
#
# PCOD9344307 Si02
#       5
#     4   4   4   4   4
#     4   8  20  36  62  84 122 152 232 240 308 348
#     4  12  26  41  64  99 122 163 200 251 298 383
#     4   9  24  39  62  89 120 174 198 268 296 363
#     4  12  24  45  70  91 126 159 204 247 302 355
#     4  12  24  40  64  88 136 155 208 243 324 352
#
# _framework density 23.759799000000001
#
# number of rings (size 3 to 8) (size 9 to 14) (size 15 to 20)
#    1.200    0.000    0.000    6.000    5.600    3.200 
#    0.000    2.000    0.000    0.000    0.000    0.000 
#    0.000    0.000    0.000    0.000    0.000    0.000 
#
# Total GULP energy -111712.978916 kJ/mol
# GULP energy per Si atom -5585.648946 kJ/mol
# Density = 2.370572 g / cm^3
# Si number density = 23.759799 Si / 1000 Ang^3
#
#
#
# Elastic Constant Matrix: (Units=GPa)
#
#
# Indices 1 2 3 4 5 6 
#
# 1 74.6185 -15.1514 5.1856 0.0000 0.0000 0.0000
# 2 -15.1514 39.9981 -3.8004 0.0000 0.0000 0.0000
# 3 5.1856 -3.8004 56.1969 0.0000 0.0000 0.0000
# 4 0.0000 0.0000 0.0000 41.0870 0.0000 0.0000
# 5 0.0000 0.0000 0.0000 0.0000 17.1335 0.0000
# 6 0.0000 0.0000 0.0000 0.0000 0.0000 41.6110
#
#
#
# Elastic Compliance Matrix: (Units=1/GPa)
#
#
# Indices 1 2 3 4 5 6 
#
# 1 0.014571 0.005427 -0.000978 0.000000 0.000000 0.000000
# 2 0.005427 0.027184 0.001338 0.000000 0.000000 0.000000
# 3 -0.000978 0.001338 0.017975 0.000000 0.000000 0.000000
# 4 0.000000 0.000000 0.000000 0.024339 0.000000 0.000000
# 5 0.000000 0.000000 0.000000 0.000000 0.058365 0.000000
# 6 0.000000 0.000000 0.000000 0.000000 0.000000 0.024032
#
#
# Mechanical properties :
#
#
# Convention : Reuss Voigt Hill
#
# Bulk Modulus (GPa) = 14.02445 15.92014 14.97229
# Shear Modulus (GPa) = 27.98597 32.27161 30.12879
#
# Velocity S-wave (km/s) = 3.43574 3.68943 3.56484
# Velocity P-wave (km/s) = 4.65343 4.98641 4.82279
#
# Compressibility (1/GPa) = 0.07130406
#
# Stress axis : x y z
#
# Youngs Moduli (GPa) = 68.62778 36.78643 55.63211
#
# Poissons Ratio (x) = -0.19963 0.05439
# Poissons Ratio (y) = -0.37243 -0.07441
# Poissons Ratio (z) = 0.06709 -0.04920
#
# Static dielectric constant tensor:
#      x y z
#    x 2.080800 0.000000 0.000000 
#    y 0.000000 1.906640 0.000000 
#    z 0.000000 0.000000 1.799180 
# 
# From -- ./inp_files/205.got.cif
#   From: 2010.05.17/outbox.cif.g08.bks.cpg/sg32_1_cif.got.tgz:205.got - 2010.06.03 17:12:27.
