data_PCOD9344209
_publ_section_title
;
Structure prediction by ZEFSAII (Michael W. Deem and Ramdas Pophale) SiO2 
 PCOD9344209
Probable space group: P B A 2
;
_chemical_formula_sum "Si O2"
_cell_formula_units_Z 32
_cell_length_a 8.452376
_cell_length_b 13.743999
_cell_length_c 11.403036
_cell_angle_alpha 90.000000
_cell_angle_beta 90.000000
_cell_angle_gamma 90.000000
_cell_volume 1324.684390
_symmetry_space_group_name_H-M "P B A 2"
_symmetry_group_IT_number 32
_symmetry_cell_setting 'orthorhombic'
loop_
_space_group_symop_operation_xyz
x,y,z
-x,-y,z
1/2-x,1/2+y,z
1/2+x,1/2-y,z
loop_
_atom_site_type_symbol
_atom_site_label
_atom_site_fract_x
_atom_site_fract_y
_atom_site_fract_z
Si Si1 0.149476 0.749275 0.446010
Si Si2 0.920052 0.904017 0.364744
Si Si3 0.177292 0.852424 0.017104
Si Si4 0.318101 0.000508 0.179495
Si Si5 0.608989 0.213807 0.615529
Si Si6 0.642657 0.424895 0.718865
Si Si7 0.362252 0.937020 0.801948
Si Si8 0.309350 0.639101 0.987399
O O1 0.280935 0.673006 0.403198
O O2 0.226168 0.810494 0.553347
O O3 0.065320 0.825159 0.357614
O O4 0.016243 0.689999 0.515474
O O5 0.820462 0.960604 0.264368
O O6 0.000000 0.000000 0.428484
O O7 0.232572 0.906853 0.897692
O O8 0.230497 0.743275 0.998116
O O9 0.990017 0.863111 0.033618
O O10 0.270071 0.896368 0.127274
O O11 0.500000 0.000000 0.223186
O O12 0.298049 0.069898 0.066502
O O13 0.616802 0.329398 0.642490
O O14 0.579559 0.159485 0.736787
O O15 0.500000 0.500000 0.714434
O O16 0.794817 0.492905 0.699697
O O17 0.673516 0.388144 0.851506
O O18 0.500000 0.000000 0.859142
#
# Coordination Sequence:
#
# PCOD9344209 Si02
#       8
#     4   4   4   4   4   4   4   4
#     4  10  26  49  76 113 154 206 284 333 405 482
#     4  11  27  53  86 113 157 207 273 353 416 477
#     4  12  25  43  67 105 153 204 256 309 382 477
#     4  12  27  50  76 113 147 197 259 328 407 488
#     4  11  24  44  70 109 158 205 264 333 398 474
#     4  12  23  40  68 103 154 219 264 317 395 480
#     4  12  25  38  66 104 153 203 262 314 388 474
#     4  12  25  43  72 102 157 205 247 312 380 473
#
# _framework density 24.156696
#
# number of rings (size 3 to 8) (size 9 to 14) (size 15 to 20)
#    0.000    0.500    3.750    3.750    1.750   10.000 
#    0.000    0.000    0.000    0.000    0.000    0.000 
#    0.000    0.000    0.000    0.000    0.000    0.000 
#
# Total GULP energy -178644.740091 kJ/mol
# GULP energy per Si atom -5582.648128 kJ/mol
# Density = 2.410171 g / cm^3
# Si number density = 24.156696 Si / 1000 Ang^3
#
#
#
# Elastic Constant Matrix: (Units=GPa)
#
#
# Indices 1 2 3 4 5 6 
#
# 1 116.2365 38.1755 15.6874 0.0000 0.0000 0.0000
# 2 38.1755 141.9300 30.3946 0.0000 0.0000 0.0000
# 3 15.6874 30.3946 60.9580 0.0000 0.0000 0.0000
# 4 0.0000 0.0000 0.0000 44.0472 0.0000 0.0000
# 5 0.0000 0.0000 0.0000 0.0000 26.3084 0.0000
# 6 0.0000 0.0000 0.0000 0.0000 0.0000 45.4171
#
#
#
# Elastic Compliance Matrix: (Units=1/GPa)
#
#
# Indices 1 2 3 4 5 6 
#
# 1 0.009530 -0.002282 -0.001315 0.000000 0.000000 0.000000
# 2 -0.002282 0.008434 -0.003618 0.000000 0.000000 0.000000
# 3 -0.001315 -0.003618 0.018547 0.000000 0.000000 0.000000
# 4 0.000000 0.000000 0.000000 0.022703 0.000000 0.000000
# 5 0.000000 0.000000 0.000000 0.000000 0.038011 0.000000
# 6 0.000000 0.000000 0.000000 0.000000 0.000000 0.022018
#
#
# Mechanical properties :
#
#
# Convention : Reuss Voigt Hill
#
# Bulk Modulus (GPa) = 45.28600 54.18216 49.73408
# Shear Modulus (GPa) = 35.45253 38.81233 37.13243
#
# Velocity S-wave (km/s) = 3.83509 4.01270 3.92490
# Velocity P-wave (km/s) = 6.19662 6.62927 6.41659
#
# Compressibility (1/GPa) = 0.02208188
#
# Stress axis : x y z
#
# Youngs Moduli (GPa) = 104.93192 118.56318 53.91635
#
# Poissons Ratio (x) = 0.27053 0.07089
# Poissons Ratio (y) = 0.23943 0.19508
# Poissons Ratio (z) = 0.13797 0.42900
#
# Static dielectric constant tensor:
#      x y z
#    x 2.057920 0.000000 0.000000 
#    y 0.000000 1.970320 0.000000 
#    z 0.000000 0.000000 1.937550 
# 
# From -- ./inp_files/3766.got.cif
#   From: 2010.05.17/outbox.cif.g08.bks.cpg/sg32_2_cif.got.tgz:3766.got - 2010.06.03 17:12:27.
