data_PCOD9344375
_publ_section_title
;
Structure prediction by ZEFSAII (Michael W. Deem and Ramdas Pophale) SiO2 
 PCOD9344375
Probable space group: P N A 21
;
_chemical_formula_sum "Si O2"
_cell_formula_units_Z 32
_cell_length_a 5.470753
_cell_length_b 32.026460
_cell_length_c 8.742815
_cell_angle_alpha 90.000000
_cell_angle_beta 90.000000
_cell_angle_gamma 90.000000
_cell_volume 1531.818580
_symmetry_space_group_name_H-M "P N A 21"
_symmetry_group_IT_number 33
_symmetry_cell_setting 'orthorhombic'
loop_
_space_group_symop_operation_xyz
x,y,z
-x,-y,1/2+z
1/2-x,1/2+y,1/2+z
1/2+x,1/2-y,z
loop_
_atom_site_type_symbol
_atom_site_label
_atom_site_fract_x
_atom_site_fract_y
_atom_site_fract_z
Si Si1 0.382437 0.570311 0.841010
Si Si2 0.606122 0.237239 0.775634
Si Si3 0.386149 0.633775 0.562925
Si Si4 0.389657 0.859471 0.370382
Si Si5 0.154834 0.921096 0.145710
Si Si6 0.621445 0.271252 0.121038
Si Si7 0.514267 0.981283 0.992134
Si Si8 0.669140 0.485022 0.772621
O O1 0.390963 0.598402 0.692196
O O2 0.512378 0.525501 0.815188
O O3 0.509341 0.590927 0.990939
O O4 0.108567 0.556397 0.885329
O O5 0.358656 0.251363 0.693975
O O6 0.597392 0.188852 0.820284
O O7 0.614713 0.263226 0.936105
O O8 0.647628 0.634973 0.475915
O O9 0.362050 0.679389 0.641876
O O10 0.144559 0.629870 0.455288
O O11 0.328723 0.887348 0.221932
O O12 0.311553 0.961453 0.099939
O O13 0.965566 0.940955 0.266224
O O14 0.366151 0.251822 0.177943
O O15 0.731524 0.994000 0.102595
O O16 0.392906 0.016397 0.890510
#
# Coordination Sequence:
#
# PCOD9344375 Si02
#       8
#     4   4   4   4   4   4   4   4
#     4  10  25  44  61  89 130 170 208 270 333 385
#     4  10  16  34  58  89 127 163 197 267 322 369
#     4  12  24  38  65 103 125 163 222 270 315 385
#     4  12  24  38  65 103 125 163 222 270 315 385
#     4  10  25  44  61  89 130 170 208 270 333 385
#     4  10  16  34  58  89 127 163 197 267 322 369
#     4  10  22  44  66  84 118 174 206 264 316 390
#     4  10  22  44  64  86 118 168 212 252 330 378
#
# _framework density 20.890203
#
# number of rings (size 3 to 8) (size 9 to 14) (size 15 to 20)
#    0.000    1.500    5.000    0.750    7.000    5.000 
#    2.250    0.000    0.000    1.500    0.000    0.000 
#    0.000    0.000    0.000    0.000    0.000    0.000 
#
# Total GULP energy -178662.241198 kJ/mol
# GULP energy per Si atom -5583.195037 kJ/mol
# Density = 2.084266 g / cm^3
# Si number density = 20.890203 Si / 1000 Ang^3
#
#
#
# Elastic Constant Matrix: (Units=GPa)
#
#
# Indices 1 2 3 4 5 6 
#
# 1 139.3944 17.2042 22.4701 0.0000 0.0000 0.0000
# 2 17.2042 54.2841 28.9834 0.0000 0.0000 0.0000
# 3 22.4701 28.9834 37.7209 0.0000 0.0000 0.0000
# 4 0.0000 0.0000 0.0000 11.8014 0.0000 0.0000
# 5 0.0000 0.0000 0.0000 0.0000 26.4081 0.0000
# 6 0.0000 0.0000 0.0000 0.0000 0.0000**********
#
#
#
# Elastic Compliance Matrix: (Units=1/GPa)
#
#
# Indices 1 2 3 4 5 6 
#
# 1 0.007936 0.000015 -0.004739 0.000000 0.000000 0.000000
# 2 0.000015 0.031236 -0.024010 0.000000 0.000000 0.000000
# 3 -0.004739 -0.024010 0.047782 0.000000 0.000000 0.000000
# 4 0.000000 0.000000 0.000000 0.084736 0.000000 0.000000
# 5 0.000000 0.000000 0.000000 0.000000 0.037867 0.000000
# 6 0.000000 0.000000 0.000000 0.000000 0.000000 0.000008
#
#
# Mechanical properties :
#
#
# Convention : Reuss Voigt Hill
#
# Bulk Modulus (GPa) = 33.91377 40.96831 37.44104
# Shear Modulus (GPa) = 18.05965 24984.29913 12501.17939
#
# Velocity S-wave (km/s) = 2.94343 109.47959 77.44173
# Velocity P-wave (km/s) = 5.27459 126.49385 89.52239
#
# Compressibility (1/GPa) = 0.02948655
#
# Stress axis : x y z
#
# Youngs Moduli (GPa) = 126.00899 32.01432 20.92855
#
# Poissons Ratio (x) = -0.00048 0.09918
# Poissons Ratio (y) = -0.00191 0.50249
# Poissons Ratio (z) = 0.59716 0.76865
#
# Static dielectric constant tensor:
#      x y z
#    x 1.835720 0.000000 0.000000 
#    y 0.000000 1.716410 0.000000 
#    z 0.000000 0.000000 1.748760 
# 
# From -- ./inp_files/2874.got.cif
#   From: 2010.05.17/outbox.cif.g08.bks.cpg/sg33_2_cif.got.tgz:2874.got - 2010.06.03 17:15:25.
