data_PCOD9344584
_publ_section_title
;
Structure prediction by ZEFSAII (Michael W. Deem and Ramdas Pophale) SiO2 
 PCOD9344584
Probable space group: P N A 21
;
_chemical_formula_sum "Si O2"
_cell_formula_units_Z 28
_cell_length_a 9.546660
_cell_length_b 18.149673
_cell_length_c 8.204819
_cell_angle_alpha 90.000000
_cell_angle_beta 90.000000
_cell_angle_gamma 90.000000
_cell_volume 1421.638792
_symmetry_space_group_name_H-M "P N A 21"
_symmetry_group_IT_number 33
_symmetry_cell_setting 'orthorhombic'
loop_
_space_group_symop_operation_xyz
x,y,z
-x,-y,1/2+z
1/2-x,1/2+y,1/2+z
1/2+x,1/2-y,z
loop_
_atom_site_type_symbol
_atom_site_label
_atom_site_fract_x
_atom_site_fract_y
_atom_site_fract_z
Si Si1 0.546612 0.676249 0.609420
Si Si2 0.977412 0.797468 0.982496
Si Si3 0.977269 0.959124 0.391715
Si Si4 0.155699 0.919659 0.102700
Si Si5 0.686003 0.230080 0.924354
Si Si6 0.251466 0.634168 0.194496
Si Si7 0.057671 0.361171 0.633781
O O1 0.525695 0.687231 0.800390
O O2 0.508483 0.595383 0.542418
O O3 0.438700 0.731069 0.520989
O O4 0.700459 0.696421 0.545647
O O5 0.832286 0.836835 0.033804
O O6 0.962231 0.711451 0.021929
O O7 0.092022 0.836743 0.100316
O O8 0.851952 0.924121 0.283831
O O9 0.111501 0.956711 0.273257
O O10 0.926680 0.035845 0.463917
O O11 0.320320 0.914597 0.071058
O O12 0.754698 0.294589 0.813401
O O13 0.620458 0.170001 0.803281
O O14 0.096267 0.606393 0.158888
#
# Coordination Sequence:
#
# PCOD9344584 Si02
#       7
#     4   4   4   4   4   4   4
#     4  11  21  35  58  92 121 153 203 254 302 356
#     4  10  22  35  61  91 124 151 202 255 299 365
#     4  10  22  41  61  84 117 163 204 243 300 370
#     4  11  22  41  64  85 117 164 206 245 298 371
#     4  10  19  34  59  86 116 157 197 249 302 355
#     4   9  20  38  56  84 121 157 192 248 309 360
#     4  11  20  38  61  88 118 163 196 250 314 357
#
# _framework density 19.695578999999999
#
# number of rings (size 3 to 8) (size 9 to 14) (size 15 to 20)
#    0.000    1.714    2.857    3.429    4.000    0.000 
#    0.000    4.286    0.000    0.000    0.000    0.000 
#    0.000    0.000    0.000    0.000    0.000    0.000 
#
# Total GULP energy -156407.551088 kJ/mol
# GULP energy per Si atom -5585.983967 kJ/mol
# Density = 1.965075 g / cm^3
# Si number density = 19.695579 Si / 1000 Ang^3
#
#
#
# Elastic Constant Matrix: (Units=GPa)
#
#
# Indices 1 2 3 4 5 6 
#
# 1 102.9089 1.3659 9.6660 0.0000 0.0000 0.0000
# 2 1.3659 43.0618 7.0539 0.0000 0.0000 0.0000
# 3 9.6660 7.0539 91.2412 0.0000 0.0000 0.0000
# 4 0.0000 0.0000 0.0000 22.3895 0.0000 0.0000
# 5 0.0000 0.0000 0.0000 0.0000 26.7087 0.0000
# 6 0.0000 0.0000 0.0000 0.0000 0.0000 16.9863
#
#
#
# Elastic Compliance Matrix: (Units=1/GPa)
#
#
# Indices 1 2 3 4 5 6 
#
# 1 0.009816 -0.000143 -0.001029 0.000000 0.000000 0.000000
# 2 -0.000143 0.023522 -0.001803 0.000000 0.000000 0.000000
# 3 -0.001029 -0.001803 0.011208 0.000000 0.000000 0.000000
# 4 0.000000 0.000000 0.000000 0.044664 0.000000 0.000000
# 5 0.000000 0.000000 0.000000 0.000000 0.037441 0.000000
# 6 0.000000 0.000000 0.000000 0.000000 0.000000 0.058871
#
#
# Mechanical properties :
#
#
# Convention : Reuss Voigt Hill
#
# Bulk Modulus (GPa) = 25.90909 30.37595 28.14252
# Shear Modulus (GPa) = 24.46927 27.82531 26.14729
#
# Velocity S-wave (km/s) = 3.52856 3.76276 3.64754
# Velocity P-wave (km/s) = 5.45750 5.85952 5.66208
#
# Compressibility (1/GPa) = 0.03859650
#
# Stress axis : x y z
#
# Youngs Moduli (GPa) = 101.87594 42.51268 89.21897
#
# Poissons Ratio (x) = 0.00607 0.09179
# Poissons Ratio (y) = 0.01455 0.16090
# Poissons Ratio (z) = 0.10481 0.07667
#
# Static dielectric constant tensor:
#      x y z
#    x 1.702300 0.000000 0.000000 
#    y 0.000000 1.704120 0.000000 
#    z 0.000000 0.000000 1.702510 
# 
# From -- ./inp_files/3289.got.cif
#   From: 2010.05.17/outbox.cif.g08.bks.cpg/sg33_2_cif.got.tgz:3289.got - 2010.06.03 17:15:25.
