data_PCOD9344864
_publ_section_title
;
Structure prediction by ZEFSAII (Michael W. Deem and Ramdas Pophale) SiO2 
 PCOD9344864
Probable space group: P N A 21
;
_chemical_formula_sum "Si O2"
_cell_formula_units_Z 24
_cell_length_a 16.149942
_cell_length_b 5.038769
_cell_length_c 14.486656
_cell_angle_alpha 90.000000
_cell_angle_beta 90.000000
_cell_angle_gamma 90.000000
_cell_volume 1178.863614
_symmetry_space_group_name_H-M "P N A 21"
_symmetry_group_IT_number 33
_symmetry_cell_setting 'orthorhombic'
loop_
_space_group_symop_operation_xyz
x,y,z
-x,-y,1/2+z
1/2-x,1/2+y,1/2+z
1/2+x,1/2-y,z
loop_
_atom_site_type_symbol
_atom_site_label
_atom_site_fract_x
_atom_site_fract_y
_atom_site_fract_z
Si Si1 0.917924 0.381505 0.240510
Si Si2 0.358806 0.617634 0.351967
Si Si3 0.019708 0.876352 0.984592
Si Si4 0.565055 0.874704 0.541652
Si Si5 0.168374 0.640702 0.350609
Si Si6 0.583492 0.354944 0.294099
O O1 0.910033 0.634159 0.308937
O O2 0.890689 0.451384 0.136919
O O3 0.012916 0.278585 0.232036
O O4 0.868691 0.133011 0.283160
O O5 0.395258 0.504666 0.448526
O O6 0.264378 0.706452 0.360508
O O7 0.966506 0.869451 0.890462
O O8 0.009737 0.582633 0.023698
O O9 0.972078 0.081077 0.049158
O O10 0.624097 0.871866 0.451329
O O11 0.157061 0.352403 0.306367
O O12 0.121072 0.853252 0.285648
#
# Coordination Sequence:
#
# PCOD9344864 Si02
#       6
#     4   4   4   4   4   4
#     4  11  21  36  58  84 112 147 192 242 281 327
#     4  11  21  36  58  83 113 149 187 230 287 348
#     4   9  18  34  55  77 103 143 187 220 267 341
#     4  10  20  36  57  81 109 145 189 235 276 323
#     4  10  20  36  57  79 110 148 183 224 282 346
#     4   9  18  34  55  76 103 144 186 217 267 341
#
# _framework density 20.35859
#
# number of rings (size 3 to 8) (size 9 to 14) (size 15 to 20)
#    0.000    2.000    0.000    7.000    0.000    0.000 
#    0.000    5.000    0.000    4.000    0.000    0.000 
#    0.000    0.000    0.000    0.000    0.000    0.000 
#
# Total GULP energy -133700.826078 kJ/mol
# GULP energy per Si atom -5570.867753 kJ/mol
# Density = 2.031225 g / cm^3
# Si number density = 20.358590 Si / 1000 Ang^3
#
#
#
# Elastic Constant Matrix: (Units=GPa)
#
#
# Indices 1 2 3 4 5 6 
#
# 1 85.9221 13.0037 3.3138 0.0000 0.0000 0.0000
# 2 13.0037 105.0918 17.8873 0.0000 0.0000 0.0000
# 3 3.3138 17.8873 56.6687 0.0000 0.0000 0.0000
# 4 0.0000 0.0000 0.0000 19.4432 0.0000 0.0000
# 5 0.0000 0.0000 0.0000 0.0000 10.5655 0.0000
# 6 0.0000 0.0000 0.0000 0.0000 0.0000 27.3352
#
#
#
# Elastic Compliance Matrix: (Units=1/GPa)
#
#
# Indices 1 2 3 4 5 6 
#
# 1 0.011864 -0.001427 -0.000243 0.000000 0.000000 0.000000
# 2 -0.001427 0.010227 -0.003145 0.000000 0.000000 0.000000
# 3 -0.000243 -0.003145 0.018653 0.000000 0.000000 0.000000
# 4 0.000000 0.000000 0.000000 0.051432 0.000000 0.000000
# 5 0.000000 0.000000 0.000000 0.000000 0.094648 0.000000
# 6 0.000000 0.000000 0.000000 0.000000 0.000000 0.036583
#
#
# Mechanical properties :
#
#
# Convention : Reuss Voigt Hill
#
# Bulk Modulus (GPa) = 32.13912 35.12135 33.63023
# Shear Modulus (GPa) = 20.54164 25.70064 23.12114
#
# Velocity S-wave (km/s) = 3.17991 3.55688 3.37366
# Velocity P-wave (km/s) = 5.41324 5.84443 5.63296
#
# Compressibility (1/GPa) = 0.03111473
#
# Stress axis : x y z
#
# Youngs Moduli (GPa) = 84.29053 97.77786 53.60980
#
# Poissons Ratio (x) = 0.13948 0.01305
# Poissons Ratio (y) = 0.12024 0.16859
# Poissons Ratio (z) = 0.02052 0.30749
#
# Static dielectric constant tensor:
#      x y z
#    x 1.744520 0.000000 0.000000 
#    y 0.000000 1.735500 0.000000 
#    z 0.000000 0.000000 1.799900 
# 
# From -- ./inp_files/8041.got.cif
#   From: 2010.05.17/outbox.cif.g08.bks.cpg/sg33_5_cif.got.tgz:8041.got - 2010.06.03 17:15:25.
