data_PCOD9344586
_publ_section_title
;
Structure prediction by ZEFSAII (Michael W. Deem and Ramdas Pophale) SiO2 
 PCOD9344586
Probable space group: P N A 21
;
_chemical_formula_sum "Si O2"
_cell_formula_units_Z 24
_cell_length_a 9.338318
_cell_length_b 16.359673
_cell_length_c 7.334873
_cell_angle_alpha 90.000000
_cell_angle_beta 90.000000
_cell_angle_gamma 90.000000
_cell_volume 1120.561963
_symmetry_space_group_name_H-M "P N A 21"
_symmetry_group_IT_number 33
_symmetry_cell_setting 'orthorhombic'
loop_
_space_group_symop_operation_xyz
x,y,z
-x,-y,1/2+z
1/2-x,1/2+y,1/2+z
1/2+x,1/2-y,z
loop_
_atom_site_type_symbol
_atom_site_label
_atom_site_fract_x
_atom_site_fract_y
_atom_site_fract_z
Si Si1 0.590089 0.912285 0.371210
Si Si2 0.317607 0.246012 0.090151
Si Si3 0.432179 0.728224 0.846606
Si Si4 0.062350 0.407005 0.365886
Si Si5 0.785049 0.593528 0.465548
Si Si6 0.754488 0.916450 0.992190
O O1 0.623777 0.834149 0.493660
O O2 0.420042 0.906249 0.329745
O O3 0.689230 0.907512 0.193881
O O4 0.606807 0.005060 0.448891
O O5 0.406894 0.271235 0.270940
O O6 0.158888 0.227103 0.159706
O O7 0.307598 0.324932 0.960883
O O8 0.402577 0.816298 0.939458
O O9 0.374390 0.650920 0.955638
O O10 0.134517 0.408557 0.164671
O O11 0.888732 0.406913 0.368056
O O12 0.697761 0.509512 0.456672
#
# Coordination Sequence:
#
# PCOD9344586 Si02
#       6
#     4   4   4   4   4   4
#     4  10  19  34  59  88 115 147 201 248 284 345
#     4  11  20  38  60  83 114 161 194 233 295 370
#     4  11  20  38  60  82 117 157 198 228 302 367
#     4   9  18  35  59  82 111 157 195 233 290 367
#     4   9  19  37  59  84 116 159 199 239 297 361
#     4  10  20  34  59  89 119 149 199 255 292 344
#
# _framework density 21.417825000000001
#
# number of rings (size 3 to 8) (size 9 to 14) (size 15 to 20)
#    0.000    2.000    5.000    0.000    0.000    1.333 
#    0.000    5.000    0.000    0.000    0.000    0.000 
#    0.000    0.000    0.000    0.000    0.000    0.000 
#
# Total GULP energy -133693.803972 kJ/mol
# GULP energy per Si atom -5570.575165 kJ/mol
# Density = 2.136908 g / cm^3
# Si number density = 21.417825 Si / 1000 Ang^3
#
#
#
# Elastic Constant Matrix: (Units=GPa)
#
#
# Indices 1 2 3 4 5 6 
#
# 1 23.8300 17.7482 -5.0973 0.0000 0.0000 0.0000
# 2 17.7482 176.2977 19.8994 0.0000 0.0000 0.0000
# 3 -5.0973 19.8994 34.7840 0.0000 0.0000 0.0000
# 4 0.0000 0.0000 0.0000 35.1417 0.0000 0.0000
# 5 0.0000 0.0000 0.0000 0.0000 22.0189 0.0000
# 6 0.0000 0.0000 0.0000 0.0000 0.0000 35.1299
#
#
#
# Elastic Compliance Matrix: (Units=1/GPa)
#
#
# Indices 1 2 3 4 5 6 
#
# 1 0.048795 -0.006114 0.010648 0.000000 0.000000 0.000000
# 2 -0.006114 0.006830 -0.004803 0.000000 0.000000 0.000000
# 3 0.010648 -0.004803 0.033057 0.000000 0.000000 0.000000
# 4 0.000000 0.000000 0.000000 0.028456 0.000000 0.000000
# 5 0.000000 0.000000 0.000000 0.000000 0.045416 0.000000
# 6 0.000000 0.000000 0.000000 0.000000 0.000000 0.028466
#
#
# Mechanical properties :
#
#
# Convention : Reuss Voigt Hill
#
# Bulk Modulus (GPa) = 11.34507 33.33473 22.33990
# Shear Modulus (GPa) = 22.63063 31.94887 27.28975
#
# Velocity S-wave (km/s) = 3.25410 3.86644 3.57341
# Velocity P-wave (km/s) = 4.40766 5.96073 5.24203
#
# Compressibility (1/GPa) = 0.08814399
#
# Stress axis : x y z
#
# Youngs Moduli (GPa) = 20.49378 146.41462 30.25068
#
# Poissons Ratio (x) = 0.89521 -0.32212
# Poissons Ratio (y) = 0.12530 0.14530
# Poissons Ratio (z) = -0.21822 0.70327
#
# Static dielectric constant tensor:
#      x y z
#    x 1.735160 0.000000 0.000000 
#    y 0.000000 1.833940 0.000000 
#    z 0.000000 0.000000 1.849090 
# 
# From -- ./inp_files/3180.got.cif
#   From: 2010.05.17/outbox.cif.g08.bks.cpg/sg33_2_cif.got.tgz:3180.got - 2010.06.03 17:15:25.
