data_PCOD9344816
_publ_section_title
;
Structure prediction by ZEFSAII (Michael W. Deem and Ramdas Pophale) SiO2 
 PCOD9344816
Probable space group: P N A 21
;
_chemical_formula_sum "Si O2"
_cell_formula_units_Z 28
_cell_length_a 19.722137
_cell_length_b 7.141692
_cell_length_c 7.315159
_cell_angle_alpha 90.000000
_cell_angle_beta 90.000000
_cell_angle_gamma 90.000000
_cell_volume 1030.335961
_symmetry_space_group_name_H-M "P N A 21"
_symmetry_group_IT_number 33
_symmetry_cell_setting 'orthorhombic'
loop_
_space_group_symop_operation_xyz
x,y,z
-x,-y,1/2+z
1/2-x,1/2+y,1/2+z
1/2+x,1/2-y,z
loop_
_atom_site_type_symbol
_atom_site_label
_atom_site_fract_x
_atom_site_fract_y
_atom_site_fract_z
Si Si1 0.253393 0.536998 0.170830
Si Si2 0.633584 0.332931 0.908864
Si Si3 0.501254 0.225660 0.429906
Si Si4 0.354619 0.238794 0.518347
Si Si5 0.842799 0.128203 0.918164
Si Si6 0.992421 0.158926 0.009060
Si Si7 0.144167 0.304259 0.329025
O O1 0.307029 0.685462 0.260538
O O2 0.207185 0.596972 0.992698
O O3 0.205029 0.451906 0.331809
O O4 0.294189 0.354585 0.090233
O O5 0.636123 0.560776 0.925459
O O6 0.554335 0.283089 0.876176
O O7 0.641218 0.244532 0.110518
O O8 0.429387 0.145963 0.501973
O O9 0.504476 0.432496 0.519131
O O10 0.497097 0.262218 0.212248
O O11 0.575118 0.128321 0.431209
O O12 0.327547 0.296321 0.719565
O O13 0.846449 0.902669 0.907278
O O14 0.918113 0.202688 0.943777
#
# Coordination Sequence:
#
# PCOD9344816 Si02
#       7
#     4   4   4   4   4   4   4
#     4  12  21  34  56  84 118 148 174 226 288 333
#     4   9  19  36  56  81 109 143 191 230 267 322
#     4   9  17  34  56  80 109 142 186 230 270 324
#     4  10  21  35  54  81 111 144 184 227 273 329
#     4  10  20  34  56  83 109 142 188 232 270 320
#     4   9  16  31  58  80 101 140 190 235 262 303
#     4   9  20  36  54  79 111 147 183 224 274 327
#
# _framework density 27.175604
#
# number of rings (size 3 to 8) (size 9 to 14) (size 15 to 20)
#    0.000    2.286    0.000    6.000    0.000    1.143 
#    0.000    2.857    0.000    6.857    0.000    0.000 
#    0.000    0.000    0.000    0.000    0.000    0.000 
#
# Total GULP energy -156089.690948 kJ/mol
# GULP energy per Si atom -5574.631820 kJ/mol
# Density = 2.711375 g / cm^3
# Si number density = 27.175604 Si / 1000 Ang^3
#
#
#
# Elastic Constant Matrix: (Units=GPa)
#
#
# Indices 1 2 3 4 5 6 
#
# 1 217.1544 6.6964 11.4834 0.0000 0.0000 0.0000
# 2 6.6964 78.7252 -11.3061 0.0000 0.0000 0.0000
# 3 11.4834 -11.3061 45.6218 0.0000 0.0000 0.0000
# 4 0.0000 0.0000 0.0000 4.9417 0.0000 0.0000
# 5 0.0000 0.0000 0.0000 0.0000 30.0163 0.0000
# 6 0.0000 0.0000 0.0000 0.0000 0.0000 8.2523
#
#
#
# Elastic Compliance Matrix: (Units=1/GPa)
#
#
# Indices 1 2 3 4 5 6 
#
# 1 0.004693 -0.000590 -0.001328 0.000000 0.000000 0.000000
# 2 -0.000590 0.013245 0.003431 0.000000 0.000000 0.000000
# 3 -0.001328 0.003431 0.023104 0.000000 0.000000 0.000000
# 4 0.000000 0.000000 0.000000 0.202360 0.000000 0.000000
# 5 0.000000 0.000000 0.000000 0.000000 0.033315 0.000000
# 6 0.000000 0.000000 0.000000 0.000000 0.000000 0.121178
#
#
# Mechanical properties :
#
#
# Convention : Reuss Voigt Hill
#
# Bulk Modulus (GPa) = 22.69142 39.47211 31.08177
# Shear Modulus (GPa) = 12.20827 30.95058 21.57943
#
# Velocity S-wave (km/s) = 2.12182 3.37844 2.82099
# Velocity P-wave (km/s) = 3.79089 5.45663 4.69817
#
# Compressibility (1/GPa) = 0.04406952
#
# Stress axis : x y z
#
# Youngs Moduli (GPa) = 213.06462 75.49837 43.28302
#
# Poissons Ratio (x) = 0.04454 0.05746
# Poissons Ratio (y) = 0.12568 -0.14850
# Poissons Ratio (z) = 0.28286 -0.25903
#
# Static dielectric constant tensor:
#      x y z
#    x 2.916310 0.000000 0.000000 
#    y 0.000000 2.543830 0.000000 
#    z 0.000000 0.000000 2.224550 
# 
# From -- ./inp_files/4704.got.cif
#   From: 2010.05.17/outbox.cif.g08.bks.cpg/sg33_3_cif.got.tgz:4704.got - 2010.06.03 17:15:25.
