data_PCOD9344659
_publ_section_title
;
Structure prediction by ZEFSAII (Michael W. Deem and Ramdas Pophale) SiO2 
 PCOD9344659
Probable space group: P N A 21
;
_chemical_formula_sum "Si O2"
_cell_formula_units_Z 28
_cell_length_a 17.847822
_cell_length_b 5.036094
_cell_length_c 13.532707
_cell_angle_alpha 90.000000
_cell_angle_beta 90.000000
_cell_angle_gamma 90.000000
_cell_volume 1216.364489
_symmetry_space_group_name_H-M "P N A 21"
_symmetry_group_IT_number 33
_symmetry_cell_setting 'orthorhombic'
loop_
_space_group_symop_operation_xyz
x,y,z
-x,-y,1/2+z
1/2-x,1/2+y,1/2+z
1/2+x,1/2-y,z
loop_
_atom_site_type_symbol
_atom_site_label
_atom_site_fract_x
_atom_site_fract_y
_atom_site_fract_z
Si Si1 0.096227 0.932074 0.900780
Si Si2 0.730706 0.294779 0.839003
Si Si3 0.906620 0.568536 0.662749
Si Si4 0.872057 0.079738 0.774887
Si Si5 0.788094 0.384057 0.521374
Si Si6 0.150802 0.316543 0.443287
Si Si7 0.992372 0.553290 0.461478
O O1 0.153223 0.050553 0.818573
O O2 0.038570 0.160922 0.930277
O O3 0.155184 0.851953 0.988332
O O4 0.048523 0.663734 0.890538
O O5 0.790740 0.513993 0.876880
O O6 0.782109 0.129858 0.762628
O O7 0.712345 0.089684 0.928595
O O8 0.907523 0.863187 0.703057
O O9 0.824879 0.523729 0.614107
O O10 0.962320 0.514832 0.573189
O O11 0.913649 0.353147 0.749812
O O12 0.875452 0.940766 0.881574
O O13 0.703873 0.281096 0.531717
O O14 0.079761 0.493468 0.465926
#
# Coordination Sequence:
#
# PCOD9344659 Si02
#       7
#     4   4   4   4   4   4   4
#     4  10  19  36  61  92 114 152 214 250 290 353
#     4  10  19  41  62  91 118 160 211 254 289 378
#     4  11  21  39  63  91 122 161 207 261 312 361
#     4  11  23  38  63  89 127 160 205 255 320 362
#     4   9  20  37  65  90 117 156 212 254 294 368
#     4  10  23  40  65  93 124 167 209 248 309 379
#     4  11  23  37  65  92 124 166 208 252 302 375
#
# _framework density 23.019417000000001
#
# number of rings (size 3 to 8) (size 9 to 14) (size 15 to 20)
#    0.000    1.714    4.286    1.714    6.000    0.000 
#    0.000    0.000    9.429    0.000    0.000    0.000 
#    0.000    0.000    0.000    0.000    0.000    0.000 
#
# Total GULP energy -156250.462815 kJ/mol
# GULP energy per Si atom -5580.373672 kJ/mol
# Density = 2.296702 g / cm^3
# Si number density = 23.019417 Si / 1000 Ang^3
#
#
#
# Elastic Constant Matrix: (Units=GPa)
#
#
# Indices 1 2 3 4 5 6 
#
# 1 125.1964 27.5958 7.7551 0.0000 0.0000 0.0000
# 2 27.5958 125.4294 5.4300 0.0000 0.0000 0.0000
# 3 7.7551 5.4300 24.4567 0.0000 0.0000 0.0000
# 4 0.0000 0.0000 0.0000 21.9633 0.0000 0.0000
# 5 0.0000 0.0000 0.0000 0.0000 17.7491 0.0000
# 6 0.0000 0.0000 0.0000 0.0000 0.0000 37.5779
#
#
#
# Elastic Compliance Matrix: (Units=1/GPa)
#
#
# Indices 1 2 3 4 5 6 
#
# 1 0.008522 -0.001775 -0.002308 0.000000 0.000000 0.000000
# 2 -0.001775 0.008420 -0.001307 0.000000 0.000000 0.000000
# 3 -0.002308 -0.001307 0.041911 0.000000 0.000000 0.000000
# 4 0.000000 0.000000 0.000000 0.045530 0.000000 0.000000
# 5 0.000000 0.000000 0.000000 0.000000 0.056341 0.000000
# 6 0.000000 0.000000 0.000000 0.000000 0.000000 0.026611
#
#
# Mechanical properties :
#
#
# Convention : Reuss Voigt Hill
#
# Bulk Modulus (GPa) = 20.80180 39.62714 30.21447
# Shear Modulus (GPa) = 23.34943 31.07817 27.21380
#
# Velocity S-wave (km/s) = 3.18832 3.67834 3.44206
# Velocity P-wave (km/s) = 4.75501 5.94073 5.38063
#
# Compressibility (1/GPa) = 0.04807277
#
# Stress axis : x y z
#
# Youngs Moduli (GPa) = 117.34814 118.76934 23.86031
#
# Poissons Ratio (x) = 0.21081 0.05507
# Poissons Ratio (y) = 0.20829 0.03117
# Poissons Ratio (z) = 0.27085 0.15518
#
# Static dielectric constant tensor:
#      x y z
#    x 1.913010 0.000000 0.000000 
#    y 0.000000 1.929580 0.000000 
#    z 0.000000 0.000000 1.916460 
# 
# From -- ./inp_files/8210.got.cif
#   From: 2010.05.17/outbox.cif.g08.bks.cpg/sg33_5_cif.got.tgz:8210.got - 2010.06.03 17:15:25.
