data_PCOD9344003
_publ_section_title
;
Structure prediction by ZEFSAII (Michael W. Deem and Ramdas Pophale) SiO2 
 PCOD9344003
Probable space group: P B A 2
;
_chemical_formula_sum "Si O2"
_cell_formula_units_Z 30
_cell_length_a 10.984096
_cell_length_b 21.718416
_cell_length_c 5.413924
_cell_angle_alpha 90.000000
_cell_angle_beta 90.000000
_cell_angle_gamma 90.000000
_cell_volume 1291.530368
_symmetry_space_group_name_H-M "P B A 2"
_symmetry_group_IT_number 32
_symmetry_cell_setting 'orthorhombic'
loop_
_space_group_symop_operation_xyz
x,y,z
-x,-y,z
1/2-x,1/2+y,z
1/2+x,1/2-y,z
loop_
_atom_site_type_symbol
_atom_site_label
_atom_site_fract_x
_atom_site_fract_y
_atom_site_fract_z
Si Si1 0.000000 0.500000 0.544160
Si Si2 0.957781 0.394641 0.879889
Si Si3 0.200717 0.682840 0.193186
Si Si4 0.657982 0.101943 0.252523
Si Si5 0.876369 0.959590 0.736237
Si Si6 0.488277 0.792321 0.494730
Si Si7 0.851384 0.818577 0.703227
Si Si8 0.146048 0.989075 0.235959
O O1 0.929064 0.455210 0.730198
O O2 0.082232 0.453406 0.385142
O O3 0.949294 0.339118 0.686407
O O4 0.095432 0.395494 0.983573
O O5 0.869211 0.379349 0.106530
O O6 0.281687 0.677182 0.438168
O O7 0.084692 0.723352 0.279489
O O8 0.276347 0.701171 0.949535
O O9 0.623012 0.166870 0.381027
O O10 0.797305 0.079354 0.255578
O O11 0.899271 0.887112 0.758792
O O12 0.813764 0.973885 0.476823
O O13 0.809346 0.983692 0.978435
O O14 0.000000 0.000000 0.726256
O O15 0.449284 0.733194 0.644934
O O16 0.000000 0.000000 0.227386
#
# Coordination Sequence:
#
# PCOD9344003 Si02
#       8
#     2   4   4   4   4   4   4   4
#     4  10  22  36  66 106 138 178 230 298 374 424
#     4  10  22  43  64 101 144 178 237 303 364 442
#     4  11  25  46  70 104 140 191 245 304 367 458
#     4  10  23  40  70 101 143 186 236 306 370 444
#     4  10  24  45  66 100 140 183 244 297 368 449
#     4  10  25  49  69 107 148 189 255 310 372 467
#     4  12  26  45  76 103 143 203 242 311 391 448
#     4  10  23  45  65  98 139 185 236 298 366 450
#
# _framework density 23.228256999999999
#
# number of rings (size 3 to 8) (size 9 to 14) (size 15 to 20)
#    0.000    1.600    1.333    1.200    9.333    4.267 
#    4.800    1.333    0.000    0.000    0.000    0.000 
#    0.000    0.000    0.000    0.000    0.000    0.000 
#
# Total GULP energy -167452.243869 kJ/mol
# GULP energy per Si atom -5581.741462 kJ/mol
# Density = 2.317539 g / cm^3
# Si number density = 23.228257 Si / 1000 Ang^3
#
#
#
# Elastic Constant Matrix: (Units=GPa)
#
#
# Indices 1 2 3 4 5 6 
#
# 1 62.1651 -2.1908 23.7688 0.0000 0.0000 0.0000
# 2 -2.1908 71.5722 26.6572 0.0000 0.0000 0.0000
# 3 23.7688 26.6572 164.4294 0.0000 0.0000 0.0000
# 4 0.0000 0.0000 0.0000 14.0718 0.0000 0.0000
# 5 0.0000 0.0000 0.0000 0.0000 16.8684 0.0000
# 6 0.0000 0.0000 0.0000 0.0000 0.0000 11.8420
#
#
#
# Elastic Compliance Matrix: (Units=1/GPa)
#
#
# Indices 1 2 3 4 5 6 
#
# 1 0.017186 0.001545 -0.002735 0.000000 0.000000 0.000000
# 2 0.001545 0.015009 -0.002656 0.000000 0.000000 0.000000
# 3 -0.002735 -0.002656 0.006908 0.000000 0.000000 0.000000
# 4 0.000000 0.000000 0.000000 0.071064 0.000000 0.000000
# 5 0.000000 0.000000 0.000000 0.000000 0.059282 0.000000
# 6 0.000000 0.000000 0.000000 0.000000 0.000000 0.084445
#
#
# Mechanical properties :
#
#
# Convention : Reuss Voigt Hill
#
# Bulk Modulus (GPa) = 31.83770 43.84856 37.84313
# Shear Modulus (GPa) = 18.37847 25.21854 21.79851
#
# Velocity S-wave (km/s) = 2.81590 3.29855 3.06673
# Velocity P-wave (km/s) = 4.93038 5.78147 5.37280
#
# Compressibility (1/GPa) = 0.03140931
#
# Stress axis : x y z
#
# Youngs Moduli (GPa) = 58.18602 66.62852 144.76770
#
# Poissons Ratio (x) = -0.10292 0.39590
# Poissons Ratio (y) = -0.08988 0.38457
# Poissons Ratio (z) = 0.15912 0.17700
#
# Static dielectric constant tensor:
#      x y z
#    x 1.757320 0.000000 0.000000 
#    y 0.000000 1.827680 0.000000 
#    z 0.000000 0.000000 1.923040 
# 
# From -- ./inp_files/1034.got.cif
#   From: 2010.05.17/outbox.cif.g08.bks.cpg/sg32_1_cif.got.tgz:1034.got - 2010.06.03 17:12:27.
