data_PCOD9344772
_publ_section_title
;
Structure prediction by ZEFSAII (Michael W. Deem and Ramdas Pophale) SiO2 
 PCOD9344772
Probable space group: P N A 21
;
_chemical_formula_sum "Si O2"
_cell_formula_units_Z 20
_cell_length_a 17.206164
_cell_length_b 6.434365
_cell_length_c 8.497588
_cell_angle_alpha 90.000000
_cell_angle_beta 90.000000
_cell_angle_gamma 90.000000
_cell_volume 940.774251
_symmetry_space_group_name_H-M "P N A 21"
_symmetry_group_IT_number 33
_symmetry_cell_setting 'orthorhombic'
loop_
_space_group_symop_operation_xyz
x,y,z
-x,-y,1/2+z
1/2-x,1/2+y,1/2+z
1/2+x,1/2-y,z
loop_
_atom_site_type_symbol
_atom_site_label
_atom_site_fract_x
_atom_site_fract_y
_atom_site_fract_z
Si Si1 0.542313 0.611807 0.866000
Si Si2 0.105349 0.020688 0.190418
Si Si3 0.400162 0.843483 0.929243
Si Si4 0.675555 0.500974 0.657480
Si Si5 0.205952 0.719705 0.380043
O O1 0.472904 0.473791 0.792028
O O2 0.493666 0.813512 0.925017
O O3 0.607083 0.639722 0.733737
O O4 0.581736 0.499881 0.012122
O O5 0.171829 0.864339 0.241915
O O6 0.125111 0.246462 0.259605
O O7 0.361915 0.065662 0.938242
O O8 0.365286 0.687686 0.060792
O O9 0.726018 0.411175 0.800332
O O10 0.723332 0.632245 0.528400
#
# Coordination Sequence:
#
# PCOD9344772 Si02
#       5
#     4   4   4   4   4
#     4  10  19  44  67  87 136 169 214 283 314 385
#     4   9  20  41  62  94 125 168 218 267 324 380
#     4   9  21  42  63  90 126 170 217 267 316 397
#     4  11  25  43  63  96 135 170 217 272 332 392
#     4  11  25  40  65  95 130 173 216 267 334 402
#
# _framework density 21.259087000000001
#
# number of rings (size 3 to 8) (size 9 to 14) (size 15 to 20)
#    1.200    0.800    2.000    0.000    5.600    3.200 
#    0.000    0.000    0.000    0.000    0.000    0.000 
#    0.000    0.000    0.000    0.000    0.000    0.000 
#
# Total GULP energy -111419.725403 kJ/mol
# GULP energy per Si atom -5570.986270 kJ/mol
# Density = 2.121070 g / cm^3
# Si number density = 21.259087 Si / 1000 Ang^3
#
#
#
# Elastic Constant Matrix: (Units=GPa)
#
#
# Indices 1 2 3 4 5 6 
#
# 1 79.2094 2.3408 24.4403 0.0000 0.0000 0.0000
# 2 2.3408 27.9183 7.6461 0.0000 0.0000 0.0000
# 3 24.4403 7.6461 87.1745 0.0000 0.0000 0.0000
# 4 0.0000 0.0000 0.0000 14.0764 0.0000 0.0000
# 5 0.0000 0.0000 0.0000 0.0000 43.7858 0.0000
# 6 0.0000 0.0000 0.0000 0.0000 0.0000 19.6056
#
#
#
# Elastic Compliance Matrix: (Units=1/GPa)
#
#
# Indices 1 2 3 4 5 6 
#
# 1 0.013821 -0.000100 -0.003866 0.000000 0.000000 0.000000
# 2 -0.000100 0.036701 -0.003191 0.000000 0.000000 0.000000
# 3 -0.003866 -0.003191 0.012835 0.000000 0.000000 0.000000
# 4 0.000000 0.000000 0.000000 0.071041 0.000000 0.000000
# 5 0.000000 0.000000 0.000000 0.000000 0.022838 0.000000
# 6 0.000000 0.000000 0.000000 0.000000 0.000000 0.051006
#
#
# Mechanical properties :
#
#
# Convention : Reuss Voigt Hill
#
# Bulk Modulus (GPa) = 20.39037 29.23962 24.81499
# Shear Modulus (GPa) = 20.92894 26.15189 23.54041
#
# Velocity S-wave (km/s) = 3.14103 3.51116 3.33124
# Velocity P-wave (km/s) = 4.77147 5.49740 5.14725
#
# Compressibility (1/GPa) = 0.04904275
#
# Stress axis : x y z
#
# Youngs Moduli (GPa) = 72.35587 27.24710 77.91199
#
# Poissons Ratio (x) = 0.00272 0.30121
# Poissons Ratio (y) = 0.00723 0.24862
# Poissons Ratio (z) = 0.27973 0.08695
#
# Static dielectric constant tensor:
#      x y z
#    x 1.810140 0.000000 0.000000 
#    y 0.000000 1.765990 0.000000 
#    z 0.000000 0.000000 1.760720 
# 
# From -- ./inp_files/4563.got.cif
#   From: 2010.05.17/outbox.cif.g08.bks.cpg/sg33_3_cif.got.tgz:4563.got - 2010.06.03 17:15:25.
