data_PCOD9344090
_publ_section_title
;
Structure prediction by ZEFSAII (Michael W. Deem and Ramdas Pophale) SiO2 
 PCOD9344090
Probable space group: P B A 2
;
_chemical_formula_sum "Si O2"
_cell_formula_units_Z 24
_cell_length_a 17.386090
_cell_length_b 10.473156
_cell_length_c 5.822722
_cell_angle_alpha 90.000000
_cell_angle_beta 90.000000
_cell_angle_gamma 90.000000
_cell_volume 1060.243336
_symmetry_space_group_name_H-M "P B A 2"
_symmetry_group_IT_number 32
_symmetry_cell_setting 'orthorhombic'
loop_
_space_group_symop_operation_xyz
x,y,z
-x,-y,z
1/2-x,1/2+y,z
1/2+x,1/2-y,z
loop_
_atom_site_type_symbol
_atom_site_label
_atom_site_fract_x
_atom_site_fract_y
_atom_site_fract_z
Si Si1 0.153812 0.390611 0.664090
Si Si2 0.380425 0.488428 0.173342
Si Si3 0.000000 0.500000 0.535761
Si Si4 0.202546 0.483586 0.157805
Si Si5 0.565962 0.809049 0.172907
Si Si6 0.000000 0.000000 0.540341
Si Si7 0.953220 0.808115 0.833860
O O1 0.186487 0.410759 0.404350
O O2 0.117014 0.252539 0.698317
O O3 0.078570 0.480828 0.670500
O O4 0.198517 0.415909 0.904611
O O5 0.291308 0.521033 0.179804
O O6 0.399449 0.335849 0.175297
O O7 0.426677 0.534708 0.393488
O O8 0.419547 0.572614 0.975194
O O9 0.981701 0.375376 0.380593
O O10 0.138803 0.596111 0.144857
O O11 0.497895 0.794744 0.985939
O O12 0.017584 0.872585 0.677622
#
# Coordination Sequence:
#
# PCOD9344090 Si02
#       7
#     4   4   2   4   4   2   4
#     4  11  25  47  73 109 147 196 249 314 378 461
#     4  12  27  47  69 112 150 199 252 318 393 456
#     4  10  22  46  80 110 144 206 262 318 380 452
#     4  11  29  47  73 111 153 199 246 320 395 451
#     4  11  22  49  74 108 150 192 263 312 377 460
#     4  12  24  44  74 108 140 200 262 306 386 458
#     4  12  24  45  78 107 147 204 262 318 381 462
#
# _framework density 22.636312
#
# number of rings (size 3 to 8) (size 9 to 14) (size 15 to 20)
#    0.000    0.667    3.333    4.000    7.000    2.000 
#    3.000    0.000    0.000    0.000    0.000    0.000 
#    0.000    0.000    0.000    0.000    0.000    0.000 
#
# Total GULP energy -133708.082996 kJ/mol
# GULP energy per Si atom -5571.170125 kJ/mol
# Density = 2.258479 g / cm^3
# Si number density = 22.636312 Si / 1000 Ang^3
#
#
#
# Elastic Constant Matrix: (Units=GPa)
#
#
# Indices 1 2 3 4 5 6 
#
# 1 130.7668 14.6528 45.5038 0.0000 0.0000 0.0000
# 2 14.6528 106.8122 58.5058 0.0000 0.0000 0.0000
# 3 45.5038 58.5058 128.3189 0.0000 0.0000 0.0000
# 4 0.0000 0.0000 0.0000 14.3251 0.0000 0.0000
# 5 0.0000 0.0000 0.0000 0.0000 119.8776 0.0000
# 6 0.0000 0.0000 0.0000 0.0000 0.0000 23.8580
#
#
#
# Elastic Compliance Matrix: (Units=1/GPa)
#
#
# Indices 1 2 3 4 5 6 
#
# 1 0.008759 0.000666 -0.003410 0.000000 0.000000 0.000000
# 2 0.000666 0.012529 -0.005949 0.000000 0.000000 0.000000
# 3 -0.003410 -0.005949 0.011715 0.000000 0.000000 0.000000
# 4 0.000000 0.000000 0.000000 0.069808 0.000000 0.000000
# 5 0.000000 0.000000 0.000000 0.000000 0.008342 0.000000
# 6 0.000000 0.000000 0.000000 0.000000 0.000000 0.041915
#
#
# Mechanical properties :
#
#
# Convention : Reuss Voigt Hill
#
# Bulk Modulus (GPa) = 64.02913 67.02476 65.52694
# Shear Modulus (GPa) = 28.46440 48.09451 38.27945
#
# Velocity S-wave (km/s) = 3.54992 4.61441 4.11672
# Velocity P-wave (km/s) = 6.71938 7.61997 7.18380
#
# Compressibility (1/GPa) = 0.01561789
#
# Stress axis : x y z
#
# Youngs Moduli (GPa) = 114.16700 79.81306 85.36384
#
# Poissons Ratio (x) = -0.05316 0.29107
# Poissons Ratio (y) = -0.07605 0.50781
# Poissons Ratio (z) = 0.38929 0.47479
#
# Static dielectric constant tensor:
#      x y z
#    x 1.774640 0.000000 0.000000 
#    y 0.000000 1.875510 0.000000 
#    z 0.000000 0.000000 1.988000 
# 
# From -- ./inp_files/1425.got.cif
#   From: 2010.05.17/outbox.cif.g08.bks.cpg/sg32_1_cif.got.tgz:1425.got - 2010.06.03 17:12:27.
