data_PCOD9344292
_publ_section_title
;
Structure prediction by ZEFSAII (Michael W. Deem and Ramdas Pophale) SiO2 
 PCOD9344292
Probable space group: P B A 2
;
_chemical_formula_sum "Si O2"
_cell_formula_units_Z 26
_cell_length_a 11.754954
_cell_length_b 17.400312
_cell_length_c 5.065841
_cell_angle_alpha 90.000000
_cell_angle_beta 90.000000
_cell_angle_gamma 90.000000
_cell_volume 1036.166445
_symmetry_space_group_name_H-M "P B A 2"
_symmetry_group_IT_number 32
_symmetry_cell_setting 'orthorhombic'
loop_
_space_group_symop_operation_xyz
x,y,z
-x,-y,z
1/2-x,1/2+y,z
1/2+x,1/2-y,z
loop_
_atom_site_type_symbol
_atom_site_label
_atom_site_fract_x
_atom_site_fract_y
_atom_site_fract_z
Si Si1 0.291294 0.103130 0.603730
Si Si2 0.500000 0.500000 0.797728
Si Si3 0.478006 0.807990 0.625297
Si Si4 0.142000 0.209195 0.970871
Si Si5 0.488753 0.361002 0.394004
Si Si6 0.741032 0.499385 0.083669
Si Si7 0.771103 0.657180 0.266902
O O1 0.111174 0.988869 0.978841
O O2 0.206035 0.170004 0.721412
O O3 0.253625 0.051551 0.351997
O O4 0.299815 0.047787 0.852782
O O5 0.517402 0.428213 0.599428
O O6 0.445760 0.780103 0.919263
O O7 0.500443 0.723540 0.511851
O O8 0.585940 0.859082 0.566404
O O9 0.361863 0.838563 0.500059
O O10 0.234448 0.257846 0.136749
O O11 0.070465 0.146779 0.137393
O O12 0.354812 0.367246 0.350081
O O13 0.801051 0.582060 0.097864
#
# Coordination Sequence:
#
# PCOD9344292 Si02
#       7
#     4   2   4   4   4   4   4
#     4  12  30  52  83 122 167 218 275 349 411 498
#     4  12  30  54  86 122 176 212 276 362 430 494
#     4  11  27  51  81 119 165 225 276 334 411 501
#     4  11  27  49  86 123 165 220 280 343 414 500
#     4  11  27  51  82 126 163 213 278 346 418 499
#     4  12  32  53  79 123 166 216 276 340 429 486
#     4  11  28  50  82 119 165 221 274 339 413 509
#
# _framework density 25.092492
#
# number of rings (size 3 to 8) (size 9 to 14) (size 15 to 20)
#    0.000    0.615    0.000    3.692   25.846    1.231 
#    0.000    0.000    0.000    0.000    0.000    0.000 
#    0.000    0.000    0.000    0.000    0.000    0.000 
#
# Total GULP energy -145458.636609 kJ/mol
# GULP energy per Si atom -5594.562947 kJ/mol
# Density = 2.503538 g / cm^3
# Si number density = 25.092492 Si / 1000 Ang^3
#
#
#
# Elastic Constant Matrix: (Units=GPa)
#
#
# Indices 1 2 3 4 5 6 
#
# 1 93.2293 77.9376 55.0321 0.0000 0.0000 0.0000
# 2 77.9376 149.5711 83.9804 0.0000 0.0000 0.0000
# 3 55.0321 83.9804 149.1339 0.0000 0.0000 0.0000
# 4 0.0000 0.0000 0.0000 50.0369 0.0000 0.0000
# 5 0.0000 0.0000 0.0000 0.0000 27.4720 0.0000
# 6 0.0000 0.0000 0.0000 0.0000 0.0000 34.6407
#
#
#
# Elastic Compliance Matrix: (Units=1/GPa)
#
#
# Indices 1 2 3 4 5 6 
#
# 1 0.019466 -0.008935 -0.002152 0.000000 0.000000 0.000000
# 2 -0.008935 0.013878 -0.004518 0.000000 0.000000 0.000000
# 3 -0.002152 -0.004518 0.010044 0.000000 0.000000 0.000000
# 4 0.000000 0.000000 0.000000 0.019985 0.000000 0.000000
# 5 0.000000 0.000000 0.000000 0.000000 0.036401 0.000000
# 6 0.000000 0.000000 0.000000 0.000000 0.000000 0.028868
#
#
# Mechanical properties :
#
#
# Convention : Reuss Voigt Hill
#
# Bulk Modulus (GPa) = 82.11311 91.75939 86.93625
# Shear Modulus (GPa) = 30.50447 34.09552 32.30000
#
# Velocity S-wave (km/s) = 3.49044 3.69018 3.59170
# Velocity P-wave (km/s) = 7.00282 7.40300 7.20569
#
# Compressibility (1/GPa) = 0.01217832
#
# Stress axis : x y z
#
# Youngs Moduli (GPa) = 51.37216 72.05443 99.56617
#
# Poissons Ratio (x) = 0.64381 0.21423
# Poissons Ratio (y) = 0.45901 0.44985
# Poissons Ratio (z) = 0.11053 0.32555
#
# Static dielectric constant tensor:
#      x y z
#    x 2.114000 0.000000 0.000000 
#    y 0.000000 2.044880 0.000000 
#    z 0.000000 0.000000 2.225800 
# 
# From -- ./inp_files/940.got.cif
#   From: 2010.05.17/outbox.cif.g08.bks.cpg/sg32_1_cif.got.tgz:940.got - 2010.06.03 17:12:27.
