data_PCOD9344827
_publ_section_title
;
Structure prediction by ZEFSAII (Michael W. Deem and Ramdas Pophale) SiO2 
 PCOD9344827
Probable space group: P N A 21
;
_chemical_formula_sum "Si O2"
_cell_formula_units_Z 32
_cell_length_a 8.479111
_cell_length_b 20.703395
_cell_length_c 7.107618
_cell_angle_alpha 90.000000
_cell_angle_beta 90.000000
_cell_angle_gamma 90.000000
_cell_volume 1247.716641
_symmetry_space_group_name_H-M "P N A 21"
_symmetry_group_IT_number 33
_symmetry_cell_setting 'orthorhombic'
loop_
_space_group_symop_operation_xyz
x,y,z
-x,-y,1/2+z
1/2-x,1/2+y,1/2+z
1/2+x,1/2-y,z
loop_
_atom_site_type_symbol
_atom_site_label
_atom_site_fract_x
_atom_site_fract_y
_atom_site_fract_z
Si Si1 0.825173 0.500125 0.128530
Si Si2 0.844114 0.384795 0.897048
Si Si3 0.026139 0.297003 0.339925
Si Si4 0.459905 0.571718 0.539001
Si Si5 0.412123 0.779807 0.283503
Si Si6 0.370213 0.337397 0.305877
Si Si7 0.103829 0.579131 0.987366
Si Si8 0.413512 0.344568 0.751212
O O1 0.833857 0.475152 0.343578
O O2 0.643838 0.492987 0.058257
O O3 0.926918 0.562682 0.070510
O O4 0.919841 0.446053 0.003753
O O5 0.955605 0.323905 0.880707
O O6 0.803465 0.407710 0.682254
O O7 0.689885 0.379907 0.023494
O O8 0.067103 0.284934 0.558614
O O9 0.188336 0.323531 0.256007
O O10 0.961237 0.229945 0.259677
O O11 0.903559 0.355641 0.363890
O O12 0.565662 0.598938 0.704660
O O13 0.558942 0.587431 0.352691
O O14 0.447838 0.704976 0.306465
O O15 0.242984 0.809083 0.326885
O O16 0.395458 0.347706 0.528283
#
# Coordination Sequence:
#
# PCOD9344827 Si02
#       8
#     4   4   4   4   4   4   4   4
#     4  10  22  36  63  93 115 163 210 265 307 365
#     4   9  21  36  59  93 115 156 209 256 310 367
#     4   9  22  37  66  87 129 163 205 256 318 382
#     4  10  23  34  58  90 121 158 207 244 310 372
#     4   9  18  36  56  84 119 162 200 249 308 370
#     4  10  22  40  57  95 122 164 200 251 316 383
#     4  11  20  42  65  92 127 159 219 268 312 375
#     4  10  20  35  56  80 124 161 194 249 305 368
#
# _framework density 25.646847000000001
#
# number of rings (size 3 to 8) (size 9 to 14) (size 15 to 20)
#    0.750    1.500    1.250    0.750    3.500    6.000 
#    0.000    0.000    8.250    0.000    0.000    0.000 
#    0.000    0.000    0.000    0.000    0.000    0.000 
#
# Total GULP energy -178596.338413 kJ/mol
# GULP energy per Si atom -5581.135575 kJ/mol
# Density = 2.558847 g / cm^3
# Si number density = 25.646847 Si / 1000 Ang^3
#
#
#
# Elastic Constant Matrix: (Units=GPa)
#
#
# Indices 1 2 3 4 5 6 
#
# 1 40.4574 -3.5742 16.3624 0.0000 0.0000 0.0000
# 2 -3.5742 65.2252 28.9710 0.0000 0.0000 0.0000
# 3 16.3624 28.9710 111.4395 0.0000 0.0000 0.0000
# 4 0.0000 0.0000 0.0000 32.7446 0.0000 0.0000
# 5 0.0000 0.0000 0.0000 0.0000 30.4901 0.0000
# 6 0.0000 0.0000 0.0000 0.0000 0.0000 34.6428
#
#
#
# Elastic Compliance Matrix: (Units=1/GPa)
#
#
# Indices 1 2 3 4 5 6 
#
# 1 0.027032 0.003668 -0.004923 0.000000 0.000000 0.000000
# 2 0.003668 0.017831 -0.005174 0.000000 0.000000 0.000000
# 3 -0.004923 -0.005174 0.011041 0.000000 0.000000 0.000000
# 4 0.000000 0.000000 0.000000 0.030539 0.000000 0.000000
# 5 0.000000 0.000000 0.000000 0.000000 0.032798 0.000000
# 6 0.000000 0.000000 0.000000 0.000000 0.000000 0.028866
#
#
# Mechanical properties :
#
#
# Convention : Reuss Voigt Hill
#
# Bulk Modulus (GPa) = 23.23064 33.40450 28.31757
# Shear Modulus (GPa) = 28.52032 31.26636 29.89334
#
# Velocity S-wave (km/s) = 3.33834 3.49537 3.41776
# Velocity P-wave (km/s) = 4.89254 5.41693 5.16140
#
# Compressibility (1/GPa) = 0.04304660
#
# Stress axis : x y z
#
# Youngs Moduli (GPa) = 36.99282 56.08342 90.56877
#
# Poissons Ratio (x) = -0.20570 0.44583
# Poissons Ratio (y) = -0.13568 0.46860
# Poissons Ratio (z) = 0.18210 0.29017
#
# Static dielectric constant tensor:
#      x y z
#    x 2.027820 0.000000 0.000000 
#    y 0.000000 2.066070 0.000000 
#    z 0.000000 0.000000 2.046470 
# 
# From -- ./inp_files/3601.got.cif
#   From: 2010.05.17/outbox.cif.g08.bks.cpg/sg33_2_cif.got.tgz:3601.got - 2010.06.03 17:15:25.
