data_PCOD9344204
_publ_section_title
;
Structure prediction by ZEFSAII (Michael W. Deem and Ramdas Pophale) SiO2 
 PCOD9344204
Probable space group: P B A 2
;
_chemical_formula_sum "Si O2"
_cell_formula_units_Z 30
_cell_length_a 20.373634
_cell_length_b 11.065949
_cell_length_c 5.560538
_cell_angle_alpha 90.000000
_cell_angle_beta 90.000000
_cell_angle_gamma 90.000000
_cell_volume 1253.643281
_symmetry_space_group_name_H-M "P B A 2"
_symmetry_group_IT_number 32
_symmetry_cell_setting 'orthorhombic'
loop_
_space_group_symop_operation_xyz
x,y,z
-x,-y,z
1/2-x,1/2+y,z
1/2+x,1/2-y,z
loop_
_atom_site_type_symbol
_atom_site_label
_atom_site_fract_x
_atom_site_fract_y
_atom_site_fract_z
Si Si1 0.543068 0.772006 0.387880
Si Si2 0.736066 0.977617 0.578731
Si Si3 0.603626 0.931689 0.768874
Si Si4 0.137717 0.021663 0.835856
Si Si5 0.842445 0.222162 0.050421
Si Si6 0.775941 0.726435 0.331328
Si Si7 0.406364 0.645164 0.336768
Si Si8 0.500000 0.000000 0.072301
O O1 0.556273 0.834808 0.642652
O O2 0.610932 0.716708 0.286244
O O3 0.481843 0.682996 0.365436
O O4 0.522503 0.886528 0.224192
O O5 0.657658 0.981105 0.592902
O O6 0.783756 0.958218 0.807572
O O7 0.752017 0.858567 0.421677
O O8 0.750029 0.112267 0.483018
O O9 0.646594 0.855167 0.952924
O O10 0.561056 0.030918 0.901106
O O11 0.110104 0.069689 0.580901
O O12 0.108554 0.080467 0.079899
O O13 0.129717 0.879041 0.873009
O O14 0.765145 0.204375 0.089124
O O15 0.854305 0.742805 0.329845
#
# Coordination Sequence:
#
# PCOD9344204 Si02
#       8
#     4   4   4   4   4   4   4   2
#     4  11  26  46  69 107 147 194 255 310 393 460
#     4  11  24  45  76 110 145 200 245 324 378 464
#     4  11  24  43  74 102 146 191 250 307 396 454
#     4  11  26  49  72 108 150 198 256 313 380 454
#     4  11  24  46  74 103 145 200 253 313 376 466
#     4  11  24  45  76 110 149 195 256 314 389 450
#     4  11  28  47  74 107 154 195 253 318 382 458
#     4  10  26  40  70 104 142 186 240 318 368 482
#
# _framework density 23.930251999999999
#
# number of rings (size 3 to 8) (size 9 to 14) (size 15 to 20)
#    0.000    1.067    1.333    3.600    9.333    3.733 
#    0.000    0.000    0.000    0.000    0.000    0.000 
#    0.000    0.000    0.000    0.000    0.000    0.000 
#
# Total GULP energy -167475.196885 kJ/mol
# GULP energy per Si atom -5582.506563 kJ/mol
# Density = 2.387579 g / cm^3
# Si number density = 23.930252 Si / 1000 Ang^3
#
#
#
# Elastic Constant Matrix: (Units=GPa)
#
#
# Indices 1 2 3 4 5 6 
#
# 1 61.7576 1.0251 4.9858 0.0000 0.0000 0.0000
# 2 1.0251 59.3033 20.0659 0.0000 0.0000 0.0000
# 3 4.9858 20.0659 82.1879 0.0000 0.0000 0.0000
# 4 0.0000 0.0000 0.0000 4.1413 0.0000 0.0000
# 5 0.0000 0.0000 0.0000 0.0000 25.8817 0.0000
# 6 0.0000 0.0000 0.0000 0.0000 0.0000 27.1036
#
#
#
# Elastic Compliance Matrix: (Units=1/GPa)
#
#
# Indices 1 2 3 4 5 6 
#
# 1 0.016272 0.000057 -0.001001 0.000000 0.000000 0.000000
# 2 0.000057 0.018381 -0.004491 0.000000 0.000000 0.000000
# 3 -0.001001 -0.004491 0.013324 0.000000 0.000000 0.000000
# 4 0.000000 0.000000 0.000000 0.241471 0.000000 0.000000
# 5 0.000000 0.000000 0.000000 0.000000 0.038637 0.000000
# 6 0.000000 0.000000 0.000000 0.000000 0.000000 0.036896
#
#
# Mechanical properties :
#
#
# Convention : Reuss Voigt Hill
#
# Bulk Modulus (GPa) = 26.94828 28.37802 27.66315
# Shear Modulus (GPa) = 12.87927 23.23679 18.05803
#
# Velocity S-wave (km/s) = 2.32243 3.11950 2.75000
# Velocity P-wave (km/s) = 4.29851 4.98592 4.65492
#
# Compressibility (1/GPa) = 0.03710812
#
# Stress axis : x y z
#
# Youngs Moduli (GPa) = 61.45448 54.40370 75.04985
#
# Poissons Ratio (x) = -0.00313 0.07514
# Poissons Ratio (y) = -0.00353 0.33706
# Poissons Ratio (z) = 0.06153 0.24434
#
# Static dielectric constant tensor:
#      x y z
#    x 1.955950 0.000000 0.000000 
#    y 0.000000 1.925990 0.000000 
#    z 0.000000 0.000000 2.008510 
# 
# From -- ./inp_files/1602.got.cif
#   From: 2010.05.17/outbox.cif.g08.bks.cpg/sg32_1_cif.got.tgz:1602.got - 2010.06.03 17:12:27.
