data_PCOD9344879
_publ_section_title
;
Structure prediction by ZEFSAII (Michael W. Deem and Ramdas Pophale) SiO2 
 PCOD9344879
Probable space group: P N A 21
;
_chemical_formula_sum "Si O2"
_cell_formula_units_Z 20
_cell_length_a 5.553433
_cell_length_b 10.018411
_cell_length_c 13.531475
_cell_angle_alpha 90.000000
_cell_angle_beta 90.000000
_cell_angle_gamma 90.000000
_cell_volume 752.844914
_symmetry_space_group_name_H-M "P N A 21"
_symmetry_group_IT_number 33
_symmetry_cell_setting 'orthorhombic'
loop_
_space_group_symop_operation_xyz
x,y,z
-x,-y,1/2+z
1/2-x,1/2+y,1/2+z
1/2+x,1/2-y,z
loop_
_atom_site_type_symbol
_atom_site_label
_atom_site_fract_x
_atom_site_fract_y
_atom_site_fract_z
Si Si1 0.831617 0.051040 0.461780
Si Si2 0.519554 0.176568 0.619520
Si Si3 0.967237 0.785932 0.527100
Si Si4 0.461243 0.916579 0.343312
Si Si5 0.333968 0.210242 0.321211
O O1 0.612355 0.069728 0.539766
O O2 0.887525 0.196667 0.418752
O O3 0.006048 0.944215 0.511118
O O4 0.726458 0.971432 0.368312
O O5 0.237859 0.214030 0.607687
O O6 0.553747 0.134401 0.732767
O O7 0.705334 0.771997 0.575329
O O8 0.923095 0.698503 0.425324
O O9 0.306496 0.053851 0.345931
O O10 0.593943 0.232874 0.271746
#
# Coordination Sequence:
#
# PCOD9344879 Si02
#       5
#     4   4   4   4   4
#     4  10  22  42  67  96 131 174 220 272 329 394
#     4  12  26  44  68 100 134 176 224 272 332 408
#     4  10  20  36  61  89 122 164 210 259 316 378
#     4  10  22  42  67  96 131 174 220 272 329 394
#     4  10  20  36  61  89 122 164 210 259 316 378
#
# _framework density 26.565894
#
# number of rings (size 3 to 8) (size 9 to 14) (size 15 to 20)
#    0.000    1.600    0.000    6.000    0.000    6.400 
#    0.000    8.000    0.000    0.000    0.000    0.000 
#    0.000    0.000    0.000    0.000    0.000    0.000 
#
# Total GULP energy -111608.603433 kJ/mol
# GULP energy per Si atom -5580.430172 kJ/mol
# Density = 2.650543 g / cm^3
# Si number density = 26.565894 Si / 1000 Ang^3
#
#
#
# Elastic Constant Matrix: (Units=GPa)
#
#
# Indices 1 2 3 4 5 6 
#
# 1 137.4554 36.6428 17.1604 0.0000 0.0000 0.0000
# 2 36.6428 141.5393 33.0004 0.0000 0.0000 0.0000
# 3 17.1604 33.0004 103.7672 0.0000 0.0000 0.0000
# 4 0.0000 0.0000 0.0000 15.0083 0.0000 0.0000
# 5 0.0000 0.0000 0.0000 0.0000 31.7347 0.0000
# 6 0.0000 0.0000 0.0000 0.0000 0.0000 59.0514
#
#
#
# Elastic Compliance Matrix: (Units=1/GPa)
#
#
# Indices 1 2 3 4 5 6 
#
# 1 0.007862 -0.001871 -0.000705 0.000000 0.000000 0.000000
# 2 -0.001871 0.008076 -0.002259 0.000000 0.000000 0.000000
# 3 -0.000705 -0.002259 0.010472 0.000000 0.000000 0.000000
# 4 0.000000 0.000000 0.000000 0.066630 0.000000 0.000000
# 5 0.000000 0.000000 0.000000 0.000000 0.031511 0.000000
# 6 0.000000 0.000000 0.000000 0.000000 0.000000 0.016934
#
#
# Mechanical properties :
#
#
# Convention : Reuss Voigt Hill
#
# Bulk Modulus (GPa) = 59.73758 61.81879 60.77818
# Shear Modulus (GPa) = 31.90086 40.88945 36.39516
#
# Velocity S-wave (km/s) = 3.46904 3.92748 3.70536
# Velocity P-wave (km/s) = 6.21137 6.62475 6.42139
#
# Compressibility (1/GPa) = 0.01673988
#
# Stress axis : x y z
#
# Youngs Moduli (GPa) = 127.19609 123.82001 95.49286
#
# Poissons Ratio (x) = 0.23166 0.06734
# Poissons Ratio (y) = 0.23798 0.21572
# Poissons Ratio (z) = 0.08969 0.27971
#
# Static dielectric constant tensor:
#      x y z
#    x 2.148830 0.000000 0.000000 
#    y 0.000000 2.113830 0.000000 
#    z 0.000000 0.000000 2.051130 
# 
# From -- ./inp_files/7374.got.cif
#   From: 2010.05.17/outbox.cif.g08.bks.cpg/sg33_4_cif.got.tgz:7374.got - 2010.06.03 17:15:25.
