data_PCOD9345880
_publ_section_title
;
Structure prediction by ZEFSAII (Michael W. Deem and Ramdas Pophale) SiO2 
 PCOD9345880
Probable space group: P N A 21
;
_chemical_formula_sum "Si O2"
_cell_formula_units_Z 28
_cell_length_a 17.675020
_cell_length_b 5.556295
_cell_length_c 12.341200
_cell_angle_alpha 90.000000
_cell_angle_beta 90.000000
_cell_angle_gamma 90.000000
_cell_volume 1211.999945
_symmetry_space_group_name_H-M "P N A 21"
_symmetry_group_IT_number 33
_symmetry_cell_setting 'orthorhombic'
loop_
_space_group_symop_operation_xyz
x,y,z
-x,-y,1/2+z
1/2-x,1/2+y,1/2+z
1/2+x,1/2-y,z
loop_
_atom_site_type_symbol
_atom_site_label
_atom_site_fract_x
_atom_site_fract_y
_atom_site_fract_z
Si Si1 0.793163 0.748985 0.702090
Si Si2 0.077200 0.869279 0.206253
Si Si3 0.804420 0.596486 0.092603
Si Si4 0.167025 0.601668 0.035539
Si Si5 0.611197 0.989915 0.379635
Si Si6 0.058436 0.626548 0.837317
Si Si7 0.582877 0.381141 0.716301
O O1 0.788577 0.620536 0.585616
O O2 0.816775 0.586427 0.806136
O O3 0.866629 0.913634 0.696062
O O4 0.721656 0.928547 0.693796
O O5 0.108172 0.659000 0.131161
O O6 0.086608 0.766160 0.327958
O O7 0.996367 0.940992 0.159875
O O8 0.728363 0.685559 0.032245
O O9 0.845031 0.831379 0.143456
O O10 0.860501 0.486083 0.003212
O O11 0.116212 0.563740 0.932764
O O12 0.531665 0.139167 0.368168
O O13 0.064934 0.388847 0.761776
O O14 0.086592 0.888696 0.795180
#
# Coordination Sequence:
#
# PCOD9345880 Si02
#       7
#     4   4   4   4   4   4   4
#     4  10  22  44  65 100 139 187 230 300 360 425
#     4   9  20  44  69  93 135 177 241 293 348 418
#     4  11  26  41  67 104 143 187 233 293 366 438
#     4  10  24  41  65 100 138 188 230 293 359 428
#     4  10  22  45  70 100 139 188 240 295 362 423
#     4  11  25  46  73 102 137 188 241 296 348 423
#     4  11  25  45  69 105 137 183 239 298 347 421
#
# _framework density 23.102312000000001
#
# number of rings (size 3 to 8) (size 9 to 14) (size 15 to 20)
#    0.000    1.714    1.429    0.857    8.000    3.429 
#    0.000    0.000    0.000    0.000    0.000    0.000 
#    0.000    0.000    0.000    0.000    0.000    0.000 
#
# Total GULP energy -155915.432712 kJ/mol
# GULP energy per Si atom -5568.408311 kJ/mol
# Density = 2.304973 g / cm^3
# Si number density = 23.102312 Si / 1000 Ang^3
#
#
#
# Elastic Constant Matrix: (Units=GPa)
#
#
# Indices 1 2 3 4 5 6 
#
# 1 118.8826 18.8825 41.5890 0.0000 0.0000 0.0000
# 2 18.8825 63.5421 1.3312 0.0000 0.0000 0.0000
# 3 41.5890 1.3312 42.1490 0.0000 0.0000 0.0000
# 4 0.0000 0.0000 0.0000 17.1485 0.0000 0.0000
# 5 0.0000 0.0000 0.0000 0.0000 37.2089 0.0000
# 6 0.0000 0.0000 0.0000 0.0000 0.0000 13.9115
#
#
#
# Elastic Compliance Matrix: (Units=1/GPa)
#
#
# Indices 1 2 3 4 5 6 
#
# 1 0.013701 -0.003791 -0.013400 0.000000 0.000000 0.000000
# 2 -0.003791 0.016797 0.003210 0.000000 0.000000 0.000000
# 3 -0.013400 0.003210 0.036846 0.000000 0.000000 0.000000
# 4 0.000000 0.000000 0.000000 0.058314 0.000000 0.000000
# 5 0.000000 0.000000 0.000000 0.000000 0.026875 0.000000
# 6 0.000000 0.000000 0.000000 0.000000 0.000000 0.071883
#
#
# Mechanical properties :
#
#
# Convention : Reuss Voigt Hill
#
# Bulk Modulus (GPa) = 25.39177 38.68657 32.03917
# Shear Modulus (GPa) = 18.83203 24.50517 21.66860
#
# Velocity S-wave (km/s) = 2.85819 3.26041 3.06590
# Velocity P-wave (km/s) = 4.68052 5.56379 5.14116
#
# Compressibility (1/GPa) = 0.03938283
#
# Stress axis : x y z
#
# Youngs Moduli (GPa) = 72.98528 59.53491 27.14034
#
# Poissons Ratio (x) = 0.22569 0.36367
# Poissons Ratio (y) = 0.27668 -0.08712
# Poissons Ratio (z) = 0.97797 -0.19111
#
# Static dielectric constant tensor:
#      x y z
#    x 1.970420 0.000000 0.000000 
#    y 0.000000 2.044910 0.000000 
#    z 0.000000 0.000000 1.933550 
# 
# From -- ./inp_files/6949.got.cif
#   From: 2010.05.17/outbox.cif.g08.bks.cpg/sg33_4_cif.got.tgz:6949.got - 2010.06.03 17:15:25.
