data_PCOD9345821
_publ_section_title
;
Structure prediction by ZEFSAII (Michael W. Deem and Ramdas Pophale) SiO2 
 PCOD9345821
Probable space group: P N A 21
;
_chemical_formula_sum "Si O2"
_cell_formula_units_Z 32
_cell_length_a 10.431256
_cell_length_b 9.690521
_cell_length_c 14.383807
_cell_angle_alpha 90.000000
_cell_angle_beta 90.000000
_cell_angle_gamma 90.000000
_cell_volume 1453.977139
_symmetry_space_group_name_H-M "P N A 21"
_symmetry_group_IT_number 33
_symmetry_cell_setting 'orthorhombic'
loop_
_space_group_symop_operation_xyz
x,y,z
-x,-y,1/2+z
1/2-x,1/2+y,1/2+z
1/2+x,1/2-y,z
loop_
_atom_site_type_symbol
_atom_site_label
_atom_site_fract_x
_atom_site_fract_y
_atom_site_fract_z
Si Si1 0.145344 0.970621 0.366790
Si Si2 0.078004 0.670119 0.127847
Si Si3 0.374610 0.474388 0.268211
Si Si4 0.553421 0.438539 0.566412
Si Si5 0.017852 0.490785 0.477565
Si Si6 0.362091 0.160915 0.832166
Si Si7 0.218455 0.883865 0.038382
Si Si8 0.150561 0.697889 0.858770
O O1 0.189153 0.814380 0.350514
O O2 0.124371 0.015166 0.473914
O O3 0.248530 0.081031 0.331393
O O4 0.008394 0.982462 0.316003
O O5 0.059245 0.648826 0.235756
O O6 0.203205 0.767722 0.118177
O O7 0.096046 0.983149 0.053752
O O8 0.081409 0.536627 0.061763
O O9 0.382761 0.510726 0.160169
O O10 0.255671 0.553437 0.317519
O O11 0.368218 0.309917 0.279775
O O12 0.525517 0.274209 0.580327
O O13 0.975210 0.378129 0.399538
O O14 0.042743 0.625481 0.417032
O O15 0.152886 0.465674 0.527556
O O16 0.198692 0.793113 0.944974
#
# Coordination Sequence:
#
# PCOD9345821 Si02
#       8
#     4   4   4   4   4   4   4   4
#     4  12  25  48  70 109 148 190 242 307 372 430
#     4   9  22  40  71 102 137 192 243 285 367 444
#     4  12  25  46  71 105 145 189 245 309 355 446
#     4  10  22  42  75  99 141 192 242 296 366 435
#     4  11  22  44  73 102 141 188 243 299 356 445
#     4  12  27  43  72 111 144 189 247 313 369 429
#     4   9  18  40  69  97 124 189 231 279 354 436
#     4  11  23  41  75  97 138 195 243 288 367 437
#
# _framework density 22.008600999999999
#
# number of rings (size 3 to 8) (size 9 to 14) (size 15 to 20)
#    0.750    0.500    3.750    1.500    7.000    0.000 
#    4.500    1.250    0.000    0.000    0.000    0.000 
#    0.000    0.000    0.000    0.000    0.000    0.000 
#
# Total GULP energy -178451.398912 kJ/mol
# GULP energy per Si atom -5576.606216 kJ/mol
# Density = 2.195851 g / cm^3
# Si number density = 22.008601 Si / 1000 Ang^3
#
#
#
# Elastic Constant Matrix: (Units=GPa)
#
#
# Indices 1 2 3 4 5 6 
#
# 1 66.1808 21.8236 3.7625 0.0000 0.0000 0.0000
# 2 21.8236 90.1628 22.6563 0.0000 0.0000 0.0000
# 3 3.7625 22.6563 80.3376 0.0000 0.0000 0.0000
# 4 0.0000 0.0000 0.0000 32.3307 0.0000 0.0000
# 5 0.0000 0.0000 0.0000 0.0000 17.2497 0.0000
# 6 0.0000 0.0000 0.0000 0.0000 0.0000 25.2853
#
#
#
# Elastic Compliance Matrix: (Units=1/GPa)
#
#
# Indices 1 2 3 4 5 6 
#
# 1 0.016431 -0.004072 0.000379 0.000000 0.000000 0.000000
# 2 -0.004072 0.012946 -0.003460 0.000000 0.000000 0.000000
# 3 0.000379 -0.003460 0.013406 0.000000 0.000000 0.000000
# 4 0.000000 0.000000 0.000000 0.030930 0.000000 0.000000
# 5 0.000000 0.000000 0.000000 0.000000 0.057972 0.000000
# 6 0.000000 0.000000 0.000000 0.000000 0.000000 0.039549
#
#
# Mechanical properties :
#
#
# Convention : Reuss Voigt Hill
#
# Bulk Modulus (GPa) = 35.11756 37.01845 36.06800
# Shear Modulus (GPa) = 25.63657 27.53573 26.58615
#
# Velocity S-wave (km/s) = 3.41668 3.54098 3.47938
# Velocity P-wave (km/s) = 5.61746 5.79435 5.70659
#
# Compressibility (1/GPa) = 0.02847578
#
# Stress axis : x y z
#
# Youngs Moduli (GPa) = 60.85878 77.24230 74.59583
#
# Poissons Ratio (x) = 0.31456 -0.02827
# Poissons Ratio (y) = 0.24784 0.25812
# Poissons Ratio (z) = -0.02306 0.26728
#
# Static dielectric constant tensor:
#      x y z
#    x 1.928250 0.000000 0.000000 
#    y 0.000000 1.818100 0.000000 
#    z 0.000000 0.000000 1.823550 
# 
# From -- ./inp_files/7979.got.cif
#   From: 2010.05.17/outbox.cif.g08.bks.cpg/sg33_4_cif.got.tgz:7979.got - 2010.06.03 17:15:25.
