data_PCOD9345377
_publ_section_title
;
Structure prediction by ZEFSAII (Michael W. Deem and Ramdas Pophale) SiO2 
 PCOD9345377
Probable space group: P N A 21
;
_chemical_formula_sum "Si O2"
_cell_formula_units_Z 28
_cell_length_a 5.031323
_cell_length_b 16.051763
_cell_length_c 16.868513
_cell_angle_alpha 90.000000
_cell_angle_beta 90.000000
_cell_angle_gamma 90.000000
_cell_volume 1362.328173
_symmetry_space_group_name_H-M "P N A 21"
_symmetry_group_IT_number 33
_symmetry_cell_setting 'orthorhombic'
loop_
_space_group_symop_operation_xyz
x,y,z
-x,-y,1/2+z
1/2-x,1/2+y,1/2+z
1/2+x,1/2-y,z
loop_
_atom_site_type_symbol
_atom_site_label
_atom_site_fract_x
_atom_site_fract_y
_atom_site_fract_z
Si Si1 0.487466 0.907758 0.847130
Si Si2 0.249999 0.069719 0.899380
Si Si3 0.487469 0.407758 0.451631
Si Si4 0.425869 0.193957 0.190040
Si Si5 0.462182 0.806876 0.513404
Si Si6 0.462180 0.306876 0.785357
Si Si7 0.574129 0.306043 0.608721
O O1 0.749997 0.899377 0.899381
O O2 0.515878 0.867383 0.761845
O O3 0.249997 0.867862 0.899380
O O4 0.408628 0.005296 0.843109
O O5 0.051819 0.126190 0.849157
O O6 0.448179 0.126190 0.949604
O O7 0.091370 0.005296 0.955651
O O8 0.515876 0.367383 0.536916
O O9 0.125992 0.227351 0.195885
O O10 0.485990 0.159546 0.102248
O O11 0.665779 0.728500 0.505150
O O12 0.165777 0.271500 0.793611
O O13 0.514008 0.340454 0.696513
O O14 0.374006 0.227351 0.602876
#
# Coordination Sequence:
#
# PCOD9345377 Si02
#       7
#     4   4   4   4   4   4   4
#     4  10  23  38  56  90 118 159 190 240 305 347
#     4  10  24  40  58  90 122 154 198 240 302 366
#     4  10  23  38  56  90 118 159 190 240 305 347
#     4  10  21  40  60  87 116 152 203 243 288 348
#     4  10  22  39  64  86 113 156 199 248 290 344
#     4  10  22  39  64  86 113 156 199 248 290 344
#     4  10  21  40  60  87 116 152 203 243 288 348
#
# _framework density 20.553052000000001
#
# number of rings (size 3 to 8) (size 9 to 14) (size 15 to 20)
#    0.857    1.143    0.000    2.571    4.000    3.429 
#    5.143    0.000    0.000    0.000    0.000    0.000 
#    0.000    0.000    0.000    0.000    0.000    0.000 
#
# Total GULP energy -156425.535180 kJ/mol
# GULP energy per Si atom -5586.626256 kJ/mol
# Density = 2.050627 g / cm^3
# Si number density = 20.553052 Si / 1000 Ang^3
#
#
#
# Elastic Constant Matrix: (Units=GPa)
#
#
# Indices 1 2 3 4 5 6 
#
# 1 82.9289 -11.3138 0.5210 0.0000 0.0000 0.0000
# 2 -11.3138 37.0485 52.6142 0.0000 0.0000 0.0000
# 3 0.5210 52.6142 127.1456 0.0000 0.0000 0.0000
# 4 0.0000 0.0000 0.0000 -47.3013 0.0000 0.0000
# 5 0.0000 0.0000 0.0000 0.0000 28.9735 0.0000
# 6 0.0000 0.0000 0.0000 0.0000 0.0000 -9.5552
#
#
#
# Elastic Compliance Matrix: (Units=1/GPa)
#
#
# Indices 1 2 3 4 5 6 
#
# 1 0.013473 0.010168 -0.004263 0.000000 0.000000 0.000000
# 2 0.010168 0.073135 -0.030306 0.000000 0.000000 0.000000
# 3 -0.004263 -0.030306 0.020423 0.000000 0.000000 0.000000
# 4 0.000000 0.000000 0.000000 -0.021141 0.000000 0.000000
# 5 0.000000 0.000000 0.000000 0.000000 0.034514 0.000000
# 6 0.000000 0.000000 0.000000 0.000000 0.000000 -0.104655
#
#
# Mechanical properties :
#
#
# Convention : Reuss Voigt Hill
#
# Bulk Modulus (GPa) = 17.17327 36.75175 26.96251
# Shear Modulus (GPa) = 59.55132 8.11017 33.83074
#
# Velocity S-wave (km/s) = 5.38863 1.98860 4.06152
# Velocity P-wave (km/s) = 6.86223 4.81591 5.92803
#
# Compressibility (1/GPa) = 0.05823002
#
# Stress axis : x y z
#
# Youngs Moduli (GPa) = 74.22525 13.67326 48.96357
#
# Poissons Ratio (x) = -0.13903 0.20873
# Poissons Ratio (y) = -0.75473 1.48388
# Poissons Ratio (z) = 0.31641 0.41438
#
# Static dielectric constant tensor:
#      x y z
#    x 1.763210 0.000000 0.000000 
#    y 0.000000 1.715390 0.000000 
#    z 0.000000 0.000000 1.718340 
# 
# From -- ./inp_files/7428.got.cif
#   From: 2010.05.17/outbox.cif.g08.bks.cpg/sg33_4_cif.got.tgz:7428.got - 2010.06.03 17:15:25.
