data_PCOD9345472
_publ_section_title
;
Structure prediction by ZEFSAII (Michael W. Deem and Ramdas Pophale) SiO2 
 PCOD9345472
Probable space group: P N A 21
;
_chemical_formula_sum "Si O2"
_cell_formula_units_Z 28
_cell_length_a 15.624282
_cell_length_b 13.590250
_cell_length_c 5.268511
_cell_angle_alpha 90.000000
_cell_angle_beta 90.000000
_cell_angle_gamma 90.000000
_cell_volume 1118.704554
_symmetry_space_group_name_H-M "P N A 21"
_symmetry_group_IT_number 33
_symmetry_cell_setting 'orthorhombic'
loop_
_space_group_symop_operation_xyz
x,y,z
-x,-y,1/2+z
1/2-x,1/2+y,1/2+z
1/2+x,1/2-y,z
loop_
_atom_site_type_symbol
_atom_site_label
_atom_site_fract_x
_atom_site_fract_y
_atom_site_fract_z
Si Si1 0.129073 0.926202 0.000000
Si Si2 0.795631 0.911188 0.197412
Si Si3 0.560748 0.396216 0.322986
Si Si4 0.434475 0.895255 0.181976
Si Si5 0.805020 0.265698 0.394127
Si Si6 0.336044 0.754107 0.528901
Si Si7 0.955494 0.378004 0.175446
O O1 0.161556 0.819576 0.083547
O O2 0.038676 0.912465 0.857479
O O3 0.194613 0.981201 0.809340
O O4 0.106493 0.005760 0.214436
O O5 0.780020 0.835994 0.423422
O O6 0.889273 0.881208 0.086542
O O7 0.727772 0.870855 0.998415
O O8 0.582508 0.304446 0.142944
O O9 0.359242 0.830327 0.308618
O O10 0.508319 0.874227 0.390863
O O11 0.416639 0.011567 0.197043
O O12 0.471433 0.873966 0.899886
O O13 0.724589 0.213677 0.256807
O O14 0.886603 0.294408 0.227401
#
# Coordination Sequence:
#
# PCOD9345472 Si02
#       7
#     4   4   4   4   4   4   4
#     4  11  22  41  70  96 133 180 232 296 359 426
#     4  10  24  44  59  99 138 172 228 292 355 433
#     4  10  21  41  67  98 130 173 237 287 346 433
#     4  10  23  45  72  96 134 187 235 294 345 418
#     4  11  26  40  66 103 139 183 229 292 374 434
#     4  10  24  42  65  96 136 180 223 289 361 425
#     4  10  24  45  69 102 132 181 244 288 342 433
#
# _framework density 25.028949999999998
#
# number of rings (size 3 to 8) (size 9 to 14) (size 15 to 20)
#    0.000    1.714    1.429    0.857   10.000    1.143 
#    5.143    0.000    0.000    0.000    0.000    0.000 
#    0.000    0.000    0.000    0.000    0.000    0.000 
#
# Total GULP energy -156379.821968 kJ/mol
# GULP energy per Si atom -5584.993642 kJ/mol
# Density = 2.497198 g / cm^3
# Si number density = 25.028950 Si / 1000 Ang^3
#
#
#
# Elastic Constant Matrix: (Units=GPa)
#
#
# Indices 1 2 3 4 5 6 
#
# 1 62.6397 37.7168 1.3451 0.0000 0.0000 0.0000
# 2 37.7168 92.0322 11.1089 0.0000 0.0000 0.0000
# 3 1.3451 11.1089 65.6992 0.0000 0.0000 0.0000
# 4 0.0000 0.0000 0.0000 30.6670 0.0000 0.0000
# 5 0.0000 0.0000 0.0000 0.0000 1.5489 0.0000
# 6 0.0000 0.0000 0.0000 0.0000 0.0000 27.2354
#
#
#
# Elastic Compliance Matrix: (Units=1/GPa)
#
#
# Indices 1 2 3 4 5 6 
#
# 1 0.021266 -0.008843 0.001060 0.000000 0.000000 0.000000
# 2 -0.008843 0.014770 -0.002316 0.000000 0.000000 0.000000
# 3 0.001060 -0.002316 0.015591 0.000000 0.000000 0.000000
# 4 0.000000 0.000000 0.000000 0.032608 0.000000 0.000000
# 5 0.000000 0.000000 0.000000 0.000000 0.645622 0.000000
# 6 0.000000 0.000000 0.000000 0.000000 0.000000 0.036717
#
#
# Mechanical properties :
#
#
# Convention : Reuss Voigt Hill
#
# Bulk Modulus (GPa) = 31.81951 35.63473 33.72712
# Shear Modulus (GPa) = 6.27156 23.23695 14.75426
#
# Velocity S-wave (km/s) = 1.58466 3.05028 2.43057
# Velocity P-wave (km/s) = 4.01110 5.16468 4.62400
#
# Compressibility (1/GPa) = 0.03142726
#
# Stress axis : x y z
#
# Youngs Moduli (GPa) = 47.02269 67.70692 64.14027
#
# Poissons Ratio (x) = 0.59875 -0.06798
# Poissons Ratio (y) = 0.41584 0.14857
# Poissons Ratio (z) = -0.04984 0.15683
#
# Static dielectric constant tensor:
#      x y z
#    x 2.016240 0.000000 0.000000 
#    y 0.000000 1.943520 0.000000 
#    z 0.000000 0.000000 2.054820 
# 
# From -- ./inp_files/1772.got.cif
#   From: 2010.05.17/outbox.cif.g08.bks.cpg/sg33_1_cif.got.tgz:1772.got - 2010.06.03 17:15:25.
