data_PCOD9345368
_publ_section_title
;
Structure prediction by ZEFSAII (Michael W. Deem and Ramdas Pophale) SiO2 
 PCOD9345368
Probable space group: P N A 21
;
_chemical_formula_sum "Si O2"
_cell_formula_units_Z 24
_cell_length_a 13.478919
_cell_length_b 7.503625
_cell_length_c 8.968444
_cell_angle_alpha 90.000000
_cell_angle_beta 90.000000
_cell_angle_gamma 90.000000
_cell_volume 907.075185
_symmetry_space_group_name_H-M "P N A 21"
_symmetry_group_IT_number 33
_symmetry_cell_setting 'orthorhombic'
loop_
_space_group_symop_operation_xyz
x,y,z
-x,-y,1/2+z
1/2-x,1/2+y,1/2+z
1/2+x,1/2-y,z
loop_
_atom_site_type_symbol
_atom_site_label
_atom_site_fract_x
_atom_site_fract_y
_atom_site_fract_z
Si Si1 0.398266 0.104951 0.827120
Si Si2 0.398267 0.395050 0.327121
Si Si3 0.806904 0.767398 0.840949
Si Si4 0.928385 0.872985 0.599454
Si Si5 0.806905 0.732602 0.340949
Si Si6 0.928385 0.627013 0.099453
O O1 0.309561 0.240420 0.864898
O O2 0.476070 0.166538 0.702607
O O3 0.346279 0.922231 0.774268
O O4 0.445890 0.034561 0.982763
O O5 0.309562 0.259581 0.364900
O O6 0.445890 0.465441 0.482764
O O7 0.346280 0.577770 0.274268
O O8 0.476071 0.333460 0.202609
O O9 0.845748 0.911400 0.725131
O O10 0.870516 0.766294 0.992022
O O11 0.870516 0.733705 0.492022
O O12 0.845748 0.588599 0.225131
#
# Coordination Sequence:
#
# PCOD9345368 Si02
#       6
#     4   4   4   4   4   4
#     4   9  22  43  63  97 136 164 225 271 320 397
#     4   9  22  43  63  97 136 164 225 271 320 397
#     4   9  22  42  63  98 130 168 223 268 328 385
#     4  10  21  39  70  91 129 178 212 268 332 383
#     4   9  22  42  63  98 130 168 223 268 328 385
#     4  10  21  39  70  91 129 178 212 268 332 383
#
# _framework density 26.458666999999998
#
# number of rings (size 3 to 8) (size 9 to 14) (size 15 to 20)
#    2.000    0.667    0.000    0.000    4.667    2.667 
#    6.000    0.000    0.000    0.000    0.000    0.000 
#    0.000    0.000    0.000    0.000    0.000    0.000 
#
# Total GULP energy -133613.880661 kJ/mol
# GULP energy per Si atom -5567.245028 kJ/mol
# Density = 2.639845 g / cm^3
# Si number density = 26.458667 Si / 1000 Ang^3
#
#
#
# Elastic Constant Matrix: (Units=GPa)
#
#
# Indices 1 2 3 4 5 6 
#
# 1 223.3266 27.9478 109.7639 0.0000 0.0000 0.0000
# 2 27.9478 41.5738 40.9423 0.0000 0.0000 0.0000
# 3 109.7639 40.9423 236.6932 0.0000 0.0000 0.0000
# 4 0.0000 0.0000 0.0000 38.3100 0.0000 0.0000
# 5 0.0000 0.0000 0.0000 0.0000 2.8624 0.0000
# 6 0.0000 0.0000 0.0000 0.0000 0.0000 30.8275
#
#
#
# Elastic Compliance Matrix: (Units=1/GPa)
#
#
# Indices 1 2 3 4 5 6 
#
# 1 0.005879 -0.001527 -0.002462 0.000000 0.000000 0.000000
# 2 -0.001527 0.029389 -0.004375 0.000000 0.000000 0.000000
# 3 -0.002462 -0.004375 0.006123 0.000000 0.000000 0.000000
# 4 0.000000 0.000000 0.000000 0.026103 0.000000 0.000000
# 5 0.000000 0.000000 0.000000 0.000000 0.349352 0.000000
# 6 0.000000 0.000000 0.000000 0.000000 0.000000 0.032439
#
#
# Mechanical properties :
#
#
# Convention : Reuss Voigt Hill
#
# Bulk Modulus (GPa) = 40.54809 95.43349 67.99079
# Shear Modulus (GPa) = 10.54328 35.92929 23.23628
#
# Velocity S-wave (km/s) = 1.99836 3.68902 2.96668
# Velocity P-wave (km/s) = 4.54785 7.36834 6.12272
#
# Compressibility (1/GPa) = 0.02466207
#
# Stress axis : x y z
#
# Youngs Moduli (GPa) = 170.09652 34.02600 163.30557
#
# Poissons Ratio (x) = 0.05197 0.40208
# Poissons Ratio (y) = 0.25981 0.71451
# Poissons Ratio (z) = 0.41880 0.14887
#
# Static dielectric constant tensor:
#      x y z
#    x 2.087950 0.000000 0.000000 
#    y 0.000000 2.088320 0.000000 
#    z 0.000000 0.000000 2.029090 
# 
# From -- ./inp_files/3776.got.cif
#   From: 2010.05.17/outbox.cif.g08.bks.cpg/sg33_2_cif.got.tgz:3776.got - 2010.06.03 17:15:25.
