data_PCOD9345713
_publ_section_title
;
Structure prediction by ZEFSAII (Michael W. Deem and Ramdas Pophale) SiO2 
 PCOD9345713
Probable space group: P N A 21
;
_chemical_formula_sum "Si O2"
_cell_formula_units_Z 32
_cell_length_a 12.272875
_cell_length_b 20.890684
_cell_length_c 5.484341
_cell_angle_alpha 90.000000
_cell_angle_beta 90.000000
_cell_angle_gamma 90.000000
_cell_volume 1406.123352
_symmetry_space_group_name_H-M "P N A 21"
_symmetry_group_IT_number 33
_symmetry_cell_setting 'orthorhombic'
loop_
_space_group_symop_operation_xyz
x,y,z
-x,-y,1/2+z
1/2-x,1/2+y,1/2+z
1/2+x,1/2-y,z
loop_
_atom_site_type_symbol
_atom_site_label
_atom_site_fract_x
_atom_site_fract_y
_atom_site_fract_z
Si Si1 0.957251 0.224955 0.818350
Si Si2 0.424766 0.364917 0.435001
Si Si3 0.570448 0.505977 0.722106
Si Si4 0.667451 0.765849 0.722764
Si Si5 0.731587 0.923153 0.328305
Si Si6 0.868562 0.829101 0.669399
Si Si7 0.038455 0.647987 0.027682
Si Si8 0.560803 0.018859 0.533758
O O1 0.937064 0.153229 0.716730
O O2 0.991223 0.284389 0.650794
O O3 0.053757 0.215459 0.008958
O O4 0.845527 0.248888 0.940738
O O5 0.376111 0.427515 0.316790
O O6 0.368709 0.299777 0.346984
O O7 0.548296 0.366490 0.337259
O O8 0.502266 0.511734 0.467353
O O9 0.670062 0.457183 0.684370
O O10 0.784668 0.785644 0.815460
O O11 0.587143 0.825670 0.774097
O O12 0.792953 0.873912 0.505642
O O13 0.639445 0.887460 0.166524
O O14 0.669083 0.978563 0.479841
O O15 0.942638 0.596153 0.019353
O O16 0.517594 0.000601 0.804170
#
# Coordination Sequence:
#
# PCOD9345713 Si02
#       8
#     4   4   4   4   4   4   4   4
#     4  10  22  41  65  95 130 173 218 294 335 402
#     4  10  24  43  62  95 140 168 224 288 339 400
#     4  12  27  46  70 101 141 187 238 286 340 416
#     4  10  22  40  68  97 127 175 221 287 345 413
#     4  11  23  44  70  98 135 192 228 280 351 426
#     4  11  21  40  68  93 125 174 230 269 348 412
#     4  10  22  42  68  97 138 172 229 283 355 411
#     4  10  23  42  67 100 138 177 228 285 339 418
#
# _framework density 22.757605999999999
#
# number of rings (size 3 to 8) (size 9 to 14) (size 15 to 20)
#    0.000    1.500    2.500    1.500    7.000    2.000 
#    9.000    0.000    0.000    0.000    0.000    0.000 
#    0.000    0.000    0.000    0.000    0.000    0.000 
#
# Total GULP energy -178378.846916 kJ/mol
# GULP energy per Si atom -5574.338966 kJ/mol
# Density = 2.270581 g / cm^3
# Si number density = 22.757606 Si / 1000 Ang^3
#
#
#
# Elastic Constant Matrix: (Units=GPa)
#
#
# Indices 1 2 3 4 5 6 
#
# 1 66.7826 14.4279 1.3482 0.0000 0.0000 0.0000
# 2 14.4279 107.1465 9.9345 0.0000 0.0000 0.0000
# 3 1.3482 9.9345 49.6780 0.0000 0.0000 0.0000
# 4 0.0000 0.0000 0.0000 30.5745 0.0000 0.0000
# 5 0.0000 0.0000 0.0000 0.0000 18.7867 0.0000
# 6 0.0000 0.0000 0.0000 0.0000 0.0000 40.3460
#
#
#
# Elastic Compliance Matrix: (Units=1/GPa)
#
#
# Indices 1 2 3 4 5 6 
#
# 1 0.015423 -0.002076 -0.000003 0.000000 0.000000 0.000000
# 2 -0.002076 0.009789 -0.001901 0.000000 0.000000 0.000000
# 3 -0.000003 -0.001901 0.020510 0.000000 0.000000 0.000000
# 4 0.000000 0.000000 0.000000 0.032707 0.000000 0.000000
# 5 0.000000 0.000000 0.000000 0.000000 0.053229 0.000000
# 6 0.000000 0.000000 0.000000 0.000000 0.000000 0.024786
#
#
# Mechanical properties :
#
#
# Convention : Reuss Voigt Hill
#
# Bulk Modulus (GPa) = 26.48337 30.55870 28.52104
# Shear Modulus (GPa) = 28.24994 31.13455 29.69224
#
# Velocity S-wave (km/s) = 3.52709 3.70279 3.61601
# Velocity P-wave (km/s) = 5.31503 5.63364 5.47665
#
# Compressibility (1/GPa) = 0.03775954
#
# Stress axis : x y z
#
# Youngs Moduli (GPa) = 64.83984 102.15653 48.75687
#
# Poissons Ratio (x) = 0.21212 0.00016
# Poissons Ratio (y) = 0.13464 0.09270
# Poissons Ratio (z) = 0.00021 0.19422
#
# Static dielectric constant tensor:
#      x y z
#    x 1.867590 0.000000 0.000000 
#    y 0.000000 1.882750 0.000000 
#    z 0.000000 0.000000 2.021400 
# 
# From -- ./inp_files/1039.got.cif
#   From: 2010.05.17/outbox.cif.g08.bks.cpg/sg33_1_cif.got.tgz:1039.got - 2010.06.03 17:15:25.
