data_PCOD9345675
_publ_section_title
;
Structure prediction by ZEFSAII (Michael W. Deem and Ramdas Pophale) SiO2 
 PCOD9345675
Probable space group: P N A 21
;
_chemical_formula_sum "Si O2"
_cell_formula_units_Z 28
_cell_length_a 8.128956
_cell_length_b 25.894018
_cell_length_c 5.121818
_cell_angle_alpha 90.000000
_cell_angle_beta 90.000000
_cell_angle_gamma 90.000000
_cell_volume 1078.098298
_symmetry_space_group_name_H-M "P N A 21"
_symmetry_group_IT_number 33
_symmetry_cell_setting 'orthorhombic'
loop_
_space_group_symop_operation_xyz
x,y,z
-x,-y,1/2+z
1/2-x,1/2+y,1/2+z
1/2+x,1/2-y,z
loop_
_atom_site_type_symbol
_atom_site_label
_atom_site_fract_x
_atom_site_fract_y
_atom_site_fract_z
Si Si1 0.822016 0.064793 0.013020
Si Si2 0.051034 0.284056 0.740864
Si Si3 0.508088 0.033802 0.702129
Si Si4 0.739866 0.888318 0.750334
Si Si5 0.330491 0.540211 0.349568
Si Si6 0.367732 0.846041 0.752974
Si Si7 0.183798 0.174392 0.730053
O O1 0.666386 0.061623 0.815328
O O2 0.838353 0.015559 0.208916
O O3 0.778295 0.114798 0.183270
O O4 0.986124 0.062427 0.841058
O O5 0.108878 0.305597 0.018834
O O6 0.063576 0.222736 0.730428
O O7 0.863873 0.300486 0.693553
O O8 0.151652 0.314171 0.517536
O O9 0.474039 0.989545 0.918283
O O10 0.335272 0.063821 0.714347
O O11 0.784309 0.946865 0.655403
O O12 0.542484 0.877954 0.766825
O O13 0.839113 0.863716 0.987944
O O14 0.804846 0.854820 0.503651
#
# Coordination Sequence:
#
# PCOD9345675 Si02
#       7
#     4   4   4   4   4   4   4
#     4  11  24  42  65  98 133 177 228 276 329 394
#     4  10  22  40  66  94 129 166 216 269 334 400
#     4  10  22  40  62  86 124 170 210 264 324 370
#     4  10  22  42  63  94 128 173 218 269 329 401
#     4  11  24  42  65  98 133 177 228 276 329 394
#     4  10  22  42  63  94 128 173 218 269 329 401
#     4  10  22  40  66  94 129 166 216 269 334 400
#
# _framework density 25.971657
#
# number of rings (size 3 to 8) (size 9 to 14) (size 15 to 20)
#    0.000    1.714    1.429    1.714    0.000    9.143 
#    2.571    0.000    0.000    0.000    0.000    0.000 
#    0.000    0.000    0.000    0.000    0.000    0.000 
#
# Total GULP energy -156787.825488 kJ/mol
# GULP energy per Si atom -5599.565196 kJ/mol
# Density = 2.591254 g / cm^3
# Si number density = 25.971657 Si / 1000 Ang^3
#
#
#
# Elastic Constant Matrix: (Units=GPa)
#
#
# Indices 1 2 3 4 5 6 
#
# 1 139.8998 24.9339 20.0991 0.0000 0.0000 0.0000
# 2 24.9339 99.8073 48.9399 0.0000 0.0000 0.0000
# 3 20.0991 48.9399 119.9107 0.0000 0.0000 0.0000
# 4 0.0000 0.0000 0.0000 36.0927 0.0000 0.0000
# 5 0.0000 0.0000 0.0000 0.0000 30.3722 0.0000
# 6 0.0000 0.0000 0.0000 0.0000 0.0000 45.9994
#
#
#
# Elastic Compliance Matrix: (Units=1/GPa)
#
#
# Indices 1 2 3 4 5 6 
#
# 1 0.007517 -0.001575 -0.000617 0.000000 0.000000 0.000000
# 2 -0.001575 0.012856 -0.004983 0.000000 0.000000 0.000000
# 3 -0.000617 -0.004983 0.010477 0.000000 0.000000 0.000000
# 4 0.000000 0.000000 0.000000 0.027706 0.000000 0.000000
# 5 0.000000 0.000000 0.000000 0.000000 0.032925 0.000000
# 6 0.000000 0.000000 0.000000 0.000000 0.000000 0.021739
#
#
# Mechanical properties :
#
#
# Convention : Reuss Voigt Hill
#
# Bulk Modulus (GPa) = 60.60842 60.84039 60.72441
# Shear Modulus (GPa) = 37.57367 40.20253 38.88810
#
# Velocity S-wave (km/s) = 3.80770 3.93865 3.87373
# Velocity P-wave (km/s) = 6.53594 6.64534 6.59087
#
# Compressibility (1/GPa) = 0.01649936
#
# Stress axis : x y z
#
# Youngs Moduli (GPa) = 133.02455 77.78297 95.44967
#
# Poissons Ratio (x) = 0.12254 0.05890
# Poissons Ratio (y) = 0.20957 0.47563
# Poissons Ratio (z) = 0.08208 0.38760
#
# Static dielectric constant tensor:
#      x y z
#    x 2.094830 0.000000 0.000000 
#    y 0.000000 2.075450 0.000000 
#    z 0.000000 0.000000 2.121040 
# 
# From -- ./inp_files/560.got.cif
#   From: 2010.05.17/outbox.cif.g08.bks.cpg/sg33_1_cif.got.tgz:560.got - 2010.06.03 17:15:25.
