data_PCOD9345153
_publ_section_title
;
Structure prediction by ZEFSAII (Michael W. Deem and Ramdas Pophale) SiO2 
 PCOD9345153
Probable space group: P N A 21
;
_chemical_formula_sum "Si O2"
_cell_formula_units_Z 28
_cell_length_a 13.361533
_cell_length_b 8.130187
_cell_length_c 12.099393
_cell_angle_alpha 90.000000
_cell_angle_beta 90.000000
_cell_angle_gamma 90.000000
_cell_volume 1314.378379
_symmetry_space_group_name_H-M "P N A 21"
_symmetry_group_IT_number 33
_symmetry_cell_setting 'orthorhombic'
loop_
_space_group_symop_operation_xyz
x,y,z
-x,-y,1/2+z
1/2-x,1/2+y,1/2+z
1/2+x,1/2-y,z
loop_
_atom_site_type_symbol
_atom_site_label
_atom_site_fract_x
_atom_site_fract_y
_atom_site_fract_z
Si Si1 0.182631 0.470926 0.475330
Si Si2 0.741650 0.367177 0.381271
Si Si3 0.817370 0.470926 0.620789
Si Si4 0.629746 0.348505 0.864862
Si Si5 0.370254 0.348505 0.231256
Si Si6 0.500000 0.825868 0.548059
Si Si7 0.258350 0.367177 0.714848
O O1 0.178001 0.292763 0.416764
O O2 0.266604 0.579575 0.414907
O O3 0.077737 0.561628 0.481167
O O4 0.221826 0.446703 0.600659
O O5 0.778175 0.446703 0.495459
O O6 0.837125 0.293798 0.315479
O O7 0.694368 0.500000 0.298060
O O8 0.733396 0.579575 0.681211
O O9 0.821999 0.292763 0.679355
O O10 0.922264 0.561628 0.614951
O O11 0.582565 0.500000 0.798059
O O12 0.662876 0.206202 0.780639
O O13 0.562097 0.283331 0.962649
O O14 0.437903 0.283333 0.133469
#
# Coordination Sequence:
#
# PCOD9345153 Si02
#       7
#     4   4   4   4   4   4   4
#     4  10  23  43  68  97 139 184 223 285 345 408
#     4  10  20  43  69  91 135 184 225 275 348 404
#     4  10  23  43  68  97 139 184 223 285 345 408
#     4  10  23  46  67  99 139 182 225 287 350 404
#     4  10  23  46  67  99 139 182 225 287 350 404
#     4  12  22  42  70 104 138 176 244 284 332 428
#     4  10  20  43  69  91 135 184 225 275 348 404
#
# _framework density 21.302844
#
# number of rings (size 3 to 8) (size 9 to 14) (size 15 to 20)
#    0.000    1.714    2.857    0.857    0.000    0.000 
#   20.571   10.000    0.000    0.000    0.000    0.000 
#    0.000    0.000    0.000    0.000    0.000    0.000 
#
# Total GULP energy -156604.432429 kJ/mol
# GULP energy per Si atom -5593.015444 kJ/mol
# Density = 2.125436 g / cm^3
# Si number density = 21.302844 Si / 1000 Ang^3
#
#
#
# Elastic Constant Matrix: (Units=GPa)
#
#
# Indices 1 2 3 4 5 6 
#
# 1 83.1888 48.9147 26.8664 0.0000 0.0000 0.0000
# 2 48.9147 97.4220 50.4561 0.0000 0.0000 0.0000
# 3 26.8664 50.4561 131.3247 0.0000 0.0000 0.0000
# 4 0.0000 0.0000 0.0000 57.5886 0.0000 0.0000
# 5 0.0000 0.0000 0.0000 0.0000 13.6310 0.0000
# 6 0.0000 0.0000 0.0000 0.0000 0.0000 -9.7765
#
#
#
# Elastic Compliance Matrix: (Units=1/GPa)
#
#
# Indices 1 2 3 4 5 6 
#
# 1 0.017063 -0.008438 -0.000249 0.000000 0.000000 0.000000
# 2 -0.008438 0.016988 -0.004800 0.000000 0.000000 0.000000
# 3 -0.000249 -0.004800 0.009510 0.000000 0.000000 0.000000
# 4 0.000000 0.000000 0.000000 0.017365 0.000000 0.000000
# 5 0.000000 0.000000 0.000000 0.000000 0.073362 0.000000
# 6 0.000000 0.000000 0.000000 0.000000 0.000000 -0.102286
#
#
# Mechanical properties :
#
#
# Convention : Reuss Voigt Hill
#
# Bulk Modulus (GPa) = 60.29337 62.71219 61.50278
# Shear Modulus (GPa) = 77.51442 24.66852 51.09147
#
# Velocity S-wave (km/s) = 6.03870 3.40662 4.90260
# Velocity P-wave (km/s) = 8.77414 6.70639 7.80901
#
# Compressibility (1/GPa) = 0.01658557
#
# Stress axis : x y z
#
# Youngs Moduli (GPa) = 58.60682 58.86622 105.15279
#
# Poissons Ratio (x) = 0.49673 0.02614
# Poissons Ratio (y) = 0.49454 0.50479
# Poissons Ratio (z) = 0.01457 0.28259
#
# Static dielectric constant tensor:
#      x y z
#    x 1.719180 0.000000 0.000000 
#    y 0.000000 1.800130 0.000000 
#    z 0.000000 0.000000 1.785970 
# 
# From -- ./inp_files/6328.got.cif
#   From: 2010.05.17/outbox.cif.g08.bks.cpg/sg33_4_cif.got.tgz:6328.got - 2010.06.03 17:15:25.
