data_PCOD9345394
_publ_section_title
;
Structure prediction by ZEFSAII (Michael W. Deem and Ramdas Pophale) SiO2 
 PCOD9345394
Probable space group: P N A 21
;
_chemical_formula_sum "Si O2"
_cell_formula_units_Z 32
_cell_length_a 9.479267
_cell_length_b 17.398977
_cell_length_c 8.163951
_cell_angle_alpha 90.000000
_cell_angle_beta 90.000000
_cell_angle_gamma 90.000000
_cell_volume 1346.476752
_symmetry_space_group_name_H-M "P N A 21"
_symmetry_group_IT_number 33
_symmetry_cell_setting 'orthorhombic'
loop_
_space_group_symop_operation_xyz
x,y,z
-x,-y,1/2+z
1/2-x,1/2+y,1/2+z
1/2+x,1/2-y,z
loop_
_atom_site_type_symbol
_atom_site_label
_atom_site_fract_x
_atom_site_fract_y
_atom_site_fract_z
Si Si1 0.969295 0.436157 0.432650
Si Si2 0.118135 0.278689 0.453082
Si Si3 0.145546 0.574955 0.305945
Si Si4 0.996017 0.733148 0.319534
Si Si5 0.291216 0.481558 0.866092
Si Si6 0.098283 0.831395 0.813372
Si Si7 0.425358 0.507198 0.219761
Si Si8 0.267434 0.316535 0.960363
O O1 0.039840 0.355548 0.388294
O O2 0.914533 0.434512 0.619885
O O3 0.829335 0.456915 0.330044
O O4 0.081002 0.504061 0.406177
O O5 0.075690 0.271532 0.642578
O O6 0.051280 0.206005 0.359693
O O7 0.283698 0.294152 0.432039
O O8 0.088188 0.657259 0.358827
O O9 0.314571 0.566299 0.299966
O O10 0.108710 0.799762 0.332587
O O11 0.867077 0.737501 0.445111
O O12 0.410802 0.472790 0.731278
O O13 0.215318 0.401779 0.913064
O O14 0.376103 0.500629 0.032347
O O15 0.093414 0.923699 0.805248
O O16 0.158190 0.810626 0.634333
#
# Coordination Sequence:
#
# PCOD9345394 Si02
#       8
#     4   4   4   4   4   4   4   4
#     4  10  21  40  64  90 120 158 202 252 306 363
#     4  11  24  41  64  93 125 165 208 257 312 370
#     4  10  21  40  64  90 120 158 202 252 306 363
#     4  11  24  41  64  93 125 165 208 257 312 370
#     4  10  23  41  62  91 125 161 204 255 308 365
#     4  11  24  43  64  91 126 166 208 256 310 370
#     4  10  23  41  62  91 125 161 204 255 308 365
#     4  11  24  43  64  91 126 166 208 256 310 370
#
# _framework density 23.765726999999998
#
# number of rings (size 3 to 8) (size 9 to 14) (size 15 to 20)
#    0.000    1.500    2.500    1.500    3.500    4.000 
#    0.000    0.000    0.000    0.000    0.000    0.000 
#    0.000    0.000    0.000    0.000    0.000    0.000 
#
# Total GULP energy -179063.823352 kJ/mol
# GULP energy per Si atom -5595.744480 kJ/mol
# Density = 2.371163 g / cm^3
# Si number density = 23.765727 Si / 1000 Ang^3
#
#
#
# Elastic Constant Matrix: (Units=GPa)
#
#
# Indices 1 2 3 4 5 6 
#
# 1 61.8698 -4.4433 8.0377 0.0000 0.0000 0.0000
# 2 -4.4433 31.6650 13.9362 0.0000 0.0000 0.0000
# 3 8.0377 13.9362 23.9400 0.0000 0.0000 0.0000
# 4 0.0000 0.0000 0.0000 21.7476 0.0000 0.0000
# 5 0.0000 0.0000 0.0000 0.0000 34.2546 0.0000
# 6 0.0000 0.0000 0.0000 0.0000 0.0000 35.0650
#
#
#
# Elastic Compliance Matrix: (Units=1/GPa)
#
#
# Indices 1 2 3 4 5 6 
#
# 1 0.017973 0.006961 -0.010087 0.000000 0.000000 0.000000
# 2 0.006961 0.045155 -0.028623 0.000000 0.000000 0.000000
# 3 -0.010087 -0.028623 0.061820 0.000000 0.000000 0.000000
# 4 0.000000 0.000000 0.000000 0.045982 0.000000 0.000000
# 5 0.000000 0.000000 0.000000 0.000000 0.029193 0.000000
# 6 0.000000 0.000000 0.000000 0.000000 0.000000 0.028518
#
#
# Mechanical properties :
#
#
# Convention : Reuss Voigt Hill
#
# Bulk Modulus (GPa) = 16.27314 16.94844 16.61079
# Shear Modulus (GPa) = 15.99366 24.87638 20.43502
#
# Velocity S-wave (km/s) = 2.59698 3.23884 2.93551
# Velocity P-wave (km/s) = 3.98179 4.59714 4.30048
#
# Compressibility (1/GPa) = 0.06145094
#
# Stress axis : x y z
#
# Youngs Moduli (GPa) = 55.63791 22.14593 16.17589
#
# Poissons Ratio (x) = -0.15417 0.16316
# Poissons Ratio (y) = -0.38732 0.46301
# Poissons Ratio (z) = 0.56121 0.63389
#
# Static dielectric constant tensor:
#      x y z
#    x 1.875490 0.000000 0.000000 
#    y 0.000000 1.898870 0.000000 
#    z 0.000000 0.000000 1.918380 
# 
# From -- ./inp_files/3515.got.cif
#   From: 2010.05.17/outbox.cif.g08.bks.cpg/sg33_2_cif.got.tgz:3515.got - 2010.06.03 17:15:25.
