data_PCOD9345650
_publ_section_title
;
Structure prediction by ZEFSAII (Michael W. Deem and Ramdas Pophale) SiO2 
 PCOD9345650
Probable space group: P N A 21
;
_chemical_formula_sum "Si O2"
_cell_formula_units_Z 28
_cell_length_a 17.991437
_cell_length_b 5.689776
_cell_length_c 10.373536
_cell_angle_alpha 90.000000
_cell_angle_beta 90.000000
_cell_angle_gamma 90.000000
_cell_volume 1061.910316
_symmetry_space_group_name_H-M "P N A 21"
_symmetry_group_IT_number 33
_symmetry_cell_setting 'orthorhombic'
loop_
_space_group_symop_operation_xyz
x,y,z
-x,-y,1/2+z
1/2-x,1/2+y,1/2+z
1/2+x,1/2-y,z
loop_
_atom_site_type_symbol
_atom_site_label
_atom_site_fract_x
_atom_site_fract_y
_atom_site_fract_z
Si Si1 0.109807 0.998398 0.901240
Si Si2 0.428663 0.996523 0.651823
Si Si3 0.787021 0.684569 0.555704
Si Si4 0.871419 0.572496 0.905902
Si Si5 0.566929 0.308132 0.660687
Si Si6 0.771803 0.336082 0.328824
Si Si7 0.032170 0.810361 0.489060
O O1 0.116466 0.190529 0.786855
O O2 0.022006 0.994348 0.928514
O O3 0.146025 0.756330 0.859799
O O4 0.156407 0.106740 0.017639
O O5 0.342072 0.019441 0.614222
O O6 0.484923 0.206758 0.685324
O O7 0.418525 0.841822 0.781467
O O8 0.472686 0.884943 0.531930
O O9 0.756012 0.561092 0.423940
O O10 0.739165 0.800790 0.672756
O O11 0.787017 0.640157 0.881086
O O12 0.898827 0.303096 0.916387
O O13 0.894882 0.682710 0.041009
O O14 0.561145 0.577777 0.619956
#
# Coordination Sequence:
#
# PCOD9345650 Si02
#       7
#     4   4   4   4   4   4   4
#     4  11  24  42  66 100 134 179 230 285 348 419
#     4   9  20  40  62  91 134 174 219 289 343 400
#     4  10  24  44  66  95 139 182 230 290 350 420
#     4  10  22  39  61  95 135 174 221 285 340 404
#     4  11  22  37  65  95 127 174 232 276 348 413
#     4  11  24  43  68  96 136 187 230 280 355 429
#     4  10  22  39  64  96 129 172 224 285 334 407
#
# _framework density 26.367578000000002
#
# number of rings (size 3 to 8) (size 9 to 14) (size 15 to 20)
#    0.000    1.714    1.429    1.714    2.000    6.857 
#    0.000    2.857    0.000    0.000    0.000    0.000 
#    0.000    0.000    0.000    0.000    0.000    0.000 
#
# Total GULP energy -156125.533934 kJ/mol
# GULP energy per Si atom -5575.911926 kJ/mol
# Density = 2.630756 g / cm^3
# Si number density = 26.367578 Si / 1000 Ang^3
#
#
#
# Elastic Constant Matrix: (Units=GPa)
#
#
# Indices 1 2 3 4 5 6 
#
# 1 66.9830 24.1657 28.3752 0.0000 0.0000 0.0000
# 2 24.1657 37.4781 21.8930 0.0000 0.0000 0.0000
# 3 28.3752 21.8930 140.1875 0.0000 0.0000 0.0000
# 4 0.0000 0.0000 0.0000 50.0059 0.0000 0.0000
# 5 0.0000 0.0000 0.0000 0.0000 41.3366 0.0000
# 6 0.0000 0.0000 0.0000 0.0000 0.0000 29.9789
#
#
#
# Elastic Compliance Matrix: (Units=1/GPa)
#
#
# Indices 1 2 3 4 5 6 
#
# 1 0.020078 -0.011634 -0.002247 0.000000 0.000000 0.000000
# 2 -0.011634 0.036102 -0.003283 0.000000 0.000000 0.000000
# 3 -0.002247 -0.003283 0.008101 0.000000 0.000000 0.000000
# 4 0.000000 0.000000 0.000000 0.019998 0.000000 0.000000
# 5 0.000000 0.000000 0.000000 0.000000 0.024192 0.000000
# 6 0.000000 0.000000 0.000000 0.000000 0.000000 0.033357
#
#
# Mechanical properties :
#
#
# Convention : Reuss Voigt Hill
#
# Bulk Modulus (GPa) = 33.38614 43.72403 38.55509
# Shear Modulus (GPa) = 26.86164 35.61192 31.23678
#
# Velocity S-wave (km/s) = 3.19523 3.67903 3.44563
# Velocity P-wave (km/s) = 5.12854 5.88774 5.52121
#
# Compressibility (1/GPa) = 0.02995255
#
# Stress axis : x y z
#
# Youngs Moduli (GPa) = 49.80515 27.69967 123.44323
#
# Poissons Ratio (x) = 0.32225 0.27740
# Poissons Ratio (y) = 0.57942 0.40529
# Poissons Ratio (z) = 0.11192 0.09094
#
# Static dielectric constant tensor:
#      x y z
#    x 2.033540 0.000000 0.000000 
#    y 0.000000 2.142930 0.000000 
#    z 0.000000 0.000000 2.177870 
# 
# From -- ./inp_files/7154.got.cif
#   From: 2010.05.17/outbox.cif.g08.bks.cpg/sg33_4_cif.got.tgz:7154.got - 2010.06.03 17:15:25.
