data_PCOD9345971
_publ_section_title
;
Structure prediction by ZEFSAII (Michael W. Deem and Ramdas Pophale) SiO2 
 PCOD9345971
Probable space group: P N A 21
;
_chemical_formula_sum "Si O2"
_cell_formula_units_Z 20
_cell_length_a 13.273958
_cell_length_b 7.183980
_cell_length_c 7.794353
_cell_angle_alpha 90.000000
_cell_angle_beta 90.000000
_cell_angle_gamma 90.000000
_cell_volume 743.268324
_symmetry_space_group_name_H-M "P N A 21"
_symmetry_group_IT_number 33
_symmetry_cell_setting 'orthorhombic'
loop_
_space_group_symop_operation_xyz
x,y,z
-x,-y,1/2+z
1/2-x,1/2+y,1/2+z
1/2+x,1/2-y,z
loop_
_atom_site_type_symbol
_atom_site_label
_atom_site_fract_x
_atom_site_fract_y
_atom_site_fract_z
Si Si1 0.469221 0.526205 0.875000
Si Si2 0.882036 0.799860 0.532350
Si Si3 0.146376 0.673558 0.505345
Si Si4 0.343096 0.025935 0.345007
Si Si5 0.823710 0.721123 0.027646
O O1 0.428150 0.622042 0.705795
O O2 0.602910 0.852433 0.699173
O O3 0.583686 0.462313 0.900337
O O4 0.426835 0.661852 0.024239
O O5 0.762576 0.777567 0.545595
O O6 0.913729 0.594715 0.468293
O O7 0.089827 0.831887 0.404431
O O8 0.202093 0.365103 0.714474
O O9 0.154502 0.468918 0.422297
O O10 0.263136 0.149456 0.448681
#
# Coordination Sequence:
#
# PCOD9345971 Si02
#       5
#     4   4   4   4   4
#     4  12  25  49  76 115 161 194 267 312 397 454
#     4  12  24  48  76 116 152 205 243 339 368 468
#     4  10  24  49  77 107 155 206 254 308 393 462
#     4  10  23  46  78 103 151 197 258 300 394 440
#     4  10  22  48  73 109 145 200 252 311 370 466
#
# _framework density 26.908182
#
# number of rings (size 3 to 8) (size 9 to 14) (size 15 to 20)
#    1.200    0.000    4.000    1.200    0.000    4.800 
#    7.200    0.000    0.000    0.000    0.000    0.000 
#    0.000    0.000    0.000    0.000    0.000    0.000 
#
# Total GULP energy -111773.080689 kJ/mol
# GULP energy per Si atom -5588.654034 kJ/mol
# Density = 2.684694 g / cm^3
# Si number density = 26.908182 Si / 1000 Ang^3
#
#
#
# Elastic Constant Matrix: (Units=GPa)
#
#
# Indices 1 2 3 4 5 6 
#
# 1 83.2288 56.8959 9.9337 0.0000 0.0000 0.0000
# 2 56.8959 182.8318 53.0222 0.0000 0.0000 0.0000
# 3 9.9337 53.0222 138.3827 0.0000 0.0000 0.0000
# 4 0.0000 0.0000 0.0000 59.4979 0.0000 0.0000
# 5 0.0000 0.0000 0.0000 0.0000 22.0275 0.0000
# 6 0.0000 0.0000 0.0000 0.0000 0.0000 51.1683
#
#
#
# Elastic Compliance Matrix: (Units=1/GPa)
#
#
# Indices 1 2 3 4 5 6 
#
# 1 0.015344 -0.005012 0.000819 0.000000 0.000000 0.000000
# 2 -0.005012 0.007791 -0.002625 0.000000 0.000000 0.000000
# 3 0.000819 -0.002625 0.008173 0.000000 0.000000 0.000000
# 4 0.000000 0.000000 0.000000 0.016807 0.000000 0.000000
# 5 0.000000 0.000000 0.000000 0.000000 0.045398 0.000000
# 6 0.000000 0.000000 0.000000 0.000000 0.000000 0.019543
#
#
# Mechanical properties :
#
#
# Convention : Reuss Voigt Hill
#
# Bulk Modulus (GPa) = 56.59057 71.57188 64.08123
# Shear Modulus (GPa) = 37.71202 45.51151 41.61177
#
# Velocity S-wave (km/s) = 3.74773 4.11708 3.93674
# Velocity P-wave (km/s) = 6.30904 7.01832 6.67311
#
# Compressibility (1/GPa) = 0.01767079
#
# Stress axis : x y z
#
# Youngs Moduli (GPa) = 65.17274 128.35870 122.34796
#
# Poissons Ratio (x) = 0.64339 -0.10021
# Poissons Ratio (y) = 0.32667 0.32119
# Poissons Ratio (z) = -0.05338 0.33697
#
# Static dielectric constant tensor:
#      x y z
#    x 2.144760 0.000000 0.000000 
#    y 0.000000 2.145510 0.000000 
#    z 0.000000 0.000000 2.269600 
# 
# From -- ./inp_files/5758.got.cif
#   From: 2010.05.17/outbox.cif.g08.bks.cpg/sg33_3_cif.got.tgz:5758.got - 2010.06.03 17:15:25.
