data_PCOD9345811
_publ_section_title
;
Structure prediction by ZEFSAII (Michael W. Deem and Ramdas Pophale) SiO2 
 PCOD9345811
Probable space group: P N A 21
;
_chemical_formula_sum "Si O2"
_cell_formula_units_Z 28
_cell_length_a 10.734841
_cell_length_b 9.850470
_cell_length_c 11.127142
_cell_angle_alpha 90.000000
_cell_angle_beta 90.000000
_cell_angle_gamma 90.000000
_cell_volume 1176.619927
_symmetry_space_group_name_H-M "P N A 21"
_symmetry_group_IT_number 33
_symmetry_cell_setting 'orthorhombic'
loop_
_space_group_symop_operation_xyz
x,y,z
-x,-y,1/2+z
1/2-x,1/2+y,1/2+z
1/2+x,1/2-y,z
loop_
_atom_site_type_symbol
_atom_site_label
_atom_site_fract_x
_atom_site_fract_y
_atom_site_fract_z
Si Si1 0.111776 0.620981 0.160810
Si Si2 0.817229 0.111961 0.791469
Si Si3 0.705976 0.279845 0.989781
Si Si4 0.290106 0.399239 0.197467
Si Si5 0.152204 0.486125 0.583342
Si Si6 0.323281 0.284944 0.450010
Si Si7 0.983125 0.008725 0.002091
O O1 0.106554 0.766409 0.227169
O O2 0.206888 0.527462 0.235553
O O3 0.980848 0.549702 0.137209
O O4 0.171294 0.648315 0.027660
O O5 0.715504 0.192243 0.870249
O O6 0.752037 0.019974 0.692040
O O7 0.895984 0.027923 0.886667
O O8 0.591457 0.380405 0.988437
O O9 0.705062 0.179742 0.102232
O O10 0.829824 0.371805 0.014807
O O11 0.323666 0.300310 0.306968
O O12 0.407825 0.457772 0.123393
O O13 0.201897 0.366628 0.496375
O O14 0.446691 0.366458 0.492694
#
# Coordination Sequence:
#
# PCOD9345811 Si02
#       7
#     4   4   4   4   4   4   4
#     4  11  24  42  70  97 139 174 230 285 340 414
#     4  10  22  42  70  97 128 181 222 279 350 406
#     4  10  23  44  63  96 136 170 227 277 338 408
#     4  11  26  42  66  99 137 178 223 281 350 403
#     4  10  23  43  65 100 127 175 229 273 341 406
#     4  10  25  43  67  98 135 176 226 285 340 418
#     4  10  23  42  69  91 132 176 227 276 343 411
#
# _framework density 23.796980999999999
#
# number of rings (size 3 to 8) (size 9 to 14) (size 15 to 20)
#    0.000    1.714    0.000    2.571   14.000    3.429 
#    7.714    0.000    0.000    0.000    0.000    0.000 
#    0.000    0.000    0.000    0.000    0.000    0.000 
#
# Total GULP energy -156672.588473 kJ/mol
# GULP energy per Si atom -5595.449588 kJ/mol
# Density = 2.374282 g / cm^3
# Si number density = 23.796981 Si / 1000 Ang^3
#
#
#
# Elastic Constant Matrix: (Units=GPa)
#
#
# Indices 1 2 3 4 5 6 
#
# 1 61.2681 -1.0127 10.5465 0.0000 0.0000 0.0000
# 2 -1.0127 47.9314 -1.6332 0.0000 0.0000 0.0000
# 3 10.5465 -1.6332 119.1444 0.0000 0.0000 0.0000
# 4 0.0000 0.0000 0.0000 32.3840 0.0000 0.0000
# 5 0.0000 0.0000 0.0000 0.0000 12.7852 0.0000
# 6 0.0000 0.0000 0.0000 0.0000 0.0000 19.9797
#
#
#
# Elastic Compliance Matrix: (Units=1/GPa)
#
#
# Indices 1 2 3 4 5 6 
#
# 1 0.016579 0.000300 -0.001463 0.000000 0.000000 0.000000
# 2 0.000300 0.020878 0.000260 0.000000 0.000000 0.000000
# 3 -0.001463 0.000260 0.008526 0.000000 0.000000 0.000000
# 4 0.000000 0.000000 0.000000 0.030879 0.000000 0.000000
# 5 0.000000 0.000000 0.000000 0.000000 0.078215 0.000000
# 6 0.000000 0.000000 0.000000 0.000000 0.000000 0.050051
#
#
# Mechanical properties :
#
#
# Convention : Reuss Voigt Hill
#
# Bulk Modulus (GPa) = 22.63652 27.12724 24.88188
# Shear Modulus (GPa) = 22.55696 27.72600 25.14148
#
# Velocity S-wave (km/s) = 3.08212 3.41707 3.25391
# Velocity P-wave (km/s) = 4.71158 5.19545 4.95942
#
# Compressibility (1/GPa) = 0.04417641
#
# Stress axis : x y z
#
# Youngs Moduli (GPa) = 60.31878 47.89653 117.28456
#
# Poissons Ratio (x) = -0.01439 0.17163
# Poissons Ratio (y) = -0.01812 -0.03045
# Poissons Ratio (z) = 0.08827 -0.01243
#
# Static dielectric constant tensor:
#      x y z
#    x 1.890250 0.000000 0.000000 
#    y 0.000000 1.935950 0.000000 
#    z 0.000000 0.000000 1.905790 
# 
# From -- ./inp_files/6362.got.cif
#   From: 2010.05.17/outbox.cif.g08.bks.cpg/sg33_4_cif.got.tgz:6362.got - 2010.06.03 17:15:25.
