data_PCOD9345384
_publ_section_title
;
Structure prediction by ZEFSAII (Michael W. Deem and Ramdas Pophale) SiO2 
 PCOD9345384
Probable space group: P N A 21
;
_chemical_formula_sum "Si O2"
_cell_formula_units_Z 32
_cell_length_a 14.327348
_cell_length_b 18.741882
_cell_length_c 5.566223
_cell_angle_alpha 90.000000
_cell_angle_beta 90.000000
_cell_angle_gamma 90.000000
_cell_volume 1494.650358
_symmetry_space_group_name_H-M "P N A 21"
_symmetry_group_IT_number 33
_symmetry_cell_setting 'orthorhombic'
loop_
_space_group_symop_operation_xyz
x,y,z
-x,-y,1/2+z
1/2-x,1/2+y,1/2+z
1/2+x,1/2-y,z
loop_
_atom_site_type_symbol
_atom_site_label
_atom_site_fract_x
_atom_site_fract_y
_atom_site_fract_z
Si Si1 0.346315 0.898973 0.563970
Si Si2 0.718821 0.855923 0.457748
Si Si3 0.302742 0.051579 0.346392
Si Si4 0.220922 0.781712 0.793108
Si Si5 0.167807 0.171750 0.551189
Si Si6 0.994550 0.542894 0.876313
Si Si7 0.486858 0.275258 0.358565
Si Si8 0.512984 0.812425 0.352474
O O1 0.269827 0.840634 0.630137
O O2 0.400696 0.916136 0.813414
O O3 0.428253 0.866983 0.396970
O O4 0.307267 0.971983 0.448416
O O5 0.721201 0.935041 0.568227
O O6 0.710656 0.791974 0.648080
O O7 0.817503 0.837949 0.333693
O O8 0.616376 0.847465 0.339366
O O9 0.231248 0.103904 0.476481
O O10 0.407367 0.083787 0.370670
O O11 0.118304 0.805100 0.872847
O O12 0.286124 0.749955 0.002933
O O13 0.071536 0.170428 0.408593
O O14 0.006568 0.495356 0.632630
O O15 0.498214 0.226220 0.597138
O O16 0.494096 0.237227 0.095831
#
# Coordination Sequence:
#
# PCOD9345384 Si02
#       8
#     4   4   4   4   4   4   4   4
#     4  11  22  41  66  99 140 182 231 286 359 430
#     4  10  21  40  62  94 136 179 219 281 355 421
#     4  10  24  38  59  95 137 176 220 281 350 436
#     4  10  22  42  63  98 129 174 232 289 335 410
#     4  11  22  40  66  91 137 180 224 287 359 412
#     4  10  23  40  59  94 136 172 209 267 341 424
#     4  11  24  42  65  98 131 175 240 291 344 411
#     4  11  22  39  66  97 134 174 225 294 349 422
#
# _framework density 21.409687999999999
#
# number of rings (size 3 to 8) (size 9 to 14) (size 15 to 20)
#    0.000    1.500    3.750    0.750    5.250    2.000 
#    4.500    0.000    0.000    4.500    0.000    0.000 
#    0.000    0.000    0.000    0.000    0.000    0.000 
#
# Total GULP energy -178303.938825 kJ/mol
# GULP energy per Si atom -5571.998088 kJ/mol
# Density = 2.136096 g / cm^3
# Si number density = 21.409688 Si / 1000 Ang^3
#
#
#
# Elastic Constant Matrix: (Units=GPa)
#
#
# Indices 1 2 3 4 5 6 
#
# 1 101.3515 31.5229 17.5281 0.0000 0.0000 0.0000
# 2 31.5229 85.4525 26.0751 0.0000 0.0000 0.0000
# 3 17.5281 26.0751 95.9109 0.0000 0.0000 0.0000
# 4 0.0000 0.0000 0.0000 37.1265 0.0000 0.0000
# 5 0.0000 0.0000 0.0000 0.0000 31.7588 0.0000
# 6 0.0000 0.0000 0.0000 0.0000 0.0000 30.8740
#
#
#
# Elastic Compliance Matrix: (Units=1/GPa)
#
#
# Indices 1 2 3 4 5 6 
#
# 1 0.011234 -0.003836 -0.001010 0.000000 0.000000 0.000000
# 2 -0.003836 0.014071 -0.003124 0.000000 0.000000 0.000000
# 3 -0.001010 -0.003124 0.011460 0.000000 0.000000 0.000000
# 4 0.000000 0.000000 0.000000 0.026935 0.000000 0.000000
# 5 0.000000 0.000000 0.000000 0.000000 0.031487 0.000000
# 6 0.000000 0.000000 0.000000 0.000000 0.000000 0.032390
#
#
# Mechanical properties :
#
#
# Convention : Reuss Voigt Hill
#
# Bulk Modulus (GPa) = 48.02060 48.10746 48.06403
# Shear Modulus (GPa) = 33.23130 33.79112 33.51121
#
# Velocity S-wave (km/s) = 3.94402 3.97710 3.96060
# Velocity P-wave (km/s) = 6.57408 6.60368 6.58889
#
# Compressibility (1/GPa) = 0.02082440
#
# Stress axis : x y z
#
# Youngs Moduli (GPa) = 89.01170 71.06878 87.25713
#
# Poissons Ratio (x) = 0.27262 0.08815
# Poissons Ratio (y) = 0.34145 0.27262
# Poissons Ratio (z) = 0.08992 0.22204
#
# Static dielectric constant tensor:
#      x y z
#    x 1.848590 0.000000 0.000000 
#    y 0.000000 1.792620 0.000000 
#    z 0.000000 0.000000 2.109230 
# 
# From -- ./inp_files/1487.got.cif
#   From: 2010.05.17/outbox.cif.g08.bks.cpg/sg33_1_cif.got.tgz:1487.got - 2010.06.03 17:15:25.
