data_PCOD9345296
_publ_section_title
;
Structure prediction by ZEFSAII (Michael W. Deem and Ramdas Pophale) SiO2 
 PCOD9345296
Probable space group: P N A 21
;
_chemical_formula_sum "Si O2"
_cell_formula_units_Z 24
_cell_length_a 28.220101
_cell_length_b 7.415066
_cell_length_c 5.069973
_cell_angle_alpha 90.000000
_cell_angle_beta 90.000000
_cell_angle_gamma 90.000000
_cell_volume 1060.911681
_symmetry_space_group_name_H-M "P N A 21"
_symmetry_group_IT_number 33
_symmetry_cell_setting 'orthorhombic'
loop_
_space_group_symop_operation_xyz
x,y,z
-x,-y,1/2+z
1/2-x,1/2+y,1/2+z
1/2+x,1/2-y,z
loop_
_atom_site_type_symbol
_atom_site_label
_atom_site_fract_x
_atom_site_fract_y
_atom_site_fract_z
Si Si1 0.102721 0.080402 0.079600
Si Si2 0.239625 0.926792 0.681740
Si Si3 0.182732 0.599836 0.573834
Si Si4 0.314299 0.757851 0.317575
Si Si5 0.403921 0.341133 0.068691
Si Si6 0.996586 0.875864 0.450043
O O1 0.056280 0.195793 0.000306
O O2 0.097324 0.012795 0.375160
O O3 0.152735 0.176283 0.041608
O O4 0.102123 0.913921 0.867246
O O5 0.210906 0.744943 0.759472
O O6 0.267751 0.858658 0.427710
O O7 0.202909 0.089846 0.643529
O O8 0.278798 0.008143 0.879029
O O9 0.158292 0.423990 0.694496
O O10 0.139444 0.719041 0.471230
O O11 0.456707 0.262730 0.023222
O O12 0.000416 0.954298 0.155230
#
# Coordination Sequence:
#
# PCOD9345296 Si02
#       6
#     4   4   4   4   4   4
#     4  10  21  38  65  92 125 164 212 257 315 375
#     4  10  24  40  58  90 128 166 212 254 314 370
#     4  11  23  39  63  89 126 165 214 256 317 366
#     4  11  23  39  63  89 126 165 214 256 317 366
#     4  10  21  38  65  92 125 164 212 257 315 375
#     4   8  16  34  60  90 118 162 206 252 310 378
#
# _framework density 22.622052
#
# number of rings (size 3 to 8) (size 9 to 14) (size 15 to 20)
#    0.000    2.000    1.667    1.000    4.667    5.333 
#    0.000    0.000    3.667    0.000    0.000    0.000 
#    0.000    0.000    0.000    0.000    0.000    0.000 
#
# Total GULP energy -133727.110332 kJ/mol
# GULP energy per Si atom -5571.962930 kJ/mol
# Density = 2.257056 g / cm^3
# Si number density = 22.622052 Si / 1000 Ang^3
#
#
#
# Elastic Constant Matrix: (Units=GPa)
#
#
# Indices 1 2 3 4 5 6 
#
# 1 75.3414 17.3705 -0.4278 0.0000 0.0000 0.0000
# 2 17.3705 94.4724 11.7110 0.0000 0.0000 0.0000
# 3 -0.4278 11.7110 65.9382 0.0000 0.0000 0.0000
# 4 0.0000 0.0000 0.0000 20.0931 0.0000 0.0000
# 5 0.0000 0.0000 0.0000 0.0000 23.5202 0.0000
# 6 0.0000 0.0000 0.0000 0.0000 0.0000 -14.4410
#
#
#
# Elastic Compliance Matrix: (Units=1/GPa)
#
#
# Indices 1 2 3 4 5 6 
#
# 1 0.013880 -0.002621 0.000556 0.000000 0.000000 0.000000
# 2 -0.002621 0.011318 -0.002027 0.000000 0.000000 0.000000
# 3 0.000556 -0.002027 0.015529 0.000000 0.000000 0.000000
# 4 0.000000 0.000000 0.000000 0.049768 0.000000 0.000000
# 5 0.000000 0.000000 0.000000 0.000000 0.042517 0.000000
# 6 0.000000 0.000000 0.000000 0.000000 0.000000 -0.069247
#
#
# Mechanical properties :
#
#
# Convention : Reuss Voigt Hill
#
# Bulk Modulus (GPa) = 30.72883 32.56214 31.64549
# Shear Modulus (GPa) = 60.38735 19.64101 40.01418
#
# Velocity S-wave (km/s) = 5.17223 2.94976 4.21029
# Velocity P-wave (km/s) = 7.02014 5.10164 6.13633
#
# Compressibility (1/GPa) = 0.03254273
#
# Stress axis : x y z
#
# Youngs Moduli (GPa) = 72.04422 88.35234 64.39412
#
# Poissons Ratio (x) = 0.23157 -0.03577
# Poissons Ratio (y) = 0.18883 0.13054
# Poissons Ratio (z) = -0.04003 0.17911
#
# Static dielectric constant tensor:
#      x y z
#    x 1.922050 0.000000 0.000000 
#    y 0.000000 1.840870 0.000000 
#    z 0.000000 0.000000 1.882240 
# 
# From -- ./inp_files/2490.got.cif
#   From: 2010.05.17/outbox.cif.g08.bks.cpg/sg33_2_cif.got.tgz:2490.got - 2010.06.03 17:15:25.
