data_PCOD9345466
_publ_section_title
;
Structure prediction by ZEFSAII (Michael W. Deem and Ramdas Pophale) SiO2 
 PCOD9345466
Probable space group: P N A 21
;
_chemical_formula_sum "Si O2"
_cell_formula_units_Z 32
_cell_length_a 12.387505
_cell_length_b 18.969873
_cell_length_c 5.887298
_cell_angle_alpha 90.000000
_cell_angle_beta 90.000000
_cell_angle_gamma 90.000000
_cell_volume 1383.452605
_symmetry_space_group_name_H-M "P N A 21"
_symmetry_group_IT_number 33
_symmetry_cell_setting 'orthorhombic'
loop_
_space_group_symop_operation_xyz
x,y,z
-x,-y,1/2+z
1/2-x,1/2+y,1/2+z
1/2+x,1/2-y,z
loop_
_atom_site_type_symbol
_atom_site_label
_atom_site_fract_x
_atom_site_fract_y
_atom_site_fract_z
Si Si1 0.393040 0.907736 0.113850
Si Si2 0.975807 0.036007 0.072978
Si Si3 0.084829 0.160810 0.827701
Si Si4 0.615523 0.964238 0.943352
Si Si5 0.738669 0.836767 0.977708
Si Si6 0.141573 0.275361 0.173100
Si Si7 0.483996 0.225095 0.564576
Si Si8 0.733579 0.070520 0.213875
O O1 0.496762 0.932133 0.963899
O O2 0.428482 0.829051 0.170812
O O3 0.390412 0.964671 0.305534
O O4 0.280804 0.914329 0.981477
O O5 0.851622 0.057808 0.115972
O O6 0.013250 0.005411 0.324249
O O7 0.044608 0.105064 0.009402
O O8 0.170426 0.133607 0.645181
O O9 0.992289 0.198591 0.677743
O O10 0.139983 0.224205 0.961445
O O11 0.692933 0.904079 0.841417
O O12 0.668006 0.997355 0.170798
O O13 0.631887 0.808719 0.102791
O O14 0.783764 0.769098 0.847444
O O15 0.024384 0.274555 0.301444
O O16 0.182389 0.354656 0.129304
#
# Coordination Sequence:
#
# PCOD9345466 Si02
#       8
#     4   4   4   4   4   4   4   4
#     4  10  21  41  67 107 143 181 235 312 375 460
#     4  12  32  52  76 109 154 208 262 313 372 465
#     4  11  25  46  72 100 143 188 251 306 373 444
#     4  11  21  40  67 100 141 182 236 304 379 452
#     4  10  24  41  69 101 140 183 241 301 377 441
#     4  10  24  43  69 104 137 188 246 309 373 452
#     4   9  22  43  67 101 143 179 240 303 376 445
#     4  11  25  44  71 104 143 199 247 304 385 447
#
# _framework density 23.130533
#
# number of rings (size 3 to 8) (size 9 to 14) (size 15 to 20)
#    0.000    1.500    1.250    1.500   10.500    1.000 
#    0.000    0.000    0.000    0.000    0.000    0.000 
#    0.000    0.000    0.000    0.000    0.000    0.000 
#
# Total GULP energy -178328.998641 kJ/mol
# GULP energy per Si atom -5572.781208 kJ/mol
# Density = 2.307789 g / cm^3
# Si number density = 23.130533 Si / 1000 Ang^3
#
#
#
# Elastic Constant Matrix: (Units=GPa)
#
#
# Indices 1 2 3 4 5 6 
#
# 1 69.3742 20.0826 26.9087 0.0000 0.0000 0.0000
# 2 20.0826 112.1608 29.6173 0.0000 0.0000 0.0000
# 3 26.9087 29.6173 49.3130 0.0000 0.0000 0.0000
# 4 0.0000 0.0000 0.0000 19.5880 0.0000 0.0000
# 5 0.0000 0.0000 0.0000 0.0000 10.1627 0.0000
# 6 0.0000 0.0000 0.0000 0.0000 0.0000 26.2798
#
#
#
# Elastic Compliance Matrix: (Units=1/GPa)
#
#
# Indices 1 2 3 4 5 6 
#
# 1 0.018339 -0.000762 -0.009549 0.000000 0.000000 0.000000
# 2 -0.000762 0.010628 -0.005967 0.000000 0.000000 0.000000
# 3 -0.009549 -0.005967 0.029073 0.000000 0.000000 0.000000
# 4 0.000000 0.000000 0.000000 0.051052 0.000000 0.000000
# 5 0.000000 0.000000 0.000000 0.000000 0.098399 0.000000
# 6 0.000000 0.000000 0.000000 0.000000 0.000000 0.038052
#
#
# Mechanical properties :
#
#
# Convention : Reuss Voigt Hill
#
# Bulk Modulus (GPa) = 39.24191 42.67390 40.95790
# Shear Modulus (GPa) = 17.44621 21.48874 19.46747
#
# Velocity S-wave (km/s) = 2.74934 3.05129 2.90424
# Velocity P-wave (km/s) = 5.20392 5.55905 5.38441
#
# Compressibility (1/GPa) = 0.02548296
#
# Stress axis : x y z
#
# Youngs Moduli (GPa) = 54.52800 94.09150 34.39559
#
# Poissons Ratio (x) = 0.07170 0.32846
# Poissons Ratio (y) = 0.04155 0.20525
# Poissons Ratio (z) = 0.52072 0.56147
#
# Static dielectric constant tensor:
#      x y z
#    x 1.920280 0.000000 0.000000 
#    y 0.000000 1.896840 0.000000 
#    z 0.000000 0.000000 1.963670 
# 
# From -- ./inp_files/1016.got.cif
#   From: 2010.05.17/outbox.cif.g08.bks.cpg/sg33_1_cif.got.tgz:1016.got - 2010.06.03 17:15:25.
