data_PCOD9345276
_publ_section_title
;
Structure prediction by ZEFSAII (Michael W. Deem and Ramdas Pophale) SiO2 
 PCOD9345276
Probable space group: P N A 21
;
_chemical_formula_sum "Si O2"
_cell_formula_units_Z 24
_cell_length_a 28.716271
_cell_length_b 5.561475
_cell_length_c 5.397274
_cell_angle_alpha 90.000000
_cell_angle_beta 90.000000
_cell_angle_gamma 90.000000
_cell_volume 861.970690
_symmetry_space_group_name_H-M "P N A 21"
_symmetry_group_IT_number 33
_symmetry_cell_setting 'orthorhombic'
loop_
_space_group_symop_operation_xyz
x,y,z
-x,-y,1/2+z
1/2-x,1/2+y,1/2+z
1/2+x,1/2-y,z
loop_
_atom_site_type_symbol
_atom_site_label
_atom_site_fract_x
_atom_site_fract_y
_atom_site_fract_z
Si Si1 0.476440 0.274552 0.474850
Si Si2 0.143239 0.258339 0.529928
Si Si3 0.690048 0.772674 0.973021
Si Si4 0.607778 0.477308 0.026789
Si Si5 0.775897 0.770805 0.711704
Si Si6 0.440570 0.028144 0.976074
O O1 0.455778 0.141012 0.716622
O O2 0.448016 0.521616 0.496457
O O3 0.531173 0.225863 0.490309
O O4 0.459165 0.172219 0.212380
O O5 0.197906 0.248411 0.477992
O O6 0.114765 0.503203 0.489511
O O7 0.129044 0.177818 0.802906
O O8 0.121832 0.104239 0.301146
O O9 0.709105 0.529728 0.106671
O O10 0.704365 0.031185 0.080950
O O11 0.634992 0.728673 0.976125
O O12 0.720208 0.760474 0.722140
#
# Coordination Sequence:
#
# PCOD9345276 Si02
#       6
#     4   4   4   4   4   4
#     4  10  21  38  61  90 126 172 223 277 337 401
#     4  11  24  41  63  95 130 173 224 277 338 402
#     4  11  24  43  68 101 137 179 226 280 338 403
#     4  11  24  41  63  95 130 173 224 277 338 402
#     4  11  24  43  68 101 137 179 226 280 338 403
#     4  10  21  38  61  90 126 172 223 277 337 401
#
# _framework density 27.843176
#
# number of rings (size 3 to 8) (size 9 to 14) (size 15 to 20)
#    0.000    1.333    0.000    5.000    0.000    8.000 
#    0.000    0.000    0.000    0.000    0.000    0.000 
#    0.000    0.000    0.000    0.000    0.000    0.000 
#
# Total GULP energy -134219.432432 kJ/mol
# GULP energy per Si atom -5592.476351 kJ/mol
# Density = 2.777980 g / cm^3
# Si number density = 27.843176 Si / 1000 Ang^3
#
#
#
# Elastic Constant Matrix: (Units=GPa)
#
#
# Indices 1 2 3 4 5 6 
#
# 1 89.1332 19.4307 44.0505 0.0000 0.0000 0.0000
# 2 19.4307 117.8403 64.9679 0.0000 0.0000 0.0000
# 3 44.0505 64.9679 124.2354 0.0000 0.0000 0.0000
# 4 0.0000 0.0000 0.0000-1123.9884 0.0000 0.0000
# 5 0.0000 0.0000 0.0000 0.0000 44.9584 0.0000
# 6 0.0000 0.0000 0.0000 0.0000 0.0000 50.6073
#
#
#
# Elastic Compliance Matrix: (Units=1/GPa)
#
#
# Indices 1 2 3 4 5 6 
#
# 1 0.013632 0.000586 -0.005140 0.000000 0.000000 0.000000
# 2 0.000586 0.011949 -0.006456 0.000000 0.000000 0.000000
# 3 -0.005140 -0.006456 0.013248 0.000000 0.000000 0.000000
# 4 0.000000 0.000000 0.000000 -0.000890 0.000000 0.000000
# 5 0.000000 0.000000 0.000000 0.000000 0.022243 0.000000
# 6 0.000000 0.000000 0.000000 0.000000 0.000000 0.019760
#
#
# Mechanical properties :
#
#
# Convention : Reuss Voigt Hill
#
# Bulk Modulus (GPa) = 59.49519 65.34524 62.42021
# Shear Modulus (GPa) = 46.48359 -192.16723 -72.84182
#
# Velocity S-wave (km/s) = 4.09036 -8.31670 -5.12038
# Velocity P-wave (km/s) = 6.61229 8.28875 3.53419
#
# Compressibility (1/GPa) = 0.01680808
#
# Stress axis : x y z
#
# Youngs Moduli (GPa) = 73.35914 83.68905 75.48310
#
# Poissons Ratio (x) = -0.04904 0.38797
# Poissons Ratio (y) = -0.04299 0.48735
# Poissons Ratio (z) = 0.37705 0.54033
#
# Static dielectric constant tensor:
#      x y z
#    x 2.413360 0.000000 0.000000 
#    y 0.000000 3.280170 0.000000 
#    z 0.000000 0.000000 2.170910 
# 
# From -- ./inp_files/2500.got.cif
#   From: 2010.05.17/outbox.cif.g08.bks.cpg/sg33_2_cif.got.tgz:2500.got - 2010.06.03 17:15:25.
