data_PCOD9345073
_publ_section_title
;
Structure prediction by ZEFSAII (Michael W. Deem and Ramdas Pophale) SiO2 
 PCOD9345073
Probable space group: P N A 21
;
_chemical_formula_sum "Si O2"
_cell_formula_units_Z 24
_cell_length_a 12.351310
_cell_length_b 6.823572
_cell_length_c 12.270984
_cell_angle_alpha 90.000000
_cell_angle_beta 90.000000
_cell_angle_gamma 90.000000
_cell_volume 1034.199183
_symmetry_space_group_name_H-M "P N A 21"
_symmetry_group_IT_number 33
_symmetry_cell_setting 'orthorhombic'
loop_
_space_group_symop_operation_xyz
x,y,z
-x,-y,1/2+z
1/2-x,1/2+y,1/2+z
1/2+x,1/2-y,z
loop_
_atom_site_type_symbol
_atom_site_label
_atom_site_fract_x
_atom_site_fract_y
_atom_site_fract_z
Si Si1 0.790436 0.598721 0.506520
Si Si2 0.151230 0.461814 0.247726
Si Si3 0.006434 0.455567 0.453396
Si Si4 0.998103 0.213970 0.668279
Si Si5 0.138646 0.070607 0.853279
Si Si6 0.041050 0.916144 0.507919
O O1 0.836444 0.629022 0.628224
O O2 0.798168 0.801116 0.442047
O O3 0.667198 0.530102 0.507015
O O4 0.875467 0.453217 0.448548
O O5 0.067103 0.401767 0.341880
O O6 0.270358 0.442777 0.297702
O O7 0.109371 0.683998 0.216611
O O8 0.035177 0.336019 0.562273
O O9 0.032907 0.684735 0.482246
O O10 0.088145 0.210989 0.761137
O O11 0.992287 0.993492 0.621903
O O12 0.034552 0.985760 0.915338
#
# Coordination Sequence:
#
# PCOD9345073 Si02
#       6
#     4   4   4   4   4   4
#     4  10  20  40  67  95 133 175 224 275 337 406
#     4  11  21  42  67  95 139 172 222 285 334 402
#     4  10  23  42  66  96 136 177 220 281 333 397
#     4  11  23  43  67  97 130 177 224 271 343 398
#     4  11  21  42  69  92 141 170 219 295 324 401
#     4  11  22  43  66  99 129 175 227 273 333 404
#
# _framework density 23.20636
#
# number of rings (size 3 to 8) (size 9 to 14) (size 15 to 20)
#    0.000    1.333    6.667    0.000    0.000    1.333 
#    9.000    1.667    0.000    0.000    0.000    0.000 
#    0.000    0.000    0.000    0.000    0.000    0.000 
#
# Total GULP energy -133899.361804 kJ/mol
# GULP energy per Si atom -5579.140075 kJ/mol
# Density = 2.315354 g / cm^3
# Si number density = 23.206360 Si / 1000 Ang^3
#
#
#
# Elastic Constant Matrix: (Units=GPa)
#
#
# Indices 1 2 3 4 5 6 
#
# 1 150.9831 21.3286 52.4096 0.0000 0.0000 0.0000
# 2 21.3286 47.8265 19.6121 0.0000 0.0000 0.0000
# 3 52.4096 19.6121 147.3688 0.0000 0.0000 0.0000
# 4 0.0000 0.0000 0.0000 43.6290 0.0000 0.0000
# 5 0.0000 0.0000 0.0000 0.0000 42.1702 0.0000
# 6 0.0000 0.0000 0.0000 0.0000 0.0000 12.7454
#
#
#
# Elastic Compliance Matrix: (Units=1/GPa)
#
#
# Indices 1 2 3 4 5 6 
#
# 1 0.007825 -0.002484 -0.002452 0.000000 0.000000 0.000000
# 2 -0.002484 0.022904 -0.002165 0.000000 0.000000 0.000000
# 3 -0.002452 -0.002165 0.007946 0.000000 0.000000 0.000000
# 4 0.000000 0.000000 0.000000 0.022921 0.000000 0.000000
# 5 0.000000 0.000000 0.000000 0.000000 0.023713 0.000000
# 6 0.000000 0.000000 0.000000 0.000000 0.000000 0.078459
#
#
# Mechanical properties :
#
#
# Convention : Reuss Voigt Hill
#
# Bulk Modulus (GPa) = 40.86095 59.20879 50.03487
# Shear Modulus (GPa) = 26.86301 36.56413 31.71357
#
# Velocity S-wave (km/s) = 3.40600 3.97370 3.70075
# Velocity P-wave (km/s) = 5.75445 6.82811 6.31414
#
# Compressibility (1/GPa) = 0.02447324
#
# Stress axis : x y z
#
# Youngs Moduli (GPa) = 127.78780 43.65972 125.85031
#
# Poissons Ratio (x) = 0.10846 0.30864
# Poissons Ratio (y) = 0.31745 0.27243
# Poissons Ratio (z) = 0.31339 0.09451
#
# Static dielectric constant tensor:
#      x y z
#    x 1.869000 0.000000 0.000000 
#    y 0.000000 1.964740 0.000000 
#    z 0.000000 0.000000 1.857060 
# 
# From -- ./inp_files/6296.got.cif
#   From: 2010.05.17/outbox.cif.g08.bks.cpg/sg33_4_cif.got.tgz:6296.got - 2010.06.03 17:15:25.
