data_PCOD9345337
_publ_section_title
;
Structure prediction by ZEFSAII (Michael W. Deem and Ramdas Pophale) SiO2 
 PCOD9345337
Probable space group: P N A 21
;
_chemical_formula_sum "Si O2"
_cell_formula_units_Z 28
_cell_length_a 10.109340
_cell_length_b 5.385641
_cell_length_c 19.958038
_cell_angle_alpha 90.000000
_cell_angle_beta 90.000000
_cell_angle_gamma 90.000000
_cell_volume 1086.620887
_symmetry_space_group_name_H-M "P N A 21"
_symmetry_group_IT_number 33
_symmetry_cell_setting 'orthorhombic'
loop_
_space_group_symop_operation_xyz
x,y,z
-x,-y,1/2+z
1/2-x,1/2+y,1/2+z
1/2+x,1/2-y,z
loop_
_atom_site_type_symbol
_atom_site_label
_atom_site_fract_x
_atom_site_fract_y
_atom_site_fract_z
Si Si1 0.007274 0.958431 0.355240
Si Si2 0.582135 0.040070 0.389754
Si Si3 0.595775 0.023135 0.017780
Si Si4 0.332938 0.744176 0.710864
Si Si5 0.699037 0.250188 0.747978
Si Si6 0.411992 0.087553 0.142921
Si Si7 0.325808 0.467600 0.479968
O O1 0.110971 0.734608 0.362294
O O2 0.897921 0.836373 0.307213
O O3 0.951352 0.998648 0.430689
O O4 0.044441 0.242943 0.337984
O O5 0.465113 0.008047 0.443377
O O6 0.709223 0.119072 0.431387
O O7 0.657214 0.753618 0.032839
O O8 0.690233 0.259969 0.010723
O O9 0.479060 0.065042 0.070938
O O10 0.483087 0.751531 0.686446
O O11 0.282690 0.507157 0.754173
O O12 0.231697 0.710005 0.647989
O O13 0.293072 0.016138 0.735950
O O14 0.609424 0.172700 0.682959
#
# Coordination Sequence:
#
# PCOD9345337 Si02
#       7
#     4   4   4   4   4   4   4
#     4  10  21  42  61  94 125 168 219 279 333 401
#     4  10  21  39  64  94 125 169 217 276 338 401
#     4  10  23  37  63  90 133 165 224 268 343 400
#     4  10  25  42  67  96 137 174 233 275 342 408
#     4  10  24  42  66  96 137 176 233 278 347 403
#     4  10  26  43  68 100 139 185 229 283 346 418
#     4  10  22  39  61  94 126 169 221 273 343 401
#
# _framework density 25.767956000000002
#
# number of rings (size 3 to 8) (size 9 to 14) (size 15 to 20)
#    0.857    1.143    0.000    1.714    6.000    2.286 
#    0.000    0.000    0.000    0.000    0.000    0.000 
#    0.000    0.000    0.000    0.000    0.000    0.000 
#
# Total GULP energy -156426.816402 kJ/mol
# GULP energy per Si atom -5586.672014 kJ/mol
# Density = 2.570931 g / cm^3
# Si number density = 25.767956 Si / 1000 Ang^3
#
#
#
# Elastic Constant Matrix: (Units=GPa)
#
#
# Indices 1 2 3 4 5 6 
#
# 1 46.8813 31.5649 3.2130 0.0000 0.0000 0.0000
# 2 31.5649 193.3793 35.8034 0.0000 0.0000 0.0000
# 3 3.2130 35.8034 80.1135 0.0000 0.0000 0.0000
# 4 0.0000 0.0000 0.0000 21.9632 0.0000 0.0000
# 5 0.0000 0.0000 0.0000 0.0000 50.9253 0.0000
# 6 0.0000 0.0000 0.0000 0.0000 0.0000 29.7186
#
#
#
# Elastic Compliance Matrix: (Units=1/GPa)
#
#
# Indices 1 2 3 4 5 6 
#
# 1 0.024018 -0.004080 0.000860 0.000000 0.000000 0.000000
# 2 -0.004080 0.006331 -0.002666 0.000000 0.000000 0.000000
# 3 0.000860 -0.002666 0.013639 0.000000 0.000000 0.000000
# 4 0.000000 0.000000 0.000000 0.045531 0.000000 0.000000
# 5 0.000000 0.000000 0.000000 0.000000 0.019637 0.000000
# 6 0.000000 0.000000 0.000000 0.000000 0.000000 0.033649
#
#
# Mechanical properties :
#
#
# Convention : Reuss Voigt Hill
#
# Bulk Modulus (GPa) = 31.03908 51.28187 41.16048
# Shear Modulus (GPa) = 30.24546 37.17427 33.70987
#
# Velocity S-wave (km/s) = 3.42974 3.80235 3.62084
# Velocity P-wave (km/s) = 5.26839 6.26273 5.78695
#
# Compressibility (1/GPa) = 0.03221745
#
# Stress axis : x y z
#
# Youngs Moduli (GPa) = 41.63479 157.96218 73.31872
#
# Poissons Ratio (x) = 0.64444 -0.06305
# Poissons Ratio (y) = 0.16986 0.19544
# Poissons Ratio (z) = -0.03580 0.42106
#
# Static dielectric constant tensor:
#      x y z
#    x 2.021170 0.000000 0.000000 
#    y 0.000000 2.077010 0.000000 
#    z 0.000000 0.000000 2.118770 
# 
# From -- ./inp_files/9045.got.cif
#   From: 2010.05.17/outbox.cif.g08.bks.cpg/sg33_5_cif.got.tgz:9045.got - 2010.06.03 17:15:25.
