data_PCOD9345578
_publ_section_title
;
Structure prediction by ZEFSAII (Michael W. Deem and Ramdas Pophale) SiO2 
 PCOD9345578
Probable space group: P N A 21
;
_chemical_formula_sum "Si O2"
_cell_formula_units_Z 20
_cell_length_a 8.721096
_cell_length_b 11.758636
_cell_length_c 7.545726
_cell_angle_alpha 90.000000
_cell_angle_beta 90.000000
_cell_angle_gamma 90.000000
_cell_volume 773.800569
_symmetry_space_group_name_H-M "P N A 21"
_symmetry_group_IT_number 33
_symmetry_cell_setting 'orthorhombic'
loop_
_space_group_symop_operation_xyz
x,y,z
-x,-y,1/2+z
1/2-x,1/2+y,1/2+z
1/2+x,1/2-y,z
loop_
_atom_site_type_symbol
_atom_site_label
_atom_site_fract_x
_atom_site_fract_y
_atom_site_fract_z
Si Si1 0.457599 0.353803 0.103330
Si Si2 0.675152 0.215867 0.327448
Si Si3 0.003688 0.460809 0.567012
Si Si4 0.830414 0.921129 0.100166
Si Si5 0.134911 0.656461 0.392150
O O1 0.605163 0.282491 0.160346
O O2 0.339007 0.331920 0.267886
O O3 0.466395 0.489190 0.084168
O O4 0.386173 0.287009 0.937523
O O5 0.573018 0.114876 0.408704
O O6 0.674193 0.311115 0.478895
O O7 0.823988 0.489513 0.542258
O O8 0.990719 0.384710 0.744230
O O9 0.100784 0.575995 0.560294
O O10 0.792886 0.878705 0.298017
#
# Coordination Sequence:
#
# PCOD9345578 Si02
#       5
#     4   4   4   4   4
#     4  12  24  46  69 106 143 185 230 300 351 417
#     4  12  24  45  71 100 148 181 238 289 354 420
#     4  10  21  45  70  93 137 195 233 274 345 439
#     4  10  25  42  68 106 136 182 238 298 344 413
#     4  10  22  42  72  99 136 187 243 273 354 417
#
# _framework density 25.846450000000001
#
# number of rings (size 3 to 8) (size 9 to 14) (size 15 to 20)
#    1.200    0.000    4.000    2.400    0.000    6.400 
#    0.000    0.000    0.000    0.000    0.000    0.000 
#    0.000    0.000    0.000    0.000    0.000    0.000 
#
# Total GULP energy -111850.056183 kJ/mol
# GULP energy per Si atom -5592.502809 kJ/mol
# Density = 2.578762 g / cm^3
# Si number density = 25.846450 Si / 1000 Ang^3
#
#
#
# Elastic Constant Matrix: (Units=GPa)
#
#
# Indices 1 2 3 4 5 6 
#
# 1 49.4272 -2.1529 -6.2432 0.0000 0.0000 0.0000
# 2 -2.1529 112.1003 28.8664 0.0000 0.0000 0.0000
# 3 -6.2432 28.8664 82.5730 0.0000 0.0000 0.0000
# 4 0.0000 0.0000 0.0000 54.8441 0.0000 0.0000
# 5 0.0000 0.0000 0.0000 0.0000 29.6320 0.0000
# 6 0.0000 0.0000 0.0000 0.0000 0.0000 40.8907
#
#
#
# Elastic Compliance Matrix: (Units=1/GPa)
#
#
# Indices 1 2 3 4 5 6 
#
# 1 0.020427 -0.000006 0.001547 0.000000 0.000000 0.000000
# 2 -0.000006 0.009803 -0.003427 0.000000 0.000000 0.000000
# 3 0.001547 -0.003427 0.013426 0.000000 0.000000 0.000000
# 4 0.000000 0.000000 0.000000 0.018233 0.000000 0.000000
# 5 0.000000 0.000000 0.000000 0.000000 0.033747 0.000000
# 6 0.000000 0.000000 0.000000 0.000000 0.000000 0.024455
#
#
# Mechanical properties :
#
#
# Convention : Reuss Voigt Hill
#
# Bulk Modulus (GPa) = 25.07412 31.67122 28.37267
# Shear Modulus (GPa) = 36.45393 39.98205 38.21799
#
# Velocity S-wave (km/s) = 3.75961 3.93734 3.84950
# Velocity P-wave (km/s) = 5.34495 5.74024 5.54612
#
# Compressibility (1/GPa) = 0.03988176
#
# Stress axis : x y z
#
# Youngs Moduli (GPa) = 48.95520 102.00897 74.48448
#
# Poissons Ratio (x) = 0.00060 -0.11519
# Poissons Ratio (y) = 0.00029 0.25529
# Poissons Ratio (z) = -0.07571 0.34963
#
# Static dielectric constant tensor:
#      x y z
#    x 2.067730 0.000000 0.000000 
#    y 0.000000 1.977220 0.000000 
#    z 0.000000 0.000000 2.090060 
# 
# From -- ./inp_files/2981.got.cif
#   From: 2010.05.17/outbox.cif.g08.bks.cpg/sg33_2_cif.got.tgz:2981.got - 2010.06.03 17:15:25.
