data_PCOD9345411
_publ_section_title
;
Structure prediction by ZEFSAII (Michael W. Deem and Ramdas Pophale) SiO2 
 PCOD9345411
Probable space group: P N A 21
;
_chemical_formula_sum "Si O2"
_cell_formula_units_Z 28
_cell_length_a 12.323558
_cell_length_b 8.865465
_cell_length_c 10.823153
_cell_angle_alpha 90.000000
_cell_angle_beta 90.000000
_cell_angle_gamma 90.000000
_cell_volume 1182.473538
_symmetry_space_group_name_H-M "P N A 21"
_symmetry_group_IT_number 33
_symmetry_cell_setting 'orthorhombic'
loop_
_space_group_symop_operation_xyz
x,y,z
-x,-y,1/2+z
1/2-x,1/2+y,1/2+z
1/2+x,1/2-y,z
loop_
_atom_site_type_symbol
_atom_site_label
_atom_site_fract_x
_atom_site_fract_y
_atom_site_fract_z
Si Si1 0.479750 0.461689 0.710560
Si Si2 0.396654 0.125023 0.736302
Si Si3 0.703926 0.779685 0.484465
Si Si4 0.395684 0.045269 0.199756
Si Si5 0.900991 0.985139 0.462555
Si Si6 0.789081 0.949836 0.874131
Si Si7 0.231032 0.277421 0.565289
O O1 0.463438 0.281251 0.718064
O O2 0.559928 0.500451 0.822257
O O3 0.493020 0.511988 0.569318
O O4 0.364891 0.532864 0.754482
O O5 0.357190 0.125519 0.877108
O O6 0.476666 0.987444 0.707674
O O7 0.291101 0.153580 0.651381
O O8 0.827661 0.836995 0.479984
O O9 0.701960 0.607498 0.444567
O O10 0.643323 0.821555 0.610222
O O11 0.334932 0.069645 0.329620
O O12 0.341434 0.892702 0.142697
O O13 0.823323 0.122365 0.500614
O O14 0.827686 0.812330 0.957405
#
# Coordination Sequence:
#
# PCOD9345411 Si02
#       7
#     4   4   4   4   4   4   4
#     4  10  21  40  68  95 130 175 220 268 338 400
#     4  10  22  40  65  93 127 175 210 270 341 387
#     4  10  21  44  66  92 131 173 215 270 336 393
#     4  11  22  44  65  92 135 164 220 272 324 410
#     4  10  21  43  66  97 131 174 223 273 332 403
#     4  11  22  43  66  93 129 174 214 275 332 398
#     4  10  23  42  66  92 129 175 216 274 337 391
#
# _framework density 23.679176999999999
#
# number of rings (size 3 to 8) (size 9 to 14) (size 15 to 20)
#    0.000    1.714    5.714    0.857    6.000    0.000 
#   10.286    0.000    0.000    0.000    0.000    0.000 
#    0.000    0.000    0.000    0.000    0.000    0.000 
#
# Total GULP energy -156582.373235 kJ/mol
# GULP energy per Si atom -5592.227616 kJ/mol
# Density = 2.362528 g / cm^3
# Si number density = 23.679177 Si / 1000 Ang^3
#
#
#
# Elastic Constant Matrix: (Units=GPa)
#
#
# Indices 1 2 3 4 5 6 
#
# 1 26.0366 7.1756 42.5237 0.0000 0.0000 0.0000
# 2 7.1756 19.7620 27.6873 0.0000 0.0000 0.0000
# 3 42.5237 27.6873 60.5657 0.0000 0.0000 0.0000
# 4 0.0000 0.0000 0.0000 39.3230 0.0000 0.0000
# 5 0.0000 0.0000 0.0000 0.0000 43.1189 0.0000
# 6 0.0000 0.0000 0.0000 0.0000 0.0000 21.5974
#
#
#
# Elastic Compliance Matrix: (Units=1/GPa)
#
#
# Indices 1 2 3 4 5 6 
#
# 1 -0.040018 -0.069076 0.059675 0.000000 0.000000 0.000000
# 2 -0.069076 0.021514 0.038664 0.000000 0.000000 0.000000
# 3 0.059675 0.038664 -0.043062 0.000000 0.000000 0.000000
# 4 0.000000 0.000000 0.000000 0.025430 0.000000 0.000000
# 5 0.000000 0.000000 0.000000 0.000000 0.023192 0.000000
# 6 0.000000 0.000000 0.000000 0.000000 0.000000 0.046302
#
#
# Mechanical properties :
#
#
# Convention : Reuss Voigt Hill
#
# Bulk Modulus (GPa) = -328.84328 29.01529 -149.91400
# Shear Modulus (GPa) = -190.98494 22.73970 -84.12262
#
# Velocity S-wave (km/s) = -8.99057 3.10227 -5.96683
# Velocity P-wave (km/s) = 15.71463 5.01121 10.53180
#
# Compressibility (1/GPa) = -0.00304096
#
# Stress axis : x y z
#
# Youngs Moduli (GPa) = -24.98887 46.48100 -23.22230
#
# Poissons Ratio (x) = 3.21072 1.38578
# Poissons Ratio (y) = -1.72613 0.89786
# Poissons Ratio (z) = 1.49120 -1.79713
#
# Static dielectric constant tensor:
#      x y z
#    x 1.949410 0.000000 0.000000 
#    y 0.000000 1.855270 0.000000 
#    z 0.000000 0.000000 1.942210 
# 
# From -- ./inp_files/6344.got.cif
#   From: 2010.05.17/outbox.cif.g08.bks.cpg/sg33_4_cif.got.tgz:6344.got - 2010.06.03 17:15:25.
