data_PCOD9345872
_publ_section_title
;
Structure prediction by ZEFSAII (Michael W. Deem and Ramdas Pophale) SiO2 
 PCOD9345872
Probable space group: P N A 21
;
_chemical_formula_sum "Si O2"
_cell_formula_units_Z 32
_cell_length_a 8.496503
_cell_length_b 25.195945
_cell_length_c 6.240687
_cell_angle_alpha 90.000000
_cell_angle_beta 90.000000
_cell_angle_gamma 90.000000
_cell_volume 1335.990186
_symmetry_space_group_name_H-M "P N A 21"
_symmetry_group_IT_number 33
_symmetry_cell_setting 'orthorhombic'
loop_
_space_group_symop_operation_xyz
x,y,z
-x,-y,1/2+z
1/2-x,1/2+y,1/2+z
1/2+x,1/2-y,z
loop_
_atom_site_type_symbol
_atom_site_label
_atom_site_fract_x
_atom_site_fract_y
_atom_site_fract_z
Si Si1 0.514162 0.706224 0.569730
Si Si2 0.769960 0.278262 0.773850
Si Si3 0.148111 0.510242 0.825765
Si Si4 0.430372 0.079360 0.964123
Si Si5 0.647044 0.546548 0.977166
Si Si6 0.707680 0.130897 0.163772
Si Si7 0.541921 0.217038 0.463911
Si Si8 0.150339 0.054705 0.705755
O O1 0.357099 0.694837 0.433349
O O2 0.611149 0.749884 0.436547
O O3 0.630564 0.656480 0.583339
O O4 0.486713 0.732678 0.803541
O O5 0.666732 0.235752 0.641074
O O6 0.884161 0.301763 0.588223
O O7 0.118451 0.565765 0.706437
O O8 0.243001 0.471419 0.670377
O O9 0.248417 0.523405 0.031226
O O10 0.992278 0.478109 0.884695
O O11 0.581389 0.116776 0.978834
O O12 0.276684 0.091590 0.826533
O O13 0.741089 0.580420 0.803940
O O14 0.591880 0.490695 0.871399
O O15 0.498677 0.577470 0.079020
O O16 0.619435 0.172238 0.317629
#
# Coordination Sequence:
#
# PCOD9345872 Si02
#       8
#     4   4   4   4   4   4   4   4
#     4  11  22  46  75 105 145 188 240 306 372 441
#     4  10  22  43  80  99 130 207 227 283 396 437
#     4  11  20  42  71  94 139 188 232 285 375 418
#     4  11  23  40  70 104 135 188 237 300 347 430
#     4  11  24  42  74 101 137 193 238 304 353 431
#     4  12  25  44  75 108 149 182 253 307 352 440
#     4  11  22  46  74 106 144 187 238 306 371 444
#     4  11  22  43  71  99 145 187 239 287 378 423
#
# _framework density 23.952273999999999
#
# number of rings (size 3 to 8) (size 9 to 14) (size 15 to 20)
#    0.000    1.000    6.250    0.750    0.000    1.000 
#    0.000    3.750    5.500    0.000    0.000    0.000 
#    0.000    0.000    0.000    0.000    0.000    0.000 
#
# Total GULP energy -178933.631026 kJ/mol
# GULP energy per Si atom -5591.675970 kJ/mol
# Density = 2.389776 g / cm^3
# Si number density = 23.952274 Si / 1000 Ang^3
#
#
#
# Elastic Constant Matrix: (Units=GPa)
#
#
# Indices 1 2 3 4 5 6 
#
# 1 126.2982 17.6921 30.4765 0.0000 0.0000 0.0000
# 2 17.6921 45.1755 5.5090 0.0000 0.0000 0.0000
# 3 30.4765 5.5090 76.3252 0.0000 0.0000 0.0000
# 4 0.0000 0.0000 0.0000 13.0212 0.0000 0.0000
# 5 0.0000 0.0000 0.0000 0.0000 55.3125 0.0000
# 6 0.0000 0.0000 0.0000 0.0000 0.0000 39.5424
#
#
#
# Elastic Compliance Matrix: (Units=1/GPa)
#
#
# Indices 1 2 3 4 5 6 
#
# 1 0.009194 -0.003181 -0.003441 0.000000 0.000000 0.000000
# 2 -0.003181 0.023433 -0.000421 0.000000 0.000000 0.000000
# 3 -0.003441 -0.000421 0.014506 0.000000 0.000000 0.000000
# 4 0.000000 0.000000 0.000000 0.076798 0.000000 0.000000
# 5 0.000000 0.000000 0.000000 0.000000 0.018079 0.000000
# 6 0.000000 0.000000 0.000000 0.000000 0.000000 0.025289
#
#
# Mechanical properties :
#
#
# Convention : Reuss Voigt Hill
#
# Bulk Modulus (GPa) = 30.26084 39.46158 34.86121
# Shear Modulus (GPa) = 25.98726 34.51663 30.25195
#
# Velocity S-wave (km/s) = 3.29745 3.80025 3.55774
# Velocity P-wave (km/s) = 5.21141 5.98053 5.60916
#
# Compressibility (1/GPa) = 0.03304601
#
# Stress axis : x y z
#
# Youngs Moduli (GPa) = 108.76890 42.67485 68.93505
#
# Poissons Ratio (x) = 0.13574 0.23724
# Poissons Ratio (y) = 0.34598 0.02904
# Poissons Ratio (z) = 0.37433 0.01798
#
# Static dielectric constant tensor:
#      x y z
#    x 1.932330 0.000000 0.000000 
#    y 0.000000 1.920590 0.000000 
#    z 0.000000 0.000000 1.898730 
# 
# From -- ./inp_files/614.got.cif
#   From: 2010.05.17/outbox.cif.g08.bks.cpg/sg33_1_cif.got.tgz:614.got - 2010.06.03 17:15:25.
