data_PCOD9345346
_publ_section_title
;
Structure prediction by ZEFSAII (Michael W. Deem and Ramdas Pophale) SiO2 
 PCOD9345346
Probable space group: P N A 21
;
_chemical_formula_sum "Si O2"
_cell_formula_units_Z 20
_cell_length_a 5.943402
_cell_length_b 23.360852
_cell_length_c 5.041455
_cell_angle_alpha 90.000000
_cell_angle_beta 90.000000
_cell_angle_gamma 90.000000
_cell_volume 699.970406
_symmetry_space_group_name_H-M "P N A 21"
_symmetry_group_IT_number 33
_symmetry_cell_setting 'orthorhombic'
loop_
_space_group_symop_operation_xyz
x,y,z
-x,-y,1/2+z
1/2-x,1/2+y,1/2+z
1/2+x,1/2-y,z
loop_
_atom_site_type_symbol
_atom_site_label
_atom_site_fract_x
_atom_site_fract_y
_atom_site_fract_z
Si Si1 0.234539 0.326495 0.289150
Si Si2 0.974231 0.127055 0.793096
Si Si3 0.522928 0.925750 0.915846
Si Si4 0.738525 0.471958 0.915644
Si Si5 0.259387 0.730234 0.422348
O O1 0.411920 0.348953 0.505146
O O2 0.010961 0.358675 0.380849
O O3 0.239250 0.259787 0.215916
O O4 0.286748 0.353619 0.001502
O O5 0.013332 0.059471 0.821818
O O6 0.188800 0.163501 0.896612
O O7 0.701648 0.951253 0.710063
O O8 0.292400 0.961708 0.867891
O O9 0.587966 0.942171 0.211394
O O10 0.505540 0.755598 0.317476
#
# Coordination Sequence:
#
# PCOD9345346 Si02
#       5
#     4   4   4   4   4
#     4  11  24  41  65  97 135 182 235 293 355 422
#     4  11  24  41  65  97 135 182 235 293 355 422
#     4  10  21  39  65  96 133 180 232 291 358 427
#     4  10  21  39  65  96 133 180 232 291 358 427
#     4  10  24  44  68  98 136 184 236 290 348 414
#
# _framework density 28.572635999999999
#
# number of rings (size 3 to 8) (size 9 to 14) (size 15 to 20)
#    0.000    1.600    0.000    3.600    0.000   11.200 
#    0.000    4.000    0.000    0.000    0.000    0.000 
#    0.000    0.000    0.000    0.000    0.000    0.000 
#
# Total GULP energy -111769.461834 kJ/mol
# GULP energy per Si atom -5588.473092 kJ/mol
# Density = 2.850760 g / cm^3
# Si number density = 28.572636 Si / 1000 Ang^3
#
#
#
# Elastic Constant Matrix: (Units=GPa)
#
#
# Indices 1 2 3 4 5 6 
#
# 1 120.3094 31.7844 35.6018 0.0000 0.0000 0.0000
# 2 31.7844 133.9742 43.4575 0.0000 0.0000 0.0000
# 3 35.6018 43.4575 89.3658 0.0000 0.0000 0.0000
# 4 0.0000 0.0000 0.0000 36.6187 0.0000 0.0000
# 5 0.0000 0.0000 0.0000 0.0000 51.8763 0.0000
# 6 0.0000 0.0000 0.0000 0.0000 0.0000 68.1096
#
#
#
# Elastic Compliance Matrix: (Units=1/GPa)
#
#
# Indices 1 2 3 4 5 6 
#
# 1 0.009590 -0.001230 -0.003223 0.000000 0.000000 0.000000
# 2 -0.001230 0.009020 -0.003896 0.000000 0.000000 0.000000
# 3 -0.003223 -0.003896 0.014368 0.000000 0.000000 0.000000
# 4 0.000000 0.000000 0.000000 0.027308 0.000000 0.000000
# 5 0.000000 0.000000 0.000000 0.000000 0.019277 0.000000
# 6 0.000000 0.000000 0.000000 0.000000 0.000000 0.014682
#
#
# Mechanical properties :
#
#
# Convention : Reuss Voigt Hill
#
# Bulk Modulus (GPa) = 61.42048 62.81522 62.11785
# Shear Modulus (GPa) = 42.96623 46.84129 44.90376
#
# Velocity S-wave (km/s) = 3.88203 4.05331 3.96860
# Velocity P-wave (km/s) = 6.45264 6.62857 6.54119
#
# Compressibility (1/GPa) = 0.01628122
#
# Stress axis : x y z
#
# Youngs Moduli (GPa) = 104.27030 110.86798 69.59691
#
# Poissons Ratio (x) = 0.13636 0.22428
# Poissons Ratio (y) = 0.12825 0.27116
# Poissons Ratio (z) = 0.33602 0.43196
#
# Static dielectric constant tensor:
#      x y z
#    x 2.324420 0.000000 0.000000 
#    y 0.000000 2.257340 0.000000 
#    z 0.000000 0.000000 2.159130 
# 
# From -- ./inp_files/179.got.cif
#   From: 2010.05.17/outbox.cif.g08.bks.cpg/sg33_1_cif.got.tgz:179.got - 2010.06.03 17:15:25.
