data_PCOD9345871
_publ_section_title
;
Structure prediction by ZEFSAII (Michael W. Deem and Ramdas Pophale) SiO2 
 PCOD9345871
Probable space group: P N A 21
;
_chemical_formula_sum "Si O2"
_cell_formula_units_Z 24
_cell_length_a 11.359881
_cell_length_b 12.184968
_cell_length_c 7.306717
_cell_angle_alpha 90.000000
_cell_angle_beta 90.000000
_cell_angle_gamma 90.000000
_cell_volume 1011.394207
_symmetry_space_group_name_H-M "P N A 21"
_symmetry_group_IT_number 33
_symmetry_cell_setting 'orthorhombic'
loop_
_space_group_symop_operation_xyz
x,y,z
-x,-y,1/2+z
1/2-x,1/2+y,1/2+z
1/2+x,1/2-y,z
loop_
_atom_site_type_symbol
_atom_site_label
_atom_site_fract_x
_atom_site_fract_y
_atom_site_fract_z
Si Si1 0.112501 0.439118 0.030090
Si Si2 0.743183 0.719613 0.979383
Si Si3 0.961936 0.107612 0.297814
Si Si4 0.176495 0.057438 0.553754
Si Si5 0.156993 0.511613 0.451871
Si Si6 0.163232 0.199490 0.083275
O O1 0.139364 0.480081 0.237748
O O2 0.149059 0.315457 0.983800
O O3 0.211851 0.513842 0.936461
O O4 0.975099 0.456235 0.007122
O O5 0.607657 0.693548 0.927625
O O6 0.782596 0.819778 0.107461
O O7 0.799823 0.604141 0.035614
O O8 0.792650 0.760366 0.783359
O O9 0.064062 0.058381 0.421633
O O10 0.031101 0.157292 0.124611
O O11 0.870231 0.019530 0.218613
O O12 0.247522 0.608967 0.505029
#
# Coordination Sequence:
#
# PCOD9345871 Si02
#       6
#     4   4   4   4   4   4
#     4  11  26  45  70 102 144 182 241 289 349 425
#     4  10  23  45  71 102 142 187 224 293 356 419
#     4  11  22  44  73 100 142 182 238 280 356 417
#     4  11  25  43  73 102 137 188 239 287 354 414
#     4  11  24  48  69 105 141 185 238 288 356 419
#     4  10  22  43  76  97 138 190 226 291 355 416
#
# _framework density 23.729621000000002
#
# number of rings (size 3 to 8) (size 9 to 14) (size 15 to 20)
#    0.000    1.333    3.333    2.000   11.667    0.000 
#    6.000    0.000    0.000    0.000    0.000    0.000 
#    0.000    0.000    0.000    0.000    0.000    0.000 
#
# Total GULP energy -133909.123741 kJ/mol
# GULP energy per Si atom -5579.546823 kJ/mol
# Density = 2.367561 g / cm^3
# Si number density = 23.729621 Si / 1000 Ang^3
#
#
#
# Elastic Constant Matrix: (Units=GPa)
#
#
# Indices 1 2 3 4 5 6 
#
# 1 194.7269 95.6768 14.0415 0.0000 0.0000 0.0000
# 2 95.6768 199.0805 33.9074 0.0000 0.0000 0.0000
# 3 14.0415 33.9074 49.7707 0.0000 0.0000 0.0000
# 4 0.0000 0.0000 0.0000 34.5532 0.0000 0.0000
# 5 0.0000 0.0000 0.0000 0.0000 24.9420 0.0000
# 6 0.0000 0.0000 0.0000 0.0000 0.0000 23.2673
#
#
#
# Elastic Compliance Matrix: (Units=1/GPa)
#
#
# Indices 1 2 3 4 5 6 
#
# 1 0.006728 -0.003292 0.000345 0.000000 0.000000 0.000000
# 2 -0.003292 0.007293 -0.004040 0.000000 0.000000 0.000000
# 3 0.000345 -0.004040 0.022747 0.000000 0.000000 0.000000
# 4 0.000000 0.000000 0.000000 0.028941 0.000000 0.000000
# 5 0.000000 0.000000 0.000000 0.000000 0.040093 0.000000
# 6 0.000000 0.000000 0.000000 0.000000 0.000000 0.042979
#
#
# Mechanical properties :
#
#
# Convention : Reuss Voigt Hill
#
# Bulk Modulus (GPa) = 43.87153 81.20327 62.53740
# Shear Modulus (GPa) = 29.35061 36.54934 32.94998
#
# Velocity S-wave (km/s) = 3.52074 3.92885 3.73038
# Velocity P-wave (km/s) = 5.92079 7.40781 6.70564
#
# Compressibility (1/GPa) = 0.02279383
#
# Stress axis : x y z
#
# Youngs Moduli (GPa) = 148.62978 137.11030 43.96140
#
# Poissons Ratio (x) = 0.45140 -0.01515
# Poissons Ratio (y) = 0.48932 0.17760
# Poissons Ratio (z) = -0.05124 0.55392
#
# Static dielectric constant tensor:
#      x y z
#    x 1.954350 0.000000 0.000000 
#    y 0.000000 1.986170 0.000000 
#    z 0.000000 0.000000 2.049000 
# 
# From -- ./inp_files/3805.got.cif
#   From: 2010.05.17/outbox.cif.g08.bks.cpg/sg33_2_cif.got.tgz:3805.got - 2010.06.03 17:15:25.
