data_PCOD9345096
_publ_section_title
;
Structure prediction by ZEFSAII (Michael W. Deem and Ramdas Pophale) SiO2 
 PCOD9345096
Probable space group: P N A 21
;
_chemical_formula_sum "Si O2"
_cell_formula_units_Z 32
_cell_length_a 13.107624
_cell_length_b 5.081623
_cell_length_c 22.294240
_cell_angle_alpha 90.000000
_cell_angle_beta 90.000000
_cell_angle_gamma 90.000000
_cell_volume 1484.974818
_symmetry_space_group_name_H-M "P N A 21"
_symmetry_group_IT_number 33
_symmetry_cell_setting 'orthorhombic'
loop_
_space_group_symop_operation_xyz
x,y,z
-x,-y,1/2+z
1/2-x,1/2+y,1/2+z
1/2+x,1/2-y,z
loop_
_atom_site_type_symbol
_atom_site_label
_atom_site_fract_x
_atom_site_fract_y
_atom_site_fract_z
Si Si1 0.955739 0.911744 0.921990
Si Si2 0.059513 0.987876 0.683458
Si Si3 0.223286 0.031551 0.327231
Si Si4 0.633806 0.917238 0.481059
Si Si5 0.827277 0.103742 0.708783
Si Si6 0.183576 0.063460 0.888399
Si Si7 0.754019 0.533618 0.759547
Si Si8 0.645773 0.016423 0.620943
O O1 0.881044 0.925255 0.864281
O O2 0.943655 0.628907 0.952343
O O3 0.909899 0.130280 0.966482
O O4 0.070204 0.981768 0.903881
O O5 0.136186 0.019246 0.740357
O O6 0.093305 0.206129 0.635708
O O7 0.945101 0.033272 0.703692
O O8 0.080367 0.704288 0.655564
O O9 0.216370 0.150537 0.255857
O O10 0.197129 0.748252 0.286798
O O11 0.308195 0.866129 0.365534
O O12 0.738463 0.957022 0.443430
O O13 0.649700 0.962592 0.550727
O O14 0.813596 0.425670 0.698984
O O15 0.755669 0.014975 0.652686
O O16 0.227570 0.858158 0.836398
#
# Coordination Sequence:
#
# PCOD9345096 Si02
#       8
#     4   4   4   4   4   4   4   4
#     4  11  24  42  67  97 129 171 220 267 332 394
#     4  11  24  42  67  97 129 171 220 267 332 394
#     4  10  20  41  66  98 134 164 209 271 333 397
#     4  11  25  43  63  92 131 171 224 274 313 381
#     4  10  23  41  66  97 129 173 212 268 331 390
#     4  10  23  41  66  97 129 173 212 268 331 390
#     4  10  20  41  66  98 134 164 209 271 333 397
#     4  11  25  43  63  92 131 171 224 274 313 381
#
# _framework density 21.549188999999998
#
# number of rings (size 3 to 8) (size 9 to 14) (size 15 to 20)
#    0.000    1.500    2.500    1.500    3.500    2.000 
#    0.000    0.000    0.000    0.000    0.000    0.000 
#    0.000    0.000    0.000    0.000    0.000    0.000 
#
# Total GULP energy -178356.037299 kJ/mol
# GULP energy per Si atom -5573.626166 kJ/mol
# Density = 2.150014 g / cm^3
# Si number density = 21.549189 Si / 1000 Ang^3
#
#
#
# Elastic Constant Matrix: (Units=GPa)
#
#
# Indices 1 2 3 4 5 6 
#
# 1 148.2755 20.8778 31.2296 0.0000 0.0000 0.0000
# 2 20.8778 83.0475 6.4438 0.0000 0.0000 0.0000
# 3 31.2296 6.4438 107.5972 0.0000 0.0000 0.0000
# 4 0.0000 0.0000 0.0000 36.5420 0.0000 0.0000
# 5 0.0000 0.0000 0.0000 0.0000 9.6526 0.0000
# 6 0.0000 0.0000 0.0000 0.0000 0.0000 25.5045
#
#
#
# Elastic Compliance Matrix: (Units=1/GPa)
#
#
# Indices 1 2 3 4 5 6 
#
# 1 0.007416 -0.001705 -0.002050 0.000000 0.000000 0.000000
# 2 -0.001705 0.012490 -0.000253 0.000000 0.000000 0.000000
# 3 -0.002050 -0.000253 0.009904 0.000000 0.000000 0.000000
# 4 0.000000 0.000000 0.000000 0.027366 0.000000 0.000000
# 5 0.000000 0.000000 0.000000 0.000000 0.103599 0.000000
# 6 0.000000 0.000000 0.000000 0.000000 0.000000 0.039209
#
#
# Mechanical properties :
#
#
# Convention : Reuss Voigt Hill
#
# Bulk Modulus (GPa) = 45.88716 50.66916 48.27816
# Shear Modulus (GPa) = 23.22722 33.03110 28.12916
#
# Velocity S-wave (km/s) = 3.28665 3.91938 3.61688
# Velocity P-wave (km/s) = 5.97856 6.63674 6.31623
#
# Compressibility (1/GPa) = 0.02179259
#
# Stress axis : x y z
#
# Youngs Moduli (GPa) = 134.84058 80.06639 100.96736
#
# Poissons Ratio (x) = 0.13654 0.20702
# Poissons Ratio (y) = 0.22994 0.02555
# Poissons Ratio (z) = 0.27647 0.02026
#
# Static dielectric constant tensor:
#      x y z
#    x 1.726840 0.000000 0.000000 
#    y 0.000000 1.853500 0.000000 
#    z 0.000000 0.000000 1.887050 
# 
# From -- ./inp_files/9131.got.cif
#   From: 2010.05.17/outbox.cif.g08.bks.cpg/sg33_5_cif.got.tgz:9131.got - 2010.06.03 17:15:25.
