data_PCOD9345543
_publ_section_title
;
Structure prediction by ZEFSAII (Michael W. Deem and Ramdas Pophale) SiO2 
 PCOD9345543
Probable space group: P N A 21
;
_chemical_formula_sum "Si O2"
_cell_formula_units_Z 32
_cell_length_a 22.840122
_cell_length_b 11.333790
_cell_length_c 5.117990
_cell_angle_alpha 90.000000
_cell_angle_beta 90.000000
_cell_angle_gamma 90.000000
_cell_volume 1324.869230
_symmetry_space_group_name_H-M "P N A 21"
_symmetry_group_IT_number 33
_symmetry_cell_setting 'orthorhombic'
loop_
_space_group_symop_operation_xyz
x,y,z
-x,-y,1/2+z
1/2-x,1/2+y,1/2+z
1/2+x,1/2-y,z
loop_
_atom_site_type_symbol
_atom_site_label
_atom_site_fract_x
_atom_site_fract_y
_atom_site_fract_z
Si Si1 0.436922 0.957377 0.466450
Si Si2 0.162112 0.017613 0.800750
Si Si3 0.366156 0.122386 0.858300
Si Si4 0.524504 0.818613 0.718023
Si Si5 0.723193 0.691218 0.477040
Si Si6 0.470840 0.445561 0.413643
Si Si7 0.718318 0.379788 0.328791
Si Si8 0.814032 0.544759 0.225767
O O1 0.468742 0.834019 0.529592
O O2 0.380128 0.923437 0.296123
O O3 0.405573 0.051804 0.658374
O O4 0.483013 0.050651 0.345603
O O5 0.191239 0.907501 0.649363
O O6 0.094432 0.986980 0.841736
O O7 0.177150 0.118067 0.582686
O O8 0.188285 0.047946 0.086532
O O9 0.325818 0.235340 0.820887
O O10 0.412908 0.167911 0.076428
O O11 0.321361 0.022418 0.956529
O O12 0.523774 0.697200 0.877724
O O13 0.762008 0.761767 0.686599
O O14 0.769023 0.647701 0.263072
O O15 0.487329 0.489916 0.702333
O O16 0.780626 0.443421 0.395789
#
# Coordination Sequence:
#
# PCOD9345543 Si02
#       8
#     4   4   4   4   4   4   4   4
#     4  11  23  42  74 105 146 179 249 313 380 433
#     4  11  24  47  69  99 141 184 237 290 349 436
#     4  10  21  43  69 102 138 185 238 300 368 447
#     4  11  24  44  72 108 137 196 249 313 374 439
#     4  10  22  43  70  99 138 187 228 292 367 441
#     4  12  29  50  74 105 149 201 255 300 365 446
#     4  10  24  42  69 102 138 180 235 284 357 430
#     4   9  23  39  61 106 135 178 227 294 356 438
#
# _framework density 24.153327999999998
#
# number of rings (size 3 to 8) (size 9 to 14) (size 15 to 20)
#    0.000    1.500    2.500    0.750    8.750    6.000 
#    2.250    0.000    0.000    0.000    0.000    0.000 
#    0.000    0.000    0.000    0.000    0.000    0.000 
#
# Total GULP energy -178520.605777 kJ/mol
# GULP energy per Si atom -5578.768931 kJ/mol
# Density = 2.409835 g / cm^3
# Si number density = 24.153328 Si / 1000 Ang^3
#
#
#
# Elastic Constant Matrix: (Units=GPa)
#
#
# Indices 1 2 3 4 5 6 
#
# 1 86.6246 18.3286 4.7482 0.0000 0.0000 0.0000
# 2 18.3286 55.8217 -1.7319 0.0000 0.0000 0.0000
# 3 4.7482 -1.7319 59.2130 0.0000 0.0000 0.0000
# 4 0.0000 0.0000 0.0000 23.2190 0.0000 0.0000
# 5 0.0000 0.0000 0.0000 0.0000 35.5859 0.0000
# 6 0.0000 0.0000 0.0000 0.0000 0.0000 35.7660
#
#
#
# Elastic Compliance Matrix: (Units=1/GPa)
#
#
# Indices 1 2 3 4 5 6 
#
# 1 0.012480 -0.004132 -0.001122 0.000000 0.000000 0.000000
# 2 -0.004132 0.019299 0.000896 0.000000 0.000000 0.000000
# 3 -0.001122 0.000896 0.017004 0.000000 0.000000 0.000000
# 4 0.000000 0.000000 0.000000 0.043068 0.000000 0.000000
# 5 0.000000 0.000000 0.000000 0.000000 0.028101 0.000000
# 6 0.000000 0.000000 0.000000 0.000000 0.000000 0.027960
#
#
# Mechanical properties :
#
#
# Convention : Reuss Voigt Hill
#
# Bulk Modulus (GPa) = 24.95846 27.14991 26.05418
# Shear Modulus (GPa) = 29.41454 30.93512 30.17483
#
# Velocity S-wave (km/s) = 3.49352 3.58268 3.53838
# Velocity P-wave (km/s) = 5.16030 5.32721 5.24442
#
# Compressibility (1/GPa) = 0.04006658
#
# Stress axis : x y z
#
# Youngs Moduli (GPa) = 80.12871 51.81657 58.80854
#
# Poissons Ratio (x) = 0.21413 0.06596
# Poissons Ratio (y) = 0.33113 -0.05268
# Poissons Ratio (z) = 0.08987 -0.04642
#
# Static dielectric constant tensor:
#      x y z
#    x 2.042870 0.000000 0.000000 
#    y 0.000000 1.982910 0.000000 
#    z 0.000000 0.000000 2.277850 
# 
# From -- ./inp_files/2029.got.cif
#   From: 2010.05.17/outbox.cif.g08.bks.cpg/sg33_2_cif.got.tgz:2029.got - 2010.06.03 17:15:25.
