data_PCOD9345381
_publ_section_title
;
Structure prediction by ZEFSAII (Michael W. Deem and Ramdas Pophale) SiO2 
 PCOD9345381
Probable space group: P N A 21
;
_chemical_formula_sum "Si O2"
_cell_formula_units_Z 32
_cell_length_a 19.806186
_cell_length_b 7.118175
_cell_length_c 9.212218
_cell_angle_alpha 90.000000
_cell_angle_beta 90.000000
_cell_angle_gamma 90.000000
_cell_volume 1298.774403
_symmetry_space_group_name_H-M "P N A 21"
_symmetry_group_IT_number 33
_symmetry_cell_setting 'orthorhombic'
loop_
_space_group_symop_operation_xyz
x,y,z
-x,-y,1/2+z
1/2-x,1/2+y,1/2+z
1/2+x,1/2-y,z
loop_
_atom_site_type_symbol
_atom_site_label
_atom_site_fract_x
_atom_site_fract_y
_atom_site_fract_z
Si Si1 0.357209 0.784409 0.716640
Si Si2 0.622685 0.074126 0.792544
Si Si3 0.006561 0.626278 0.635314
Si Si4 0.318212 0.221388 0.705987
Si Si5 0.758663 0.654972 0.485785
Si Si6 0.309124 0.700754 0.038537
Si Si7 0.039895 0.801256 0.103372
Si Si8 0.524009 0.371293 0.895418
O O1 0.438562 0.774349 0.698480
O O2 0.302711 0.717970 0.595033
O O3 0.334899 0.717708 0.875258
O O4 0.341125 0.005834 0.701404
O O5 0.688939 0.027789 0.887021
O O6 0.643126 0.184977 0.646607
O O7 0.586672 0.228234 0.894256
O O8 0.568452 0.917320 0.744562
O O9 0.981555 0.416473 0.586798
O O10 0.027834 0.751871 0.496521
O O11 0.283086 0.241920 0.861339
O O12 0.264523 0.276819 0.583014
O O13 0.386520 0.328966 0.673178
O O14 0.705167 0.520410 0.567779
O O15 0.992755 0.883093 0.228095
O O16 0.034592 0.927313 0.962849
#
# Coordination Sequence:
#
# PCOD9345381 Si02
#       8
#     4   4   4   4   4   4   4   4
#     4  10  21  40  63  93 127 177 221 277 344 400
#     4  10  23  41  68  96 136 178 225 282 350 407
#     4  10  23  43  72  95 138 176 228 289 343 414
#     4   9  22  40  58  88 136 166 219 280 328 411
#     4  10  21  40  61  93 128 173 228 265 336 408
#     4  10  23  38  63  96 126 174 228 269 339 413
#     4  10  25  44  68 102 137 175 233 282 349 417
#     4  11  24  46  69 101 134 183 226 290 349 410
#
# _framework density 24.638611999999998
#
# number of rings (size 3 to 8) (size 9 to 14) (size 15 to 20)
#    0.000    2.000    1.250    0.000    7.000    9.000 
#    0.000    0.000    2.750    0.000    0.000    0.000 
#    0.000    0.000    0.000    0.000    0.000    0.000 
#
# Total GULP energy -178695.558416 kJ/mol
# GULP energy per Si atom -5584.236201 kJ/mol
# Density = 2.458253 g / cm^3
# Si number density = 24.638612 Si / 1000 Ang^3
#
#
#
# Elastic Constant Matrix: (Units=GPa)
#
#
# Indices 1 2 3 4 5 6 
#
# 1 73.0407 7.7533 5.9141 0.0000 0.0000 0.0000
# 2 7.7533 65.7747 9.8557 0.0000 0.0000 0.0000
# 3 5.9141 9.8557 84.7509 0.0000 0.0000 0.0000
# 4 0.0000 0.0000 0.0000 45.1381 0.0000 0.0000
# 5 0.0000 0.0000 0.0000 0.0000 1.3686 0.0000
# 6 0.0000 0.0000 0.0000 0.0000 0.0000 63.5909
#
#
#
# Elastic Compliance Matrix: (Units=1/GPa)
#
#
# Indices 1 2 3 4 5 6 
#
# 1 0.013917 -0.001521 -0.000794 0.000000 0.000000 0.000000
# 2 -0.001521 0.015639 -0.001713 0.000000 0.000000 0.000000
# 3 -0.000794 -0.001713 0.012054 0.000000 0.000000 0.000000
# 4 0.000000 0.000000 0.000000 0.022154 0.000000 0.000000
# 5 0.000000 0.000000 0.000000 0.000000 0.730656 0.000000
# 6 0.000000 0.000000 0.000000 0.000000 0.000000 0.015726
#
#
# Mechanical properties :
#
#
# Convention : Reuss Voigt Hill
#
# Bulk Modulus (GPa) = 29.80306 30.06807 29.93557
# Shear Modulus (GPa) = 6.02855 35.35574 20.69215
#
# Velocity S-wave (km/s) = 1.56592 3.79221 2.90112
# Velocity P-wave (km/s) = 3.92324 5.60398 4.83717
#
# Compressibility (1/GPa) = 0.03355360
#
# Stress axis : x y z
#
# Youngs Moduli (GPa) = 71.85557 63.94120 82.96103
#
# Poissons Ratio (x) = 0.09728 0.06589
# Poissons Ratio (y) = 0.10933 0.14207
# Poissons Ratio (z) = 0.05707 0.10950
#
# Static dielectric constant tensor:
#      x y z
#    x 2.047110 0.000000 0.000000 
#    y 0.000000 1.972260 0.000000 
#    z 0.000000 0.000000 1.983000 
# 
# From -- ./inp_files/4992.got.cif
#   From: 2010.05.17/outbox.cif.g08.bks.cpg/sg33_3_cif.got.tgz:4992.got - 2010.06.03 17:15:25.
