data_PCOD9345883
_publ_section_title
;
Structure prediction by ZEFSAII (Michael W. Deem and Ramdas Pophale) SiO2 
 PCOD9345883
Probable space group: P N A 21
;
_chemical_formula_sum "Si O2"
_cell_formula_units_Z 20
_cell_length_a 20.382000
_cell_length_b 7.479079
_cell_length_c 5.048094
_cell_angle_alpha 90.000000
_cell_angle_beta 90.000000
_cell_angle_gamma 90.000000
_cell_volume 769.524322
_symmetry_space_group_name_H-M "P N A 21"
_symmetry_group_IT_number 33
_symmetry_cell_setting 'orthorhombic'
loop_
_space_group_symop_operation_xyz
x,y,z
-x,-y,1/2+z
1/2-x,1/2+y,1/2+z
1/2+x,1/2-y,z
loop_
_atom_site_type_symbol
_atom_site_label
_atom_site_fract_x
_atom_site_fract_y
_atom_site_fract_z
Si Si1 0.677757 0.850760 0.856870
Si Si2 0.802525 0.992749 0.124567
Si Si3 0.082784 0.458007 0.516054
Si Si4 0.971254 0.729601 0.512026
Si Si5 0.885946 0.028076 0.605854
O O1 0.709807 0.701519 0.671594
O O2 0.651173 0.002156 0.660062
O O3 0.733980 0.907766 0.055250
O O4 0.623015 0.735581 0.021441
O O5 0.838871 0.931245 0.390043
O O6 0.854678 0.986113 0.887396
O O7 0.074660 0.381895 0.221032
O O8 0.043297 0.646330 0.544924
O O9 0.046865 0.320861 0.712941
O O10 0.956160 0.935258 0.573745
#
# Coordination Sequence:
#
# PCOD9345883 Si02
#       5
#     4   4   4   4   4
#     4  10  26  44  67  99 131 179 222 273 333 397
#     4  10  25  39  67  95 133 174 222 269 334 388
#     4  10  23  41  72  96 132 177 216 278 331 408
#     4  10  22  44  66 100 132 172 223 270 342 391
#     4  10  24  42  64  98 126 182 211 286 312 406
#
# _framework density 25.990082000000001
#
# number of rings (size 3 to 8) (size 9 to 14) (size 15 to 20)
#    1.200    0.800    0.000    1.200    8.400    1.600 
#    3.600    0.000    0.000    0.000    0.000    0.000 
#    0.000    0.000    0.000    0.000    0.000    0.000 
#
# Total GULP energy -111864.210262 kJ/mol
# GULP energy per Si atom -5593.210513 kJ/mol
# Density = 2.593093 g / cm^3
# Si number density = 25.990082 Si / 1000 Ang^3
#
#
#
# Elastic Constant Matrix: (Units=GPa)
#
#
# Indices 1 2 3 4 5 6 
#
# 1 42.1862 30.0259 23.5295 0.0000 0.0000 0.0000
# 2 30.0259 42.9679 21.3481 0.0000 0.0000 0.0000
# 3 23.5295 21.3481 137.9260 0.0000 0.0000 0.0000
# 4 0.0000 0.0000 0.0000 20.0265 0.0000 0.0000
# 5 0.0000 0.0000 0.0000 0.0000 44.8937 0.0000
# 6 0.0000 0.0000 0.0000 0.0000 0.0000 49.6315
#
#
#
# Elastic Compliance Matrix: (Units=1/GPa)
#
#
# Indices 1 2 3 4 5 6 
#
# 1 0.048493 -0.032257 -0.003280 0.000000 0.000000 0.000000
# 2 -0.032257 0.046669 -0.001721 0.000000 0.000000 0.000000
# 3 -0.003280 -0.001721 0.008076 0.000000 0.000000 0.000000
# 4 0.000000 0.000000 0.000000 0.049934 0.000000 0.000000
# 5 0.000000 0.000000 0.000000 0.000000 0.022275 0.000000
# 6 0.000000 0.000000 0.000000 0.000000 0.000000 0.020148
#
#
# Mechanical properties :
#
#
# Convention : Reuss Voigt Hill
#
# Bulk Modulus (GPa) = 34.81526 41.43191 38.12358
# Shear Modulus (GPa) = 17.87725 32.78878 25.33301
#
# Velocity S-wave (km/s) = 2.62553 3.55574 3.12544
# Velocity P-wave (km/s) = 4.75562 5.73007 5.26544
#
# Compressibility (1/GPa) = 0.02872304
#
# Stress axis : x y z
#
# Youngs Moduli (GPa) = 20.62160 21.42734 123.82210
#
# Poissons Ratio (x) = 0.69119 0.40612
# Poissons Ratio (y) = 0.66519 0.21304
# Poissons Ratio (z) = 0.06764 0.03687
#
# Static dielectric constant tensor:
#      x y z
#    x 2.072800 0.000000 0.000000 
#    y 0.000000 2.063050 0.000000 
#    z 0.000000 0.000000 1.987420 
# 
# From -- ./inp_files/1637.got.cif
#   From: 2010.05.17/outbox.cif.g08.bks.cpg/sg33_1_cif.got.tgz:1637.got - 2010.06.03 17:15:25.
