data_PCOD9345300
_publ_section_title
;
Structure prediction by ZEFSAII (Michael W. Deem and Ramdas Pophale) SiO2 
 PCOD9345300
Probable space group: P N A 21
;
_chemical_formula_sum "Si O2"
_cell_formula_units_Z 20
_cell_length_a 5.529353
_cell_length_b 16.689561
_cell_length_c 9.246000
_cell_angle_alpha 90.000000
_cell_angle_beta 90.000000
_cell_angle_gamma 90.000000
_cell_volume 853.243756
_symmetry_space_group_name_H-M "P N A 21"
_symmetry_group_IT_number 33
_symmetry_cell_setting 'orthorhombic'
loop_
_space_group_symop_operation_xyz
x,y,z
-x,-y,1/2+z
1/2-x,1/2+y,1/2+z
1/2+x,1/2-y,z
loop_
_atom_site_type_symbol
_atom_site_label
_atom_site_fract_x
_atom_site_fract_y
_atom_site_fract_z
Si Si1 0.369334 0.907329 0.774590
Si Si2 0.922897 0.704616 0.522698
Si Si3 0.405361 0.556683 0.231467
Si Si4 0.629849 0.420915 0.391399
Si Si5 0.416923 0.737347 0.210820
O O1 0.403326 0.877122 0.611295
O O2 0.607883 0.884362 0.862501
O O3 0.110926 0.875445 0.834675
O O4 0.323322 0.003099 0.778645
O O5 0.680127 0.754691 0.561888
O O6 0.918526 0.703156 0.348183
O O7 0.617702 0.503219 0.298488
O O8 0.411343 0.648236 0.277532
O O9 0.410790 0.560185 0.058574
O O10 0.667462 0.748931 0.128951
#
# Coordination Sequence:
#
# PCOD9345300 Si02
#       5
#     4   4   4   4   4
#     4  10  24  40  68 101 136 177 231 278 336 406
#     4  10  21  38  65  97 130 173 227 275 333 401
#     4  10  26  43  72 101 139 178 235 280 343 406
#     4  10  25  40  72  97 136 172 233 280 336 394
#     4  10  24  39  65  96 135 174 224 277 340 401
#
# _framework density 23.439961
#
# number of rings (size 3 to 8) (size 9 to 14) (size 15 to 20)
#    1.200    0.800    0.000    1.200   11.200    3.200 
#    0.000    6.000    0.000    0.000    0.000    0.000 
#    0.000    0.000    0.000    0.000    0.000    0.000 
#
# Total GULP energy -111464.340208 kJ/mol
# GULP energy per Si atom -5573.217010 kJ/mol
# Density = 2.338661 g / cm^3
# Si number density = 23.439961 Si / 1000 Ang^3
#
#
#
# Elastic Constant Matrix: (Units=GPa)
#
#
# Indices 1 2 3 4 5 6 
#
# 1 249.1317 67.4451 64.1379 0.0000 0.0000 0.0000
# 2 67.4451 91.6217 61.6400 0.0000 0.0000 0.0000
# 3 64.1379 61.6400 171.6818 0.0000 0.0000 0.0000
# 4 0.0000 0.0000 0.0000 34.8710 0.0000 0.0000
# 5 0.0000 0.0000 0.0000 0.0000 2.1570 0.0000
# 6 0.0000 0.0000 0.0000 0.0000 0.0000 5.9103
#
#
#
# Elastic Compliance Matrix: (Units=1/GPa)
#
#
# Indices 1 2 3 4 5 6 
#
# 1 0.005082 -0.003248 -0.000732 0.000000 0.000000 0.000000
# 2 -0.003248 0.016467 -0.004699 0.000000 0.000000 0.000000
# 3 -0.000732 -0.004699 0.007785 0.000000 0.000000 0.000000
# 4 0.000000 0.000000 0.000000 0.028677 0.000000 0.000000
# 5 0.000000 0.000000 0.000000 0.000000 0.463614 0.000000
# 6 0.000000 0.000000 0.000000 0.000000 0.000000 0.169195
#
#
# Mechanical properties :
#
#
# Convention : Reuss Voigt Hill
#
# Bulk Modulus (GPa) = 83.50386 99.87568 91.68977
# Shear Modulus (GPa) = 7.02080 29.86847 18.44463
#
# Velocity S-wave (km/s) = 1.73255 3.57354 2.80820
# Velocity P-wave (km/s) = 6.30113 7.72843 7.05099
#
# Compressibility (1/GPa) = 0.01197549
#
# Stress axis : x y z
#
# Youngs Moduli (GPa) = 196.78000 60.72889 128.44759
#
# Poissons Ratio (x) = 0.19726 0.09406
# Poissons Ratio (y) = 0.63918 0.60353
# Poissons Ratio (z) = 0.14410 0.28534
#
# Static dielectric constant tensor:
#      x y z
#    x 1.979830 0.000000 0.000000 
#    y 0.000000 1.874060 0.000000 
#    z 0.000000 0.000000 1.819200 
# 
# From -- ./inp_files/2641.got.cif
#   From: 2010.05.17/outbox.cif.g08.bks.cpg/sg33_2_cif.got.tgz:2641.got - 2010.06.03 17:15:25.
