data_PCOD9345644
_publ_section_title
;
Structure prediction by ZEFSAII (Michael W. Deem and Ramdas Pophale) SiO2 
 PCOD9345644
Probable space group: P N A 21
;
_chemical_formula_sum "Si O2"
_cell_formula_units_Z 32
_cell_length_a 11.601600
_cell_length_b 23.150816
_cell_length_c 5.167360
_cell_angle_alpha 90.000000
_cell_angle_beta 90.000000
_cell_angle_gamma 90.000000
_cell_volume 1387.883172
_symmetry_space_group_name_H-M "P N A 21"
_symmetry_group_IT_number 33
_symmetry_cell_setting 'orthorhombic'
loop_
_space_group_symop_operation_xyz
x,y,z
-x,-y,1/2+z
1/2-x,1/2+y,1/2+z
1/2+x,1/2-y,z
loop_
_atom_site_type_symbol
_atom_site_label
_atom_site_fract_x
_atom_site_fract_y
_atom_site_fract_z
Si Si1 0.068035 0.158209 0.085300
Si Si2 0.226836 0.579532 0.548054
Si Si3 0.797682 0.631671 0.753222
Si Si4 0.206308 0.233894 0.763813
Si Si5 0.964415 0.730403 0.888714
Si Si6 0.838079 0.357408 0.532587
Si Si7 0.572952 0.017678 0.393531
Si Si8 0.343789 0.345922 0.761496
O O1 0.007302 0.205353 0.279598
O O2 0.139145 0.097588 0.098524
O O3 0.974525 0.148170 0.857579
O O4 0.177129 0.198024 0.012316
O O5 0.171781 0.592331 0.826003
O O6 0.192863 0.515869 0.456371
O O7 0.160908 0.617368 0.323965
O O8 0.889607 0.582521 0.823821
O O9 0.734979 0.623273 0.480035
O O10 0.865992 0.692648 0.742689
O O11 0.701756 0.634333 0.981493
O O12 0.226238 0.183733 0.552169
O O13 0.310018 0.278006 0.777689
O O14 0.091530 0.265031 0.672801
O O15 0.069202 0.687320 0.926709
O O16 0.494761 0.009873 0.649679
#
# Coordination Sequence:
#
# PCOD9345644 Si02
#       8
#     4   4   4   4   4   4   4   4
#     4  11  24  39  63  93 134 186 216 270 337 411
#     4  11  25  45  64 101 129 173 232 289 329 421
#     4  11  25  44  63 101 131 176 226 286 339 407
#     4  10  22  39  56  94 131 180 217 267 317 417
#     4  11  22  36  61  90 130 173 214 266 333 414
#     4  11  24  37  64  95 134 169 220 272 344 393
#     4  12  25  48  78 100 131 175 231 301 354 398
#     4  11  25  40  63  94 140 178 222 271 337 405
#
# _framework density 23.056694
#
# number of rings (size 3 to 8) (size 9 to 14) (size 15 to 20)
#    0.000    1.000    2.500    3.750   10.500    1.000 
#    0.000    1.250    0.000    0.000    0.000    0.000 
#    0.000    0.000    0.000    0.000    0.000    0.000 
#
# Total GULP energy -178344.036963 kJ/mol
# GULP energy per Si atom -5573.251155 kJ/mol
# Density = 2.300422 g / cm^3
# Si number density = 23.056694 Si / 1000 Ang^3
#
#
#
# Elastic Constant Matrix: (Units=GPa)
#
#
# Indices 1 2 3 4 5 6 
#
# 1 62.1980 29.7527 9.2981 0.0000 0.0000 0.0000
# 2 29.7527 71.8251 18.3036 0.0000 0.0000 0.0000
# 3 9.2981 18.3036 109.5544 0.0000 0.0000 0.0000
# 4 0.0000 0.0000 0.0000 31.1166 0.0000 0.0000
# 5 0.0000 0.0000 0.0000 0.0000 24.9003 0.0000
# 6 0.0000 0.0000 0.0000 0.0000 0.0000 32.7838
#
#
#
# Elastic Compliance Matrix: (Units=1/GPa)
#
#
# Indices 1 2 3 4 5 6 
#
# 1 0.020062 -0.008227 -0.000328 0.000000 0.000000 0.000000
# 2 -0.008227 0.017915 -0.002295 0.000000 0.000000 0.000000
# 3 -0.000328 -0.002295 0.009539 0.000000 0.000000 0.000000
# 4 0.000000 0.000000 0.000000 0.032137 0.000000 0.000000
# 5 0.000000 0.000000 0.000000 0.000000 0.040160 0.000000
# 6 0.000000 0.000000 0.000000 0.000000 0.000000 0.030503
#
#
# Mechanical properties :
#
#
# Convention : Reuss Voigt Hill
#
# Bulk Modulus (GPa) = 38.73471 39.80959 39.27215
# Shear Modulus (GPa) = 27.68203 30.17500 28.92852
#
# Velocity S-wave (km/s) = 3.46874 3.62156 3.54597
# Velocity P-wave (km/s) = 5.73403 5.89840 5.81679
#
# Compressibility (1/GPa) = 0.02581664
#
# Stress axis : x y z
#
# Youngs Moduli (GPa) = 49.84519 55.81783 104.83096
#
# Poissons Ratio (x) = 0.45920 0.03441
# Poissons Ratio (y) = 0.41007 0.24058
# Poissons Ratio (z) = 0.01636 0.12810
#
# Static dielectric constant tensor:
#      x y z
#    x 1.952060 0.000000 0.000000 
#    y 0.000000 1.905220 0.000000 
#    z 0.000000 0.000000 1.917760 
# 
# From -- ./inp_files/1085.got.cif
#   From: 2010.05.17/outbox.cif.g08.bks.cpg/sg33_1_cif.got.tgz:1085.got - 2010.06.03 17:15:25.
