data_PCOD9345013
_publ_section_title
;
Structure prediction by ZEFSAII (Michael W. Deem and Ramdas Pophale) SiO2 
 PCOD9345013
Probable space group: P N A 21
;
_chemical_formula_sum "Si O2"
_cell_formula_units_Z 20
_cell_length_a 14.616100
_cell_length_b 11.336326
_cell_length_c 5.249762
_cell_angle_alpha 90.000000
_cell_angle_beta 90.000000
_cell_angle_gamma 90.000000
_cell_volume 869.848156
_symmetry_space_group_name_H-M "P N A 21"
_symmetry_group_IT_number 33
_symmetry_cell_setting 'orthorhombic'
loop_
_space_group_symop_operation_xyz
x,y,z
-x,-y,1/2+z
1/2-x,1/2+y,1/2+z
1/2+x,1/2-y,z
loop_
_atom_site_type_symbol
_atom_site_label
_atom_site_fract_x
_atom_site_fract_y
_atom_site_fract_z
Si Si1 0.132401 0.154567 0.622460
Si Si2 0.880853 0.634137 0.445621
Si Si3 0.169938 0.891473 0.517058
Si Si4 0.662060 0.759550 0.014560
Si Si5 0.520915 0.140796 0.449024
O O1 0.234458 0.193307 0.535145
O O2 0.054491 0.222007 0.465060
O O3 0.125454 0.015850 0.589757
O O4 0.123827 0.222869 0.894342
O O5 0.779945 0.592289 0.511871
O O6 0.951246 0.605403 0.667402
O O7 0.914858 0.587844 0.171306
O O8 0.146609 0.833308 0.244889
O O9 0.150193 0.800347 0.741453
O O10 0.584322 0.858834 0.026686
#
# Coordination Sequence:
#
# PCOD9345013 Si02
#       5
#     4   4   4   4   4
#     4   9  23  37  61  81 122 147 192 235 289 330
#     4   9  19  39  54  82 119 150 181 245 274 336
#     4  11  21  37  62  84 116 155 191 233 291 342
#     4  11  23  38  61  87 113 155 193 233 291 344
#     4  10  20  39  58  80 124 143 187 242 283 328
#
# _framework density 22.992519999999999
#
# number of rings (size 3 to 8) (size 9 to 14) (size 15 to 20)
#    1.200    0.800    2.000    1.200    2.800    1.600 
#    0.000    2.000    0.000    0.000    0.000    0.000 
#    0.000    0.000    0.000    0.000    0.000    0.000 
#
# Total GULP energy -111631.533799 kJ/mol
# GULP energy per Si atom -5581.576690 kJ/mol
# Density = 2.294019 g / cm^3
# Si number density = 22.992520 Si / 1000 Ang^3
#
#
#
# Elastic Constant Matrix: (Units=GPa)
#
#
# Indices 1 2 3 4 5 6 
#
# 1 92.8471 7.6307 16.3060 0.0000 0.0000 0.0000
# 2 7.6307 58.3487 -17.4445 0.0000 0.0000 0.0000
# 3 16.3060 -17.4445 77.5477 0.0000 0.0000 0.0000
# 4 0.0000 0.0000 0.0000 -81.1377 0.0000 0.0000
# 5 0.0000 0.0000 0.0000 0.0000 -15.8617 0.0000
# 6 0.0000 0.0000 0.0000 0.0000 0.0000 30.2875
#
#
#
# Elastic Compliance Matrix: (Units=1/GPa)
#
#
# Indices 1 2 3 4 5 6 
#
# 1 0.011485 -0.002384 -0.002951 0.000000 0.000000 0.000000
# 2 -0.002384 0.018869 0.004746 0.000000 0.000000 0.000000
# 3 -0.002951 0.004746 0.014583 0.000000 0.000000 0.000000
# 4 0.000000 0.000000 0.000000 -0.012325 0.000000 0.000000
# 5 0.000000 0.000000 0.000000 0.000000 -0.063045 0.000000
# 6 0.000000 0.000000 0.000000 0.000000 0.000000 0.033017
#
#
# Mechanical properties :
#
#
# Convention : Reuss Voigt Hill
#
# Bulk Modulus (GPa) = 22.85291 26.85866 24.85578
# Shear Modulus (GPa) = 272.48726 1.47437 136.98081
#
# Velocity S-wave (km/s) = 10.89810 0.80164 7.72694
# Velocity P-wave (km/s) = 12.97378 3.54453 9.51006
#
# Compressibility (1/GPa) = 0.04375810
#
# Stress axis : x y z
#
# Youngs Moduli (GPa) = 87.07271 52.99688 68.57083
#
# Poissons Ratio (x) = 0.12636 0.20237
# Poissons Ratio (y) = 0.20760 -0.32543
# Poissons Ratio (z) = 0.25697 -0.25152
#
# Static dielectric constant tensor:
#      x y z
#    x 1.815990 0.000000 0.000000 
#    y 0.000000 2.027270 0.000000 
#    z 0.000000 0.000000 1.827240 
# 
# From -- ./inp_files/1223.got.cif
#   From: 2010.05.17/outbox.cif.g08.bks.cpg/sg33_1_cif.got.tgz:1223.got - 2010.06.03 17:15:25.
