data_PCOD9345926
_publ_section_title
;
Structure prediction by ZEFSAII (Michael W. Deem and Ramdas Pophale) SiO2 
 PCOD9345926
Probable space group: P N A 21
;
_chemical_formula_sum "Si O2"
_cell_formula_units_Z 28
_cell_length_a 14.597805
_cell_length_b 5.045377
_cell_length_c 16.807843
_cell_angle_alpha 90.000000
_cell_angle_beta 90.000000
_cell_angle_gamma 90.000000
_cell_volume 1237.921665
_symmetry_space_group_name_H-M "P N A 21"
_symmetry_group_IT_number 33
_symmetry_cell_setting 'orthorhombic'
loop_
_space_group_symop_operation_xyz
x,y,z
-x,-y,1/2+z
1/2-x,1/2+y,1/2+z
1/2+x,1/2-y,z
loop_
_atom_site_type_symbol
_atom_site_label
_atom_site_fract_x
_atom_site_fract_y
_atom_site_fract_z
Si Si1 0.783710 0.074968 0.703880
Si Si2 0.233387 0.064617 0.442104
Si Si3 0.290170 0.054577 0.839420
Si Si4 0.121030 0.774136 0.665936
Si Si5 0.582844 0.226995 0.561507
Si Si6 0.066393 0.299781 0.233902
Si Si7 0.377268 0.117106 0.574178
O O1 0.718072 0.824024 0.697567
O O2 0.881780 0.980141 0.737331
O O3 0.744950 0.295730 0.763451
O O4 0.807635 0.180216 0.616830
O O5 0.255694 0.293203 0.377131
O O6 0.147104 0.187203 0.489445
O O7 0.318574 0.009911 0.500997
O O8 0.205781 0.787255 0.403539
O O9 0.388491 0.963547 0.804847
O O10 0.102627 0.568940 0.592820
O O11 0.041706 0.722923 0.730157
O O12 0.108410 0.066913 0.631792
O O13 0.473637 0.242886 0.547408
O O14 0.096539 0.422699 0.147763
#
# Coordination Sequence:
#
# PCOD9345926 Si02
#       7
#     4   4   4   4   4   4   4
#     4  11  21  45  68  96 129 173 226 271 325 391
#     4  12  24  44  64  95 137 173 212 267 342 387
#     4  11  26  43  62  91 139 178 207 269 330 398
#     4  11  23  38  73  98 122 165 228 276 325 383
#     4  11  23  41  65 104 123 167 219 278 330 385
#     4  10  22  45  67  98 130 170 227 275 325 388
#     4  10  23  40  73  96 128 170 223 278 321 394
#
# _framework density 22.618554
#
# number of rings (size 3 to 8) (size 9 to 14) (size 15 to 20)
#    0.000    1.143    4.286    1.714    4.000    0.000 
#    5.143    0.000    0.000    0.000    0.000    0.000 
#    0.000    0.000    0.000    0.000    0.000    0.000 
#
# Total GULP energy -156498.953962 kJ/mol
# GULP energy per Si atom -5589.248356 kJ/mol
# Density = 2.256707 g / cm^3
# Si number density = 22.618554 Si / 1000 Ang^3
#
#
#
# Elastic Constant Matrix: (Units=GPa)
#
#
# Indices 1 2 3 4 5 6 
#
# 1 80.9137 -6.2522 22.2417 0.0000 0.0000 0.0000
# 2 -6.2522 73.0679 10.4410 0.0000 0.0000 0.0000
# 3 22.2417 10.4410 67.3122 0.0000 0.0000 0.0000
# 4 0.0000 0.0000 0.0000 41.5294 0.0000 0.0000
# 5 0.0000 0.0000 0.0000 0.0000 26.5071 0.0000
# 6 0.0000 0.0000 0.0000 0.0000 0.0000 21.6432
#
#
#
# Elastic Compliance Matrix: (Units=1/GPa)
#
#
# Indices 1 2 3 4 5 6 
#
# 1 0.013841 0.001880 -0.004865 0.000000 0.000000 0.000000
# 2 0.001880 0.014251 -0.002832 0.000000 0.000000 0.000000
# 3 -0.004865 -0.002832 0.016903 0.000000 0.000000 0.000000
# 4 0.000000 0.000000 0.000000 0.024079 0.000000 0.000000
# 5 0.000000 0.000000 0.000000 0.000000 0.037726 0.000000
# 6 0.000000 0.000000 0.000000 0.000000 0.000000 0.046204
#
#
# Mechanical properties :
#
#
# Convention : Reuss Voigt Hill
#
# Bulk Modulus (GPa) = 29.97480 30.46163 30.21821
# Shear Modulus (GPa) = 28.44799 30.92684 29.68742
#
# Velocity S-wave (km/s) = 3.55029 3.70174 3.62681
# Velocity P-wave (km/s) = 5.48518 5.63625 5.56123
#
# Compressibility (1/GPa) = 0.03336136
#
# Stress axis : x y z
#
# Youngs Moduli (GPa) = 72.24698 70.16879 59.16140
#
# Poissons Ratio (x) = -0.13189 0.28783
# Poissons Ratio (y) = -0.13579 0.16752
# Poissons Ratio (z) = 0.35149 0.19869
#
# Static dielectric constant tensor:
#      x y z
#    x 1.831460 0.000000 0.000000 
#    y 0.000000 1.869120 0.000000 
#    z 0.000000 0.000000 1.877830 
# 
# From -- ./inp_files/8740.got.cif
#   From: 2010.05.17/outbox.cif.g08.bks.cpg/sg33_5_cif.got.tgz:8740.got - 2010.06.03 17:15:25.
