data_PCOD9345017
_publ_section_title
;
Structure prediction by ZEFSAII (Michael W. Deem and Ramdas Pophale) SiO2 
 PCOD9345017
Probable space group: P N A 21
;
_chemical_formula_sum "Si O2"
_cell_formula_units_Z 20
_cell_length_a 12.736973
_cell_length_b 9.994177
_cell_length_c 6.786896
_cell_angle_alpha 90.000000
_cell_angle_beta 90.000000
_cell_angle_gamma 90.000000
_cell_volume 863.941745
_symmetry_space_group_name_H-M "P N A 21"
_symmetry_group_IT_number 33
_symmetry_cell_setting 'orthorhombic'
loop_
_space_group_symop_operation_xyz
x,y,z
-x,-y,1/2+z
1/2-x,1/2+y,1/2+z
1/2+x,1/2-y,z
loop_
_atom_site_type_symbol
_atom_site_label
_atom_site_fract_x
_atom_site_fract_y
_atom_site_fract_z
Si Si1 0.791736 0.374632 0.441530
Si Si2 0.056923 0.181223 0.455786
Si Si3 0.634401 0.047245 0.646529
Si Si4 0.362610 0.352735 0.694887
Si Si5 0.412987 0.240484 0.105577
O O1 0.667930 0.391807 0.449114
O O2 0.832965 0.299511 0.631127
O O3 0.817112 0.269317 0.263558
O O4 0.760564 0.065957 0.621368
O O5 0.965855 0.106172 0.575016
O O6 0.011478 0.218016 0.240888
O O7 0.079976 0.318519 0.576559
O O8 0.585274 0.916573 0.544912
O O9 0.640288 0.003002 0.877447
O O10 0.389944 0.334692 0.923340
#
# Coordination Sequence:
#
# PCOD9345017 Si02
#       5
#     4   4   4   4   4
#     4   8  20  41  54  87 120 151 197 245 290 351
#     4  10  20  39  60  87 123 148 207 245 283 364
#     4   9  21  41  57  85 123 157 193 244 303 349
#     4  10  20  39  59  88 120 153 199 249 289 356
#     4   9  21  38  60  89 112 163 196 239 305 342
#
# _framework density 23.149709000000001
#
# number of rings (size 3 to 8) (size 9 to 14) (size 15 to 20)
#    1.200    1.600    0.000    0.000    2.800    3.200 
#   14.400    0.000    0.000    0.000    0.000    0.000 
#    0.000    0.000    0.000    0.000    0.000    0.000 
#
# Total GULP energy -111354.440014 kJ/mol
# GULP energy per Si atom -5567.722001 kJ/mol
# Density = 2.309702 g / cm^3
# Si number density = 23.149709 Si / 1000 Ang^3
#
#
#
# Elastic Constant Matrix: (Units=GPa)
#
#
# Indices 1 2 3 4 5 6 
#
# 1 150.8204 18.7003 43.5962 0.0000 0.0000 0.0000
# 2 18.7003 91.1454 29.1448 0.0000 0.0000 0.0000
# 3 43.5962 29.1448 93.6973 0.0000 0.0000 0.0000
# 4 0.0000 0.0000 0.0000 14.0428 0.0000 0.0000
# 5 0.0000 0.0000 0.0000 0.0000 28.7465 0.0000
# 6 0.0000 0.0000 0.0000 0.0000 0.0000 9.0302
#
#
#
# Elastic Compliance Matrix: (Units=1/GPa)
#
#
# Indices 1 2 3 4 5 6 
#
# 1 0.007680 -0.000481 -0.003424 0.000000 0.000000 0.000000
# 2 -0.000481 0.012213 -0.003575 0.000000 0.000000 0.000000
# 3 -0.003424 -0.003575 0.013378 0.000000 0.000000 0.000000
# 4 0.000000 0.000000 0.000000 0.071211 0.000000 0.000000
# 5 0.000000 0.000000 0.000000 0.000000 0.034787 0.000000
# 6 0.000000 0.000000 0.000000 0.000000 0.000000 0.110739
#
#
# Mechanical properties :
#
#
# Convention : Reuss Voigt Hill
#
# Bulk Modulus (GPa) = 54.61144 57.61618 56.11381
# Shear Modulus (GPa) = 18.44533 26.64534 22.54534
#
# Velocity S-wave (km/s) = 2.82580 3.39632 3.12411
# Velocity P-wave (km/s) = 5.85565 6.35000 6.10783
#
# Compressibility (1/GPa) = 0.01831118
#
# Stress axis : x y z
#
# Youngs Moduli (GPa) = 130.21375 81.87743 74.75095
#
# Poissons Ratio (x) = 0.03937 0.25592
# Poissons Ratio (y) = 0.06262 0.26725
# Poissons Ratio (z) = 0.44581 0.29273
#
# Static dielectric constant tensor:
#      x y z
#    x 1.793010 0.000000 0.000000 
#    y 0.000000 1.941050 0.000000 
#    z 0.000000 0.000000 1.888760 
# 
# From -- ./inp_files/1282.got.cif
#   From: 2010.05.17/outbox.cif.g08.bks.cpg/sg33_1_cif.got.tgz:1282.got - 2010.06.03 17:15:25.
