data_PCOD9345014
_publ_section_title
;
Structure prediction by ZEFSAII (Michael W. Deem and Ramdas Pophale) SiO2 
 PCOD9345014
Probable space group: P N A 21
;
_chemical_formula_sum "Si O2"
_cell_formula_units_Z 32
_cell_length_a 9.090546
_cell_length_b 10.342092
_cell_length_c 15.418868
_cell_angle_alpha 90.000000
_cell_angle_beta 90.000000
_cell_angle_gamma 90.000000
_cell_volume 1449.608931
_symmetry_space_group_name_H-M "P N A 21"
_symmetry_group_IT_number 33
_symmetry_cell_setting 'orthorhombic'
loop_
_space_group_symop_operation_xyz
x,y,z
-x,-y,1/2+z
1/2-x,1/2+y,1/2+z
1/2+x,1/2-y,z
loop_
_atom_site_type_symbol
_atom_site_label
_atom_site_fract_x
_atom_site_fract_y
_atom_site_fract_z
Si Si1 0.889560 0.311126 0.842560
Si Si2 0.083286 0.077357 0.873169
Si Si3 0.387256 0.449845 0.547542
Si Si4 0.472566 0.416779 0.202447
Si Si5 0.246188 0.233366 0.275336
Si Si6 0.507889 0.092075 0.371152
Si Si7 0.573329 0.116937 0.573829
Si Si8 0.184565 0.705965 0.143401
O O1 0.738704 0.353842 0.885875
O O2 0.848809 0.273560 0.743741
O O3 0.961357 0.186146 0.884121
O O4 0.990906 0.439307 0.848449
O O5 0.075446 0.019637 0.776288
O O6 0.075604 0.970435 0.947606
O O7 0.500598 0.524097 0.608728
O O8 0.216588 0.480282 0.574501
O O9 0.391601 0.300497 0.573106
O O10 0.351210 0.305322 0.207046
O O11 0.629009 0.363226 0.234459
O O12 0.357563 0.159437 0.339780
O O13 0.145634 0.340953 0.322380
O O14 0.539208 0.117916 0.471766
O O15 0.651555 0.241423 0.623536
O O16 0.418241 0.081352 0.621116
#
# Coordination Sequence:
#
# PCOD9345014 Si02
#       8
#     4   4   4   4   4   4   4   4
#     4  12  24  42  70 100 135 182 226 284 348 417
#     4  12  25  46  68 100 140 177 224 290 352 403
#     4  10  24  42  65  94 141 174 220 285 337 407
#     4  11  23  46  66  94 136 176 227 283 336 407
#     4  10  24  39  70  92 129 184 221 274 340 405
#     4  11  22  42  67  98 134 172 235 275 342 411
#     4  10  20  39  58  96 126 169 218 289 322 396
#     4  10  22  36  66  96 133 172 231 274 339 402
#
# _framework density 22.074921
#
# number of rings (size 3 to 8) (size 9 to 14) (size 15 to 20)
#    0.750    0.500    3.750    1.500    7.000    1.000 
#    0.000    0.000    0.000    0.000    0.000    0.000 
#    0.000    0.000    0.000    0.000    0.000    0.000 
#
# Total GULP energy -178271.644766 kJ/mol
# GULP energy per Si atom -5570.988899 kJ/mol
# Density = 2.202468 g / cm^3
# Si number density = 22.074921 Si / 1000 Ang^3
#
#
#
# Elastic Constant Matrix: (Units=GPa)
#
#
# Indices 1 2 3 4 5 6 
#
# 1 60.6331 10.9867 -22.8761 0.0000 0.0000 0.0000
# 2 10.9867 38.6427 -6.9100 0.0000 0.0000 0.0000
# 3 -22.8761 -6.9100 50.8977 0.0000 0.0000 0.0000
# 4 0.0000 0.0000 0.0000 28.5087 0.0000 0.0000
# 5 0.0000 0.0000 0.0000 0.0000 10.6694 0.0000
# 6 0.0000 0.0000 0.0000 0.0000 0.0000 39.1569
#
#
#
# Elastic Compliance Matrix: (Units=1/GPa)
#
#
# Indices 1 2 3 4 5 6 
#
# 1 0.020532 -0.004292 0.008646 0.000000 0.000000 0.000000
# 2 -0.004292 0.027419 0.001794 0.000000 0.000000 0.000000
# 3 0.008646 0.001794 0.023777 0.000000 0.000000 0.000000
# 4 0.000000 0.000000 0.000000 0.035077 0.000000 0.000000
# 5 0.000000 0.000000 0.000000 0.000000 0.093726 0.000000
# 6 0.000000 0.000000 0.000000 0.000000 0.000000 0.025538
#
#
# Mechanical properties :
#
#
# Convention : Reuss Voigt Hill
#
# Bulk Modulus (GPa) = 11.90152 12.50829 12.20490
# Shear Modulus (GPa) = 20.67987 26.93188 23.80587
#
# Velocity S-wave (km/s) = 3.06405 3.49667 3.28748
# Velocity P-wave (km/s) = 4.23332 4.68837 4.46664
#
# Compressibility (1/GPa) = 0.08402289
#
# Stress axis : x y z
#
# Youngs Moduli (GPa) = 48.70407 36.47107 42.05829
#
# Poissons Ratio (x) = 0.15652 -0.36362
# Poissons Ratio (y) = 0.20902 -0.07544
# Poissons Ratio (z) = -0.42108 -0.06542
#
# Static dielectric constant tensor:
#      x y z
#    x 1.919850 0.000000 0.000000 
#    y 0.000000 1.906020 0.000000 
#    z 0.000000 0.000000 1.772790 
# 
# From -- ./inp_files/7684.got.cif
#   From: 2010.05.17/outbox.cif.g08.bks.cpg/sg33_4_cif.got.tgz:7684.got - 2010.06.03 17:15:25.
