data_PCOD9345907
_publ_section_title
;
Structure prediction by ZEFSAII (Michael W. Deem and Ramdas Pophale) SiO2 
 PCOD9345907
Probable space group: P N A 21
;
_chemical_formula_sum "Si O2"
_cell_formula_units_Z 32
_cell_length_a 26.844641
_cell_length_b 5.242711
_cell_length_c 9.027917
_cell_angle_alpha 90.000000
_cell_angle_beta 90.000000
_cell_angle_gamma 90.000000
_cell_volume 1270.577254
_symmetry_space_group_name_H-M "P N A 21"
_symmetry_group_IT_number 33
_symmetry_cell_setting 'orthorhombic'
loop_
_space_group_symop_operation_xyz
x,y,z
-x,-y,1/2+z
1/2-x,1/2+y,1/2+z
1/2+x,1/2-y,z
loop_
_atom_site_type_symbol
_atom_site_label
_atom_site_fract_x
_atom_site_fract_y
_atom_site_fract_z
Si Si1 0.556624 0.538668 0.610360
Si Si2 0.428765 0.835761 0.846483
Si Si3 0.504926 0.771659 0.341550
Si Si4 0.669410 0.016457 0.460081
Si Si5 0.298958 0.463467 0.822950
Si Si6 0.368117 0.287823 0.342844
Si Si7 0.901282 0.069942 0.651706
Si Si8 0.687242 0.198344 0.780274
O O1 0.578633 0.376217 0.474338
O O2 0.513969 0.680785 0.511307
O O3 0.537699 0.348365 0.740967
O O4 0.597210 0.708719 0.695908
O O5 0.413587 0.723896 0.689214
O O6 0.485899 0.924974 0.850673
O O7 0.385677 0.023783 0.897554
O O8 0.553504 0.704992 0.239153
O O9 0.693568 0.736765 0.458738
O O10 0.667210 0.146160 0.617495
O O11 0.696640 0.236784 0.361904
O O12 0.344401 0.401896 0.710896
O O13 0.244967 0.377776 0.769037
O O14 0.401828 0.353804 0.482972
O O15 0.341112 0.019958 0.373071
O O16 0.327887 0.518145 0.328256
#
# Coordination Sequence:
#
# PCOD9345907 Si02
#       8
#     4   4   4   4   4   4   4   4
#     4  11  25  43  71 104 138 185 238 292 361 425
#     4  10  22  44  71  96 137 189 230 293 356 425
#     4  11  23  46  72 101 141 182 238 291 358 426
#     4  11  22  46  68  99 139 187 237 288 353 420
#     4  11  25  41  73  98 140 186 238 291 355 424
#     4  12  27  47  68 106 145 184 236 296 352 426
#     4  10  25  44  66 104 136 181 237 291 355 415
#     4  12  27  43  71 102 142 188 236 296 352 425
#
# _framework density 25.185402
#
# number of rings (size 3 to 8) (size 9 to 14) (size 15 to 20)
#    0.000    1.000    2.500    3.000    7.000    3.000 
#    0.000    0.000    0.000    0.000    0.000    0.000 
#    0.000    0.000    0.000    0.000    0.000    0.000 
#
# Total GULP energy -178661.395906 kJ/mol
# GULP energy per Si atom -5583.168622 kJ/mol
# Density = 2.512808 g / cm^3
# Si number density = 25.185402 Si / 1000 Ang^3
#
#
#
# Elastic Constant Matrix: (Units=GPa)
#
#
# Indices 1 2 3 4 5 6 
#
# 1 85.5841 7.4947 10.9075 0.0000 0.0000 0.0000
# 2 7.4947 59.0982 15.5787 0.0000 0.0000 0.0000
# 3 10.9075 15.5787 79.7210 0.0000 0.0000 0.0000
# 4 0.0000 0.0000 0.0000 21.2538 0.0000 0.0000
# 5 0.0000 0.0000 0.0000 0.0000 14.5713 0.0000
# 6 0.0000 0.0000 0.0000 0.0000 0.0000 33.9897
#
#
#
# Elastic Compliance Matrix: (Units=1/GPa)
#
#
# Indices 1 2 3 4 5 6 
#
# 1 0.011965 -0.001145 -0.001413 0.000000 0.000000 0.000000
# 2 -0.001145 0.017950 -0.003351 0.000000 0.000000 0.000000
# 3 -0.001413 -0.003351 0.013392 0.000000 0.000000 0.000000
# 4 0.000000 0.000000 0.000000 0.047051 0.000000 0.000000
# 5 0.000000 0.000000 0.000000 0.000000 0.068628 0.000000
# 6 0.000000 0.000000 0.000000 0.000000 0.000000 0.029421
#
#
# Mechanical properties :
#
#
# Convention : Reuss Voigt Hill
#
# Bulk Modulus (GPa) = 31.75805 32.48501 32.12153
# Shear Modulus (GPa) = 23.72820 26.65778 25.19299
#
# Velocity S-wave (km/s) = 3.07276 3.25693 3.16619
# Velocity P-wave (km/s) = 5.02257 5.20287 5.11351
#
# Compressibility (1/GPa) = 0.03148808
#
# Stress axis : x y z
#
# Youngs Moduli (GPa) = 83.57861 55.71182 74.67174
#
# Poissons Ratio (x) = 0.06378 0.10554
# Poissons Ratio (y) = 0.09568 0.25022
# Poissons Ratio (z) = 0.11812 0.18669
#
# Static dielectric constant tensor:
#      x y z
#    x 2.269110 0.000000 0.000000 
#    y 0.000000 2.388810 0.000000 
#    z 0.000000 0.000000 1.948870 
# 
# From -- ./inp_files/5307.got.cif
#   From: 2010.05.17/outbox.cif.g08.bks.cpg/sg33_3_cif.got.tgz:5307.got - 2010.06.03 17:15:25.
