data_PCOD9345624
_publ_section_title
;
Structure prediction by ZEFSAII (Michael W. Deem and Ramdas Pophale) SiO2 
 PCOD9345624
Probable space group: P N A 21
;
_chemical_formula_sum "Si O2"
_cell_formula_units_Z 32
_cell_length_a 12.695599
_cell_length_b 16.026755
_cell_length_c 8.411092
_cell_angle_alpha 90.000000
_cell_angle_beta 90.000000
_cell_angle_gamma 90.000000
_cell_volume 1711.398621
_symmetry_space_group_name_H-M "P N A 21"
_symmetry_group_IT_number 33
_symmetry_cell_setting 'orthorhombic'
loop_
_space_group_symop_operation_xyz
x,y,z
-x,-y,1/2+z
1/2-x,1/2+y,1/2+z
1/2+x,1/2-y,z
loop_
_atom_site_type_symbol
_atom_site_label
_atom_site_fract_x
_atom_site_fract_y
_atom_site_fract_z
Si Si1 0.599156 0.446854 0.853690
Si Si2 0.308729 0.665542 0.778462
Si Si3 0.767412 0.818842 0.143819
Si Si4 0.790925 0.480993 0.067420
Si Si5 0.582367 0.847892 0.376609
Si Si6 0.298889 0.299410 0.063092
Si Si7 0.016025 0.901309 0.673267
Si Si8 0.160392 0.356775 0.776004
O O1 0.652153 0.377870 0.741451
O O2 0.528374 0.508176 0.750110
O O3 0.695389 0.494836 0.942355
O O4 0.530581 0.407232 0.995206
O O5 0.257070 0.586434 0.690157
O O6 0.278318 0.745518 0.673404
O O7 0.433638 0.652024 0.773966
O O8 0.269548 0.668046 0.957142
O O9 0.653856 0.839603 0.218833
O O10 0.803482 0.724893 0.179607
O O11 0.824683 0.562069 0.165612
O O12 0.882214 0.431396 0.971793
O O13 0.623449 0.768601 0.479591
O O14 0.459873 0.848129 0.335065
O O15 0.370936 0.359537 0.165623
O O16 0.235739 0.351816 0.931048
#
# Coordination Sequence:
#
# PCOD9345624 Si02
#       8
#     4   4   4   4   4   4   4   4
#     4  10  22  38  60  89 123 157 203 255 306 364
#     4  10  22  41  58  91 126 155 201 262 304 363
#     4  10  22  39  62  88 125 153 207 262 301 360
#     4   9  22  40  59  84 126 157 204 251 306 368
#     4   9  20  43  58  84 123 163 198 254 310 360
#     4  10  22  38  63  86 122 161 201 250 305 369
#     4  11  22  38  64  88 121 162 201 250 313 363
#     4  11  22  39  64  88 118 168 205 248 311 375
#
# _framework density 18.698156999999998
#
# number of rings (size 3 to 8) (size 9 to 14) (size 15 to 20)
#    0.000    2.000    0.000    4.500    7.000    2.000 
#    4.500    1.250    0.000    0.000    0.000    0.000 
#    0.000    0.000    0.000    0.000    0.000    0.000 
#
# Total GULP energy -178635.080038 kJ/mol
# GULP energy per Si atom -5582.346251 kJ/mol
# Density = 1.865560 g / cm^3
# Si number density = 18.698157 Si / 1000 Ang^3
#
#
#
# Elastic Constant Matrix: (Units=GPa)
#
#
# Indices 1 2 3 4 5 6 
#
# 1 85.3353 39.2076 14.5761 0.0000 0.0000 0.0000
# 2 39.2076 75.4027 34.1232 0.0000 0.0000 0.0000
# 3 14.5761 34.1232 90.4447 0.0000 0.0000 0.0000
# 4 0.0000 0.0000 0.0000 17.4645 0.0000 0.0000
# 5 0.0000 0.0000 0.0000 0.0000 15.2791 0.0000
# 6 0.0000 0.0000 0.0000 0.0000 0.0000 23.0056
#
#
#
# Elastic Compliance Matrix: (Units=1/GPa)
#
#
# Indices 1 2 3 4 5 6 
#
# 1 0.015429 -0.008317 0.000652 0.000000 0.000000 0.000000
# 2 -0.008317 0.020476 -0.006385 0.000000 0.000000 0.000000
# 3 0.000652 -0.006385 0.013360 0.000000 0.000000 0.000000
# 4 0.000000 0.000000 0.000000 0.057259 0.000000 0.000000
# 5 0.000000 0.000000 0.000000 0.000000 0.065449 0.000000
# 6 0.000000 0.000000 0.000000 0.000000 0.000000 0.043468
#
#
# Mechanical properties :
#
#
# Convention : Reuss Voigt Hill
#
# Bulk Modulus (GPa) = 47.25039 47.44407 47.34723
# Shear Modulus (GPa) = 19.95233 22.03489 20.99361
#
# Velocity S-wave (km/s) = 3.27015 3.43658 3.35440
# Velocity P-wave (km/s) = 6.29154 6.41682 6.35449
#
# Compressibility (1/GPa) = 0.02116385
#
# Stress axis : x y z
#
# Youngs Moduli (GPa) = 64.81452 48.83653 74.84791
#
# Poissons Ratio (x) = 0.40619 -0.04876
# Poissons Ratio (y) = 0.53909 0.47790
# Poissons Ratio (z) = -0.04223 0.31182
#
# Static dielectric constant tensor:
#      x y z
#    x 1.643170 0.000000 0.000000 
#    y 0.000000 1.633060 0.000000 
#    z 0.000000 0.000000 1.635830 
# 
# From -- ./inp_files/3924.got.cif
#   From: 2010.05.17/outbox.cif.g08.bks.cpg/sg33_2_cif.got.tgz:3924.got - 2010.06.03 17:15:25.
