data_PCOD9345397
_publ_section_title
;
Structure prediction by ZEFSAII (Michael W. Deem and Ramdas Pophale) SiO2 
 PCOD9345397
Probable space group: P N A 21
;
_chemical_formula_sum "Si O2"
_cell_formula_units_Z 20
_cell_length_a 20.805109
_cell_length_b 5.315397
_cell_length_c 7.617258
_cell_angle_alpha 90.000000
_cell_angle_beta 90.000000
_cell_angle_gamma 90.000000
_cell_volume 842.372864
_symmetry_space_group_name_H-M "P N A 21"
_symmetry_group_IT_number 33
_symmetry_cell_setting 'orthorhombic'
loop_
_space_group_symop_operation_xyz
x,y,z
-x,-y,1/2+z
1/2-x,1/2+y,1/2+z
1/2+x,1/2-y,z
loop_
_atom_site_type_symbol
_atom_site_label
_atom_site_fract_x
_atom_site_fract_y
_atom_site_fract_z
Si Si1 0.867949 0.621680 0.104580
Si Si2 0.818990 0.812553 0.561213
Si Si3 0.239905 0.700813 0.921032
Si Si4 0.938423 0.826062 0.799020
Si Si5 0.576856 0.616205 0.647858
O O1 0.800391 0.744053 0.052012
O O2 0.871794 0.338803 0.172226
O O3 0.903643 0.837599 0.215986
O O4 0.909651 0.608494 0.923576
O O5 0.799666 0.546013 0.476665
O O6 0.890762 0.842423 0.635068
O O7 0.799967 0.044628 0.439934
O O8 0.774493 0.833042 0.735416
O O9 0.010749 0.798773 0.735691
O O10 0.932164 0.054369 0.939569
#
# Coordination Sequence:
#
# PCOD9345397 Si02
#       5
#     4   4   4   4   4
#     4   9  22  38  64  84 129 160 209 255 324 365
#     4  11  24  42  67  93 134 167 219 269 328 384
#     4  11  23  44  65  94 130 174 214 272 324 388
#     4   9  24  40  65  89 131 161 215 260 326 372
#     4  10  21  40  65  90 124 168 203 266 314 387
#
# _framework density 23.742455
#
# number of rings (size 3 to 8) (size 9 to 14) (size 15 to 20)
#    1.200    0.800    0.000    2.400    8.400    0.000 
#   10.800    0.000    0.000    0.000    0.000    0.000 
#    0.000    0.000    0.000    0.000    0.000    0.000 
#
# Total GULP energy -111712.702512 kJ/mol
# GULP energy per Si atom -5585.635126 kJ/mol
# Density = 2.368842 g / cm^3
# Si number density = 23.742455 Si / 1000 Ang^3
#
#
#
# Elastic Constant Matrix: (Units=GPa)
#
#
# Indices 1 2 3 4 5 6 
#
# 1 72.1240 32.4707 20.2685 0.0000 0.0000 0.0000
# 2 32.4707 151.3371 28.3538 0.0000 0.0000 0.0000
# 3 20.2685 28.3538 93.7573 0.0000 0.0000 0.0000
# 4 0.0000 0.0000 0.0000 35.8826 0.0000 0.0000
# 5 0.0000 0.0000 0.0000 0.0000 40.4171 0.0000
# 6 0.0000 0.0000 0.0000 0.0000 0.0000 22.3337
#
#
#
# Elastic Compliance Matrix: (Units=1/GPa)
#
#
# Indices 1 2 3 4 5 6 
#
# 1 0.015903 -0.002934 -0.002551 0.000000 0.000000 0.000000
# 2 -0.002934 0.007546 -0.001648 0.000000 0.000000 0.000000
# 3 -0.002551 -0.001648 0.011716 0.000000 0.000000 0.000000
# 4 0.000000 0.000000 0.000000 0.027869 0.000000 0.000000
# 5 0.000000 0.000000 0.000000 0.000000 0.024742 0.000000
# 6 0.000000 0.000000 0.000000 0.000000 0.000000 0.044775
#
#
# Mechanical properties :
#
#
# Convention : Reuss Voigt Hill
#
# Bulk Modulus (GPa) = 47.84828 53.26716 50.55772
# Shear Modulus (GPa) = 32.51360 35.46837 33.99098
#
# Velocity S-wave (km/s) = 3.70459 3.86927 3.78783
# Velocity P-wave (km/s) = 6.20447 6.51504 6.36165
#
# Compressibility (1/GPa) = 0.02089939
#
# Stress axis : x y z
#
# Youngs Moduli (GPa) = 62.88214 132.51977 85.35691
#
# Poissons Ratio (x) = 0.38884 0.21770
# Poissons Ratio (y) = 0.18451 0.14065
# Poissons Ratio (z) = 0.16038 0.21836
#
# Static dielectric constant tensor:
#      x y z
#    x 1.921170 0.000000 0.000000 
#    y 0.000000 1.863550 0.000000 
#    z 0.000000 0.000000 1.988030 
# 
# From -- ./inp_files/4899.got.cif
#   From: 2010.05.17/outbox.cif.g08.bks.cpg/sg33_3_cif.got.tgz:4899.got - 2010.06.03 17:15:25.
