data_PCOD9345526
_publ_section_title
;
Structure prediction by ZEFSAII (Michael W. Deem and Ramdas Pophale) SiO2 
 PCOD9345526
Probable space group: P N A 21
;
_chemical_formula_sum "Si O2"
_cell_formula_units_Z 32
_cell_length_a 13.675500
_cell_length_b 10.268301
_cell_length_c 9.347566
_cell_angle_alpha 90.000000
_cell_angle_beta 90.000000
_cell_angle_gamma 90.000000
_cell_volume 1312.624013
_symmetry_space_group_name_H-M "P N A 21"
_symmetry_group_IT_number 33
_symmetry_cell_setting 'orthorhombic'
loop_
_space_group_symop_operation_xyz
x,y,z
-x,-y,1/2+z
1/2-x,1/2+y,1/2+z
1/2+x,1/2-y,z
loop_
_atom_site_type_symbol
_atom_site_label
_atom_site_fract_x
_atom_site_fract_y
_atom_site_fract_z
Si Si1 0.651180 0.387548 0.775300
Si Si2 0.598817 0.739146 0.648861
Si Si3 0.808468 0.772001 0.561566
Si Si4 0.972547 0.557944 0.509875
Si Si5 0.927223 0.626370 0.198039
Si Si6 0.698587 0.557765 0.186345
Si Si7 0.375028 0.503249 0.995766
Si Si8 0.433405 0.357877 0.437915
O O1 0.569974 0.278580 0.738852
O O2 0.691315 0.433607 0.621604
O O3 0.608363 0.513797 0.853453
O O4 0.712661 0.313728 0.896596
O O5 0.713322 0.716858 0.634942
O O6 0.569070 0.862485 0.556548
O O7 0.558906 0.609866 0.570399
O O8 0.576333 0.750230 0.815218
O O9 0.826269 0.909064 0.639957
O O10 0.889935 0.659535 0.566185
O O11 0.994258 0.419664 0.581785
O O12 0.955027 0.551149 0.342614
O O13 0.812943 0.594651 0.162381
O O14 0.675609 0.555115 0.355910
O O15 0.630451 0.645473 0.082664
O O16 0.452406 0.613809 0.955527
#
# Coordination Sequence:
#
# PCOD9345526 Si02
#       8
#     4   4   4   4   4   4   4   4
#     4   9  21  40  61  90 129 172 216 272 336 393
#     4  11  22  42  66  94 124 176 225 265 343 399
#     4  10  21  43  64  89 130 173 224 274 329 410
#     4  11  24  43  67  95 132 179 226 279 345 406
#     4  11  24  44  61  95 138 179 225 279 346 415
#     4  11  22  40  64  98 138 170 226 283 339 413
#     4  11  20  37  67  98 128 168 220 284 332 394
#     4  10  22  39  68  95 131 173 224 278 338 402
#
# _framework density 24.37865
#
# number of rings (size 3 to 8) (size 9 to 14) (size 15 to 20)
#    0.000    1.500    1.250    6.000    0.000    4.000 
#    4.500    0.000    0.000    0.000    0.000    0.000 
#    0.000    0.000    0.000    0.000    0.000    0.000 
#
# Total GULP energy -178665.531782 kJ/mol
# GULP energy per Si atom -5583.297868 kJ/mol
# Density = 2.432316 g / cm^3
# Si number density = 24.378650 Si / 1000 Ang^3
#
#
#
# Elastic Constant Matrix: (Units=GPa)
#
#
# Indices 1 2 3 4 5 6 
#
# 1 72.6901 -3.8963 24.2625 0.0000 0.0000 0.0000
# 2 -3.8963 61.9459 29.4595 0.0000 0.0000 0.0000
# 3 24.2625 29.4595 126.6606 0.0000 0.0000 0.0000
# 4 0.0000 0.0000 0.0000 27.8273 0.0000 0.0000
# 5 0.0000 0.0000 0.0000 0.0000 22.4778 0.0000
# 6 0.0000 0.0000 0.0000 0.0000 0.0000 33.6603
#
#
#
# Elastic Compliance Matrix: (Units=1/GPa)
#
#
# Indices 1 2 3 4 5 6 
#
# 1 0.015062 0.002608 -0.003492 0.000000 0.000000 0.000000
# 2 0.002608 0.018602 -0.004826 0.000000 0.000000 0.000000
# 3 -0.003492 -0.004826 0.009687 0.000000 0.000000 0.000000
# 4 0.000000 0.000000 0.000000 0.035936 0.000000 0.000000
# 5 0.000000 0.000000 0.000000 0.000000 0.044488 0.000000
# 6 0.000000 0.000000 0.000000 0.000000 0.000000 0.029709
#
#
# Mechanical properties :
#
#
# Convention : Reuss Voigt Hill
#
# Bulk Modulus (GPa) = 31.31751 40.10535 35.71143
# Shear Modulus (GPa) = 28.48226 30.89114 29.68670
#
# Velocity S-wave (km/s) = 3.42179 3.56355 3.49339
# Velocity P-wave (km/s) = 5.33720 5.78088 5.56347
#
# Compressibility (1/GPa) = 0.03193102
#
# Stress axis : x y z
#
# Youngs Moduli (GPa) = 66.39082 53.75666 103.23630
#
# Poissons Ratio (x) = -0.14020 0.36049
# Poissons Ratio (y) = -0.17315 0.49824
# Poissons Ratio (z) = 0.23183 0.25944
#
# Static dielectric constant tensor:
#      x y z
#    x 1.941280 0.000000 0.000000 
#    y 0.000000 2.118370 0.000000 
#    z 0.000000 0.000000 2.004560 
# 
# From -- ./inp_files/4426.got.cif
#   From: 2010.05.17/outbox.cif.g08.bks.cpg/sg33_3_cif.got.tgz:4426.got - 2010.06.03 17:15:25.
