data_PCOD9345540
_publ_section_title
;
Structure prediction by ZEFSAII (Michael W. Deem and Ramdas Pophale) SiO2 
 PCOD9345540
Probable space group: P N A 21
;
_chemical_formula_sum "Si O2"
_cell_formula_units_Z 32
_cell_length_a 13.042982
_cell_length_b 18.356607
_cell_length_c 5.237367
_cell_angle_alpha 90.000000
_cell_angle_beta 90.000000
_cell_angle_gamma 90.000000
_cell_volume 1253.956042
_symmetry_space_group_name_H-M "P N A 21"
_symmetry_group_IT_number 33
_symmetry_cell_setting 'orthorhombic'
loop_
_space_group_symop_operation_xyz
x,y,z
-x,-y,1/2+z
1/2-x,1/2+y,1/2+z
1/2+x,1/2-y,z
loop_
_atom_site_type_symbol
_atom_site_label
_atom_site_fract_x
_atom_site_fract_y
_atom_site_fract_z
Si Si1 0.650303 0.878592 0.059180
Si Si2 0.234263 0.765616 0.882149
Si Si3 0.923050 0.170288 0.044798
Si Si4 0.742862 0.417335 0.036805
Si Si5 0.032758 0.458319 0.722474
Si Si6 0.234909 0.376956 0.743976
Si Si7 0.373581 0.733420 0.476951
Si Si8 0.535269 0.463646 0.268457
O O1 0.702933 0.933262 0.266964
O O2 0.531533 0.887743 0.128844
O O3 0.692617 0.796148 0.070119
O O4 0.680071 0.901366 0.771133
O O5 0.147019 0.767539 0.667576
O O6 0.347355 0.749337 0.776270
O O7 0.234404 0.849454 0.965683
O O8 0.011840 0.213884 0.898357
O O9 0.986512 0.116643 0.230130
O O10 0.841871 0.120747 0.892276
O O11 0.686418 0.342285 0.958147
O O12 0.650712 0.464215 0.155779
O O13 0.153068 0.440458 0.736086
O O14 0.002882 0.515329 0.500760
O O15 0.173213 0.304777 0.844643
O O16 0.525604 0.486004 0.563575
#
# Coordination Sequence:
#
# PCOD9345540 Si02
#       8
#     4   4   4   4   4   4   4   4
#     4  11  23  45  74  99 138 189 242 296 360 415
#     4  10  23  41  70 108 134 181 236 303 373 430
#     4  10  25  42  69 104 143 182 232 309 373 423
#     4  10  21  43  68 104 135 180 240 297 353 434
#     4  12  31  50  70 104 150 204 249 289 354 444
#     4  11  25  44  72 103 142 184 243 300 361 437
#     4   9  21  41  68 103 144 170 231 302 377 430
#     4  11  25  44  67 101 142 192 239 290 357 431
#
# _framework density 25.519238000000001
#
# number of rings (size 3 to 8) (size 9 to 14) (size 15 to 20)
#    0.000    1.500    1.250    1.500    8.750    3.000 
#    0.000    0.000    0.000    0.000    0.000    0.000 
#    0.000    0.000    0.000    0.000    0.000    0.000 
#
# Total GULP energy -178652.083990 kJ/mol
# GULP energy per Si atom -5582.877625 kJ/mol
# Density = 2.546115 g / cm^3
# Si number density = 25.519238 Si / 1000 Ang^3
#
#
#
# Elastic Constant Matrix: (Units=GPa)
#
#
# Indices 1 2 3 4 5 6 
#
# 1 117.0378 20.0282 46.0353 0.0000 0.0000 0.0000
# 2 20.0282 59.5730 -3.5614 0.0000 0.0000 0.0000
# 3 46.0353 -3.5614 74.9629 0.0000 0.0000 0.0000
# 4 0.0000 0.0000 0.0000 37.9362 0.0000 0.0000
# 5 0.0000 0.0000 0.0000 0.0000 27.5989 0.0000
# 6 0.0000 0.0000 0.0000 0.0000 0.0000 41.5152
#
#
#
# Elastic Compliance Matrix: (Units=1/GPa)
#
#
# Indices 1 2 3 4 5 6 
#
# 1 0.012429 -0.004648 -0.007853 0.000000 0.000000 0.000000
# 2 -0.004648 0.018572 0.003737 0.000000 0.000000 0.000000
# 3 -0.007853 0.003737 0.018340 0.000000 0.000000 0.000000
# 4 0.000000 0.000000 0.000000 0.026360 0.000000 0.000000
# 5 0.000000 0.000000 0.000000 0.000000 0.036233 0.000000
# 6 0.000000 0.000000 0.000000 0.000000 0.000000 0.024088
#
#
# Mechanical properties :
#
#
# Convention : Reuss Voigt Hill
#
# Bulk Modulus (GPa) = 31.43485 41.84198 36.63841
# Shear Modulus (GPa) = 30.45898 34.01482 32.23690
#
# Velocity S-wave (km/s) = 3.45856 3.65486 3.55806
# Velocity P-wave (km/s) = 5.31918 5.85171 5.59179
#
# Compressibility (1/GPa) = 0.03181183
#
# Stress axis : x y z
#
# Youngs Moduli (GPa) = 80.45932 53.84410 54.52484
#
# Poissons Ratio (x) = 0.25026 0.42820
# Poissons Ratio (y) = 0.37397 -0.20374
# Poissons Ratio (z) = 0.63187 -0.20120
#
# Static dielectric constant tensor:
#      x y z
#    x 2.027780 0.000000 0.000000 
#    y 0.000000 2.090990 0.000000 
#    z 0.000000 0.000000 2.110650 
# 
# From -- ./inp_files/1069.got.cif
#   From: 2010.05.17/outbox.cif.g08.bks.cpg/sg33_1_cif.got.tgz:1069.got - 2010.06.03 17:15:25.
