data_PCOD9345937
_publ_section_title
;
Structure prediction by ZEFSAII (Michael W. Deem and Ramdas Pophale) SiO2 
 PCOD9345937
Probable space group: P N A 21
;
_chemical_formula_sum "Si O2"
_cell_formula_units_Z 28
_cell_length_a 23.414802
_cell_length_b 9.194518
_cell_length_c 5.689159
_cell_angle_alpha 90.000000
_cell_angle_beta 90.000000
_cell_angle_gamma 90.000000
_cell_volume 1224.806630
_symmetry_space_group_name_H-M "P N A 21"
_symmetry_group_IT_number 33
_symmetry_cell_setting 'orthorhombic'
loop_
_space_group_symop_operation_xyz
x,y,z
-x,-y,1/2+z
1/2-x,1/2+y,1/2+z
1/2+x,1/2-y,z
loop_
_atom_site_type_symbol
_atom_site_label
_atom_site_fract_x
_atom_site_fract_y
_atom_site_fract_z
Si Si1 0.427533 0.793975 0.086990
Si Si2 0.803141 0.400311 0.872179
Si Si3 0.329349 0.605747 0.345016
Si Si4 0.863748 0.664841 0.679607
Si Si5 0.485878 0.423112 0.781433
Si Si6 0.386148 0.070837 0.273431
Si Si7 0.377829 0.321074 0.566842
O O1 0.371926 0.697988 0.176571
O O2 0.478152 0.723281 0.231909
O O3 0.425381 0.969676 0.111913
O O4 0.421255 0.781614 0.806551
O O5 0.737559 0.395628 0.796081
O O6 0.823713 0.567322 0.843048
O O7 0.834083 0.283154 0.704162
O O8 0.829333 0.375324 0.134230
O O9 0.332621 0.694730 0.587651
O O10 0.351860 0.445805 0.403427
O O11 0.873559 0.550905 0.470314
O O12 0.500047 0.513029 0.538743
O O13 0.419115 0.390761 0.758930
O O14 0.412358 0.210764 0.397056
#
# Coordination Sequence:
#
# PCOD9345937 Si02
#       7
#     4   4   4   4   4   4   4
#     4  10  22  45  70  95 141 184 237 297 369 429
#     4  10  24  40  66  97 141 181 233 299 365 448
#     4  11  23  39  68 101 133 186 233 299 372 430
#     4   9  21  41  62  92 130 177 231 282 360 433
#     4  12  27  49  75 110 146 193 252 308 363 438
#     4   9  22  44  63  99 134 178 232 292 361 440
#     4  11  25  44  68 106 141 185 246 297 372 438
#
# _framework density 22.860751
#
# number of rings (size 3 to 8) (size 9 to 14) (size 15 to 20)
#    0.000    1.714    1.429    0.857   12.000    2.286 
#    7.714    0.000    0.000    0.000    0.000    0.000 
#    0.000    0.000    0.000    0.000    0.000    0.000 
#
# Total GULP energy -155946.395600 kJ/mol
# GULP energy per Si atom -5569.514129 kJ/mol
# Density = 2.280872 g / cm^3
# Si number density = 22.860751 Si / 1000 Ang^3
#
#
#
# Elastic Constant Matrix: (Units=GPa)
#
#
# Indices 1 2 3 4 5 6 
#
# 1 34.6080 8.5980 0.4931 0.0000 0.0000 0.0000
# 2 8.5980 129.4836 27.4388 0.0000 0.0000 0.0000
# 3 0.4931 27.4388 62.8484 0.0000 0.0000 0.0000
# 4 0.0000 0.0000 0.0000 32.1676 0.0000 0.0000
# 5 0.0000 0.0000 0.0000 0.0000 23.7293 0.0000
# 6 0.0000 0.0000 0.0000 0.0000 0.0000 42.0936
#
#
#
# Elastic Compliance Matrix: (Units=1/GPa)
#
#
# Indices 1 2 3 4 5 6 
#
# 1 0.029407 -0.002098 0.000685 0.000000 0.000000 0.000000
# 2 -0.002098 0.008660 -0.003764 0.000000 0.000000 0.000000
# 3 0.000685 -0.003764 0.017549 0.000000 0.000000 0.000000
# 4 0.000000 0.000000 0.000000 0.031087 0.000000 0.000000
# 5 0.000000 0.000000 0.000000 0.000000 0.042142 0.000000
# 6 0.000000 0.000000 0.000000 0.000000 0.000000 0.023757
#
#
# Mechanical properties :
#
#
# Convention : Reuss Voigt Hill
#
# Bulk Modulus (GPa) = 22.09370 33.33331 27.71350
# Shear Modulus (GPa) = 28.08311 32.29212 30.18761
#
# Velocity S-wave (km/s) = 3.50872 3.76248 3.63781
# Velocity P-wave (km/s) = 5.10884 5.78685 5.45838
#
# Compressibility (1/GPa) = 0.04526177
#
# Stress axis : x y z
#
# Youngs Moduli (GPa) = 34.00609 115.47350 56.98200
#
# Poissons Ratio (x) = 0.24225 -0.03904
# Poissons Ratio (y) = 0.07134 0.21450
# Poissons Ratio (z) = -0.02330 0.43469
#
# Static dielectric constant tensor:
#      x y z
#    x 1.950900 0.000000 0.000000 
#    y 0.000000 1.888740 0.000000 
#    z 0.000000 0.000000 2.047800 
# 
# From -- ./inp_files/2232.got.cif
#   From: 2010.05.17/outbox.cif.g08.bks.cpg/sg33_2_cif.got.tgz:2232.got - 2010.06.03 17:15:25.
