data_PCOD9345627
_publ_section_title
;
Structure prediction by ZEFSAII (Michael W. Deem and Ramdas Pophale) SiO2 
 PCOD9345627
Probable space group: P N A 21
;
_chemical_formula_sum "Si O2"
_cell_formula_units_Z 28
_cell_length_a 23.587313
_cell_length_b 6.489189
_cell_length_c 8.214913
_cell_angle_alpha 90.000000
_cell_angle_beta 90.000000
_cell_angle_gamma 90.000000
_cell_volume 1257.395384
_symmetry_space_group_name_H-M "P N A 21"
_symmetry_group_IT_number 33
_symmetry_cell_setting 'orthorhombic'
loop_
_space_group_symop_operation_xyz
x,y,z
-x,-y,1/2+z
1/2-x,1/2+y,1/2+z
1/2+x,1/2-y,z
loop_
_atom_site_type_symbol
_atom_site_label
_atom_site_fract_x
_atom_site_fract_y
_atom_site_fract_z
Si Si1 0.692493 0.713602 0.065850
Si Si2 0.639028 0.060380 0.298761
Si Si3 0.585761 0.650621 0.878046
Si Si4 0.466702 0.014328 0.595045
Si Si5 0.869892 0.199550 0.015722
Si Si6 0.985420 0.177233 0.872193
Si Si7 0.221072 0.061079 0.343155
O O1 0.669218 0.891202 0.184154
O O2 0.730850 0.566140 0.177596
O O3 0.638165 0.592361 0.995797
O O4 0.725411 0.827457 0.921878
O O5 0.578033 0.091409 0.216964
O O6 0.633581 0.940866 0.469643
O O7 0.675922 0.261184 0.307448
O O8 0.610915 0.660696 0.698100
O O9 0.532502 0.497630 0.884215
O O10 0.564736 0.871302 0.945720
O O11 0.492672 0.197751 0.703748
O O12 0.505396 0.840339 0.518383
O O13 0.919974 0.112117 0.896159
O O14 0.810756 0.090519 0.970432
#
# Coordination Sequence:
#
# PCOD9345627 Si02
#       7
#     4   4   4   4   4   4   4
#     4  10  25  42  66  96 128 169 224 266 330 389
#     4   9  22  43  63  91 130 164 211 269 319 391
#     4  11  23  41  63  96 130 167 219 267 324 400
#     4  10  22  38  61  94 125 170 209 260 325 389
#     4  10  24  40  63  99 128 169 221 261 329 401
#     4  11  22  40  65  92 136 169 215 265 328 397
#     4  11  24  44  67  92 129 174 211 278 325 381
#
# _framework density 22.268252
#
# number of rings (size 3 to 8) (size 9 to 14) (size 15 to 20)
#    0.000    1.714    0.000    3.429    4.000    8.000 
#    2.571    0.000    0.000    0.000    0.000    0.000 
#    0.000    0.000    0.000    0.000    0.000    0.000 
#
# Total GULP energy -156580.738834 kJ/mol
# GULP energy per Si atom -5592.169244 kJ/mol
# Density = 2.221757 g / cm^3
# Si number density = 22.268252 Si / 1000 Ang^3
#
#
#
# Elastic Constant Matrix: (Units=GPa)
#
#
# Indices 1 2 3 4 5 6 
#
# 1 59.1667 -0.4767 -3.2230 0.0000 0.0000 0.0000
# 2 -0.4767 18.9193 14.5563 0.0000 0.0000 0.0000
# 3 -3.2230 14.5563 69.7013 0.0000 0.0000 0.0000
# 4 0.0000 0.0000 0.0000 28.9764 0.0000 0.0000
# 5 0.0000 0.0000 0.0000 0.0000 28.7247 0.0000
# 6 0.0000 0.0000 0.0000 0.0000 0.0000 34.7126
#
#
#
# Elastic Compliance Matrix: (Units=1/GPa)
#
#
# Indices 1 2 3 4 5 6 
#
# 1 0.016945 -0.000210 0.000827 0.000000 0.000000 0.000000
# 2 -0.000210 0.062977 -0.013162 0.000000 0.000000 0.000000
# 3 0.000827 -0.013162 0.017134 0.000000 0.000000 0.000000
# 4 0.000000 0.000000 0.000000 0.034511 0.000000 0.000000
# 5 0.000000 0.000000 0.000000 0.000000 0.034813 0.000000
# 6 0.000000 0.000000 0.000000 0.000000 0.000000 0.028808
#
#
# Mechanical properties :
#
#
# Convention : Reuss Voigt Hill
#
# Bulk Modulus (GPa) = 13.89509 18.83339 16.36424
# Shear Modulus (GPa) = 20.46954 27.61145 24.04049
#
# Velocity S-wave (km/s) = 3.03516 3.52511 3.28927
# Velocity P-wave (km/s) = 4.30539 5.00444 4.66802
#
# Compressibility (1/GPa) = 0.07196788
#
# Stress axis : x y z
#
# Youngs Moduli (GPa) = 59.01522 15.87873 58.36389
#
# Poissons Ratio (x) = 0.00333 -0.04828
# Poissons Ratio (y) = 0.01237 0.76817
# Poissons Ratio (z) = -0.04882 0.20899
#
# Static dielectric constant tensor:
#      x y z
#    x 1.839180 0.000000 0.000000 
#    y 0.000000 1.806830 0.000000 
#    z 0.000000 0.000000 1.840840 
# 
# From -- ./inp_files/5128.got.cif
#   From: 2010.05.17/outbox.cif.g08.bks.cpg/sg33_3_cif.got.tgz:5128.got - 2010.06.03 17:15:25.
