data_PCOD9345045
_publ_section_title
;
Structure prediction by ZEFSAII (Michael W. Deem and Ramdas Pophale) SiO2 
 PCOD9345045
Probable space group: P N A 21
;
_chemical_formula_sum "Si O2"
_cell_formula_units_Z 24
_cell_length_a 15.009973
_cell_length_b 13.798788
_cell_length_c 4.858858
_cell_angle_alpha 90.000000
_cell_angle_beta 90.000000
_cell_angle_gamma 90.000000
_cell_volume 1006.363925
_symmetry_space_group_name_H-M "P N A 21"
_symmetry_group_IT_number 33
_symmetry_cell_setting 'orthorhombic'
loop_
_space_group_symop_operation_xyz
x,y,z
-x,-y,1/2+z
1/2-x,1/2+y,1/2+z
1/2+x,1/2-y,z
loop_
_atom_site_type_symbol
_atom_site_label
_atom_site_fract_x
_atom_site_fract_y
_atom_site_fract_z
Si Si1 0.339042 0.364865 0.127070
Si Si2 0.267306 0.786621 0.143910
Si Si3 0.109940 0.537096 0.436385
Si Si4 0.198800 0.082144 0.724853
Si Si5 0.981399 0.934948 0.518705
Si Si6 0.419995 0.909541 0.426929
O O1 0.281317 0.341375 0.395812
O O2 0.318015 0.479528 0.075277
O O3 0.304795 0.296225 0.887404
O O4 0.446355 0.361088 0.144053
O O5 0.293253 0.679252 0.048444
O O6 0.354241 0.832450 0.292051
O O7 0.206959 0.574448 0.374133
O O8 0.102927 0.506023 0.752271
O O9 0.025164 0.605707 0.379873
O O10 0.096366 0.441256 0.241850
O O11 0.117051 0.096754 0.936338
O O12 0.978708 0.023299 0.733774
#
# Coordination Sequence:
#
# PCOD9345045 Si02
#       6
#     4   4   4   4   4   4
#     4  11  24  45  64  99 140 176 224 290 337 407
#     4  12  24  40  70  98 137 180 228 281 339 406
#     4  10  21  38  67  87 128 171 216 272 340 385
#     4  11  24  43  70 100 131 188 230 275 345 413
#     4  10  23  42  69  96 136 183 225 283 345 404
#     4  10  20  40  60  94 126 170 215 279 328 393
#
# _framework density 23.848234000000001
#
# number of rings (size 3 to 8) (size 9 to 14) (size 15 to 20)
#    0.000    1.333    3.333    2.000    0.000    6.667 
#    0.000    5.000    0.000    0.000    0.000    0.000 
#    0.000    0.000    0.000    0.000    0.000    0.000 
#
# Total GULP energy -134057.081314 kJ/mol
# GULP energy per Si atom -5585.711721 kJ/mol
# Density = 2.379395 g / cm^3
# Si number density = 23.848234 Si / 1000 Ang^3
#
#
#
# Elastic Constant Matrix: (Units=GPa)
#
#
# Indices 1 2 3 4 5 6 
#
# 1 200.3298 28.4433 10.3600 0.0000 0.0000 0.0000
# 2 28.4433 82.3262 3.1429 0.0000 0.0000 0.0000
# 3 10.3600 3.1429 77.0380 0.0000 0.0000 0.0000
# 4 0.0000 0.0000 0.0000 10.6216 0.0000 0.0000
# 5 0.0000 0.0000 0.0000 0.0000 33.5071 0.0000
# 6 0.0000 0.0000 0.0000 0.0000 0.0000 0.4856
#
#
#
# Elastic Compliance Matrix: (Units=1/GPa)
#
#
# Indices 1 2 3 4 5 6 
#
# 1 0.005280 -0.001800 -0.000637 0.000000 0.000000 0.000000
# 2 -0.001800 0.012779 -0.000279 0.000000 0.000000 0.000000
# 3 -0.000637 -0.000279 0.013078 0.000000 0.000000 0.000000
# 4 0.000000 0.000000 0.000000 0.094148 0.000000 0.000000
# 5 0.000000 0.000000 0.000000 0.000000 0.029844 0.000000
# 6 0.000000 0.000000 0.000000 0.000000 0.000000 2.059097
#
#
# Mechanical properties :
#
#
# Convention : Reuss Voigt Hill
#
# Bulk Modulus (GPa) = 38.90241 49.28739 44.09490
# Shear Modulus (GPa) = 2.24394 30.10605 16.17499
#
# Velocity S-wave (km/s) = 0.97106 3.55688 2.60714
# Velocity P-wave (km/s) = 4.19585 6.13030 5.25289
#
# Compressibility (1/GPa) = 0.02570535
#
# Stress axis : x y z
#
# Youngs Moduli (GPa) = 189.38455 78.25117 76.46653
#
# Poissons Ratio (x) = 0.14085 0.04868
# Poissons Ratio (y) = 0.34089 0.02136
# Poissons Ratio (z) = 0.12057 0.02186
#
# Static dielectric constant tensor:
#      x y z
#    x 1.938660 0.000000 0.000000 
#    y 0.000000 1.933130 0.000000 
#    z 0.000000 0.000000 1.854090 
# 
# From -- ./inp_files/1360.got.cif
#   From: 2010.05.17/outbox.cif.g08.bks.cpg/sg33_1_cif.got.tgz:1360.got - 2010.06.03 17:15:25.
