data_PCOD9345532
_publ_section_title
;
Structure prediction by ZEFSAII (Michael W. Deem and Ramdas Pophale) SiO2 
 PCOD9345532
Probable space group: P N A 21
;
_chemical_formula_sum "Si O2"
_cell_formula_units_Z 32
_cell_length_a 12.686567
_cell_length_b 8.861404
_cell_length_c 10.806597
_cell_angle_alpha 90.000000
_cell_angle_beta 90.000000
_cell_angle_gamma 90.000000
_cell_volume 1214.886232
_symmetry_space_group_name_H-M "P N A 21"
_symmetry_group_IT_number 33
_symmetry_cell_setting 'orthorhombic'
loop_
_space_group_symop_operation_xyz
x,y,z
-x,-y,1/2+z
1/2-x,1/2+y,1/2+z
1/2+x,1/2-y,z
loop_
_atom_site_type_symbol
_atom_site_label
_atom_site_fract_x
_atom_site_fract_y
_atom_site_fract_z
Si Si1 0.209476 0.221826 0.590340
Si Si2 0.779670 0.693750 0.820099
Si Si3 0.021051 0.988590 0.621379
Si Si4 0.852431 0.556140 0.572088
Si Si5 0.080548 0.013506 0.870184
Si Si6 0.178231 0.517226 0.702892
Si Si7 0.016533 0.356624 0.859377
Si Si8 0.664059 0.756079 0.488447
O O1 0.176693 0.289833 0.457148
O O2 0.232795 0.356992 0.683533
O O3 0.109886 0.117926 0.624795
O O4 0.308898 0.111733 0.583009
O O5 0.850402 0.641735 0.703921
O O6 0.685989 0.570051 0.827596
O O7 0.728684 0.857522 0.791271
O O8 0.993360 0.964503 0.765794
O O9 0.940360 0.029513 0.512861
O O10 0.078315 0.841067 0.566503
O O11 0.955945 0.564236 0.489837
O O12 0.763661 0.646015 0.490127
O O13 0.075173 0.194442 0.865231
O O14 0.063855 0.463560 0.753862
O O15 0.187564 0.600726 0.572180
O O16 0.893685 0.313181 0.865281
#
# Coordination Sequence:
#
# PCOD9345532 Si02
#       8
#     4   4   4   4   4   4   4   4
#     4  11  22  41  64  94 124 175 217 271 338 402
#     4  11  23  41  65  94 131 169 222 281 330 404
#     4  10  21  43  66  88 129 174 219 278 333 409
#     4  10  21  44  64  93 136 168 222 274 330 412
#     4  11  22  42  68  92 131 175 227 278 343 408
#     4  11  21  41  64  90 136 163 217 283 323 395
#     4  11  22  41  70  91 130 182 210 277 349 393
#     4   9  22  41  61  94 129 166 218 272 330 389
#
# _framework density 26.339915000000001
#
# number of rings (size 3 to 8) (size 9 to 14) (size 15 to 20)
#    0.000    1.500    6.250    0.000    3.500    3.000 
#    2.250    0.000    0.000    0.000    0.000    0.000 
#    0.000    0.000    0.000    0.000    0.000    0.000 
#
# Total GULP energy -179017.801554 kJ/mol
# GULP energy per Si atom -5594.306299 kJ/mol
# Density = 2.627996 g / cm^3
# Si number density = 26.339915 Si / 1000 Ang^3
#
#
#
# Elastic Constant Matrix: (Units=GPa)
#
#
# Indices 1 2 3 4 5 6 
#
# 1 48.2701 28.4305 15.3214 0.0000 0.0000 0.0000
# 2 28.4305 129.2016 27.6739 0.0000 0.0000 0.0000
# 3 15.3214 27.6739 112.0154 0.0000 0.0000 0.0000
# 4 0.0000 0.0000 0.0000 42.2509 0.0000 0.0000
# 5 0.0000 0.0000 0.0000 0.0000 35.8934 0.0000
# 6 0.0000 0.0000 0.0000 0.0000 0.0000 11.7304
#
#
#
# Elastic Compliance Matrix: (Units=1/GPa)
#
#
# Indices 1 2 3 4 5 6 
#
# 1 0.024266 -0.004887 -0.002112 0.000000 0.000000 0.000000
# 2 -0.004887 0.009157 -0.001594 0.000000 0.000000 0.000000
# 3 -0.002112 -0.001594 0.009610 0.000000 0.000000 0.000000
# 4 0.000000 0.000000 0.000000 0.023668 0.000000 0.000000
# 5 0.000000 0.000000 0.000000 0.000000 0.027860 0.000000
# 6 0.000000 0.000000 0.000000 0.000000 0.000000 0.085249
#
#
# Mechanical properties :
#
#
# Convention : Reuss Voigt Hill
#
# Bulk Modulus (GPa) = 38.68936 48.03765 43.36351
# Shear Modulus (GPa) = 24.31786 32.51235 28.41510
#
# Velocity S-wave (km/s) = 3.04177 3.51713 3.28805
# Velocity P-wave (km/s) = 5.20162 5.89667 5.56002
#
# Compressibility (1/GPa) = 0.02584690
#
# Stress axis : x y z
#
# Youngs Moduli (GPa) = 41.21062 109.21036 104.05929
#
# Poissons Ratio (x) = 0.53374 0.21973
# Poissons Ratio (y) = 0.20141 0.16584
# Poissons Ratio (z) = 0.08702 0.17405
#
# Static dielectric constant tensor:
#      x y z
#    x 2.134090 0.000000 0.000000 
#    y 0.000000 2.009340 0.000000 
#    z 0.000000 0.000000 2.146300 
# 
# From -- ./inp_files/6847.got.cif
#   From: 2010.05.17/outbox.cif.g08.bks.cpg/sg33_4_cif.got.tgz:6847.got - 2010.06.03 17:15:25.
