data_PCOD9345557
_publ_section_title
;
Structure prediction by ZEFSAII (Michael W. Deem and Ramdas Pophale) SiO2 
 PCOD9345557
Probable space group: P N A 21
;
_chemical_formula_sum "Si O2"
_cell_formula_units_Z 32
_cell_length_a 23.456848
_cell_length_b 5.139120
_cell_length_c 11.327556
_cell_angle_alpha 90.000000
_cell_angle_beta 90.000000
_cell_angle_gamma 90.000000
_cell_volume 1365.509199
_symmetry_space_group_name_H-M "P N A 21"
_symmetry_group_IT_number 33
_symmetry_cell_setting 'orthorhombic'
loop_
_space_group_symop_operation_xyz
x,y,z
-x,-y,1/2+z
1/2-x,1/2+y,1/2+z
1/2+x,1/2-y,z
loop_
_atom_site_type_symbol
_atom_site_label
_atom_site_fract_x
_atom_site_fract_y
_atom_site_fract_z
Si Si1 0.706734 0.919401 0.642050
Si Si2 0.824917 0.133260 0.609882
Si Si3 0.165399 0.550465 0.888398
Si Si4 0.562440 0.615937 0.786442
Si Si5 0.456937 0.941799 0.717416
Si Si6 0.421644 0.684034 0.489646
Si Si7 0.104082 0.936994 0.315782
Si Si8 0.134409 0.076447 0.581510
O O1 0.770036 0.954642 0.593261
O O2 0.709684 0.973896 0.783150
O O3 0.663497 0.138550 0.589251
O O4 0.681949 0.634405 0.620452
O O5 0.814944 0.367909 0.518815
O O6 0.838686 0.165844 0.747958
O O7 0.885236 0.012889 0.568837
O O8 0.119789 0.756551 0.837744
O O9 0.126759 0.300336 0.905264
O O10 0.519721 0.841282 0.747299
O O11 0.537200 0.462738 0.899604
O O12 0.581644 0.448152 0.673459
O O13 0.447342 0.901762 0.576214
O O14 0.415214 0.725207 0.774750
O O15 0.441084 0.219443 0.771230
O O16 0.114374 0.976006 0.454021
#
# Coordination Sequence:
#
# PCOD9345557 Si02
#       8
#     4   4   4   4   4   4   4   4
#     4  11  25  41  68  98 125 180 220 263 343 390
#     4  10  24  41  66  95 130 174 220 273 330 397
#     4  10  21  44  66  93 135 167 225 278 319 400
#     4  10  24  41  67  96 130 174 222 272 329 398
#     4  11  25  41  69  98 125 182 217 262 343 391
#     4  10  21  44  64  94 133 169 222 276 319 399
#     4  11  25  45  62  99 137 166 218 278 324 393
#     4  11  25  45  62  99 137 166 218 280 325 390
#
# _framework density 23.434481000000002
#
# number of rings (size 3 to 8) (size 9 to 14) (size 15 to 20)
#    0.000    1.500    2.500    0.750    7.000    0.000 
#    0.000    0.000    0.000    0.000    0.000    0.000 
#    0.000    0.000    0.000    0.000    0.000    0.000 
#
# Total GULP energy -178622.718570 kJ/mol
# GULP energy per Si atom -5581.959955 kJ/mol
# Density = 2.338114 g / cm^3
# Si number density = 23.434481 Si / 1000 Ang^3
#
#
#
# Elastic Constant Matrix: (Units=GPa)
#
#
# Indices 1 2 3 4 5 6 
#
# 1 52.1980 2.9657 17.9865 0.0000 0.0000 0.0000
# 2 2.9657 73.0688 6.5778 0.0000 0.0000 0.0000
# 3 17.9865 6.5778 120.9465 0.0000 0.0000 0.0000
# 4 0.0000 0.0000 0.0000 34.2275 0.0000 0.0000
# 5 0.0000 0.0000 0.0000 0.0000 18.4346 0.0000
# 6 0.0000 0.0000 0.0000 0.0000 0.0000 25.0497
#
#
#
# Elastic Compliance Matrix: (Units=1/GPa)
#
#
# Indices 1 2 3 4 5 6 
#
# 1 0.020215 -0.000553 -0.002976 0.000000 0.000000 0.000000
# 2 -0.000553 0.013768 -0.000667 0.000000 0.000000 0.000000
# 3 -0.002976 -0.000667 0.008747 0.000000 0.000000 0.000000
# 4 0.000000 0.000000 0.000000 0.029216 0.000000 0.000000
# 5 0.000000 0.000000 0.000000 0.000000 0.054246 0.000000
# 6 0.000000 0.000000 0.000000 0.000000 0.000000 0.039921
#
#
# Mechanical properties :
#
#
# Convention : Reuss Voigt Hill
#
# Bulk Modulus (GPa) = 29.12123 33.47481 31.29802
# Shear Modulus (GPa) = 26.88900 30.12125 28.50513
#
# Velocity S-wave (km/s) = 3.39102 3.58905 3.49144
# Velocity P-wave (km/s) = 5.27121 5.61164 5.44409
#
# Compressibility (1/GPa) = 0.03433920
#
# Stress axis : x y z
#
# Youngs Moduli (GPa) = 49.46882 72.63124 114.32531
#
# Poissons Ratio (x) = 0.04013 0.34025
# Poissons Ratio (y) = 0.02733 0.07621
# Poissons Ratio (z) = 0.14723 0.04842
#
# Static dielectric constant tensor:
#      x y z
#    x 1.892710 0.000000 0.000000 
#    y 0.000000 1.888310 0.000000 
#    z 0.000000 0.000000 2.001770 
# 
# From -- ./inp_files/7199.got.cif
#   From: 2010.05.17/outbox.cif.g08.bks.cpg/sg33_4_cif.got.tgz:7199.got - 2010.06.03 17:15:25.
