data_PCOD9345792
_publ_section_title
;
Structure prediction by ZEFSAII (Michael W. Deem and Ramdas Pophale) SiO2 
 PCOD9345792
Probable space group: P N A 21
;
_chemical_formula_sum "Si O2"
_cell_formula_units_Z 32
_cell_length_a 12.868280
_cell_length_b 17.323917
_cell_length_c 7.219328
_cell_angle_alpha 90.000000
_cell_angle_beta 90.000000
_cell_angle_gamma 90.000000
_cell_volume 1609.397677
_symmetry_space_group_name_H-M "P N A 21"
_symmetry_group_IT_number 33
_symmetry_cell_setting 'orthorhombic'
loop_
_space_group_symop_operation_xyz
x,y,z
-x,-y,1/2+z
1/2-x,1/2+y,1/2+z
1/2+x,1/2-y,z
loop_
_atom_site_type_symbol
_atom_site_label
_atom_site_fract_x
_atom_site_fract_y
_atom_site_fract_z
Si Si1 0.776296 0.707626 0.013890
Si Si2 0.393465 0.945785 0.008626
Si Si3 0.110987 0.851739 0.747036
Si Si4 0.761964 0.998274 0.186465
Si Si5 0.271439 0.665205 0.331381
Si Si6 0.394113 0.194199 0.094110
Si Si7 0.624594 0.940289 0.853460
Si Si8 0.906012 0.774158 0.673307
O O1 0.846474 0.635414 0.075728
O O2 0.768244 0.772034 0.170086
O O3 0.667279 0.672868 0.938285
O O4 0.835664 0.743479 0.837696
O O5 0.381387 0.007159 0.171592
O O6 0.513382 0.939320 0.953291
O O7 0.326353 0.970970 0.828875
O O8 0.143495 0.783032 0.605356
O O9 0.987291 0.838519 0.750165
O O10 0.153632 0.933499 0.681443
O O11 0.807252 0.918466 0.265126
O O12 0.709090 0.974361 0.993338
O O13 0.154625 0.657160 0.413104
O O14 0.341825 0.693374 0.501818
O O15 0.356864 0.145582 0.272197
O O16 0.518063 0.204208 0.106334
#
# Coordination Sequence:
#
# PCOD9345792 Si02
#       8
#     4   4   4   4   4   4   4   4
#     4  11  23  40  68  96 123 168 218 264 322 389
#     4  11  23  37  64  99 126 164 211 259 336 386
#     4   9  22  46  63  88 132 169 204 271 317 376
#     4  11  25  40  62  96 132 164 217 263 326 383
#     4  12  25  41  67  98 123 170 220 264 318 391
#     4  10  22  42  67  89 131 166 211 268 324 374
#     4  12  22  40  64  97 132 166 206 276 327 388
#     4  10  22  44  65  87 127 171 217 259 316 383
#
# _framework density 19.883213999999999
#
# number of rings (size 3 to 8) (size 9 to 14) (size 15 to 20)
#    0.750    0.500    5.000    0.750    1.750    3.000 
#    2.250    0.000    0.000    0.000    0.000    0.000 
#    0.000    0.000    0.000    0.000    0.000    0.000 
#
# Total GULP energy -178570.559644 kJ/mol
# GULP energy per Si atom -5580.329989 kJ/mol
# Density = 1.983796 g / cm^3
# Si number density = 19.883214 Si / 1000 Ang^3
#
#
#
# Elastic Constant Matrix: (Units=GPa)
#
#
# Indices 1 2 3 4 5 6 
#
# 1 64.3745 7.0295 34.0329 0.0000 0.0000 0.0000
# 2 7.0295 111.2118 38.1258 0.0000 0.0000 0.0000
# 3 34.0329 38.1258 68.0624 0.0000 0.0000 0.0000
# 4 0.0000 0.0000 0.0000 38.6276 0.0000 0.0000
# 5 0.0000 0.0000 0.0000 0.0000 24.1456 0.0000
# 6 0.0000 0.0000 0.0000 0.0000 0.0000 24.0483
#
#
#
# Elastic Compliance Matrix: (Units=1/GPa)
#
#
# Indices 1 2 3 4 5 6 
#
# 1 0.021860 0.002928 -0.012571 0.000000 0.000000 0.000000
# 2 0.002928 0.011521 -0.007918 0.000000 0.000000 0.000000
# 3 -0.012571 -0.007918 0.025413 0.000000 0.000000 0.000000
# 4 0.000000 0.000000 0.000000 0.025888 0.000000 0.000000
# 5 0.000000 0.000000 0.000000 0.000000 0.041415 0.000000
# 6 0.000000 0.000000 0.000000 0.000000 0.000000 0.041583
#
#
# Mechanical properties :
#
#
# Convention : Reuss Voigt Hill
#
# Bulk Modulus (GPa) = 42.24144 44.66944 43.45544
# Shear Modulus (GPa) = 23.73119 28.32833 26.02976
#
# Velocity S-wave (km/s) = 3.45850 3.77866 3.62212
# Velocity P-wave (km/s) = 6.10239 6.44611 6.27661
#
# Compressibility (1/GPa) = 0.02367343
#
# Stress axis : x y z
#
# Youngs Moduli (GPa) = 45.74539 86.79707 39.34969
#
# Poissons Ratio (x) = -0.25412 0.49465
# Poissons Ratio (y) = -0.13393 0.31156
# Poissons Ratio (z) = 0.57505 0.68723
#
# Static dielectric constant tensor:
#      x y z
#    x 1.717210 0.000000 0.000000 
#    y 0.000000 1.723630 0.000000 
#    z 0.000000 0.000000 1.664240 
# 
# From -- ./inp_files/1494.got.cif
#   From: 2010.05.17/outbox.cif.g08.bks.cpg/sg33_1_cif.got.tgz:1494.got - 2010.06.03 17:15:25.
