data_PCOD9345845
_publ_section_title
;
Structure prediction by ZEFSAII (Michael W. Deem and Ramdas Pophale) SiO2 
 PCOD9345845
Probable space group: P N A 21
;
_chemical_formula_sum "Si O2"
_cell_formula_units_Z 28
_cell_length_a 7.856875
_cell_length_b 10.113119
_cell_length_c 12.726592
_cell_angle_alpha 90.000000
_cell_angle_beta 90.000000
_cell_angle_gamma 90.000000
_cell_volume 1011.223335
_symmetry_space_group_name_H-M "P N A 21"
_symmetry_group_IT_number 33
_symmetry_cell_setting 'orthorhombic'
loop_
_space_group_symop_operation_xyz
x,y,z
-x,-y,1/2+z
1/2-x,1/2+y,1/2+z
1/2+x,1/2-y,z
loop_
_atom_site_type_symbol
_atom_site_label
_atom_site_fract_x
_atom_site_fract_y
_atom_site_fract_z
Si Si1 0.077917 0.430492 0.570680
Si Si2 0.039037 0.155876 0.693528
Si Si3 0.072278 0.673287 0.705170
Si Si4 0.809562 0.694163 0.866000
Si Si5 0.821923 0.296248 0.843889
Si Si6 0.039761 0.212889 0.989721
Si Si7 0.317400 0.536556 0.994520
O O1 0.056694 0.300059 0.640737
O O2 0.145622 0.546851 0.645204
O O3 0.200099 0.387395 0.473946
O O4 0.881680 0.460391 0.530664
O O5 0.199040 0.121682 0.767852
O O6 0.060573 0.063197 0.594531
O O7 0.872455 0.174600 0.764300
O O8 0.177876 0.779899 0.771885
O O9 0.956405 0.623060 0.800306
O O10 0.973791 0.744231 0.609179
O O11 0.843333 0.844264 0.910847
O O12 0.726326 0.325001 0.955456
O O13 0.894762 0.104653 0.963044
O O14 0.009652 0.319338 0.893360
#
# Coordination Sequence:
#
# PCOD9345845 Si02
#       7
#     4   4   4   4   4   4   4
#     4  11  24  46  77 108 159 206 270 327 405 476
#     4  10  22  43  73 106 145 196 263 315 393 467
#     4  12  26  50  74 108 158 211 258 335 403 484
#     4  11  26  49  77 114 152 208 271 331 405 476
#     4  10  22  43  68 102 147 191 246 322 371 472
#     4  11  25  45  68 107 154 195 264 311 401 475
#     4  11  23  46  73 113 155 207 262 333 386 494
#
# _framework density 27.689236000000001
#
# number of rings (size 3 to 8) (size 9 to 14) (size 15 to 20)
#    0.000    1.143    2.857    2.571    2.000    4.571 
#   12.857    0.000    0.000    0.000    0.000    0.000 
#    0.000    0.000    0.000    0.000    0.000    0.000 
#
# Total GULP energy -156034.872821 kJ/mol
# GULP energy per Si atom -5572.674029 kJ/mol
# Density = 2.762621 g / cm^3
# Si number density = 27.689236 Si / 1000 Ang^3
#
#
#
# Elastic Constant Matrix: (Units=GPa)
#
#
# Indices 1 2 3 4 5 6 
#
# 1 48.0812 16.2605 35.9745 0.0000 0.0000 0.0000
# 2 16.2605 109.2360 33.5104 0.0000 0.0000 0.0000
# 3 35.9745 33.5104 198.9214 0.0000 0.0000 0.0000
# 4 0.0000 0.0000 0.0000 29.9512 0.0000 0.0000
# 5 0.0000 0.0000 0.0000 0.0000 55.6760 0.0000
# 6 0.0000 0.0000 0.0000 0.0000 0.0000 29.4224
#
#
#
# Elastic Compliance Matrix: (Units=1/GPa)
#
#
# Indices 1 2 3 4 5 6 
#
# 1 0.024648 -0.002427 -0.004049 0.000000 0.000000 0.000000
# 2 -0.002427 0.009892 -0.001228 0.000000 0.000000 0.000000
# 3 -0.004049 -0.001228 0.005966 0.000000 0.000000 0.000000
# 4 0.000000 0.000000 0.000000 0.033388 0.000000 0.000000
# 5 0.000000 0.000000 0.000000 0.000000 0.017961 0.000000
# 6 0.000000 0.000000 0.000000 0.000000 0.000000 0.033988
#
#
# Mechanical properties :
#
#
# Convention : Reuss Voigt Hill
#
# Bulk Modulus (GPa) = 39.84053 58.63659 49.23856
# Shear Modulus (GPa) = 33.41882 41.04280 37.23081
#
# Velocity S-wave (km/s) = 3.47785 3.85420 3.67085
# Velocity P-wave (km/s) = 5.52693 6.40540 5.98231
#
# Compressibility (1/GPa) = 0.02510007
#
# Stress axis : x y z
#
# Youngs Moduli (GPa) = 40.57095 101.08824 167.61356
#
# Poissons Ratio (x) = 0.24534 0.67862
# Poissons Ratio (y) = 0.09847 0.20575
# Poissons Ratio (z) = 0.16426 0.12409
#
# Static dielectric constant tensor:
#      x y z
#    x 2.318900 0.000000 0.000000 
#    y 0.000000 2.404670 0.000000 
#    z 0.000000 0.000000 2.268560 
# 
# From -- ./inp_files/5840.got.cif
#   From: 2010.05.17/outbox.cif.g08.bks.cpg/sg33_3_cif.got.tgz:5840.got - 2010.06.03 17:15:25.
