data_PCOD9345148
_publ_section_title
;
Structure prediction by ZEFSAII (Michael W. Deem and Ramdas Pophale) SiO2 
 PCOD9345148
Probable space group: P N A 21
;
_chemical_formula_sum "Si O2"
_cell_formula_units_Z 28
_cell_length_a 5.633813
_cell_length_b 25.824857
_cell_length_c 7.929668
_cell_angle_alpha 90.000000
_cell_angle_beta 90.000000
_cell_angle_gamma 90.000000
_cell_volume 1153.706548
_symmetry_space_group_name_H-M "P N A 21"
_symmetry_group_IT_number 33
_symmetry_cell_setting 'orthorhombic'
loop_
_space_group_symop_operation_xyz
x,y,z
-x,-y,1/2+z
1/2-x,1/2+y,1/2+z
1/2+x,1/2-y,z
loop_
_atom_site_type_symbol
_atom_site_label
_atom_site_fract_x
_atom_site_fract_y
_atom_site_fract_z
Si Si1 0.525626 0.993203 0.178560
Si Si2 0.627390 0.509041 0.970467
Si Si3 0.045716 0.227965 0.386467
Si Si4 0.296473 0.417571 0.000187
Si Si5 0.410862 0.382467 0.368080
Si Si6 0.448191 0.233707 0.767008
Si Si7 0.952779 0.621698 0.175614
O O1 0.591477 0.932707 0.161051
O O2 0.655855 0.014869 0.341189
O O3 0.611501 0.036500 0.045932
O O4 0.242249 0.989472 0.156744
O O5 0.488213 0.561507 0.926633
O O6 0.523630 0.452381 0.959067
O O7 0.283152 0.255942 0.316838
O O8 0.002163 0.240754 0.584088
O O9 0.082788 0.166451 0.374196
O O10 0.330230 0.386739 0.173622
O O11 0.217321 0.386174 0.838340
O O12 0.200456 0.371549 0.504324
O O13 0.209417 0.256947 0.850153
O O14 0.407944 0.173245 0.724815
#
# Coordination Sequence:
#
# PCOD9345148 Si02
#       7
#     4   4   4   4   4   4   4
#     4  10  22  41  61  93 138 176 221 277 339 406
#     4  10  23  41  63  97 139 178 223 281 334 419
#     4  10  20  43  67 100 133 175 239 288 344 421
#     4  11  25  43  62 104 139 173 241 271 343 428
#     4  10  23  41  65  98 131 187 219 289 355 403
#     4  10  21  40  69 100 132 175 239 287 346 420
#     4  11  22  43  69  96 134 182 224 285 353 407
#
# _framework density 24.269603
#
# number of rings (size 3 to 8) (size 9 to 14) (size 15 to 20)
#    0.000    1.714    4.286    0.000    8.000    3.429 
#    5.143    1.429    0.000    0.000    0.000    0.000 
#    0.000    0.000    0.000    0.000    0.000    0.000 
#
# Total GULP energy -156068.718630 kJ/mol
# GULP energy per Si atom -5573.882808 kJ/mol
# Density = 2.421436 g / cm^3
# Si number density = 24.269603 Si / 1000 Ang^3
#
#
#
# Elastic Constant Matrix: (Units=GPa)
#
#
# Indices 1 2 3 4 5 6 
#
# 1 84.3521 12.8760 24.7229 0.0000 0.0000 0.0000
# 2 12.8760 135.2670 4.7513 0.0000 0.0000 0.0000
# 3 24.7229 4.7513 81.7263 0.0000 0.0000 0.0000
# 4 0.0000 0.0000 0.0000 23.2449 0.0000 0.0000
# 5 0.0000 0.0000 0.0000 0.0000 64.9113 0.0000
# 6 0.0000 0.0000 0.0000 0.0000 0.0000 -13.3305
#
#
#
# Elastic Compliance Matrix: (Units=1/GPa)
#
#
# Indices 1 2 3 4 5 6 
#
# 1 0.013175 -0.001116 -0.003921 0.000000 0.000000 0.000000
# 2 -0.001116 0.007503 -0.000098 0.000000 0.000000 0.000000
# 3 -0.003921 -0.000098 0.013428 0.000000 0.000000 0.000000
# 4 0.000000 0.000000 0.000000 0.043020 0.000000 0.000000
# 5 0.000000 0.000000 0.000000 0.000000 0.015406 0.000000
# 6 0.000000 0.000000 0.000000 0.000000 0.000000 -0.075016
#
#
# Mechanical properties :
#
#
# Convention : Reuss Voigt Hill
#
# Bulk Modulus (GPa) = 41.95677 42.89398 42.42537
# Shear Modulus (GPa) = 139.93902 32.23149 86.08526
#
# Velocity S-wave (km/s) = 7.60167 3.64821 5.96216
# Velocity P-wave (km/s) = 9.71455 5.95468 8.05701
#
# Compressibility (1/GPa) = 0.02383405
#
# Stress axis : x y z
#
# Youngs Moduli (GPa) = 75.90401 133.28871 74.47311
#
# Poissons Ratio (x) = 0.14880 0.29197
# Poissons Ratio (y) = 0.08474 0.00733
# Poissons Ratio (z) = 0.29758 0.01312
#
# Static dielectric constant tensor:
#      x y z
#    x 1.966730 0.000000 0.000000 
#    y 0.000000 1.890960 0.000000 
#    z 0.000000 0.000000 2.006210 
# 
# From -- ./inp_files/2805.got.cif
#   From: 2010.05.17/outbox.cif.g08.bks.cpg/sg33_2_cif.got.tgz:2805.got - 2010.06.03 17:15:25.
