data_PCOD9345478
_publ_section_title
;
Structure prediction by ZEFSAII (Michael W. Deem and Ramdas Pophale) SiO2 
 PCOD9345478
Probable space group: P N A 21
;
_chemical_formula_sum "Si O2"
_cell_formula_units_Z 28
_cell_length_a 9.534630
_cell_length_b 22.170504
_cell_length_c 5.625664
_cell_angle_alpha 90.000000
_cell_angle_beta 90.000000
_cell_angle_gamma 90.000000
_cell_volume 1189.195344
_symmetry_space_group_name_H-M "P N A 21"
_symmetry_group_IT_number 33
_symmetry_cell_setting 'orthorhombic'
loop_
_space_group_symop_operation_xyz
x,y,z
-x,-y,1/2+z
1/2-x,1/2+y,1/2+z
1/2+x,1/2-y,z
loop_
_atom_site_type_symbol
_atom_site_label
_atom_site_fract_x
_atom_site_fract_y
_atom_site_fract_z
Si Si1 0.785278 0.417184 0.525870
Si Si2 0.526913 0.851088 0.702331
Si Si3 0.061851 0.068888 0.148228
Si Si4 0.288631 0.677789 0.411296
Si Si5 0.769635 0.657125 0.941034
Si Si6 0.277249 0.475251 0.324289
Si Si7 0.277853 0.812736 0.442510
O O1 0.898952 0.408542 0.319676
O O2 0.631842 0.424066 0.406949
O O3 0.774875 0.356084 0.681088
O O4 0.813676 0.476087 0.682419
O O5 0.659169 0.817314 0.595360
O O6 0.429415 0.818968 0.901207
O O7 0.410451 0.857433 0.494191
O O8 0.900772 0.051316 0.157635
O O9 0.099387 0.130099 0.010423
O O10 0.145215 0.014952 0.022153
O O11 0.339109 0.745962 0.397107
O O12 0.788288 0.585017 0.928395
O O13 0.699060 0.680820 0.696682
O O14 0.704860 0.672198 0.194016
#
# Coordination Sequence:
#
# PCOD9345478 Si02
#       7
#     4   4   4   4   4   4   4
#     4  10  21  41  68  92 137 180 226 282 343 406
#     4   9  22  44  65  96 135 172 235 270 342 405
#     4  10  22  38  66  97 132 180 226 289 335 418
#     4  10  22  42  68  98 134 183 222 279 354 399
#     4  10  25  44  69  98 141 173 230 281 344 406
#     4  11  22  42  66  98 139 176 236 286 349 407
#     4  10  24  45  66 101 140 176 227 285 333 421
#
# _framework density 23.545335000000001
#
# number of rings (size 3 to 8) (size 9 to 14) (size 15 to 20)
#    0.857    1.143    1.429    0.857    6.000    1.143 
#   10.286    0.000    0.000    0.000    0.000    0.000 
#    0.000    0.000    0.000    0.000    0.000    0.000 
#
# Total GULP energy -155970.418753 kJ/mol
# GULP energy per Si atom -5570.372098 kJ/mol
# Density = 2.349174 g / cm^3
# Si number density = 23.545335 Si / 1000 Ang^3
#
#
#
# Elastic Constant Matrix: (Units=GPa)
#
#
# Indices 1 2 3 4 5 6 
#
# 1 41.1711 -2.0829 7.1280 0.0000 0.0000 0.0000
# 2 -2.0829 118.6621 49.8372 0.0000 0.0000 0.0000
# 3 7.1280 49.8372 120.3560 0.0000 0.0000 0.0000
# 4 0.0000 0.0000 0.0000 8.5058 0.0000 0.0000
# 5 0.0000 0.0000 0.0000 0.0000 17.6902 0.0000
# 6 0.0000 0.0000 0.0000 0.0000 0.0000 -7.0059
#
#
#
# Elastic Compliance Matrix: (Units=1/GPa)
#
#
# Indices 1 2 3 4 5 6 
#
# 1 0.024697 0.001268 -0.001988 0.000000 0.000000 0.000000
# 2 0.001268 0.010267 -0.004326 0.000000 0.000000 0.000000
# 3 -0.001988 -0.004326 0.010218 0.000000 0.000000 0.000000
# 4 0.000000 0.000000 0.000000 0.117567 0.000000 0.000000
# 5 0.000000 0.000000 0.000000 0.000000 0.056529 0.000000
# 6 0.000000 0.000000 0.000000 0.000000 0.000000 -0.142736
#
#
# Mechanical properties :
#
#
# Convention : Reuss Voigt Hill
#
# Bulk Modulus (GPa) = 28.49810 43.32820 35.91315
# Shear Modulus (GPa) = 50.84922 18.85845 34.85384
#
# Velocity S-wave (km/s) = 4.65222 2.83316 3.85162
# Velocity P-wave (km/s) = 6.40214 5.39855 5.92164
#
# Compressibility (1/GPa) = 0.03509006
#
# Stress axis : x y z
#
# Youngs Moduli (GPa) = 40.49036 97.40345 97.86783
#
# Poissons Ratio (x) = -0.12355 0.19455
# Poissons Ratio (y) = -0.05136 0.42341
# Poissons Ratio (z) = 0.08049 0.42140
#
# Static dielectric constant tensor:
#      x y z
#    x 1.904970 0.000000 0.000000 
#    y 0.000000 1.914540 0.000000 
#    z 0.000000 0.000000 1.977530 
# 
# From -- ./inp_files/998.got.cif
#   From: 2010.05.17/outbox.cif.g08.bks.cpg/sg33_1_cif.got.tgz:998.got - 2010.06.03 17:15:25.
