data_PCOD9345038
_publ_section_title
;
Structure prediction by ZEFSAII (Michael W. Deem and Ramdas Pophale) SiO2 
 PCOD9345038
Probable space group: P N A 21
;
_chemical_formula_sum "Si O2"
_cell_formula_units_Z 20
_cell_length_a 7.751716
_cell_length_b 17.564602
_cell_length_c 5.471195
_cell_angle_alpha 90.000000
_cell_angle_beta 90.000000
_cell_angle_gamma 90.000000
_cell_volume 744.934967
_symmetry_space_group_name_H-M "P N A 21"
_symmetry_group_IT_number 33
_symmetry_cell_setting 'orthorhombic'
loop_
_space_group_symop_operation_xyz
x,y,z
-x,-y,1/2+z
1/2-x,1/2+y,1/2+z
1/2+x,1/2-y,z
loop_
_atom_site_type_symbol
_atom_site_label
_atom_site_fract_x
_atom_site_fract_y
_atom_site_fract_z
Si Si1 0.366547 0.962157 0.381500
Si Si2 0.403593 0.522804 0.572271
Si Si3 0.090511 0.627180 0.098293
Si Si4 0.242158 0.775374 0.052725
Si Si5 0.105753 0.843153 0.559313
O O1 0.264649 0.971844 0.124040
O O2 0.538367 0.912458 0.354052
O O3 0.245567 0.911987 0.552254
O O4 0.385037 0.049974 0.448076
O O5 0.489657 0.497509 0.319409
O O6 0.421133 0.614516 0.563220
O O7 0.924012 0.680309 0.044882
O O8 0.249068 0.684015 0.075242
O O9 0.145303 0.800737 0.304035
O O10 0.143988 0.795696 0.801326
#
# Coordination Sequence:
#
# PCOD9345038 Si02
#       5
#     4   4   4   4   4
#     4  10  23  44  72 105 141 191 245 289 347 432
#     4  10  20  39  70 106 134 180 236 294 345 411
#     4  11  25  47  70 109 141 193 233 299 351 428
#     4  11  26  45  71 100 148 182 234 286 372 407
#     4  10  22  45  71 104 138 184 232 294 345 428
#
# _framework density 26.847982999999999
#
# number of rings (size 3 to 8) (size 9 to 14) (size 15 to 20)
#    0.000    1.600    0.000    4.800    2.800    6.400 
#    3.600    0.000    0.000    0.000    0.000    0.000 
#    0.000    0.000    0.000    0.000    0.000    0.000 
#
# Total GULP energy -111742.767790 kJ/mol
# GULP energy per Si atom -5587.138390 kJ/mol
# Density = 2.678688 g / cm^3
# Si number density = 26.847983 Si / 1000 Ang^3
#
#
#
# Elastic Constant Matrix: (Units=GPa)
#
#
# Indices 1 2 3 4 5 6 
#
# 1 50.7731 44.4781 30.4044 0.0000 0.0000 0.0000
# 2 44.4781 204.9782 56.6366 0.0000 0.0000 0.0000
# 3 30.4044 56.6366 173.6118 0.0000 0.0000 0.0000
# 4 0.0000 0.0000 0.0000 57.1702 0.0000 0.0000
# 5 0.0000 0.0000 0.0000 0.0000 44.7644 0.0000
# 6 0.0000 0.0000 0.0000 0.0000 0.0000 49.6203
#
#
#
# Elastic Compliance Matrix: (Units=1/GPa)
#
#
# Indices 1 2 3 4 5 6 
#
# 1 0.025612 -0.004746 -0.002937 0.000000 0.000000 0.000000
# 2 -0.004746 0.006241 -0.001205 0.000000 0.000000 0.000000
# 3 -0.002937 -0.001205 0.006667 0.000000 0.000000 0.000000
# 4 0.000000 0.000000 0.000000 0.017492 0.000000 0.000000
# 5 0.000000 0.000000 0.000000 0.000000 0.022339 0.000000
# 6 0.000000 0.000000 0.000000 0.000000 0.000000 0.020153
#
#
# Mechanical properties :
#
#
# Convention : Reuss Voigt Hill
#
# Bulk Modulus (GPa) = 48.20538 76.93349 62.56943
# Shear Modulus (GPa) = 40.58599 50.16726 45.37662
#
# Velocity S-wave (km/s) = 3.89227 4.32738 4.11558
# Velocity P-wave (km/s) = 6.18010 7.32706 6.77788
#
# Compressibility (1/GPa) = 0.02074457
#
# Stress axis : x y z
#
# Youngs Moduli (GPa) = 39.04448 160.22257 149.98285
#
# Poissons Ratio (x) = 0.76041 0.44052
# Poissons Ratio (y) = 0.18530 0.18072
# Poissons Ratio (z) = 0.11468 0.19306
#
# Static dielectric constant tensor:
#      x y z
#    x 2.466190 0.000000 0.000000 
#    y 0.000000 2.095200 0.000000 
#    z 0.000000 0.000000 2.130220 
# 
# From -- ./inp_files/354.got.cif
#   From: 2010.05.17/outbox.cif.g08.bks.cpg/sg33_1_cif.got.tgz:354.got - 2010.06.03 17:15:25.
