data_PCOD9345895
_publ_section_title
;
Structure prediction by ZEFSAII (Michael W. Deem and Ramdas Pophale) SiO2 
 PCOD9345895
Probable space group: P N A 21
;
_chemical_formula_sum "Si O2"
_cell_formula_units_Z 20
_cell_length_a 25.393486
_cell_length_b 5.593152
_cell_length_c 5.010996
_cell_angle_alpha 90.000000
_cell_angle_beta 90.000000
_cell_angle_gamma 90.000000
_cell_volume 711.709893
_symmetry_space_group_name_H-M "P N A 21"
_symmetry_group_IT_number 33
_symmetry_cell_setting 'orthorhombic'
loop_
_space_group_symop_operation_xyz
x,y,z
-x,-y,1/2+z
1/2-x,1/2+y,1/2+z
1/2+x,1/2-y,z
loop_
_atom_site_type_symbol
_atom_site_label
_atom_site_fract_x
_atom_site_fract_y
_atom_site_fract_z
Si Si1 0.983676 0.135212 0.768150
Si Si2 0.182424 0.353122 0.189192
Si Si3 0.714659 0.410751 0.682282
Si Si4 0.886072 0.142854 0.084677
Si Si5 0.916477 0.633844 0.368741
O O1 0.020442 0.345193 0.885308
O O2 0.921443 0.148584 0.817365
O O3 0.997832 0.080647 0.464412
O O4 0.202325 0.142998 0.989762
O O5 0.224257 0.556760 0.117441
O O6 0.120974 0.374855 0.127982
O O7 0.193704 0.300466 0.495220
O O8 0.676972 0.624890 0.579343
O O9 0.902052 0.388431 0.224419
O O10 0.901770 0.889347 0.227435
#
# Coordination Sequence:
#
# PCOD9345895 Si02
#       5
#     4   4   4   4   4
#     4  10  22  44  68  98 132 174 220 274 332 396
#     4  11  23  42  66  99 134 176 222 275 332 396
#     4  11  23  42  66  99 134 176 222 275 332 396
#     4  10  23  43  67  97 133 174 221 273 331 395
#     4  10  23  43  67  97 133 174 221 273 331 395
#
# _framework density 28.101341000000001
#
# number of rings (size 3 to 8) (size 9 to 14) (size 15 to 20)
#    0.000    1.600    0.000    3.600    0.000    9.600 
#    0.000   18.000    0.000    0.000    0.000    0.000 
#    0.000    0.000    0.000    0.000    0.000    0.000 
#
# Total GULP energy -111900.021618 kJ/mol
# GULP energy per Si atom -5595.001081 kJ/mol
# Density = 2.803738 g / cm^3
# Si number density = 28.101341 Si / 1000 Ang^3
#
#
#
# Elastic Constant Matrix: (Units=GPa)
#
#
# Indices 1 2 3 4 5 6 
#
# 1 59.1999 46.3464 47.7008 0.0000 0.0000 0.0000
# 2 46.3464 153.8881 44.1428 0.0000 0.0000 0.0000
# 3 47.7008 44.1428 74.0976 0.0000 0.0000 0.0000
# 4 0.0000 0.0000 0.0000 36.7188 0.0000 0.0000
# 5 0.0000 0.0000 0.0000 0.0000 49.1220 0.0000
# 6 0.0000 0.0000 0.0000 0.0000 0.0000 42.8905
#
#
#
# Elastic Compliance Matrix: (Units=1/GPa)
#
#
# Indices 1 2 3 4 5 6 
#
# 1 0.038502 -0.005410 -0.021563 0.000000 0.000000 0.000000
# 2 -0.005410 0.008598 -0.001639 0.000000 0.000000 0.000000
# 3 -0.021563 -0.001639 0.028353 0.000000 0.000000 0.000000
# 4 0.000000 0.000000 0.000000 0.027234 0.000000 0.000000
# 5 0.000000 0.000000 0.000000 0.000000 0.020357 0.000000
# 6 0.000000 0.000000 0.000000 0.000000 0.000000 0.023315
#
#
# Mechanical properties :
#
#
# Convention : Reuss Voigt Hill
#
# Bulk Modulus (GPa) = 54.85838 62.61838 58.73838
# Shear Modulus (GPa) = 23.84812 35.67931 29.76371
#
# Velocity S-wave (km/s) = 2.91632 3.56710 3.25800
# Velocity P-wave (km/s) = 5.55912 6.26874 5.92456
#
# Compressibility (1/GPa) = 0.01822876
#
# Stress axis : x y z
#
# Youngs Moduli (GPa) = 25.97279 116.30833 35.26926
#
# Poissons Ratio (x) = 0.62927 0.76050
# Poissons Ratio (y) = 0.14052 0.05781
# Poissons Ratio (z) = 0.56004 0.19065
#
# Static dielectric constant tensor:
#      x y z
#    x 2.384900 0.000000 0.000000 
#    y 0.000000 2.187570 0.000000 
#    z 0.000000 0.000000 2.147520 
# 
# From -- ./inp_files/2339.got.cif
#   From: 2010.05.17/outbox.cif.g08.bks.cpg/sg33_2_cif.got.tgz:2339.got - 2010.06.03 17:15:25.
