data_PCOD9345138
_publ_section_title
;
Structure prediction by ZEFSAII (Michael W. Deem and Ramdas Pophale) SiO2 
 PCOD9345138
Probable space group: P N A 21
;
_chemical_formula_sum "Si O2"
_cell_formula_units_Z 28
_cell_length_a 18.246275
_cell_length_b 5.594546
_cell_length_c 13.094357
_cell_angle_alpha 90.000000
_cell_angle_beta 90.000000
_cell_angle_gamma 90.000000
_cell_volume 1336.667050
_symmetry_space_group_name_H-M "P N A 21"
_symmetry_group_IT_number 33
_symmetry_cell_setting 'orthorhombic'
loop_
_space_group_symop_operation_xyz
x,y,z
-x,-y,1/2+z
1/2-x,1/2+y,1/2+z
1/2+x,1/2-y,z
loop_
_atom_site_type_symbol
_atom_site_label
_atom_site_fract_x
_atom_site_fract_y
_atom_site_fract_z
Si Si1 0.805141 0.499704 0.234050
Si Si2 0.073841 0.259564 0.604289
Si Si3 0.125960 0.274640 0.914302
Si Si4 0.648589 0.382713 0.140638
Si Si5 0.981219 0.566201 0.896324
Si Si6 0.930188 0.113047 0.254528
Si Si7 0.573752 0.883071 0.207195
O O1 0.848272 0.667873 0.152557
O O2 0.807751 0.614311 0.347617
O O3 0.727690 0.423666 0.191125
O O4 0.859857 0.278708 0.246342
O O5 0.064284 0.317223 0.486729
O O6 0.008222 0.402945 0.660206
O O7 0.056928 0.991498 0.641918
O O8 0.059587 0.462829 0.935305
O O9 0.089786 0.097504 0.832480
O O10 0.149374 0.147172 0.017778
O O11 0.605966 0.630278 0.167664
O O12 0.618460 0.122468 0.177724
O O13 0.936002 0.375405 0.830029
O O14 0.003413 0.758788 0.810742
#
# Coordination Sequence:
#
# PCOD9345138 Si02
#       7
#     4   4   4   4   4   4   4
#     4  10  25  45  66 101 143 184 236 293 364 440
#     4  11  22  42  72  99 138 188 242 291 363 429
#     4  10  22  43  74  94 141 195 233 287 377 427
#     4  12  28  46  71 105 148 186 238 301 367 429
#     4  11  22  41  69 110 134 186 241 311 355 425
#     4  10  20  42  70  97 139 183 237 293 361 431
#     4  12  25  45  70 106 141 180 245 302 343 429
#
# _framework density 20.947624000000001
#
# number of rings (size 3 to 8) (size 9 to 14) (size 15 to 20)
#    0.000    1.143    5.714    1.714    6.000    2.286 
#    2.571    0.000    0.000    0.000    0.000    0.000 
#    0.000    0.000    0.000    0.000    0.000    0.000 
#
# Total GULP energy -156197.742524 kJ/mol
# GULP energy per Si atom -5578.490804 kJ/mol
# Density = 2.089995 g / cm^3
# Si number density = 20.947624 Si / 1000 Ang^3
#
#
#
# Elastic Constant Matrix: (Units=GPa)
#
#
# Indices 1 2 3 4 5 6 
#
# 1 80.5910 26.9991 32.3726 0.0000 0.0000 0.0000
# 2 26.9991 93.0425 40.3677 0.0000 0.0000 0.0000
# 3 32.3726 40.3677 150.4029 0.0000 0.0000 0.0000
# 4 0.0000 0.0000 0.0000 39.3828 0.0000 0.0000
# 5 0.0000 0.0000 0.0000 0.0000 27.8435 0.0000
# 6 0.0000 0.0000 0.0000 0.0000 0.0000 22.4433
#
#
#
# Elastic Compliance Matrix: (Units=1/GPa)
#
#
# Indices 1 2 3 4 5 6 
#
# 1 0.014379 -0.003203 -0.002235 0.000000 0.000000 0.000000
# 2 -0.003203 0.012878 -0.002767 0.000000 0.000000 0.000000
# 3 -0.002235 -0.002767 0.007873 0.000000 0.000000 0.000000
# 4 0.000000 0.000000 0.000000 0.025392 0.000000 0.000000
# 5 0.000000 0.000000 0.000000 0.000000 0.035915 0.000000
# 6 0.000000 0.000000 0.000000 0.000000 0.000000 0.044557
#
#
# Mechanical properties :
#
#
# Convention : Reuss Voigt Hill
#
# Bulk Modulus (GPa) = 53.42075 58.16836 55.79455
# Shear Modulus (GPa) = 30.55432 32.88704 31.72068
#
# Velocity S-wave (km/s) = 3.82331 3.96658 3.89560
# Velocity P-wave (km/s) = 6.71176 6.98621 6.85036
#
# Compressibility (1/GPa) = 0.01871932
#
# Stress axis : x y z
#
# Youngs Moduli (GPa) = 69.54480 77.65406 127.02297
#
# Poissons Ratio (x) = 0.24870 0.28394
# Poissons Ratio (y) = 0.22273 0.35147
# Poissons Ratio (z) = 0.15546 0.21487
#
# Static dielectric constant tensor:
#      x y z
#    x 1.742670 0.000000 0.000000 
#    y 0.000000 1.856340 0.000000 
#    z 0.000000 0.000000 1.771580 
# 
# From -- ./inp_files/6971.got.cif
#   From: 2010.05.17/outbox.cif.g08.bks.cpg/sg33_4_cif.got.tgz:6971.got - 2010.06.03 17:15:25.
