data_PCOD9345781
_publ_section_title
;
Structure prediction by ZEFSAII (Michael W. Deem and Ramdas Pophale) SiO2 
 PCOD9345781
Probable space group: P N A 21
;
_chemical_formula_sum "Si O2"
_cell_formula_units_Z 28
_cell_length_a 14.026301
_cell_length_b 11.802640
_cell_length_c 7.197227
_cell_angle_alpha 90.000000
_cell_angle_beta 90.000000
_cell_angle_gamma 90.000000
_cell_volume 1191.482082
_symmetry_space_group_name_H-M "P N A 21"
_symmetry_group_IT_number 33
_symmetry_cell_setting 'orthorhombic'
loop_
_space_group_symop_operation_xyz
x,y,z
-x,-y,1/2+z
1/2-x,1/2+y,1/2+z
1/2+x,1/2-y,z
loop_
_atom_site_type_symbol
_atom_site_label
_atom_site_fract_x
_atom_site_fract_y
_atom_site_fract_z
Si Si1 0.955594 0.339975 0.365290
Si Si2 0.595911 0.430057 0.886648
Si Si3 0.584754 0.962912 0.515096
Si Si4 0.259902 0.395198 0.577235
Si Si5 0.955113 0.886888 0.769285
Si Si6 0.776318 0.298403 0.861228
Si Si7 0.256094 0.699231 0.805502
O O1 0.965270 0.374518 0.149529
O O2 0.842710 0.337303 0.399894
O O3 0.012810 0.437957 0.466102
O O4 0.995566 0.213480 0.384570
O O5 0.657477 0.527651 0.991227
O O6 0.547788 0.358234 0.050406
O O7 0.676947 0.354540 0.790017
O O8 0.514448 0.497422 0.780020
O O9 0.672222 0.022742 0.625543
O O10 0.638112 0.890379 0.355069
O O11 0.220824 0.316187 0.409759
O O12 0.291529 0.315415 0.746072
O O13 0.844375 0.885892 0.827779
O O14 0.761578 0.279805 0.084569
#
# Coordination Sequence:
#
# PCOD9345781 Si02
#       7
#     4   4   4   4   4   4   4
#     4  11  23  42  63  94 133 165 217 274 319 387
#     4  10  24  41  64 102 128 172 223 259 329 400
#     4  10  24  41  64 102 128 172 223 259 329 400
#     4  11  21  45  71  94 137 170 219 271 323 394
#     4  11  23  42  63  94 133 165 217 274 319 387
#     4   9  23  43  65 100 133 172 221 263 323 390
#     4  10  22  42  66  92 132 168 212 278 316 374
#
# _framework density 23.500145
#
# number of rings (size 3 to 8) (size 9 to 14) (size 15 to 20)
#    0.000    1.714    2.857    0.857    4.000    4.571 
#    0.000    4.286    0.000    0.000    0.000    0.000 
#    0.000    0.000    0.000    0.000    0.000    0.000 
#
# Total GULP energy -156384.849983 kJ/mol
# GULP energy per Si atom -5585.173214 kJ/mol
# Density = 2.344666 g / cm^3
# Si number density = 23.500145 Si / 1000 Ang^3
#
#
#
# Elastic Constant Matrix: (Units=GPa)
#
#
# Indices 1 2 3 4 5 6 
#
# 1 95.5401 7.7482 -5.2320 0.0000 0.0000 0.0000
# 2 7.7482 70.0414 -1.7141 0.0000 0.0000 0.0000
# 3 -5.2320 -1.7141 33.4389 0.0000 0.0000 0.0000
# 4 0.0000 0.0000 0.0000 42.3803 0.0000 0.0000
# 5 0.0000 0.0000 0.0000 0.0000 15.8363 0.0000
# 6 0.0000 0.0000 0.0000 0.0000 0.0000 7.4993
#
#
#
# Elastic Compliance Matrix: (Units=1/GPa)
#
#
# Indices 1 2 3 4 5 6 
#
# 1 0.010647 -0.001138 0.001608 0.000000 0.000000 0.000000
# 2 -0.001138 0.014417 0.000561 0.000000 0.000000 0.000000
# 3 0.001608 0.000561 0.030186 0.000000 0.000000 0.000000
# 4 0.000000 0.000000 0.000000 0.023596 0.000000 0.000000
# 5 0.000000 0.000000 0.000000 0.000000 0.063146 0.000000
# 6 0.000000 0.000000 0.000000 0.000000 0.000000 0.133345
#
#
# Mechanical properties :
#
#
# Convention : Reuss Voigt Hill
#
# Bulk Modulus (GPa) = 17.44911 22.29164 19.87038
# Shear Modulus (GPa) = 17.10103 26.35775 21.72939
#
# Velocity S-wave (km/s) = 2.70052 3.35266 3.04410
# Velocity P-wave (km/s) = 4.14306 4.94909 4.56390
#
# Compressibility (1/GPa) = 0.05730950
#
# Stress axis : x y z
#
# Youngs Moduli (GPa) = 93.92162 69.36288 33.12845
#
# Poissons Ratio (x) = 0.07897 -0.05326
# Poissons Ratio (y) = 0.10693 -0.01858
# Poissons Ratio (z) = -0.15098 -0.03890
#
# Static dielectric constant tensor:
#      x y z
#    x 1.928730 0.000000 0.000000 
#    y 0.000000 1.888450 0.000000 
#    z 0.000000 0.000000 1.959410 
# 
# From -- ./inp_files/4361.got.cif
#   From: 2010.05.17/outbox.cif.g08.bks.cpg/sg33_3_cif.got.tgz:4361.got - 2010.06.03 17:15:25.
