data_PCOD9345657
_publ_section_title
;
Structure prediction by ZEFSAII (Michael W. Deem and Ramdas Pophale) SiO2 
 PCOD9345657
Probable space group: P N A 21
;
_chemical_formula_sum "Si O2"
_cell_formula_units_Z 28
_cell_length_a 8.415652
_cell_length_b 20.744125
_cell_length_c 7.765209
_cell_angle_alpha 90.000000
_cell_angle_beta 90.000000
_cell_angle_gamma 90.000000
_cell_volume 1355.613978
_symmetry_space_group_name_H-M "P N A 21"
_symmetry_group_IT_number 33
_symmetry_cell_setting 'orthorhombic'
loop_
_space_group_symop_operation_xyz
x,y,z
-x,-y,1/2+z
1/2-x,1/2+y,1/2+z
1/2+x,1/2-y,z
loop_
_atom_site_type_symbol
_atom_site_label
_atom_site_fract_x
_atom_site_fract_y
_atom_site_fract_z
Si Si1 0.275738 0.271758 0.460350
Si Si2 0.101927 0.165608 0.590166
Si Si3 0.170910 0.799865 0.581209
Si Si4 0.146159 0.360103 0.754090
Si Si5 0.923397 0.909679 0.583694
Si Si6 0.570214 0.548264 0.221088
Si Si7 0.678868 0.835186 0.410480
O O1 0.242759 0.195443 0.476750
O O2 0.448721 0.293816 0.528190
O O3 0.243495 0.290291 0.263670
O O4 0.167605 0.310294 0.597275
O O5 0.170991 0.178967 0.782859
O O6 0.041228 0.091931 0.594182
O O7 0.271331 0.832623 0.428432
O O8 0.124727 0.730625 0.501681
O O9 0.024891 0.846606 0.629883
O O10 0.252156 0.422396 0.706763
O O11 0.962121 0.365963 0.799932
O O12 0.746233 0.885440 0.547814
O O13 0.000356 0.934622 0.406315
O O14 0.933018 0.972247 0.700052
#
# Coordination Sequence:
#
# PCOD9345657 Si02
#       7
#     4   4   4   4   4   4   4
#     4  11  23  37  65  97 130 172 221 269 325 391
#     4  10  22  39  63  97 130 175 213 270 331 393
#     4  11  24  39  66 100 133 168 223 274 329 398
#     4  10  22  42  63  94 137 173 212 278 332 393
#     4  10  23  42  68  94 129 180 222 273 335 409
#     4   9  22  41  66  92 128 180 222 267 332 403
#     4  11  22  42  67  96 139 172 215 281 344 385
#
# _framework density 20.654848000000001
#
# number of rings (size 3 to 8) (size 9 to 14) (size 15 to 20)
#    0.000    1.714    1.429    2.571   12.000    0.000 
#    0.000    5.714    0.000    0.000    0.000    0.000 
#    0.000    0.000    0.000    0.000    0.000    0.000 
#
# Total GULP energy -156138.115379 kJ/mol
# GULP energy per Si atom -5576.361264 kJ/mol
# Density = 2.060784 g / cm^3
# Si number density = 20.654848 Si / 1000 Ang^3
#
#
#
# Elastic Constant Matrix: (Units=GPa)
#
#
# Indices 1 2 3 4 5 6 
#
# 1 63.0939 37.2504 13.6849 0.0000 0.0000 0.0000
# 2 37.2504 115.2570 33.9833 0.0000 0.0000 0.0000
# 3 13.6849 33.9833 89.5956 0.0000 0.0000 0.0000
# 4 0.0000 0.0000 0.0000 33.2611 0.0000 0.0000
# 5 0.0000 0.0000 0.0000 0.0000 12.9206 0.0000
# 6 0.0000 0.0000 0.0000 0.0000 0.0000 19.0964
#
#
#
# Elastic Compliance Matrix: (Units=1/GPa)
#
#
# Indices 1 2 3 4 5 6 
#
# 1 0.019622 -0.006145 -0.000666 0.000000 0.000000 0.000000
# 2 -0.006145 0.011693 -0.003497 0.000000 0.000000 0.000000
# 3 -0.000666 -0.003497 0.012589 0.000000 0.000000 0.000000
# 4 0.000000 0.000000 0.000000 0.030065 0.000000 0.000000
# 5 0.000000 0.000000 0.000000 0.000000 0.077396 0.000000
# 6 0.000000 0.000000 0.000000 0.000000 0.000000 0.052366
#
#
# Mechanical properties :
#
#
# Convention : Reuss Voigt Hill
#
# Bulk Modulus (GPa) = 42.93973 48.64264 45.79118
# Shear Modulus (GPa) = 21.54147 25.25748 23.39947
#
# Velocity S-wave (km/s) = 3.23294 3.50070 3.36948
# Velocity P-wave (km/s) = 5.89662 6.31991 6.11193
#
# Compressibility (1/GPa) = 0.02328846
#
# Stress axis : x y z
#
# Youngs Moduli (GPa) = 50.96311 85.51867 79.43268
#
# Poissons Ratio (x) = 0.52554 0.05292
# Poissons Ratio (y) = 0.31318 0.27775
# Poissons Ratio (z) = 0.03395 0.29903
#
# Static dielectric constant tensor:
#      x y z
#    x 1.791370 0.000000 0.000000 
#    y 0.000000 1.763350 0.000000 
#    z 0.000000 0.000000 1.790150 
# 
# From -- ./inp_files/3330.got.cif
#   From: 2010.05.17/outbox.cif.g08.bks.cpg/sg33_2_cif.got.tgz:3330.got - 2010.06.03 17:15:25.
