data_PCOD9345574
_publ_section_title
;
Structure prediction by ZEFSAII (Michael W. Deem and Ramdas Pophale) SiO2 
 PCOD9345574
Probable space group: P N A 21
;
_chemical_formula_sum "Si O2"
_cell_formula_units_Z 32
_cell_length_a 12.255786
_cell_length_b 13.901974
_cell_length_c 9.112604
_cell_angle_alpha 90.000000
_cell_angle_beta 90.000000
_cell_angle_gamma 90.000000
_cell_volume 1552.601991
_symmetry_space_group_name_H-M "P N A 21"
_symmetry_group_IT_number 33
_symmetry_cell_setting 'orthorhombic'
loop_
_space_group_symop_operation_xyz
x,y,z
-x,-y,1/2+z
1/2-x,1/2+y,1/2+z
1/2+x,1/2-y,z
loop_
_atom_site_type_symbol
_atom_site_label
_atom_site_fract_x
_atom_site_fract_y
_atom_site_fract_z
Si Si1 0.960829 0.096682 0.393770
Si Si2 0.020626 0.916704 0.222843
Si Si3 0.705359 0.656827 0.436318
Si Si4 0.008024 0.588052 0.843043
Si Si5 0.652717 0.993531 0.109843
Si Si6 0.148695 0.237169 0.399976
Si Si7 0.201696 0.190384 0.705051
Si Si8 0.155065 0.739840 0.712887
O O1 0.933552 0.068815 0.559421
O O2 0.891300 0.183138 0.328465
O O3 0.083558 0.137429 0.402456
O O4 0.958007 0.009673 0.282035
O O5 0.119870 0.896478 0.331706
O O6 0.927067 0.834744 0.220648
O O7 0.776712 0.580194 0.532784
O O8 0.766516 0.736245 0.334805
O O9 0.637357 0.718638 0.553489
O O10 0.926344 0.526665 0.742391
O O11 0.933954 0.674931 0.902961
O O12 0.097731 0.638797 0.739283
O O13 0.074315 0.542182 0.977363
O O14 0.728623 0.908245 0.178812
O O15 0.218409 0.241876 0.547845
O O16 0.218175 0.235906 0.252511
#
# Coordination Sequence:
#
# PCOD9345574 Si02
#       8
#     4   4   4   4   4   4   4   4
#     4  10  22  40  68  95 131 174 224 288 354 417
#     4  11  24  42  68 101 134 177 230 292 352 432
#     4  12  27  43  71 101 141 182 244 292 365 436
#     4  11  27  42  75  97 148 183 241 296 372 436
#     4  12  27  50  67 110 145 191 239 311 362 453
#     4  10  21  45  67  93 130 184 231 291 356 427
#     4  11  26  44  71  98 141 183 236 298 362 436
#     4  11  22  44  67  95 134 182 235 292 353 427
#
# _framework density 20.610562000000002
#
# number of rings (size 3 to 8) (size 9 to 14) (size 15 to 20)
#    0.000    1.000    2.500    3.750    8.750    1.000 
#    0.000    0.000    0.000    0.000    0.000    0.000 
#    0.000    0.000    0.000    0.000    0.000    0.000 
#
# Total GULP energy -178572.456504 kJ/mol
# GULP energy per Si atom -5580.389266 kJ/mol
# Density = 2.056365 g / cm^3
# Si number density = 20.610562 Si / 1000 Ang^3
#
#
#
# Elastic Constant Matrix: (Units=GPa)
#
#
# Indices 1 2 3 4 5 6 
#
# 1 41.6120 17.3078 9.3133 0.0000 0.0000 0.0000
# 2 17.3078 57.0324 9.1250 0.0000 0.0000 0.0000
# 3 9.3133 9.1250 65.8822 0.0000 0.0000 0.0000
# 4 0.0000 0.0000 0.0000 36.1144 0.0000 0.0000
# 5 0.0000 0.0000 0.0000 0.0000 41.6867 0.0000
# 6 0.0000 0.0000 0.0000 0.0000 0.0000 30.4783
#
#
#
# Elastic Compliance Matrix: (Units=1/GPa)
#
#
# Indices 1 2 3 4 5 6 
#
# 1 0.028015 -0.008047 -0.002846 0.000000 0.000000 0.000000
# 2 -0.008047 0.020242 -0.001666 0.000000 0.000000 0.000000
# 3 -0.002846 -0.001666 0.015812 0.000000 0.000000 0.000000
# 4 0.000000 0.000000 0.000000 0.027690 0.000000 0.000000
# 5 0.000000 0.000000 0.000000 0.000000 0.023988 0.000000
# 6 0.000000 0.000000 0.000000 0.000000 0.000000 0.032810
#
#
# Mechanical properties :
#
#
# Convention : Reuss Voigt Hill
#
# Bulk Modulus (GPa) = 25.67249 26.22431 25.94840
# Shear Modulus (GPa) = 26.78679 30.24124 28.51402
#
# Velocity S-wave (km/s) = 3.60900 3.83465 3.72353
# Velocity P-wave (km/s) = 5.46347 5.68836 5.57705
#
# Compressibility (1/GPa) = 0.03895221
#
# Stress axis : x y z
#
# Youngs Moduli (GPa) = 35.69475 49.40127 63.24434
#
# Poissons Ratio (x) = 0.39751 0.17998
# Poissons Ratio (y) = 0.28722 0.10538
# Poissons Ratio (z) = 0.10158 0.08231
#
# Static dielectric constant tensor:
#      x y z
#    x 1.769080 0.000000 0.000000 
#    y 0.000000 1.741390 0.000000 
#    z 0.000000 0.000000 1.744670 
# 
# From -- ./inp_files/3997.got.cif
#   From: 2010.05.17/outbox.cif.g08.bks.cpg/sg33_2_cif.got.tgz:3997.got - 2010.06.03 17:15:25.
