data_PCOD9345390
_publ_section_title
;
Structure prediction by ZEFSAII (Michael W. Deem and Ramdas Pophale) SiO2 
 PCOD9345390
Probable space group: P N A 21
;
_chemical_formula_sum "Si O2"
_cell_formula_units_Z 28
_cell_length_a 4.951326
_cell_length_b 17.905821
_cell_length_c 12.582239
_cell_angle_alpha 90.000000
_cell_angle_beta 90.000000
_cell_angle_gamma 90.000000
_cell_volume 1115.510572
_symmetry_space_group_name_H-M "P N A 21"
_symmetry_group_IT_number 33
_symmetry_cell_setting 'orthorhombic'
loop_
_space_group_symop_operation_xyz
x,y,z
-x,-y,1/2+z
1/2-x,1/2+y,1/2+z
1/2+x,1/2-y,z
loop_
_atom_site_type_symbol
_atom_site_label
_atom_site_fract_x
_atom_site_fract_y
_atom_site_fract_z
Si Si1 0.650833 0.200029 0.847150
Si Si2 0.942829 0.067708 0.240217
Si Si3 0.197230 0.924148 0.505249
Si Si4 0.292201 0.199592 0.314701
Si Si5 0.778397 0.302994 0.564620
Si Si6 0.380327 0.407141 0.668750
Si Si7 0.809863 0.522932 0.957008
O O1 0.345282 0.227974 0.842007
O O2 0.724305 0.153530 0.952034
O O3 0.730425 0.144650 0.752389
O O4 0.171470 0.130587 0.250889
O O5 0.766033 0.062503 0.347076
O O6 0.778328 0.080501 0.132027
O O7 0.073767 0.986575 0.223097
O O8 0.395887 0.987742 0.460516
O O9 0.898610 0.954117 0.476748
O O10 0.091254 0.269931 0.295174
O O11 0.266266 0.178571 0.439464
O O12 0.059605 0.262666 0.584020
O O13 0.665624 0.370341 0.634872
O O14 0.231498 0.422107 0.556816
#
# Coordination Sequence:
#
# PCOD9345390 Si02
#       7
#     4   4   4   4   4   4   4
#     4  12  27  47  73 104 154 199 242 300 363 450
#     4  11  25  47  77 106 145 195 238 315 362 434
#     4  11  27  45  71 104 145 194 243 292 372 435
#     4  10  23  43  68  99 137 180 231 290 361 426
#     4  10  21  40  63  97 137 177 225 289 353 414
#     4  11  24  44  74 107 141 187 247 299 366 426
#     4  11  25  46  70 107 145 180 248 315 353 431
#
# _framework density 25.100614
#
# number of rings (size 3 to 8) (size 9 to 14) (size 15 to 20)
#    0.000    1.143    2.857    1.714    2.000    8.000 
#    0.000    0.000    0.000    0.000    0.000    0.000 
#    0.000    0.000    0.000    0.000    0.000    0.000 
#
# Total GULP energy -157245.958780 kJ/mol
# GULP energy per Si atom -5615.927099 kJ/mol
# Density = 2.504348 g / cm^3
# Si number density = 25.100614 Si / 1000 Ang^3
#
#
#
# Elastic Constant Matrix: (Units=GPa)
#
#
# Indices 1 2 3 4 5 6 
#
# 1 65.7529 10.0301 10.4644 0.0000 0.0000 0.0000
# 2 10.0301 120.8444 41.3332 0.0000 0.0000 0.0000
# 3 10.4644 41.3332 148.7549 0.0000 0.0000 0.0000
# 4 0.0000 0.0000 0.0000 61.5649 0.0000 0.0000
# 5 0.0000 0.0000 0.0000 0.0000 19.9691 0.0000
# 6 0.0000 0.0000 0.0000 0.0000 0.0000 31.7840
#
#
#
# Elastic Compliance Matrix: (Units=1/GPa)
#
#
# Indices 1 2 3 4 5 6 
#
# 1 0.015491 -0.001009 -0.000809 0.000000 0.000000 0.000000
# 2 -0.001009 0.009210 -0.002488 0.000000 0.000000 0.000000
# 3 -0.000809 -0.002488 0.007471 0.000000 0.000000 0.000000
# 4 0.000000 0.000000 0.000000 0.016243 0.000000 0.000000
# 5 0.000000 0.000000 0.000000 0.000000 0.050077 0.000000
# 6 0.000000 0.000000 0.000000 0.000000 0.000000 0.031462
#
#
# Mechanical properties :
#
#
# Convention : Reuss Voigt Hill
#
# Bulk Modulus (GPa) = 42.44674 51.00086 46.72380
# Shear Modulus (GPa) = 34.14823 40.89856 37.52340
#
# Velocity S-wave (km/s) = 3.69243 4.04094 3.87061
# Velocity P-wave (km/s) = 5.92673 6.49115 6.21535
#
# Compressibility (1/GPa) = 0.02355894
#
# Stress axis : x y z
#
# Youngs Moduli (GPa) = 64.55294 108.57925 133.85540
#
# Poissons Ratio (x) = 0.10955 0.10834
# Poissons Ratio (y) = 0.06513 0.33304
# Poissons Ratio (z) = 0.05225 0.27015
#
# Static dielectric constant tensor:
#      x y z
#    x 1.979980 0.000000 0.000000 
#    y 0.000000 1.976510 0.000000 
#    z 0.000000 0.000000 1.965780 
# 
# From -- ./inp_files/5489.got.cif
#   From: 2010.05.17/outbox.cif.g08.bks.cpg/sg33_3_cif.got.tgz:5489.got - 2010.06.03 17:15:25.
