data_PCOD9345958
_publ_section_title
;
Structure prediction by ZEFSAII (Michael W. Deem and Ramdas Pophale) SiO2 
 PCOD9345958
Probable space group: P N A 21
;
_chemical_formula_sum "Si O2"
_cell_formula_units_Z 20
_cell_length_a 10.479954
_cell_length_b 5.170220
_cell_length_c 13.014083
_cell_angle_alpha 90.000000
_cell_angle_beta 90.000000
_cell_angle_gamma 90.000000
_cell_volume 705.150750
_symmetry_space_group_name_H-M "P N A 21"
_symmetry_group_IT_number 33
_symmetry_cell_setting 'orthorhombic'
loop_
_space_group_symop_operation_xyz
x,y,z
-x,-y,1/2+z
1/2-x,1/2+y,1/2+z
1/2+x,1/2-y,z
loop_
_atom_site_type_symbol
_atom_site_label
_atom_site_fract_x
_atom_site_fract_y
_atom_site_fract_z
Si Si1 0.361104 0.079060 0.126300
Si Si2 0.907577 0.008698 0.958101
Si Si3 0.001774 0.664234 0.293878
Si Si4 0.132452 0.615926 0.982134
Si Si5 0.601829 0.247346 0.184068
O O1 0.449621 0.294994 0.185204
O O2 0.216349 0.063554 0.162813
O O3 0.426304 0.837467 0.185910
O O4 0.373409 0.217184 0.014595
O O5 0.933816 0.082402 0.839952
O O6 0.783667 0.832385 0.977295
O O7 0.036758 0.858945 0.989181
O O8 0.908544 0.548058 0.381418
O O9 0.115959 0.457352 0.275847
O O10 0.113290 0.434020 0.080585
#
# Coordination Sequence:
#
# PCOD9345958 Si02
#       5
#     4   4   4   4   4
#     4   9  21  43  74 104 150 188 247 310 374 445
#     4  11  25  47  73 110 154 195 253 311 378 451
#     4  10  22  46  74 104 146 196 249 305 369 455
#     4  11  25  43  72 110 148 202 244 316 373 447
#     4   9  21  43  69 108 144 189 241 306 374 434
#
# _framework density 28.362729999999999
#
# number of rings (size 3 to 8) (size 9 to 14) (size 15 to 20)
#    1.200    0.800    2.000    0.000    2.800    4.800 
#    7.200    0.000    4.400    0.000    0.000    0.000 
#    0.000    0.000    0.000    0.000    0.000    0.000 
#
# Total GULP energy -111488.923731 kJ/mol
# GULP energy per Si atom -5574.446187 kJ/mol
# Density = 2.829817 g / cm^3
# Si number density = 28.362730 Si / 1000 Ang^3
#
#
#
# Elastic Constant Matrix: (Units=GPa)
#
#
# Indices 1 2 3 4 5 6 
#
# 1 154.6505 24.1444 10.1333 0.0000 0.0000 0.0000
# 2 24.1444 126.8134 1.8306 0.0000 0.0000 0.0000
# 3 10.1333 1.8306 86.5795 0.0000 0.0000 0.0000
# 4 0.0000 0.0000 0.0000 38.1886 0.0000 0.0000
# 5 0.0000 0.0000 0.0000 0.0000 38.8665 0.0000
# 6 0.0000 0.0000 0.0000 0.0000 0.0000 36.5673
#
#
#
# Elastic Compliance Matrix: (Units=1/GPa)
#
#
# Indices 1 2 3 4 5 6 
#
# 1 0.006714 -0.001267 -0.000759 0.000000 0.000000 0.000000
# 2 -0.001267 0.008127 -0.000024 0.000000 0.000000 0.000000
# 3 -0.000759 -0.000024 0.011639 0.000000 0.000000 0.000000
# 4 0.000000 0.000000 0.000000 0.026186 0.000000 0.000000
# 5 0.000000 0.000000 0.000000 0.000000 0.025729 0.000000
# 6 0.000000 0.000000 0.000000 0.000000 0.000000 0.027347
#
#
# Mechanical properties :
#
#
# Convention : Reuss Voigt Hill
#
# Bulk Modulus (GPa) = 44.68115 48.91779 46.79947
# Shear Modulus (GPa) = 42.62499 44.85347 43.73923
#
# Velocity S-wave (km/s) = 3.88087 3.98103 3.93127
# Velocity P-wave (km/s) = 5.98909 6.19807 6.09448
#
# Compressibility (1/GPa) = 0.02238080
#
# Stress axis : x y z
#
# Youngs Moduli (GPa) = 148.94737 123.04323 85.91499
#
# Poissons Ratio (x) = 0.15593 0.06521
# Poissons Ratio (y) = 0.18876 0.00202
# Poissons Ratio (z) = 0.11305 0.00289
#
# Static dielectric constant tensor:
#      x y z
#    x 2.300410 0.000000 0.000000 
#    y 0.000000 2.411900 0.000000 
#    z 0.000000 0.000000 2.316740 
# 
# From -- ./inp_files/7791.got.cif
#   From: 2010.05.17/outbox.cif.g08.bks.cpg/sg33_4_cif.got.tgz:7791.got - 2010.06.03 17:15:25.
