data_PCOD9345563
_publ_section_title
;
Structure prediction by ZEFSAII (Michael W. Deem and Ramdas Pophale) SiO2 
 PCOD9345563
Probable space group: P N A 21
;
_chemical_formula_sum "Si O2"
_cell_formula_units_Z 32
_cell_length_a 11.232974
_cell_length_b 6.643750
_cell_length_c 17.914069
_cell_angle_alpha 90.000000
_cell_angle_beta 90.000000
_cell_angle_gamma 90.000000
_cell_volume 1336.910328
_symmetry_space_group_name_H-M "P N A 21"
_symmetry_group_IT_number 33
_symmetry_cell_setting 'orthorhombic'
loop_
_space_group_symop_operation_xyz
x,y,z
-x,-y,1/2+z
1/2-x,1/2+y,1/2+z
1/2+x,1/2-y,z
loop_
_atom_site_type_symbol
_atom_site_label
_atom_site_fract_x
_atom_site_fract_y
_atom_site_fract_z
Si Si1 0.736470 0.534907 0.487600
Si Si2 0.553716 0.337125 0.940155
Si Si3 0.843984 0.382480 0.693153
Si Si4 0.520419 0.967005 0.343578
Si Si5 0.581464 0.426934 0.344217
Si Si6 0.633168 0.644548 0.056940
Si Si7 0.701895 0.038476 0.747004
Si Si8 0.275791 0.233181 0.125414
O O1 0.833822 0.703756 0.465413
O O2 0.658122 0.489460 0.416266
O O3 0.795995 0.324725 0.514799
O O4 0.669185 0.638682 0.558035
O O5 0.540887 0.449862 0.859127
O O6 0.462162 0.154067 0.920421
O O7 0.553226 0.523186 0.998054
O O8 0.917426 0.262506 0.629356
O O9 0.813141 0.603349 0.662496
O O10 0.905583 0.388433 0.773135
O O11 0.723706 0.251789 0.706976
O O12 0.554262 0.195617 0.351375
O O13 0.383837 0.952840 0.317339
O O14 0.666005 0.470012 0.273881
O O15 0.712793 0.464857 0.091682
O O16 0.649171 0.867311 0.691917
#
# Coordination Sequence:
#
# PCOD9345563 Si02
#       8
#     4   4   4   4   4   4   4   4
#     4  10  22  45  69  96 138 180 229 288 340 414
#     4  11  23  42  65 100 132 178 223 280 349 405
#     4  10  21  44  68  96 136 179 226 286 337 411
#     4  12  25  41  70 103 134 178 229 283 353 409
#     4  12  25  42  68 101 134 177 229 284 351 413
#     4   9  21  43  71  94 136 177 234 281 336 416
#     4  11  23  43  66  98 136 175 226 284 344 416
#     4   9  20  44  69  94 134 184 224 286 344 400
#
# _framework density 23.935786
#
# number of rings (size 3 to 8) (size 9 to 14) (size 15 to 20)
#    0.000    1.500    3.750    0.750    0.000    4.000 
#   13.500    0.000    0.000    0.000    0.000    0.000 
#    0.000    0.000    0.000    0.000    0.000    0.000 
#
# Total GULP energy -178339.675229 kJ/mol
# GULP energy per Si atom -5573.114851 kJ/mol
# Density = 2.388131 g / cm^3
# Si number density = 23.935786 Si / 1000 Ang^3
#
#
#
# Elastic Constant Matrix: (Units=GPa)
#
#
# Indices 1 2 3 4 5 6 
#
# 1 38.8939 41.2389 20.2716 0.0000 0.0000 0.0000
# 2 41.2389 179.4205 42.9654 0.0000 0.0000 0.0000
# 3 20.2716 42.9654 97.7606 0.0000 0.0000 0.0000
# 4 0.0000 0.0000 0.0000 59.9896 0.0000 0.0000
# 5 0.0000 0.0000 0.0000 0.0000 34.4732 0.0000
# 6 0.0000 0.0000 0.0000 0.0000 0.0000 17.4755
#
#
#
# Elastic Compliance Matrix: (Units=1/GPa)
#
#
# Indices 1 2 3 4 5 6 
#
# 1 0.035487 -0.007146 -0.004218 0.000000 0.000000 0.000000
# 2 -0.007146 0.007668 -0.001888 0.000000 0.000000 0.000000
# 3 -0.004218 -0.001888 0.011934 0.000000 0.000000 0.000000
# 4 0.000000 0.000000 0.000000 0.016670 0.000000 0.000000
# 5 0.000000 0.000000 0.000000 0.000000 0.029008 0.000000
# 6 0.000000 0.000000 0.000000 0.000000 0.000000 0.057223
#
#
# Mechanical properties :
#
#
# Convention : Reuss Voigt Hill
#
# Bulk Modulus (GPa) = 34.98509 58.33629 46.66069
# Shear Modulus (GPa) = 25.77033 36.49424 31.13228
#
# Velocity S-wave (km/s) = 3.28479 3.90894 3.61038
# Velocity P-wave (km/s) = 5.38836 6.69313 6.07587
#
# Compressibility (1/GPa) = 0.02858360
#
# Stress axis : x y z
#
# Youngs Moduli (GPa) = 28.17973 130.40784 83.79744
#
# Poissons Ratio (x) = 0.93195 0.35343
# Poissons Ratio (y) = 0.20138 0.15823
# Poissons Ratio (z) = 0.11885 0.24625
#
# Static dielectric constant tensor:
#      x y z
#    x 2.043960 0.000000 0.000000 
#    y 0.000000 1.943690 0.000000 
#    z 0.000000 0.000000 1.982200 
# 
# From -- ./inp_files/9100.got.cif
#   From: 2010.05.17/outbox.cif.g08.bks.cpg/sg33_5_cif.got.tgz:9100.got - 2010.06.03 17:15:25.
