data_PCOD9345928
_publ_section_title
;
Structure prediction by ZEFSAII (Michael W. Deem and Ramdas Pophale) SiO2 
 PCOD9345928
Probable space group: P N A 21
;
_chemical_formula_sum "Si O2"
_cell_formula_units_Z 28
_cell_length_a 12.863998
_cell_length_b 8.779353
_cell_length_c 11.449718
_cell_angle_alpha 90.000000
_cell_angle_beta 90.000000
_cell_angle_gamma 90.000000
_cell_volume 1293.103436
_symmetry_space_group_name_H-M "P N A 21"
_symmetry_group_IT_number 33
_symmetry_cell_setting 'orthorhombic'
loop_
_space_group_symop_operation_xyz
x,y,z
-x,-y,1/2+z
1/2-x,1/2+y,1/2+z
1/2+x,1/2-y,z
loop_
_atom_site_type_symbol
_atom_site_label
_atom_site_fract_x
_atom_site_fract_y
_atom_site_fract_z
Si Si1 0.134632 0.211157 0.726750
Si Si2 0.600698 0.958953 0.619765
Si Si3 0.165310 0.043044 0.492765
Si Si4 0.977174 0.044587 0.326171
Si Si5 0.905480 0.738475 0.648618
Si Si6 0.782433 0.247931 0.310608
Si Si7 0.258115 0.203470 0.956669
O O1 0.107817 0.370540 0.666828
O O2 0.166714 0.098454 0.624019
O O3 0.224622 0.217416 0.823128
O O4 0.038156 0.130737 0.791802
O O5 0.484288 0.894183 0.611755
O O6 0.659269 0.855927 0.716877
O O7 0.663494 0.927790 0.499826
O O8 0.243821 0.144952 0.415654
O O9 0.052582 0.066002 0.434996
O O10 0.191057 0.865653 0.487713
O O11 0.864679 0.120178 0.347697
O O12 0.029715 0.132372 0.217085
O O13 0.818256 0.685798 0.741922
O O14 0.844932 0.805406 0.537529
#
# Coordination Sequence:
#
# PCOD9345928 Si02
#       7
#     4   4   4   4   4   4   4
#     4  12  26  43  71 106 133 188 243 287 362 430
#     4  10  22  45  68 103 138 182 238 294 359 429
#     4  11  24  47  69 103 145 188 233 294 356 425
#     4  10  24  44  71 102 142 186 233 292 358 426
#     4   9  20  44  73  92 142 188 226 300 358 412
#     4   9  19  45  72  99 141 184 232 291 360 422
#     4  11  25  46  70  99 145 184 239 300 357 424
#
# _framework density 21.653333
#
# number of rings (size 3 to 8) (size 9 to 14) (size 15 to 20)
#    0.000    1.714    1.429    2.571    6.000    1.143 
#   10.286    0.000    0.000    0.000    0.000    0.000 
#    0.000    0.000    0.000    0.000    0.000    0.000 
#
# Total GULP energy -156636.024475 kJ/mol
# GULP energy per Si atom -5594.143731 kJ/mol
# Density = 2.160405 g / cm^3
# Si number density = 21.653333 Si / 1000 Ang^3
#
#
#
# Elastic Constant Matrix: (Units=GPa)
#
#
# Indices 1 2 3 4 5 6 
#
# 1 105.7033 42.5683 21.2410 0.0000 0.0000 0.0000
# 2 42.5683 113.2068 23.4796 0.0000 0.0000 0.0000
# 3 21.2410 23.4796 95.7163 0.0000 0.0000 0.0000
# 4 0.0000 0.0000 0.0000 33.1685 0.0000 0.0000
# 5 0.0000 0.0000 0.0000 0.0000 21.0293 0.0000
# 6 0.0000 0.0000 0.0000 0.0000 0.0000 27.6047
#
#
#
# Elastic Compliance Matrix: (Units=1/GPa)
#
#
# Indices 1 2 3 4 5 6 
#
# 1 0.011364 -0.003951 -0.001553 0.000000 0.000000 0.000000
# 2 -0.003951 0.010681 -0.001743 0.000000 0.000000 0.000000
# 3 -0.001553 -0.001743 0.011220 0.000000 0.000000 0.000000
# 4 0.000000 0.000000 0.000000 0.030149 0.000000 0.000000
# 5 0.000000 0.000000 0.000000 0.000000 0.047553 0.000000
# 6 0.000000 0.000000 0.000000 0.000000 0.000000 0.036226
#
#
# Mechanical properties :
#
#
# Convention : Reuss Voigt Hill
#
# Bulk Modulus (GPa) = 53.27543 54.35601 53.81572
# Shear Modulus (GPa) = 29.77225 31.51632 30.64428
#
# Velocity S-wave (km/s) = 3.71205 3.81923 3.76603
# Velocity P-wave (km/s) = 6.55970 6.67878 6.61951
#
# Compressibility (1/GPa) = 0.01877038
#
# Stress axis : x y z
#
# Youngs Moduli (GPa) = 88.00088 93.62785 89.12889
#
# Poissons Ratio (x) = 0.36992 0.13838
# Poissons Ratio (y) = 0.34769 0.15537
# Poissons Ratio (z) = 0.13663 0.16321
#
# Static dielectric constant tensor:
#      x y z
#    x 1.803570 0.000000 0.000000 
#    y 0.000000 1.784530 0.000000 
#    z 0.000000 0.000000 1.787060 
# 
# From -- ./inp_files/6361.got.cif
#   From: 2010.05.17/outbox.cif.g08.bks.cpg/sg33_4_cif.got.tgz:6361.got - 2010.06.03 17:15:25.
