data_PCOD9345868
_publ_section_title
;
Structure prediction by ZEFSAII (Michael W. Deem and Ramdas Pophale) SiO2 
 PCOD9345868
Probable space group: P N A 21
;
_chemical_formula_sum "Si O2"
_cell_formula_units_Z 20
_cell_length_a 8.110780
_cell_length_b 17.928324
_cell_length_c 5.323492
_cell_angle_alpha 90.000000
_cell_angle_beta 90.000000
_cell_angle_gamma 90.000000
_cell_volume 774.103301
_symmetry_space_group_name_H-M "P N A 21"
_symmetry_group_IT_number 33
_symmetry_cell_setting 'orthorhombic'
loop_
_space_group_symop_operation_xyz
x,y,z
-x,-y,1/2+z
1/2-x,1/2+y,1/2+z
1/2+x,1/2-y,z
loop_
_atom_site_type_symbol
_atom_site_label
_atom_site_fract_x
_atom_site_fract_y
_atom_site_fract_z
Si Si1 0.589979 0.362834 0.791550
Si Si2 0.728829 0.733460 0.405545
Si Si3 0.715897 0.503155 0.939031
Si Si4 0.682920 0.928416 0.943920
Si Si5 0.657279 0.158382 0.411173
O O1 0.444401 0.307973 0.865396
O O2 0.753009 0.322977 0.914239
O O3 0.655281 0.378257 0.509420
O O4 0.562113 0.446462 0.900305
O O5 0.809431 0.700711 0.654567
O O6 0.823267 0.710632 0.151062
O O7 0.792412 0.478528 0.201540
O O8 0.824249 0.479198 0.696064
O O9 0.709277 0.591553 0.936539
O O10 0.521804 0.878565 0.918254
#
# Coordination Sequence:
#
# PCOD9345868 Si02
#       5
#     4   4   4   4   4
#     4  10  28  46  69  99 140 187 231 287 351 419
#     4  12  28  43  71  99 144 181 239 289 357 417
#     4  10  23  43  74  99 141 179 233 281 351 417
#     4  10  22  43  73  99 140 176 233 276 345 418
#     4  12  25  43  73 106 137 183 232 293 352 417
#
# _framework density 25.836344
#
# number of rings (size 3 to 8) (size 9 to 14) (size 15 to 20)
#    1.200    0.000    0.000    4.800    8.400    1.600 
#    0.000    0.000    0.000    0.000    0.000    0.000 
#    0.000    0.000    0.000    0.000    0.000    0.000 
#
# Total GULP energy -111880.598376 kJ/mol
# GULP energy per Si atom -5594.029919 kJ/mol
# Density = 2.577754 g / cm^3
# Si number density = 25.836344 Si / 1000 Ang^3
#
#
#
# Elastic Constant Matrix: (Units=GPa)
#
#
# Indices 1 2 3 4 5 6 
#
# 1 90.4577 0.1009 25.4523 0.0000 0.0000 0.0000
# 2 0.1009 115.8386 50.1610 0.0000 0.0000 0.0000
# 3 25.4523 50.1610 201.7215 0.0000 0.0000 0.0000
# 4 0.0000 0.0000 0.0000 13.9781 0.0000 0.0000
# 5 0.0000 0.0000 0.0000 0.0000 17.9643 0.0000
# 6 0.0000 0.0000 0.0000 0.0000 0.0000 40.1449
#
#
#
# Elastic Compliance Matrix: (Units=1/GPa)
#
#
# Indices 1 2 3 4 5 6 
#
# 1 0.011511 0.000694 -0.001625 0.000000 0.000000 0.000000
# 2 0.000694 0.009716 -0.002504 0.000000 0.000000 0.000000
# 3 -0.001625 -0.002504 0.005785 0.000000 0.000000 0.000000
# 4 0.000000 0.000000 0.000000 0.071540 0.000000 0.000000
# 5 0.000000 0.000000 0.000000 0.000000 0.055666 0.000000
# 6 0.000000 0.000000 0.000000 0.000000 0.000000 0.024910
#
#
# Mechanical properties :
#
#
# Convention : Reuss Voigt Hill
#
# Bulk Modulus (GPa) = 49.64595 62.16068 55.90332
# Shear Modulus (GPa) = 25.94536 36.57103 31.25819
#
# Velocity S-wave (km/s) = 3.17238 3.76638 3.48207
# Velocity P-wave (km/s) = 5.71629 6.55940 6.15230
#
# Compressibility (1/GPa) = 0.02014263
#
# Stress axis : x y z
#
# Youngs Moduli (GPa) = 86.87095 102.92073 172.86355
#
# Poissons Ratio (x) = -0.07139 0.28089
# Poissons Ratio (y) = -0.06025 0.43278
# Poissons Ratio (z) = 0.14116 0.25767
#
# Static dielectric constant tensor:
#      x y z
#    x 2.172810 0.000000 0.000000 
#    y 0.000000 2.024730 0.000000 
#    z 0.000000 0.000000 1.987150 
# 
# From -- ./inp_files/348.got.cif
#   From: 2010.05.17/outbox.cif.g08.bks.cpg/sg33_1_cif.got.tgz:348.got - 2010.06.03 17:15:25.
