data_PCOD9345251
_publ_section_title
;
Structure prediction by ZEFSAII (Michael W. Deem and Ramdas Pophale) SiO2 
 PCOD9345251
Probable space group: P N A 21
;
_chemical_formula_sum "Si O2"
_cell_formula_units_Z 24
_cell_length_a 13.753602
_cell_length_b 7.517367
_cell_length_c 9.167090
_cell_angle_alpha 90.000000
_cell_angle_beta 90.000000
_cell_angle_gamma 90.000000
_cell_volume 947.793445
_symmetry_space_group_name_H-M "P N A 21"
_symmetry_group_IT_number 33
_symmetry_cell_setting 'orthorhombic'
loop_
_space_group_symop_operation_xyz
x,y,z
-x,-y,1/2+z
1/2-x,1/2+y,1/2+z
1/2+x,1/2-y,z
loop_
_atom_site_type_symbol
_atom_site_label
_atom_site_fract_x
_atom_site_fract_y
_atom_site_fract_z
Si Si1 0.328875 0.590883 0.510210
Si Si2 0.345329 0.291679 0.695180
Si Si3 0.392537 0.165592 0.014374
Si Si4 0.438597 0.450993 0.253281
Si Si5 0.963837 0.360627 0.438375
Si Si6 0.619018 0.173403 0.778714
O O1 0.376694 0.489827 0.644374
O O2 0.219191 0.626556 0.549605
O O3 0.341790 0.469942 0.362878
O O4 0.377652 0.768558 0.451866
O O5 0.387746 0.230179 0.847043
O O6 0.228161 0.303824 0.717018
O O7 0.381775 0.170642 0.561760
O O8 0.451121 0.980197 0.006960
O O9 0.425482 0.331093 0.111891
O O10 0.443628 0.661868 0.214300
O O11 0.498580 0.326334 0.367027
O O12 0.919968 0.474938 0.301926
#
# Coordination Sequence:
#
# PCOD9345251 Si02
#       6
#     4   4   4   4   4   4
#     4   8  20  39  58  88 120 163 210 250 301 390
#     4  10  21  37  66  91 118 169 210 251 316 375
#     4  11  21  38  66  95 124 165 207 267 322 356
#     4   9  21  41  61  86 129 156 212 254 307 388
#     4  11  22  41  65  91 130 163 204 270 314 364
#     4   9  21  38  62  85 123 162 211 244 308 377
#
# _framework density 25.321974000000001
#
# number of rings (size 3 to 8) (size 9 to 14) (size 15 to 20)
#    1.000    1.333    0.000    2.000    4.667    0.000 
#    3.000    1.667    3.667    0.000    0.000    0.000 
#    0.000    0.000    0.000    0.000    0.000    0.000 
#
# Total GULP energy -133805.105378 kJ/mol
# GULP energy per Si atom -5575.212724 kJ/mol
# Density = 2.526434 g / cm^3
# Si number density = 25.321974 Si / 1000 Ang^3
#
#
#
# Elastic Constant Matrix: (Units=GPa)
#
#
# Indices 1 2 3 4 5 6 
#
# 1 49.6239 12.7559 -9.7045 0.0000 0.0000 0.0000
# 2 12.7559 146.3126 43.2724 0.0000 0.0000 0.0000
# 3 -9.7045 43.2724 106.7981 0.0000 0.0000 0.0000
# 4 0.0000 0.0000 0.0000 47.1744 0.0000 0.0000
# 5 0.0000 0.0000 0.0000 0.0000 39.1929 0.0000
# 6 0.0000 0.0000 0.0000 0.0000 0.0000 38.9599
#
#
#
# Elastic Compliance Matrix: (Units=1/GPa)
#
#
# Indices 1 2 3 4 5 6 
#
# 1 0.021469 -0.002782 0.003078 0.000000 0.000000 0.000000
# 2 -0.002782 0.008126 -0.003545 0.000000 0.000000 0.000000
# 3 0.003078 -0.003545 0.011080 0.000000 0.000000 0.000000
# 4 0.000000 0.000000 0.000000 0.021198 0.000000 0.000000
# 5 0.000000 0.000000 0.000000 0.000000 0.025515 0.000000
# 6 0.000000 0.000000 0.000000 0.000000 0.000000 0.025667
#
#
# Mechanical properties :
#
#
# Convention : Reuss Voigt Hill
#
# Bulk Modulus (GPa) = 29.26065 43.93137 36.59601
# Shear Modulus (GPa) = 38.18415 42.15948 40.17181
#
# Velocity S-wave (km/s) = 3.88744 4.08479 3.98734
# Velocity P-wave (km/s) = 5.63295 6.29556 5.97345
#
# Compressibility (1/GPa) = 0.03417559
#
# Stress axis : x y z
#
# Youngs Moduli (GPa) = 46.57956 123.06596 90.25611
#
# Poissons Ratio (x) = 0.34237 -0.27781
# Poissons Ratio (y) = 0.12959 0.31997
# Poissons Ratio (z) = -0.14337 0.43629
#
# Static dielectric constant tensor:
#      x y z
#    x 2.084490 0.000000 0.000000 
#    y 0.000000 2.087260 0.000000 
#    z 0.000000 0.000000 2.066480 
# 
# From -- ./inp_files/4647.got.cif
#   From: 2010.05.17/outbox.cif.g08.bks.cpg/sg33_3_cif.got.tgz:4647.got - 2010.06.03 17:15:25.
