data_PCOD9345170
_publ_section_title
;
Structure prediction by ZEFSAII (Michael W. Deem and Ramdas Pophale) SiO2 
 PCOD9345170
Probable space group: P N A 21
;
_chemical_formula_sum "Si O2"
_cell_formula_units_Z 32
_cell_length_a 15.843853
_cell_length_b 10.099591
_cell_length_c 8.953103
_cell_angle_alpha 90.000000
_cell_angle_beta 90.000000
_cell_angle_gamma 90.000000
_cell_volume 1432.643626
_symmetry_space_group_name_H-M "P N A 21"
_symmetry_group_IT_number 33
_symmetry_cell_setting 'orthorhombic'
loop_
_space_group_symop_operation_xyz
x,y,z
-x,-y,1/2+z
1/2-x,1/2+y,1/2+z
1/2+x,1/2-y,z
loop_
_atom_site_type_symbol
_atom_site_label
_atom_site_fract_x
_atom_site_fract_y
_atom_site_fract_z
Si Si1 0.752571 0.850793 0.656130
Si Si2 0.481307 0.895999 0.403376
Si Si3 0.646613 0.872746 0.947397
Si Si4 0.256111 0.939855 0.670796
Si Si5 0.642495 0.057065 0.473858
Si Si6 0.941002 0.861167 0.587233
Si Si7 0.567451 0.504974 0.774374
Si Si8 0.490741 0.751298 0.098216
O O1 0.705999 0.828857 0.813193
O O2 0.746979 0.701957 0.584641
O O3 0.710826 0.977056 0.573009
O O4 0.851417 0.881547 0.665501
O O5 0.564772 0.955788 0.472864
O O6 0.446119 0.781223 0.508435
O O7 0.505033 0.844944 0.241068
O O8 0.412323 0.009185 0.388325
O O9 0.578048 0.766054 0.006165
O O10 0.705212 0.941544 0.072392
O O11 0.319124 0.921662 0.810296
O O12 0.165285 0.978675 0.736660
O O13 0.595322 0.191602 0.524412
O O14 0.947039 0.960059 0.444345
O O15 0.013892 0.872664 0.710733
O O16 0.529688 0.388363 0.670986
#
# Coordination Sequence:
#
# PCOD9345170 Si02
#       8
#     4   4   4   4   4   4   4   4
#     4  12  26  45  73 104 140 185 238 294 352 424
#     4  10  20  45  69  98 135 180 227 286 349 412
#     4  11  24  43  72 102 136 182 238 290 355 416
#     4  12  26  45  69 104 139 185 241 294 352 429
#     4  11  23  44  69 100 136 179 235 293 339 424
#     4  11  25  47  68 100 145 183 231 291 358 428
#     4  11  27  46  68 102 147 184 229 291 364 424
#     4  10  23  43  70 100 138 180 229 287 353 423
#
# _framework density 22.336328000000002
#
# number of rings (size 3 to 8) (size 9 to 14) (size 15 to 20)
#    0.000    1.000    5.000    0.750    5.250    0.000 
#    2.250    0.000    0.000    0.000    0.000    0.000 
#    0.000    0.000    0.000    0.000    0.000    0.000 
#
# Total GULP energy -178879.355947 kJ/mol
# GULP energy per Si atom -5589.979873 kJ/mol
# Density = 2.228549 g / cm^3
# Si number density = 22.336328 Si / 1000 Ang^3
#
#
#
# Elastic Constant Matrix: (Units=GPa)
#
#
# Indices 1 2 3 4 5 6 
#
# 1 120.5537 13.0064 51.1274 0.0000 0.0000 0.0000
# 2 13.0064 38.9705 26.9493 0.0000 0.0000 0.0000
# 3 51.1274 26.9493 61.4321 0.0000 0.0000 0.0000
# 4 0.0000 0.0000 0.0000 19.7464 0.0000 0.0000
# 5 0.0000 0.0000 0.0000 0.0000 47.2008 0.0000
# 6 0.0000 0.0000 0.0000 0.0000 0.0000 26.0819
#
#
#
# Elastic Compliance Matrix: (Units=1/GPa)
#
#
# Indices 1 2 3 4 5 6 
#
# 1 0.013381 0.004644 -0.013174 0.000000 0.000000 0.000000
# 2 0.004644 0.038447 -0.020731 0.000000 0.000000 0.000000
# 3 -0.013174 -0.020731 0.036337 0.000000 0.000000 0.000000
# 4 0.000000 0.000000 0.000000 0.050642 0.000000 0.000000
# 5 0.000000 0.000000 0.000000 0.000000 0.021186 0.000000
# 6 0.000000 0.000000 0.000000 0.000000 0.000000 0.038341
#
#
# Mechanical properties :
#
#
# Convention : Reuss Voigt Hill
#
# Bulk Modulus (GPa) = 33.73499 44.79137 39.26318
# Shear Modulus (GPa) = 18.74512 27.26402 23.00457
#
# Velocity S-wave (km/s) = 2.90007 3.49752 3.21271
# Velocity P-wave (km/s) = 5.13321 6.03381 5.60164
#
# Compressibility (1/GPa) = 0.02964281
#
# Stress axis : x y z
#
# Youngs Moduli (GPa) = 74.73216 26.01005 27.52040
#
# Poissons Ratio (x) = -0.12080 0.36255
# Poissons Ratio (y) = -0.34707 0.57053
# Poissons Ratio (z) = 0.98451 0.53922
#
# Static dielectric constant tensor:
#      x y z
#    x 1.837050 0.000000 0.000000 
#    y 0.000000 1.955750 0.000000 
#    z 0.000000 0.000000 1.812930 
# 
# From -- ./inp_files/4401.got.cif
#   From: 2010.05.17/outbox.cif.g08.bks.cpg/sg33_3_cif.got.tgz:4401.got - 2010.06.03 17:15:25.
