data_PCOD9345261
_publ_section_title
;
Structure prediction by ZEFSAII (Michael W. Deem and Ramdas Pophale) SiO2 
 PCOD9345261
Probable space group: P N A 21
;
_chemical_formula_sum "Si O2"
_cell_formula_units_Z 24
_cell_length_a 33.463335
_cell_length_b 4.910023
_cell_length_c 5.352395
_cell_angle_alpha 90.000000
_cell_angle_beta 90.000000
_cell_angle_gamma 90.000000
_cell_volume 879.429245
_symmetry_space_group_name_H-M "P N A 21"
_symmetry_group_IT_number 33
_symmetry_cell_setting 'orthorhombic'
loop_
_space_group_symop_operation_xyz
x,y,z
-x,-y,1/2+z
1/2-x,1/2+y,1/2+z
1/2+x,1/2-y,z
loop_
_atom_site_type_symbol
_atom_site_label
_atom_site_fract_x
_atom_site_fract_y
_atom_site_fract_z
Si Si1 0.801233 0.254567 0.511750
Si Si2 0.477148 0.536571 0.175261
Si Si3 0.139368 0.367119 0.516951
Si Si4 0.570434 0.942852 0.824413
Si Si5 0.880599 0.133636 0.686244
Si Si6 0.217567 0.240134 0.313293
O O1 0.846173 0.150558 0.469045
O O2 0.799398 0.568066 0.593276
O O3 0.764195 0.197788 0.332289
O O4 0.787687 0.073377 0.748704
O O5 0.504962 0.418849 0.399475
O O6 0.461995 0.820179 0.294868
O O7 0.442954 0.305808 0.146323
O O8 0.110624 0.392468 0.752224
O O9 0.136329 0.661766 0.392337
O O10 0.186304 0.301224 0.536521
O O11 0.119561 0.157360 0.317877
O O12 0.580020 0.773424 0.074801
#
# Coordination Sequence:
#
# PCOD9345261 Si02
#       6
#     4   4   4   4   4   4
#     4  10  21  38  59  90 133 184 234 301 355 422
#     4  12  30  52  80 116 149 194 245 304 392 472
#     4  10  23  42  66 102 142 184 247 298 364 436
#     4  12  26  46  80 104 143 196 231 316 366 462
#     4  10  23  42  66 102 142 184 247 298 364 436
#     4  10  21  38  59  90 133 184 234 301 355 422
#
# _framework density 27.290430000000001
#
# number of rings (size 3 to 8) (size 9 to 14) (size 15 to 20)
#    0.000    1.333    0.000    4.000    9.333    0.000 
#    3.000    0.000    0.000    0.000    0.000    0.000 
#    0.000    0.000    0.000    0.000    0.000    0.000 
#
# Total GULP energy -134241.411128 kJ/mol
# GULP energy per Si atom -5593.392130 kJ/mol
# Density = 2.722832 g / cm^3
# Si number density = 27.290430 Si / 1000 Ang^3
#
#
#
# Elastic Constant Matrix: (Units=GPa)
#
#
# Indices 1 2 3 4 5 6 
#
# 1 56.5724 32.8706 29.7260 0.0000 0.0000 0.0000
# 2 32.8706 139.2475 28.2776 0.0000 0.0000 0.0000
# 3 29.7260 28.2776 101.8789 0.0000 0.0000 0.0000
# 4 0.0000 0.0000 0.0000 23.6086 0.0000 0.0000
# 5 0.0000 0.0000 0.0000 0.0000 35.4612 0.0000
# 6 0.0000 0.0000 0.0000 0.0000 0.0000 56.8226
#
#
#
# Elastic Compliance Matrix: (Units=1/GPa)
#
#
# Indices 1 2 3 4 5 6 
#
# 1 0.023102 -0.004329 -0.005539 0.000000 0.000000 0.000000
# 2 -0.004329 0.008421 -0.001074 0.000000 0.000000 0.000000
# 3 -0.005539 -0.001074 0.011730 0.000000 0.000000 0.000000
# 4 0.000000 0.000000 0.000000 0.042357 0.000000 0.000000
# 5 0.000000 0.000000 0.000000 0.000000 0.028200 0.000000
# 6 0.000000 0.000000 0.000000 0.000000 0.000000 0.017599
#
#
# Mechanical properties :
#
#
# Convention : Reuss Voigt Hill
#
# Bulk Modulus (GPa) = 46.79677 53.27193 50.03435
# Shear Modulus (GPa) = 31.16874 36.96679 34.06776
#
# Velocity S-wave (km/s) = 3.38318 3.68444 3.53702
# Velocity P-wave (km/s) = 5.69615 6.13701 5.92068
#
# Compressibility (1/GPa) = 0.02136900
#
# Stress axis : x y z
#
# Youngs Moduli (GPa) = 43.28608 118.74430 85.25125
#
# Poissons Ratio (x) = 0.51399 0.47223
# Poissons Ratio (y) = 0.18737 0.09160
# Poissons Ratio (z) = 0.23977 0.12759
#
# Static dielectric constant tensor:
#      x y z
#    x 2.301730 0.000000 0.000000 
#    y 0.000000 2.018620 0.000000 
#    z 0.000000 0.000000 2.179090 
# 
# From -- ./inp_files/2488.got.cif
#   From: 2010.05.17/outbox.cif.g08.bks.cpg/sg33_2_cif.got.tgz:2488.got - 2010.06.03 17:15:25.
