data_PCOD9345378
_publ_section_title
;
Structure prediction by ZEFSAII (Michael W. Deem and Ramdas Pophale) SiO2 
 PCOD9345378
Probable space group: P N A 21
;
_chemical_formula_sum "Si O2"
_cell_formula_units_Z 28
_cell_length_a 11.995318
_cell_length_b 8.300187
_cell_length_c 13.889740
_cell_angle_alpha 90.000000
_cell_angle_beta 90.000000
_cell_angle_gamma 90.000000
_cell_volume 1382.909497
_symmetry_space_group_name_H-M "P N A 21"
_symmetry_group_IT_number 33
_symmetry_cell_setting 'orthorhombic'
loop_
_space_group_symop_operation_xyz
x,y,z
-x,-y,1/2+z
1/2-x,1/2+y,1/2+z
1/2+x,1/2-y,z
loop_
_atom_site_type_symbol
_atom_site_label
_atom_site_fract_x
_atom_site_fract_y
_atom_site_fract_z
Si Si1 0.171154 0.949783 0.509350
Si Si2 0.032927 0.654998 0.475522
Si Si3 0.382803 0.551303 0.409516
Si Si4 0.442153 0.424825 0.603541
Si Si5 0.350469 0.955096 0.823063
Si Si6 0.897965 0.448400 0.612339
Si Si7 0.901974 0.917845 0.811930
O O1 0.282013 0.005912 0.561055
O O2 0.171331 0.004059 0.397599
O O3 0.066120 0.021126 0.569771
O O4 0.140695 0.761695 0.502031
O O5 0.945147 0.775292 0.421358
O O6 0.982006 0.580854 0.571250
O O7 0.066277 0.509384 0.406904
O O8 0.364699 0.497549 0.519679
O O9 0.270066 0.525124 0.351816
O O10 0.474389 0.436716 0.357863
O O11 0.434138 0.233680 0.593629
O O12 0.408571 0.492143 0.708753
O O13 0.359540 0.764608 0.804808
O O14 0.386257 0.038486 0.725472
#
# Coordination Sequence:
#
# PCOD9345378 Si02
#       7
#     4   4   4   4   4   4   4
#     4  10  22  41  61  84 122 160 199 254 299 353
#     4  10  22  40  60  90 122 154 202 254 296 352
#     4  10  22  41  61  84 122 160 199 254 299 353
#     4  10  21  40  60  87 123 159 200 251 300 356
#     4  12  23  38  63  90 118 160 202 245 306 364
#     4  12  23  38  63  90 118 160 202 245 306 364
#     4  10  21  40  60  87 123 159 200 251 300 356
#
# _framework density 20.247167999999999
#
# number of rings (size 3 to 8) (size 9 to 14) (size 15 to 20)
#    0.000    1.714    0.000    7.714    0.000    0.000 
#    0.000    2.857    0.000    0.000    0.000    0.000 
#    0.000    0.000    0.000    0.000    0.000    0.000 
#
# Total GULP energy -156288.770183 kJ/mol
# GULP energy per Si atom -5581.741792 kJ/mol
# Density = 2.020108 g / cm^3
# Si number density = 20.247168 Si / 1000 Ang^3
#
#
#
# Elastic Constant Matrix: (Units=GPa)
#
#
# Indices 1 2 3 4 5 6 
#
# 1 5.6565 3.2010 5.2483 0.0000 0.0000 0.0000
# 2 3.2010 78.2824 -25.0524 0.0000 0.0000 0.0000
# 3 5.2483 -25.0524 61.3870 0.0000 0.0000 0.0000
# 4 0.0000 0.0000 0.0000 39.2582 0.0000 0.0000
# 5 0.0000 0.0000 0.0000 0.0000 28.3080 0.0000
# 6 0.0000 0.0000 0.0000 0.0000 0.0000 13.2116
#
#
#
# Elastic Compliance Matrix: (Units=1/GPa)
#
#
# Indices 1 2 3 4 5 6 
#
# 1 0.208840 -0.016395 -0.024546 0.000000 0.000000 0.000000
# 2 -0.016395 0.015980 0.007923 0.000000 0.000000 0.000000
# 3 -0.024546 0.007923 0.021622 0.000000 0.000000 0.000000
# 4 0.000000 0.000000 0.000000 0.025472 0.000000 0.000000
# 5 0.000000 0.000000 0.000000 0.000000 0.035326 0.000000
# 6 0.000000 0.000000 0.000000 0.000000 0.000000 0.075691
#
#
# Mechanical properties :
#
#
# Convention : Reuss Voigt Hill
#
# Bulk Modulus (GPa) = 5.54300 12.45776 9.00038
# Shear Modulus (GPa) = 9.82122 26.95081 18.38601
#
# Velocity S-wave (km/s) = 2.20481 3.65237 3.01670
# Velocity P-wave (km/s) = 3.03730 4.89414 4.07295
#
# Compressibility (1/GPa) = 0.18040766
#
# Stress axis : x y z
#
# Youngs Moduli (GPa) = 4.78837 62.57687 46.24873
#
# Poissons Ratio (x) = 1.02594 1.13521
# Poissons Ratio (y) = 0.07850 -0.36645
# Poissons Ratio (z) = 0.11753 -0.49582
#
# Static dielectric constant tensor:
#      x y z
#    x 1.729910 0.000000 0.000000 
#    y 0.000000 1.722780 0.000000 
#    z 0.000000 0.000000 1.694300 
# 
# From -- ./inp_files/7922.got.cif
#   From: 2010.05.17/outbox.cif.g08.bks.cpg/sg33_4_cif.got.tgz:7922.got - 2010.06.03 17:15:25.
