data_PCOD9345099
_publ_section_title
;
Structure prediction by ZEFSAII (Michael W. Deem and Ramdas Pophale) SiO2 
 PCOD9345099
Probable space group: P N A 21
;
_chemical_formula_sum "Si O2"
_cell_formula_units_Z 24
_cell_length_a 12.839269
_cell_length_b 5.406821
_cell_length_c 13.128336
_cell_angle_alpha 90.000000
_cell_angle_beta 90.000000
_cell_angle_gamma 90.000000
_cell_volume 911.364218
_symmetry_space_group_name_H-M "P N A 21"
_symmetry_group_IT_number 33
_symmetry_cell_setting 'orthorhombic'
loop_
_space_group_symop_operation_xyz
x,y,z
-x,-y,1/2+z
1/2-x,1/2+y,1/2+z
1/2+x,1/2-y,z
loop_
_atom_site_type_symbol
_atom_site_label
_atom_site_fract_x
_atom_site_fract_y
_atom_site_fract_z
Si Si1 0.652672 0.548669 0.228250
Si Si2 0.818086 0.438221 0.063336
Si Si3 0.129996 0.073994 0.918668
Si Si4 0.406655 0.955934 0.749190
Si Si5 0.547101 0.933046 0.017923
Si Si6 0.427396 0.393425 0.207540
O O1 0.747465 0.564095 0.151141
O O2 0.630316 0.787802 0.294768
O O3 0.538030 0.512125 0.175243
O O4 0.659980 0.282211 0.282863
O O5 0.741975 0.399902 0.970036
O O6 0.856529 0.181864 0.114425
O O7 0.923236 0.581553 0.036889
O O8 0.067766 0.317927 0.953216
O O9 0.085832 0.816040 0.964588
O O10 0.124169 0.046030 0.797135
O O11 0.396826 0.006122 0.626808
O O12 0.525876 0.863591 0.756388
#
# Coordination Sequence:
#
# PCOD9345099 Si02
#       6
#     4   4   4   4   4   4
#     4  10  20  41  67  97 136 183 240 300 367 453
#     4  11  22  46  74 106 138 207 250 309 387 467
#     4  12  25  46  68 107 151 189 252 322 368 464
#     4   9  18  41  62  93 130 185 224 291 374 429
#     4  11  24  42  69 100 139 188 245 308 385 442
#     4   9  25  42  70 101 148 192 245 308 381 445
#
# _framework density 26.334149
#
# number of rings (size 3 to 8) (size 9 to 14) (size 15 to 20)
#    1.000    0.667    3.333    0.000    2.333    4.000 
#    6.000    0.000    0.000    0.000    0.000    0.000 
#    0.000    0.000    0.000    0.000    0.000    0.000 
#
# Total GULP energy -134216.595104 kJ/mol
# GULP energy per Si atom -5592.358129 kJ/mol
# Density = 2.627421 g / cm^3
# Si number density = 26.334149 Si / 1000 Ang^3
#
#
#
# Elastic Constant Matrix: (Units=GPa)
#
#
# Indices 1 2 3 4 5 6 
#
# 1 176.1433 54.3795 52.6909 0.0000 0.0000 0.0000
# 2 54.3795 198.6391 44.8598 0.0000 0.0000 0.0000
# 3 52.6909 44.8598 99.7572 0.0000 0.0000 0.0000
# 4 0.0000 0.0000 0.0000 35.3774 0.0000 0.0000
# 5 0.0000 0.0000 0.0000 0.0000 39.1658 0.0000
# 6 0.0000 0.0000 0.0000 0.0000 0.0000 30.5317
#
#
#
# Elastic Compliance Matrix: (Units=1/GPa)
#
#
# Indices 1 2 3 4 5 6 
#
# 1 0.006991 -0.001202 -0.003152 0.000000 0.000000 0.000000
# 2 -0.001202 0.005810 -0.001978 0.000000 0.000000 0.000000
# 3 -0.003152 -0.001978 0.012579 0.000000 0.000000 0.000000
# 4 0.000000 0.000000 0.000000 0.028267 0.000000 0.000000
# 5 0.000000 0.000000 0.000000 0.000000 0.025532 0.000000
# 6 0.000000 0.000000 0.000000 0.000000 0.000000 0.032753
#
#
# Mechanical properties :
#
#
# Convention : Reuss Voigt Hill
#
# Bulk Modulus (GPa) = 78.64168 86.48890 82.56529
# Shear Modulus (GPa) = 38.80951 42.52228 40.66589
#
# Velocity S-wave (km/s) = 3.84309 4.02272 3.93393
# Velocity P-wave (km/s) = 7.04417 7.38177 7.21494
#
# Compressibility (1/GPa) = 0.01271590
#
# Stress axis : x y z
#
# Youngs Moduli (GPa) = 143.03653 172.11762 79.49971
#
# Poissons Ratio (x) = 0.20689 0.25060
# Poissons Ratio (y) = 0.17194 0.15723
# Poissons Ratio (z) = 0.45087 0.34041
#
# Static dielectric constant tensor:
#      x y z
#    x 2.059450 0.000000 0.000000 
#    y 0.000000 2.216920 0.000000 
#    z 0.000000 0.000000 2.077660 
# 
# From -- ./inp_files/8073.got.cif
#   From: 2010.05.17/outbox.cif.g08.bks.cpg/sg33_5_cif.got.tgz:8073.got - 2010.06.03 17:15:25.
