data_PCOD9345486
_publ_section_title
;
Structure prediction by ZEFSAII (Michael W. Deem and Ramdas Pophale) SiO2 
 PCOD9345486
Probable space group: P N A 21
;
_chemical_formula_sum "Si O2"
_cell_formula_units_Z 24
_cell_length_a 9.836853
_cell_length_b 7.988730
_cell_length_c 10.858467
_cell_angle_alpha 90.000000
_cell_angle_beta 90.000000
_cell_angle_gamma 90.000000
_cell_volume 853.301365
_symmetry_space_group_name_H-M "P N A 21"
_symmetry_group_IT_number 33
_symmetry_cell_setting 'orthorhombic'
loop_
_space_group_symop_operation_xyz
x,y,z
-x,-y,1/2+z
1/2-x,1/2+y,1/2+z
1/2+x,1/2-y,z
loop_
_atom_site_type_symbol
_atom_site_label
_atom_site_fract_x
_atom_site_fract_y
_atom_site_fract_z
Si Si1 0.380277 0.527037 0.011480
Si Si2 0.898152 0.755603 0.435852
Si Si3 0.150896 0.552307 0.497785
Si Si4 0.003616 0.263151 0.678419
Si Si5 0.810211 0.574180 0.732788
Si Si6 0.302916 0.542595 0.741544
O O1 0.432613 0.714952 0.047454
O O2 0.315101 0.462515 0.140280
O O3 0.511932 0.417285 0.974850
O O4 0.285178 0.539478 0.889891
O O5 0.995162 0.604022 0.477558
O O6 0.890705 0.743590 0.289651
O O7 0.745305 0.782180 0.478419
O O8 0.206894 0.448390 0.380406
O O9 0.184224 0.515694 0.640125
O O10 0.913055 0.426759 0.695516
O O11 0.906465 0.104157 0.708303
O O12 0.856564 0.767071 0.717096
#
# Coordination Sequence:
#
# PCOD9345486 Si02
#       6
#     4   4   4   4   4   4
#     4  11  22  44  73 103 145 196 251 303 383 455
#     4  10  21  41  74  98 146 196 234 311 371 435
#     4  11  22  44  74 104 149 195 249 305 378 449
#     4  10  23  46  70 103 144 196 245 308 376 449
#     4  11  25  47  71 107 148 190 259 309 374 461
#     4  11  25  44  72 111 142 201 248 314 382 451
#
# _framework density 28.126051
#
# number of rings (size 3 to 8) (size 9 to 14) (size 15 to 20)
#    0.000    1.333    5.000    0.000    2.333    0.000 
#    9.000    1.667    0.000    0.000    0.000    0.000 
#    0.000    0.000    0.000    0.000    0.000    0.000 
#
# Total GULP energy -134375.865681 kJ/mol
# GULP energy per Si atom -5598.994403 kJ/mol
# Density = 2.806204 g / cm^3
# Si number density = 28.126051 Si / 1000 Ang^3
#
#
#
# Elastic Constant Matrix: (Units=GPa)
#
#
# Indices 1 2 3 4 5 6 
#
# 1 114.8279 19.0161 58.0238 0.0000 0.0000 0.0000
# 2 19.0161 139.8352 78.3864 0.0000 0.0000 0.0000
# 3 58.0238 78.3864 240.1479 0.0000 0.0000 0.0000
# 4 0.0000 0.0000 0.0000 76.5604 0.0000 0.0000
# 5 0.0000 0.0000 0.0000 0.0000 63.1828 0.0000
# 6 0.0000 0.0000 0.0000 0.0000 0.0000 41.6189
#
#
#
# Elastic Compliance Matrix: (Units=1/GPa)
#
#
# Indices 1 2 3 4 5 6 
#
# 1 0.009920 -0.000007 -0.002395 0.000000 0.000000 0.000000
# 2 -0.000007 0.008753 -0.002855 0.000000 0.000000 0.000000
# 3 -0.002395 -0.002855 0.005675 0.000000 0.000000 0.000000
# 4 0.000000 0.000000 0.000000 0.013062 0.000000 0.000000
# 5 0.000000 0.000000 0.000000 0.000000 0.015827 0.000000
# 6 0.000000 0.000000 0.000000 0.000000 0.000000 0.024028
#
#
# Mechanical properties :
#
#
# Convention : Reuss Voigt Hill
#
# Bulk Modulus (GPa) = 72.28563 89.51816 80.90190
# Shear Modulus (GPa) = 54.11948 58.89808 56.50878
#
# Velocity S-wave (km/s) = 4.39130 4.58107 4.48719
# Velocity P-wave (km/s) = 7.17410 7.73810 7.46143
#
# Compressibility (1/GPa) = 0.01383401
#
# Stress axis : x y z
#
# Youngs Moduli (GPa) = 100.80829 114.24906 176.22055
#
# Poissons Ratio (x) = 0.00076 0.42198
# Poissons Ratio (y) = 0.00067 0.50318
# Poissons Ratio (z) = 0.24140 0.32623
#
# Static dielectric constant tensor:
#      x y z
#    x 2.119140 0.000000 0.000000 
#    y 0.000000 2.362840 0.000000 
#    z 0.000000 0.000000 2.247430 
# 
# From -- ./inp_files/6265.got.cif
#   From: 2010.05.17/outbox.cif.g08.bks.cpg/sg33_4_cif.got.tgz:6265.got - 2010.06.03 17:15:25.
