data_PCOD9345525
_publ_section_title
;
Structure prediction by ZEFSAII (Michael W. Deem and Ramdas Pophale) SiO2 
 PCOD9345525
Probable space group: P N A 21
;
_chemical_formula_sum "Si O2"
_cell_formula_units_Z 28
_cell_length_a 14.627805
_cell_length_b 13.953808
_cell_length_c 6.530621
_cell_angle_alpha 90.000000
_cell_angle_beta 90.000000
_cell_angle_gamma 90.000000
_cell_volume 1332.988448
_symmetry_space_group_name_H-M "P N A 21"
_symmetry_group_IT_number 33
_symmetry_cell_setting 'orthorhombic'
loop_
_space_group_symop_operation_xyz
x,y,z
-x,-y,1/2+z
1/2-x,1/2+y,1/2+z
1/2+x,1/2-y,z
loop_
_atom_site_type_symbol
_atom_site_label
_atom_site_fract_x
_atom_site_fract_y
_atom_site_fract_z
Si Si1 0.376891 0.626863 0.929140
Si Si2 0.695854 0.540008 0.136586
Si Si3 0.610914 0.051166 0.839174
Si Si4 0.238633 0.113160 0.822994
Si Si5 0.573785 0.893309 0.145414
Si Si6 0.964906 0.179965 0.698066
Si Si7 0.898278 0.753797 0.545961
O O1 0.349707 0.539831 0.783748
O O2 0.396788 0.717062 0.782334
O O3 0.297315 0.636533 0.096055
O O4 0.467167 0.613859 0.065778
O O5 0.799122 0.561738 0.203102
O O6 0.633378 0.631716 0.178497
O O7 0.701089 0.487713 0.914718
O O8 0.517560 0.052730 0.712978
O O9 0.604180 0.141886 0.993180
O O10 0.616304 0.952381 0.960596
O O11 0.347951 0.110944 0.819460
O O12 0.193422 0.196260 0.958197
O O13 0.544513 0.785223 0.101954
O O14 0.016659 0.199173 0.916248
#
# Coordination Sequence:
#
# PCOD9345525 Si02
#       7
#     4   4   4   4   4   4   4
#     4  10  22  41  67  97 127 168 218 265 336 388
#     4  11  23  41  67  97 132 171 215 273 337 395
#     4  11  23  42  66  95 128 176 220 274 332 400
#     4  10  21  43  63  95 132 168 211 277 322 403
#     4  11  23  43  63  92 131 168 225 268 331 395
#     4  10  24  40  66  95 129 170 214 275 331 396
#     4   9  22  42  66  93 133 169 217 270 325 397
#
# _framework density 21.005434000000001
#
# number of rings (size 3 to 8) (size 9 to 14) (size 15 to 20)
#    0.000    1.714    1.429    1.714    8.000    0.000 
#    5.143    0.000    0.000    0.000    0.000    0.000 
#    0.000    0.000    0.000    0.000    0.000    0.000 
#
# Total GULP energy -156263.989896 kJ/mol
# GULP energy per Si atom -5580.856782 kJ/mol
# Density = 2.095762 g / cm^3
# Si number density = 21.005434 Si / 1000 Ang^3
#
#
#
# Elastic Constant Matrix: (Units=GPa)
#
#
# Indices 1 2 3 4 5 6 
#
# 1 146.0442 14.2706 29.1758 0.0000 0.0000 0.0000
# 2 14.2706 39.1334 21.3707 0.0000 0.0000 0.0000
# 3 29.1758 21.3707 83.3572 0.0000 0.0000 0.0000
# 4 0.0000 0.0000 0.0000 23.2304 0.0000 0.0000
# 5 0.0000 0.0000 0.0000 0.0000 19.3756 0.0000
# 6 0.0000 0.0000 0.0000 0.0000 0.0000 38.3193
#
#
#
# Elastic Compliance Matrix: (Units=1/GPa)
#
#
# Indices 1 2 3 4 5 6 
#
# 1 0.007437 -0.001501 -0.002218 0.000000 0.000000 0.000000
# 2 -0.001501 0.030017 -0.007170 0.000000 0.000000 0.000000
# 3 -0.002218 -0.007170 0.014611 0.000000 0.000000 0.000000
# 4 0.000000 0.000000 0.000000 0.043047 0.000000 0.000000
# 5 0.000000 0.000000 0.000000 0.000000 0.051611 0.000000
# 6 0.000000 0.000000 0.000000 0.000000 0.000000 0.026097
#
#
# Mechanical properties :
#
#
# Convention : Reuss Voigt Hill
#
# Bulk Modulus (GPa) = 33.01805 44.24100 38.62952
# Shear Modulus (GPa) = 24.42675 29.76623 27.09649
#
# Velocity S-wave (km/s) = 3.41380 3.76849 3.59552
# Velocity P-wave (km/s) = 5.59389 6.32793 5.97220
#
# Compressibility (1/GPa) = 0.03028647
#
# Stress axis : x y z
#
# Youngs Moduli (GPa) = 134.46221 33.31498 68.44030
#
# Poissons Ratio (x) = 0.04999 0.15182
# Poissons Ratio (y) = 0.20178 0.49073
# Poissons Ratio (z) = 0.29828 0.23888
#
# Static dielectric constant tensor:
#      x y z
#    x 1.775360 0.000000 0.000000 
#    y 0.000000 1.766200 0.000000 
#    z 0.000000 0.000000 1.794490 
# 
# From -- ./inp_files/1440.got.cif
#   From: 2010.05.17/outbox.cif.g08.bks.cpg/sg33_1_cif.got.tgz:1440.got - 2010.06.03 17:15:25.
