data_PCOD9345787
_publ_section_title
;
Structure prediction by ZEFSAII (Michael W. Deem and Ramdas Pophale) SiO2 
 PCOD9345787
Probable space group: P N A 21
;
_chemical_formula_sum "Si O2"
_cell_formula_units_Z 32
_cell_length_a 16.678324
_cell_length_b 8.057909
_cell_length_c 9.974524
_cell_angle_alpha 90.000000
_cell_angle_beta 90.000000
_cell_angle_gamma 90.000000
_cell_volume 1340.500389
_symmetry_space_group_name_H-M "P N A 21"
_symmetry_group_IT_number 33
_symmetry_cell_setting 'orthorhombic'
loop_
_space_group_symop_operation_xyz
x,y,z
-x,-y,1/2+z
1/2-x,1/2+y,1/2+z
1/2+x,1/2-y,z
loop_
_atom_site_type_symbol
_atom_site_label
_atom_site_fract_x
_atom_site_fract_y
_atom_site_fract_z
Si Si1 0.046438 0.536259 0.189030
Si Si2 0.431027 0.395884 0.566310
Si Si3 0.350913 0.249044 0.313312
Si Si4 0.255791 0.022772 0.512271
Si Si5 0.684341 0.331745 0.002433
Si Si6 0.413438 0.382891 0.038365
Si Si7 0.536076 0.162933 0.912036
Si Si8 0.287461 0.021365 0.791680
O O1 0.063838 0.725770 0.147136
O O2 0.309738 0.093272 0.391675
O O3 0.039264 0.432541 0.053634
O O4 0.120152 0.474605 0.279943
O O5 0.415131 0.330283 0.414912
O O6 0.356293 0.524003 0.591203
O O7 0.513708 0.496143 0.583159
O O8 0.385350 0.267859 0.163351
O O9 0.274910 0.372940 0.310063
O O10 0.470211 0.958861 0.286574
O O11 0.294226 0.847402 0.559387
O O12 0.162619 0.988493 0.487041
O O13 0.264912 0.119828 0.653524
O O14 0.764598 0.376616 0.923529
O O15 0.611219 0.286073 0.901638
O O16 0.455693 0.271532 0.926100
#
# Coordination Sequence:
#
# PCOD9345787 Si02
#       8
#     4   4   4   4   4   4   4   4
#     4  12  25  46  69 107 141 190 240 301 365 437
#     4  10  23  43  73  97 145 189 237 301 364 427
#     4  10  22  44  72  99 142 191 237 304 364 428
#     4  11  21  45  67 103 141 186 238 302 356 436
#     4  10  22  45  67  98 140 184 231 304 352 428
#     4  10  25  43  67 106 141 190 249 293 370 436
#     4  11  26  44  69 102 145 187 242 298 358 441
#     4  10  22  42  66  98 139 177 242 283 365 431
#
# _framework density 23.871682
#
# number of rings (size 3 to 8) (size 9 to 14) (size 15 to 20)
#    0.000    1.500    2.500    0.750   10.500    1.000 
#    9.000    0.000    0.000    0.000    0.000    0.000 
#    0.000    0.000    0.000    0.000    0.000    0.000 
#
# Total GULP energy -178508.293822 kJ/mol
# GULP energy per Si atom -5578.384182 kJ/mol
# Density = 2.381735 g / cm^3
# Si number density = 23.871682 Si / 1000 Ang^3
#
#
#
# Elastic Constant Matrix: (Units=GPa)
#
#
# Indices 1 2 3 4 5 6 
#
# 1 101.3497 13.9760 19.3705 0.0000 0.0000 0.0000
# 2 13.9760 49.9727 3.6554 0.0000 0.0000 0.0000
# 3 19.3705 3.6554 67.0081 0.0000 0.0000 0.0000
# 4 0.0000 0.0000 0.0000 24.5908 0.0000 0.0000
# 5 0.0000 0.0000 0.0000 0.0000 39.1234 0.0000
# 6 0.0000 0.0000 0.0000 0.0000 0.0000 35.4169
#
#
#
# Elastic Compliance Matrix: (Units=1/GPa)
#
#
# Indices 1 2 3 4 5 6 
#
# 1 0.010823 -0.002809 -0.002975 0.000000 0.000000 0.000000
# 2 -0.002809 0.020820 -0.000324 0.000000 0.000000 0.000000
# 3 -0.002975 -0.000324 0.015801 0.000000 0.000000 0.000000
# 4 0.000000 0.000000 0.000000 0.040666 0.000000 0.000000
# 5 0.000000 0.000000 0.000000 0.000000 0.025560 0.000000
# 6 0.000000 0.000000 0.000000 0.000000 0.000000 0.028235
#
#
# Mechanical properties :
#
#
# Convention : Reuss Voigt Hill
#
# Bulk Modulus (GPa) = 28.38661 32.48158 30.43409
# Shear Modulus (GPa) = 30.14506 31.91479 31.02992
#
# Velocity S-wave (km/s) = 3.55744 3.66037 3.60927
# Velocity P-wave (km/s) = 5.36572 5.61255 5.49052
#
# Compressibility (1/GPa) = 0.03522788
#
# Stress axis : x y z
#
# Youngs Moduli (GPa) = 92.39682 48.03010 63.28576
#
# Poissons Ratio (x) = 0.13493 0.18830
# Poissons Ratio (y) = 0.25956 0.02049
# Poissons Ratio (z) = 0.27492 0.01555
#
# Static dielectric constant tensor:
#      x y z
#    x 1.964310 0.000000 0.000000 
#    y 0.000000 2.004660 0.000000 
#    z 0.000000 0.000000 1.971710 
# 
# From -- ./inp_files/7018.got.cif
#   From: 2010.05.17/outbox.cif.g08.bks.cpg/sg33_4_cif.got.tgz:7018.got - 2010.06.03 17:15:25.
