data_PCOD9345843
_publ_section_title
;
Structure prediction by ZEFSAII (Michael W. Deem and Ramdas Pophale) SiO2 
 PCOD9345843
Probable space group: P N A 21
;
_chemical_formula_sum "Si O2"
_cell_formula_units_Z 12
_cell_length_a 5.287506
_cell_length_b 10.166045
_cell_length_c 8.266197
_cell_angle_alpha 90.000000
_cell_angle_beta 90.000000
_cell_angle_gamma 90.000000
_cell_volume 444.333085
_symmetry_space_group_name_H-M "P N A 21"
_symmetry_group_IT_number 33
_symmetry_cell_setting 'orthorhombic'
loop_
_space_group_symop_operation_xyz
x,y,z
-x,-y,1/2+z
1/2-x,1/2+y,1/2+z
1/2+x,1/2-y,z
loop_
_atom_site_type_symbol
_atom_site_label
_atom_site_fract_x
_atom_site_fract_y
_atom_site_fract_z
Si Si1 0.861509 0.206343 0.784320
Si Si2 0.194519 0.336490 0.224607
Si Si3 0.552181 0.065980 0.568535
O O1 0.628189 0.279504 0.871129
O O2 0.772758 0.069345 0.707110
O O3 0.905166 0.302925 0.627964
O O4 0.962847 0.233594 0.220933
O O5 0.163136 0.415984 0.392812
O O6 0.134578 0.444414 0.087371
#
# Coordination Sequence:
#
# PCOD9345843 Si02
#       3
#     4   4   4
#     4   8  16  34  62  84 116 168 194 254 322 350
#     4  12  26  43  67  99 131 174 217 268 330 386
#     4  10  22  43  67  91 135 168 215 272 320 388
#
# _framework density 27.006768000000001
#
# number of rings (size 3 to 8) (size 9 to 14) (size 15 to 20)
#    2.000    0.000    3.333    0.000    4.667    0.000 
#    6.000    0.000    0.000    0.000    0.000    0.000 
#    0.000    0.000    0.000    0.000    0.000    0.000 
#
# Total GULP energy -67088.664002 kJ/mol
# GULP energy per Si atom -5590.722000 kJ/mol
# Density = 2.694530 g / cm^3
# Si number density = 27.006768 Si / 1000 Ang^3
#
#
#
# Elastic Constant Matrix: (Units=GPa)
#
#
# Indices 1 2 3 4 5 6 
#
# 1 149.7643 -3.2819 2.6890 0.0000 0.0000 0.0000
# 2 -3.2819 77.0990 7.1628 0.0000 0.0000 0.0000
# 3 2.6890 7.1628 125.0484 0.0000 0.0000 0.0000
# 4 0.0000 0.0000 0.0000 45.8891 0.0000 0.0000
# 5 0.0000 0.0000 0.0000 0.0000 16.7130 0.0000
# 6 0.0000 0.0000 0.0000 0.0000 0.0000 43.6383
#
#
#
# Elastic Compliance Matrix: (Units=1/GPa)
#
#
# Indices 1 2 3 4 5 6 
#
# 1 0.006687 0.000300 -0.000161 0.000000 0.000000 0.000000
# 2 0.000300 0.013053 -0.000754 0.000000 0.000000 0.000000
# 3 -0.000161 -0.000754 0.008044 0.000000 0.000000 0.000000
# 4 0.000000 0.000000 0.000000 0.021792 0.000000 0.000000
# 5 0.000000 0.000000 0.000000 0.000000 0.059834 0.000000
# 6 0.000000 0.000000 0.000000 0.000000 0.000000 0.022916
#
#
# Mechanical properties :
#
#
# Convention : Reuss Voigt Hill
#
# Bulk Modulus (GPa) = 37.66147 40.56129 39.11138
# Shear Modulus (GPa) = 35.11089 44.27088 39.69089
#
# Velocity S-wave (km/s) = 3.60957 4.05316 3.83778
# Velocity P-wave (km/s) = 5.59888 6.07912 5.84393
#
# Compressibility (1/GPa) = 0.02655233
#
# Stress axis : x y z
#
# Youngs Moduli (GPa) = 149.55252 76.60989 124.32306
#
# Poissons Ratio (x) = -0.02295 0.02001
# Poissons Ratio (y) = -0.04480 0.09376
# Poissons Ratio (z) = 0.02407 0.05777
#
# Static dielectric constant tensor:
#      x y z
#    x 2.256580 0.000000 0.000000 
#    y 0.000000 2.061730 0.000000 
#    z 0.000000 0.000000 2.094630 
# 
# From -- ./inp_files/2582.got.cif
#   From: 2010.05.17/outbox.cif.g08.bks.cpg/sg33_2_cif.got.tgz:2582.got - 2010.06.03 17:15:25.
