data_PCOD9345449
_publ_section_title
;
Structure prediction by ZEFSAII (Michael W. Deem and Ramdas Pophale) SiO2 
 PCOD9345449
Probable space group: P N A 21
;
_chemical_formula_sum "Si O2"
_cell_formula_units_Z 20
_cell_length_a 5.364524
_cell_length_b 21.642776
_cell_length_c 7.024723
_cell_angle_alpha 90.000000
_cell_angle_beta 90.000000
_cell_angle_gamma 90.000000
_cell_volume 815.592758
_symmetry_space_group_name_H-M "P N A 21"
_symmetry_group_IT_number 33
_symmetry_cell_setting 'orthorhombic'
loop_
_space_group_symop_operation_xyz
x,y,z
-x,-y,1/2+z
1/2-x,1/2+y,1/2+z
1/2+x,1/2-y,z
loop_
_atom_site_type_symbol
_atom_site_label
_atom_site_fract_x
_atom_site_fract_y
_atom_site_fract_z
Si Si1 0.469563 0.909813 0.235050
Si Si2 0.234037 0.902974 0.841604
Si Si3 0.158273 0.766252 0.825831
Si Si4 0.727410 0.967778 0.894034
Si Si5 0.156279 0.715723 0.411914
O O1 0.583972 0.851952 0.341777
O O2 0.682130 0.944603 0.109538
O O3 0.277309 0.890220 0.068092
O O4 0.667896 0.039509 0.864180
O O5 0.172216 0.836560 0.756734
O O6 0.500946 0.931686 0.785932
O O7 0.997544 0.947540 0.822269
O O8 0.406767 0.748153 0.934623
O O9 0.157058 0.721429 0.642593
O O10 0.930179 0.761359 0.355130
#
# Coordination Sequence:
#
# PCOD9345449 Si02
#       5
#     4   4   4   4   4
#     4  10  26  44  69  97 139 172 232 277 339 405
#     4  10  24  41  65  97 135 170 227 272 336 400
#     4  10  21  41  64  98 129 176 218 272 334 403
#     4  10  25  43  70  96 134 178 220 283 337 397
#     4  10  24  41  66  96 131 176 223 274 336 401
#
# _framework density 24.522041999999999
#
# number of rings (size 3 to 8) (size 9 to 14) (size 15 to 20)
#    1.200    0.800    0.000    1.200    5.600    8.000 
#    0.000    0.000    0.000    0.000    0.000    0.000 
#    0.000    0.000    0.000    0.000    0.000    0.000 
#
# Total GULP energy -111743.239792 kJ/mol
# GULP energy per Si atom -5587.161990 kJ/mol
# Density = 2.446623 g / cm^3
# Si number density = 24.522042 Si / 1000 Ang^3
#
#
#
# Elastic Constant Matrix: (Units=GPa)
#
#
# Indices 1 2 3 4 5 6 
#
# 1 172.9812 21.3632 4.5112 0.0000 0.0000 0.0000
# 2 21.3632 121.3765 16.0886 0.0000 0.0000 0.0000
# 3 4.5112 16.0886 80.3442 0.0000 0.0000 0.0000
# 4 0.0000 0.0000 0.0000 33.2554 0.0000 0.0000
# 5 0.0000 0.0000 0.0000 0.0000 0.8981 0.0000
# 6 0.0000 0.0000 0.0000 0.0000 0.0000 30.6978
#
#
#
# Elastic Compliance Matrix: (Units=1/GPa)
#
#
# Indices 1 2 3 4 5 6 
#
# 1 0.005911 -0.001024 -0.000127 0.000000 0.000000 0.000000
# 2 -0.001024 0.008641 -0.001673 0.000000 0.000000 0.000000
# 3 -0.000127 -0.001673 0.012789 0.000000 0.000000 0.000000
# 4 0.000000 0.000000 0.000000 0.030070 0.000000 0.000000
# 5 0.000000 0.000000 0.000000 0.000000 1.113507 0.000000
# 6 0.000000 0.000000 0.000000 0.000000 0.000000 0.032576
#
#
# Mechanical properties :
#
#
# Convention : Reuss Voigt Hill
#
# Bulk Modulus (GPa) = 46.09681 50.95868 48.52775
# Shear Modulus (GPa) = 4.11059 35.15284 19.63171
#
# Velocity S-wave (km/s) = 1.29612 3.79029 2.83251
# Velocity P-wave (km/s) = 4.59117 6.32305 5.52539
#
# Compressibility (1/GPa) = 0.02169347
#
# Stress axis : x y z
#
# Youngs Moduli (GPa) = 169.18500 115.73134 78.19500
#
# Poissons Ratio (x) = 0.11845 0.00992
# Poissons Ratio (y) = 0.17316 0.13080
# Poissons Ratio (z) = 0.02147 0.19360
#
# Static dielectric constant tensor:
#      x y z
#    x 2.010610 0.000000 0.000000 
#    y 0.000000 1.898940 0.000000 
#    z 0.000000 0.000000 1.975400 
# 
# From -- ./inp_files/2630.got.cif
#   From: 2010.05.17/outbox.cif.g08.bks.cpg/sg33_2_cif.got.tgz:2630.got - 2010.06.03 17:15:25.
