data_PCOD9345034
_publ_section_title
;
Structure prediction by ZEFSAII (Michael W. Deem and Ramdas Pophale) SiO2 
 PCOD9345034
Probable space group: P N A 21
;
_chemical_formula_sum "Si O2"
_cell_formula_units_Z 32
_cell_length_a 9.344119
_cell_length_b 8.348417
_cell_length_c 18.939892
_cell_angle_alpha 90.000000
_cell_angle_beta 90.000000
_cell_angle_gamma 90.000000
_cell_volume 1477.474495
_symmetry_space_group_name_H-M "P N A 21"
_symmetry_group_IT_number 33
_symmetry_cell_setting 'orthorhombic'
loop_
_space_group_symop_operation_xyz
x,y,z
-x,-y,1/2+z
1/2-x,1/2+y,1/2+z
1/2+x,1/2-y,z
loop_
_atom_site_type_symbol
_atom_site_label
_atom_site_fract_x
_atom_site_fract_y
_atom_site_fract_z
Si Si1 0.212193 0.168636 0.616900
Si Si2 0.901857 0.364833 0.994764
Si Si3 0.335535 0.845557 0.258492
Si Si4 0.010192 0.918760 0.670434
Si Si5 0.422689 0.540844 0.453882
Si Si6 0.048529 0.886044 0.310962
Si Si7 0.186827 0.637551 0.655469
Si Si8 0.984957 0.312925 0.523108
O O1 0.221515 0.218250 0.699070
O O2 0.132824 0.295158 0.566538
O O3 0.364389 0.148075 0.581467
O O4 0.100579 0.022942 0.615494
O O5 0.888526 0.360302 0.079861
O O6 0.994754 0.525598 0.976774
O O7 0.740530 0.399764 0.966583
O O8 0.974342 0.194228 0.974431
O O9 0.476722 0.784557 0.296212
O O10 0.217658 0.871427 0.318742
O O11 0.354593 0.994564 0.207131
O O12 0.124050 0.789952 0.694893
O O13 0.857331 0.858782 0.642555
O O14 0.966731 0.024370 0.736763
O O15 0.462864 0.525097 0.371528
O O16 0.449767 0.361482 0.487455
#
# Coordination Sequence:
#
# PCOD9345034 Si02
#       8
#     4   4   4   4   4   4   4   4
#     4  11  21  41  66  97 132 167 220 281 350 396
#     4  12  26  42  70 100 132 182 217 290 346 400
#     4  10  20  39  68  90 127 166 219 278 340 396
#     4  10  24  38  66  97 135 172 217 287 341 401
#     4  12  27  48  65  99 141 183 239 266 336 420
#     4  10  23  45  62  91 128 183 220 272 327 411
#     4  11  21  40  61 104 130 161 228 287 350 405
#     4  12  24  43  66 102 137 178 220 283 342 409
#
# _framework density 21.658581999999999
#
# number of rings (size 3 to 8) (size 9 to 14) (size 15 to 20)
#    0.000    1.000    2.500    5.250    5.250    1.000 
#    6.750    0.000    0.000    0.000    0.000    0.000 
#    0.000    0.000    0.000    0.000    0.000    0.000 
#
# Total GULP energy -178428.194367 kJ/mol
# GULP energy per Si atom -5575.881074 kJ/mol
# Density = 2.160929 g / cm^3
# Si number density = 21.658582 Si / 1000 Ang^3
#
#
#
# Elastic Constant Matrix: (Units=GPa)
#
#
# Indices 1 2 3 4 5 6 
#
# 1 37.1569 28.4102 2.9666 0.0000 0.0000 0.0000
# 2 28.4102 98.5250 0.8813 0.0000 0.0000 0.0000
# 3 2.9666 0.8813 20.1469 0.0000 0.0000 0.0000
# 4 0.0000 0.0000 0.0000 -1.8228 0.0000 0.0000
# 5 0.0000 0.0000 0.0000 0.0000 14.3187 0.0000
# 6 0.0000 0.0000 0.0000 0.0000 0.0000 29.0394
#
#
#
# Elastic Compliance Matrix: (Units=1/GPa)
#
#
# Indices 1 2 3 4 5 6 
#
# 1 0.034966 -0.010040 -0.004709 0.000000 0.000000 0.000000
# 2 -0.010040 0.013037 0.000908 0.000000 0.000000 0.000000
# 3 -0.004709 0.000908 0.050289 0.000000 0.000000 0.000000
# 4 0.000000 0.000000 0.000000 -0.548593 0.000000 0.000000
# 5 0.000000 0.000000 0.000000 0.000000 0.069839 0.000000
# 6 0.000000 0.000000 0.000000 0.000000 0.000000 0.034436
#
#
# Mechanical properties :
#
#
# Convention : Reuss Voigt Hill
#
# Bulk Modulus (GPa) = 14.16263 24.48277 19.32270
# Shear Modulus (GPa) = -16.96027 16.54511 -0.20758
#
# Velocity S-wave (km/s) = -2.80138 2.76688 -0.30992
# Velocity P-wave (km/s) = 1.97748 4.64069 2.96864
#
# Compressibility (1/GPa) = 0.07060837
#
# Stress axis : x y z
#
# Youngs Moduli (GPa) = 28.59931 76.70590 19.88498
#
# Poissons Ratio (x) = 0.77016 0.09365
# Poissons Ratio (y) = 0.28715 -0.01806
# Poissons Ratio (z) = 0.13469 -0.06966
#
# Static dielectric constant tensor:
#      x y z
#    x 1.805140 0.000000 0.000000 
#    y 0.000000 2.082260 0.000000 
#    z 0.000000 0.000000 1.807370 
# 
# From -- ./inp_files/8934.got.cif
#   From: 2010.05.17/outbox.cif.g08.bks.cpg/sg33_5_cif.got.tgz:8934.got - 2010.06.03 17:15:25.
