data_PCOD9345357
_publ_section_title
;
Structure prediction by ZEFSAII (Michael W. Deem and Ramdas Pophale) SiO2 
 PCOD9345357
Probable space group: P N A 21
;
_chemical_formula_sum "Si O2"
_cell_formula_units_Z 28
_cell_length_a 21.274897
_cell_length_b 5.022906
_cell_length_c 12.870868
_cell_angle_alpha 90.000000
_cell_angle_beta 90.000000
_cell_angle_gamma 90.000000
_cell_volume 1375.404222
_symmetry_space_group_name_H-M "P N A 21"
_symmetry_group_IT_number 33
_symmetry_cell_setting 'orthorhombic'
loop_
_space_group_symop_operation_xyz
x,y,z
-x,-y,1/2+z
1/2-x,1/2+y,1/2+z
1/2+x,1/2-y,z
loop_
_atom_site_type_symbol
_atom_site_label
_atom_site_fract_x
_atom_site_fract_y
_atom_site_fract_z
Si Si1 0.130053 0.219140 0.562230
Si Si2 0.092365 0.729265 0.813874
Si Si3 0.787404 0.004321 0.245747
Si Si4 0.744074 0.036698 0.469662
Si Si5 0.420751 0.734064 0.460981
Si Si6 0.202641 0.440153 0.071435
Si Si7 0.952437 0.271380 0.091639
O O1 0.173658 0.180380 0.665506
O O2 0.176035 0.326767 0.472695
O O3 0.076666 0.435951 0.581686
O O4 0.096210 0.940486 0.543080
O O5 0.079212 0.450973 0.868589
O O6 0.047193 0.784998 0.715598
O O7 0.163198 0.755120 0.766710
O O8 0.085510 0.953352 0.902455
O O9 0.770789 0.924061 0.362259
O O10 0.719526 0.036529 0.191998
O O11 0.743964 0.775305 0.540318
O O12 0.787487 0.275363 0.515641
O O13 0.482408 0.747348 0.531792
O O14 0.361785 0.810215 0.534161
#
# Coordination Sequence:
#
# PCOD9345357 Si02
#       7
#     4   4   4   4   4   4   4
#     4  10  22  40  64  95 123 169 216 259 314 381
#     4  11  22  41  68  90 121 176 210 249 329 383
#     4  10  21  39  67  90 127 162 208 261 324 383
#     4  11  21  38  64  91 129 157 206 259 323 373
#     4  12  23  43  65  94 129 164 217 259 312 379
#     4  11  23  38  61 101 122 160 207 268 309 380
#     4  11  24  43  65  91 127 170 218 261 301 385
#
# _framework density 20.357652999999999
#
# number of rings (size 3 to 8) (size 9 to 14) (size 15 to 20)
#    0.000    1.143    2.857    5.143    0.000    3.429 
#    5.143    0.000    0.000    0.000    0.000    0.000 
#    0.000    0.000    0.000    0.000    0.000    0.000 
#
# Total GULP energy -156210.819288 kJ/mol
# GULP energy per Si atom -5578.957832 kJ/mol
# Density = 2.031132 g / cm^3
# Si number density = 20.357653 Si / 1000 Ang^3
#
#
#
# Elastic Constant Matrix: (Units=GPa)
#
#
# Indices 1 2 3 4 5 6 
#
# 1 96.7524 -0.7045 34.4110 0.0000 0.0000 0.0000
# 2 -0.7045 73.8792 -9.9946 0.0000 0.0000 0.0000
# 3 34.4110 -9.9946 52.0151 0.0000 0.0000 0.0000
# 4 0.0000 0.0000 0.0000 23.3134 0.0000 0.0000
# 5 0.0000 0.0000 0.0000 0.0000 37.8648 0.0000
# 6 0.0000 0.0000 0.0000 0.0000 0.0000 20.6717
#
#
#
# Elastic Compliance Matrix: (Units=1/GPa)
#
#
# Indices 1 2 3 4 5 6 
#
# 1 0.013605 -0.001117 -0.009215 0.000000 0.000000 0.000000
# 2 -0.001117 0.013989 0.003427 0.000000 0.000000 0.000000
# 3 -0.009215 0.003427 0.025980 0.000000 0.000000 0.000000
# 4 0.000000 0.000000 0.000000 0.042894 0.000000 0.000000
# 5 0.000000 0.000000 0.000000 0.000000 0.026410 0.000000
# 6 0.000000 0.000000 0.000000 0.000000 0.000000 0.048375
#
#
# Mechanical properties :
#
#
# Convention : Reuss Voigt Hill
#
# Bulk Modulus (GPa) = 25.14899 30.00783 27.57841
# Shear Modulus (GPa) = 25.21216 29.63230 27.42223
#
# Velocity S-wave (km/s) = 3.52300 3.81935 3.67416
# Velocity P-wave (km/s) = 5.37857 5.84998 5.61922
#
# Compressibility (1/GPa) = 0.03976302
#
# Stress axis : x y z
#
# Youngs Moduli (GPa) = 73.50256 71.48704 38.49123
#
# Poissons Ratio (x) = 0.07984 0.35470
# Poissons Ratio (y) = 0.08210 -0.13190
# Poissons Ratio (z) = 0.67733 -0.24497
#
# Static dielectric constant tensor:
#      x y z
#    x 1.747150 0.000000 0.000000 
#    y 0.000000 1.724930 0.000000 
#    z 0.000000 0.000000 1.709850 
# 
# From -- ./inp_files/7136.got.cif
#   From: 2010.05.17/outbox.cif.g08.bks.cpg/sg33_4_cif.got.tgz:7136.got - 2010.06.03 17:15:25.
