data_PCOD9345023
_publ_section_title
;
Structure prediction by ZEFSAII (Michael W. Deem and Ramdas Pophale) SiO2 
 PCOD9345023
Probable space group: P N A 21
;
_chemical_formula_sum "Si O2"
_cell_formula_units_Z 28
_cell_length_a 9.261351
_cell_length_b 17.963443
_cell_length_c 8.282662
_cell_angle_alpha 90.000000
_cell_angle_beta 90.000000
_cell_angle_gamma 90.000000
_cell_volume 1377.951282
_symmetry_space_group_name_H-M "P N A 21"
_symmetry_group_IT_number 33
_symmetry_cell_setting 'orthorhombic'
loop_
_space_group_symop_operation_xyz
x,y,z
-x,-y,1/2+z
1/2-x,1/2+y,1/2+z
1/2+x,1/2-y,z
loop_
_atom_site_type_symbol
_atom_site_label
_atom_site_fract_x
_atom_site_fract_y
_atom_site_fract_z
Si Si1 0.492732 0.675798 0.339080
Si Si2 0.195133 0.453979 0.297592
Si Si3 0.561786 0.456810 0.629097
Si Si4 0.661129 0.803832 0.448324
Si Si5 0.080490 0.545306 0.577672
Si Si6 0.142199 0.074524 0.269638
Si Si7 0.394393 0.329454 0.167600
O O1 0.488365 0.623914 0.185973
O O2 0.575370 0.753441 0.319561
O O3 0.329747 0.688911 0.404491
O O4 0.584629 0.637654 0.484839
O O5 0.318791 0.513759 0.254627
O O6 0.131828 0.474516 0.472777
O O7 0.273084 0.374271 0.266121
O O8 0.070653 0.463644 0.165103
O O9 0.433354 0.514854 0.651182
O O10 0.622481 0.452576 0.450842
O O11 0.585770 0.883451 0.459472
O O12 0.638923 0.755498 0.615209
O O13 0.194622 0.572070 0.713007
O O14 0.048232 0.150155 0.248483
#
# Coordination Sequence:
#
# PCOD9345023 Si02
#       7
#     4   4   4   4   4   4   4
#     4  10  20  39  64  86 120 169 212 254 305 389
#     4  11  22  36  61  94 130 160 212 258 316 362
#     4  11  21  39  60  92 124 162 212 259 312 374
#     4  10  20  39  66  85 123 169 214 242 329 373
#     4  12  22  40  62  97 128 165 208 265 308 378
#     4  11  21  37  64  91 119 162 211 257 313 367
#     4   9  20  38  63  87 116 171 205 255 305 389
#
# _framework density 20.320022999999999
#
# number of rings (size 3 to 8) (size 9 to 14) (size 15 to 20)
#    0.857    0.571    2.857    5.143    0.000    0.000 
#    0.000    1.429    3.143    0.000    0.000    0.000 
#    0.000    0.000    0.000    0.000    0.000    0.000 
#
# Total GULP energy -156002.321801 kJ/mol
# GULP energy per Si atom -5571.511493 kJ/mol
# Density = 2.027377 g / cm^3
# Si number density = 20.320023 Si / 1000 Ang^3
#
#
#
# Elastic Constant Matrix: (Units=GPa)
#
#
# Indices 1 2 3 4 5 6 
#
# 1 66.7061 9.4950 -15.5859 0.0000 0.0000 0.0000
# 2 9.4950 61.2938 -2.7984 0.0000 0.0000 0.0000
# 3 -15.5859 -2.7984 28.9565 0.0000 0.0000 0.0000
# 4 0.0000 0.0000 0.0000 29.5637 0.0000 0.0000
# 5 0.0000 0.0000 0.0000 0.0000 21.8374 0.0000
# 6 0.0000 0.0000 0.0000 0.0000 0.0000 12.0312
#
#
#
# Elastic Compliance Matrix: (Units=1/GPa)
#
#
# Indices 1 2 3 4 5 6 
#
# 1 0.017461 -0.002286 0.009177 0.000000 0.000000 0.000000
# 2 -0.002286 0.016686 0.000382 0.000000 0.000000 0.000000
# 3 0.009177 0.000382 0.039511 0.000000 0.000000 0.000000
# 4 0.000000 0.000000 0.000000 0.033825 0.000000 0.000000
# 5 0.000000 0.000000 0.000000 0.000000 0.045793 0.000000
# 6 0.000000 0.000000 0.000000 0.000000 0.000000 0.083117
#
#
# Mechanical properties :
#
#
# Convention : Reuss Voigt Hill
#
# Bulk Modulus (GPa) = 11.33709 15.46421 13.40065
# Shear Modulus (GPa) = 19.90060 23.74283 21.82172
#
# Velocity S-wave (km/s) = 3.13287 3.42196 3.28060
# Velocity P-wave (km/s) = 4.32179 4.82078 4.57809
#
# Compressibility (1/GPa) = 0.08820609
#
# Stress axis : x y z
#
# Youngs Moduli (GPa) = 57.27113 59.92901 25.30921
#
# Poissons Ratio (x) = 0.13699 -0.23227
# Poissons Ratio (y) = 0.13091 -0.00967
# Poissons Ratio (z) = -0.52560 -0.02291
#
# Static dielectric constant tensor:
#      x y z
#    x 1.727310 0.000000 0.000000 
#    y 0.000000 1.777590 0.000000 
#    z 0.000000 0.000000 1.714390 
# 
# From -- ./inp_files/3426.got.cif
#   From: 2010.05.17/outbox.cif.g08.bks.cpg/sg33_2_cif.got.tgz:3426.got - 2010.06.03 17:15:25.
