data_PCOD9345715
_publ_section_title
;
Structure prediction by ZEFSAII (Michael W. Deem and Ramdas Pophale) SiO2 
 PCOD9345715
Probable space group: P N A 21
;
_chemical_formula_sum "Si O2"
_cell_formula_units_Z 28
_cell_length_a 8.325227
_cell_length_b 16.232422
_cell_length_c 8.814547
_cell_angle_alpha 90.000000
_cell_angle_beta 90.000000
_cell_angle_gamma 90.000000
_cell_volume 1191.185523
_symmetry_space_group_name_H-M "P N A 21"
_symmetry_group_IT_number 33
_symmetry_cell_setting 'orthorhombic'
loop_
_space_group_symop_operation_xyz
x,y,z
-x,-y,1/2+z
1/2-x,1/2+y,1/2+z
1/2+x,1/2-y,z
loop_
_atom_site_type_symbol
_atom_site_label
_atom_site_fract_x
_atom_site_fract_y
_atom_site_fract_z
Si Si1 0.765378 0.825935 0.392790
Si Si2 0.357363 0.543708 0.917878
Si Si3 0.046537 0.074811 0.095539
Si Si4 0.017602 0.631910 0.906756
Si Si5 0.809332 0.142236 0.468704
Si Si6 0.038714 0.747773 0.185220
Si Si7 0.882020 0.242877 0.179998
O O1 0.612584 0.825467 0.284409
O O2 0.716105 0.763640 0.528814
O O3 0.823024 0.910693 0.465381
O O4 0.909176 0.793434 0.287047
O O5 0.381439 0.527280 0.738804
O O6 0.185187 0.586035 0.941028
O O7 0.516185 0.599159 0.953671
O O8 0.388862 0.466652 0.026205
O O9 0.001413 0.167867 0.143927
O O10 0.040979 0.672123 0.740632
O O11 0.848213 0.586983 0.937752
O O12 0.993415 0.707621 0.025203
O O13 0.825886 0.186408 0.631789
O O14 0.792751 0.208180 0.329760
#
# Coordination Sequence:
#
# PCOD9345715 Si02
#       7
#     4   4   4   4   4   4   4
#     4  12  21  39  64 101 133 171 224 298 341 405
#     4  11  26  45  69  96 140 193 225 285 375 440
#     4  11  25  43  67  98 141 182 235 293 359 436
#     4  11  22  44  70 100 134 184 231 288 363 425
#     4  10  23  42  66  98 135 176 229 283 355 434
#     4  11  23  35  65 104 132 164 229 296 340 410
#     4  10  22  40  69 101 127 178 241 291 351 422
#
# _framework density 23.505994999999999
#
# number of rings (size 3 to 8) (size 9 to 14) (size 15 to 20)
#    0.000    1.143    4.286    1.714   12.000    0.000 
#    0.000    4.286    0.000    0.000    0.000    0.000 
#    0.000    0.000    0.000    0.000    0.000    0.000 
#
# Total GULP energy -156152.138607 kJ/mol
# GULP energy per Si atom -5576.862093 kJ/mol
# Density = 2.345249 g / cm^3
# Si number density = 23.505995 Si / 1000 Ang^3
#
#
#
# Elastic Constant Matrix: (Units=GPa)
#
#
# Indices 1 2 3 4 5 6 
#
# 1 101.9654 7.3569 18.2797 0.0000 0.0000 0.0000
# 2 7.3569 29.3635 -0.9861 0.0000 0.0000 0.0000
# 3 18.2797 -0.9861 102.3199 0.0000 0.0000 0.0000
# 4 0.0000 0.0000 0.0000 20.9669 0.0000 0.0000
# 5 0.0000 0.0000 0.0000 0.0000 39.7515 0.0000
# 6 0.0000 0.0000 0.0000 0.0000 0.0000 27.1742
#
#
#
# Elastic Compliance Matrix: (Units=1/GPa)
#
#
# Indices 1 2 3 4 5 6 
#
# 1 0.010334 -0.002652 -0.001872 0.000000 0.000000 0.000000
# 2 -0.002652 0.034747 0.000809 0.000000 0.000000 0.000000
# 3 -0.001872 0.000809 0.010115 0.000000 0.000000 0.000000
# 4 0.000000 0.000000 0.000000 0.047694 0.000000 0.000000
# 5 0.000000 0.000000 0.000000 0.000000 0.025156 0.000000
# 6 0.000000 0.000000 0.000000 0.000000 0.000000 0.036800
#
#
# Mechanical properties :
#
#
# Convention : Reuss Voigt Hill
#
# Bulk Modulus (GPa) = 20.93505 31.43887 26.18696
# Shear Modulus (GPa) = 26.56751 31.51173 29.03962
#
# Velocity S-wave (km/s) = 3.36556 3.66537 3.51866
# Velocity P-wave (km/s) = 4.90186 5.59617 5.26048
#
# Compressibility (1/GPa) = 0.04776679
#
# Stress axis : x y z
#
# Youngs Moduli (GPa) = 96.76648 28.77905 98.85854
#
# Poissons Ratio (x) = 0.07632 0.18504
# Poissons Ratio (y) = 0.25663 -0.07994
# Poissons Ratio (z) = 0.18113 -0.02327
#
# Static dielectric constant tensor:
#      x y z
#    x 2.038620 0.000000 0.000000 
#    y 0.000000 1.934060 0.000000 
#    z 0.000000 0.000000 1.929830 
# 
# From -- ./inp_files/3360.got.cif
#   From: 2010.05.17/outbox.cif.g08.bks.cpg/sg33_2_cif.got.tgz:3360.got - 2010.06.03 17:15:25.
