data_PCOD9345163
_publ_section_title
;
Structure prediction by ZEFSAII (Michael W. Deem and Ramdas Pophale) SiO2 
 PCOD9345163
Probable space group: P N A 21
;
_chemical_formula_sum "Si O2"
_cell_formula_units_Z 20
_cell_length_a 8.425959
_cell_length_b 11.582242
_cell_length_c 7.874929
_cell_angle_alpha 90.000000
_cell_angle_beta 90.000000
_cell_angle_gamma 90.000000
_cell_volume 768.526104
_symmetry_space_group_name_H-M "P N A 21"
_symmetry_group_IT_number 33
_symmetry_cell_setting 'orthorhombic'
loop_
_space_group_symop_operation_xyz
x,y,z
-x,-y,1/2+z
1/2-x,1/2+y,1/2+z
1/2+x,1/2-y,z
loop_
_atom_site_type_symbol
_atom_site_label
_atom_site_fract_x
_atom_site_fract_y
_atom_site_fract_z
Si Si1 0.830399 0.371939 0.299880
Si Si2 0.928099 0.619161 0.275462
Si Si3 0.009228 0.959438 0.695245
Si Si4 0.858779 0.229448 0.959827
Si Si5 0.332158 0.360279 0.498279
O O1 0.938123 0.484452 0.319953
O O2 0.647876 0.413967 0.292566
O O3 0.854092 0.268947 0.431406
O O4 0.857274 0.316972 0.116063
O O5 0.810407 0.676777 0.413978
O O6 0.832149 0.627743 0.099431
O O7 0.083315 0.694834 0.300868
O O8 0.039151 0.877932 0.531663
O O9 0.151836 0.938279 0.826786
O O10 0.963333 0.085018 0.626027
#
# Coordination Sequence:
#
# PCOD9345163 Si02
#       5
#     4   4   4   4   4
#     4  10  23  45  68 106 147 194 247 310 373 443
#     4  11  25  45  72 106 146 195 245 312 378 444
#     4  10  20  44  69 101 141 193 242 309 369 448
#     4  11  23  47  69 102 147 192 251 301 373 449
#     4  10  23  41  72 103 141 188 253 298 375 448
#
# _framework density 26.023841000000001
#
# number of rings (size 3 to 8) (size 9 to 14) (size 15 to 20)
#    0.000    1.600    2.000    2.400    2.800    1.600 
#   18.000    0.000    0.000    0.000    0.000    0.000 
#    0.000    0.000    0.000    0.000    0.000    0.000 
#
# Total GULP energy -112057.905763 kJ/mol
# GULP energy per Si atom -5602.895288 kJ/mol
# Density = 2.596461 g / cm^3
# Si number density = 26.023841 Si / 1000 Ang^3
#
#
#
# Elastic Constant Matrix: (Units=GPa)
#
#
# Indices 1 2 3 4 5 6 
#
# 1 44.0642 29.0736 27.4133 0.0000 0.0000 0.0000
# 2 29.0736 187.3978 70.8174 0.0000 0.0000 0.0000
# 3 27.4133 70.8174 162.0553 0.0000 0.0000 0.0000
# 4 0.0000 0.0000 0.0000 50.0896 0.0000 0.0000
# 5 0.0000 0.0000 0.0000 0.0000 46.8348 0.0000
# 6 0.0000 0.0000 0.0000 0.0000 0.0000 23.0864
#
#
#
# Elastic Compliance Matrix: (Units=1/GPa)
#
#
# Indices 1 2 3 4 5 6 
#
# 1 0.026625 -0.002909 -0.003233 0.000000 0.000000 0.000000
# 2 -0.002909 0.006710 -0.002440 0.000000 0.000000 0.000000
# 3 -0.003233 -0.002440 0.007784 0.000000 0.000000 0.000000
# 4 0.000000 0.000000 0.000000 0.019964 0.000000 0.000000
# 5 0.000000 0.000000 0.000000 0.000000 0.021352 0.000000
# 6 0.000000 0.000000 0.000000 0.000000 0.000000 0.043316
#
#
# Mechanical properties :
#
#
# Convention : Reuss Voigt Hill
#
# Bulk Modulus (GPa) = 41.74522 72.01397 56.87960
# Shear Modulus (GPa) = 33.13502 41.74970 37.44236
#
# Velocity S-wave (km/s) = 3.57214 4.00970 3.79723
# Velocity P-wave (km/s) = 5.75235 7.01208 6.41322
#
# Compressibility (1/GPa) = 0.02395484
#
# Stress axis : x y z
#
# Youngs Moduli (GPa) = 37.55920 149.03955 128.47172
#
# Poissons Ratio (x) = 0.43356 0.41530
# Poissons Ratio (y) = 0.10926 0.31347
# Poissons Ratio (z) = 0.12141 0.36365
#
# Static dielectric constant tensor:
#      x y z
#    x 2.045000 0.000000 0.000000 
#    y 0.000000 2.009960 0.000000 
#    z 0.000000 0.000000 2.093570 
# 
# From -- ./inp_files/3028.got.cif
#   From: 2010.05.17/outbox.cif.g08.bks.cpg/sg33_2_cif.got.tgz:3028.got - 2010.06.03 17:15:25.
