data_PCOD9345268
_publ_section_title
;
Structure prediction by ZEFSAII (Michael W. Deem and Ramdas Pophale) SiO2 
 PCOD9345268
Probable space group: P N A 21
;
_chemical_formula_sum "Si O2"
_cell_formula_units_Z 28
_cell_length_a 21.570462
_cell_length_b 6.889557
_cell_length_c 7.924518
_cell_angle_alpha 90.000000
_cell_angle_beta 90.000000
_cell_angle_gamma 90.000000
_cell_volume 1177.669970
_symmetry_space_group_name_H-M "P N A 21"
_symmetry_group_IT_number 33
_symmetry_cell_setting 'orthorhombic'
loop_
_space_group_symop_operation_xyz
x,y,z
-x,-y,1/2+z
1/2-x,1/2+y,1/2+z
1/2+x,1/2-y,z
loop_
_atom_site_type_symbol
_atom_site_label
_atom_site_fract_x
_atom_site_fract_y
_atom_site_fract_z
Si Si1 0.814886 0.793868 0.507230
Si Si2 0.624721 0.449624 0.674525
Si Si3 0.929935 0.611074 0.977295
Si Si4 0.710507 0.000850 0.399205
Si Si5 0.033937 0.803737 0.490132
Si Si6 0.571042 0.418238 0.205035
Si Si7 0.244922 0.594426 0.022644
O O1 0.845296 0.910201 0.353512
O O2 0.745786 0.871756 0.537022
O O3 0.859734 0.848279 0.659913
O O4 0.801888 0.570843 0.455859
O O5 0.581731 0.631263 0.636515
O O6 0.682865 0.464183 0.546128
O O7 0.583123 0.260334 0.629142
O O8 0.861441 0.528276 0.934063
O O9 0.952904 0.748008 0.827388
O O10 0.973029 0.426005 0.995567
O O11 0.720854 0.896965 0.218276
O O12 0.747415 0.205753 0.420966
O O13 0.970153 0.910661 0.537377
O O14 0.061636 0.887535 0.314546
#
# Coordination Sequence:
#
# PCOD9345268 Si02
#       7
#     4   4   4   4   4   4   4
#     4  11  22  38  65  92 134 166 218 272 328 399
#     4   9  22  41  61  97 126 170 219 264 328 402
#     4  10  22  44  66  92 130 172 221 269 333 393
#     4  10  22  38  63  96 129 173 218 263 341 395
#     4  11  24  44  67  88 137 170 218 283 321 381
#     4  11  25  41  64  99 125 174 229 267 332 400
#     4  10  21  38  60  94 133 165 215 272 325 400
#
# _framework density 23.775762
#
# number of rings (size 3 to 8) (size 9 to 14) (size 15 to 20)
#    0.000    1.714    1.429    1.714    2.000    9.143 
#    0.000    0.000    0.000    0.000    0.000    0.000 
#    0.000    0.000    0.000    0.000    0.000    0.000 
#
# Total GULP energy -156270.364989 kJ/mol
# GULP energy per Si atom -5581.084464 kJ/mol
# Density = 2.372165 g / cm^3
# Si number density = 23.775762 Si / 1000 Ang^3
#
#
#
# Elastic Constant Matrix: (Units=GPa)
#
#
# Indices 1 2 3 4 5 6 
#
# 1 48.5011 0.6798 9.4241 0.0000 0.0000 0.0000
# 2 0.6798 74.3359 12.2147 0.0000 0.0000 0.0000
# 3 9.4241 12.2147 57.7634 0.0000 0.0000 0.0000
# 4 0.0000 0.0000 0.0000 15.7878 0.0000 0.0000
# 5 0.0000 0.0000 0.0000 0.0000 35.3552 0.0000
# 6 0.0000 0.0000 0.0000 0.0000 0.0000 23.8035
#
#
#
# Elastic Compliance Matrix: (Units=1/GPa)
#
#
# Indices 1 2 3 4 5 6 
#
# 1 0.021304 0.000390 -0.003558 0.000000 0.000000 0.000000
# 2 0.000390 0.013944 -0.003012 0.000000 0.000000 0.000000
# 3 -0.003558 -0.003012 0.018529 0.000000 0.000000 0.000000
# 4 0.000000 0.000000 0.000000 0.063340 0.000000 0.000000
# 5 0.000000 0.000000 0.000000 0.000000 0.028284 0.000000
# 6 0.000000 0.000000 0.000000 0.000000 0.000000 0.042011
#
#
# Mechanical properties :
#
#
# Convention : Reuss Voigt Hill
#
# Bulk Modulus (GPa) = 24.14508 25.02639 24.58573
# Shear Modulus (GPa) = 23.41056 25.54142 24.47599
#
# Velocity S-wave (km/s) = 3.14130 3.28115 3.21199
# Velocity P-wave (km/s) = 4.83057 4.99034 4.91110
#
# Compressibility (1/GPa) = 0.04141630
#
# Stress axis : x y z
#
# Youngs Moduli (GPa) = 46.93954 71.71620 53.96808
#
# Poissons Ratio (x) = -0.02796 0.19203
# Poissons Ratio (y) = -0.01830 0.16256
# Poissons Ratio (z) = 0.16702 0.21602
#
# Static dielectric constant tensor:
#      x y z
#    x 1.930010 0.000000 0.000000 
#    y 0.000000 1.938470 0.000000 
#    z 0.000000 0.000000 1.974720 
# 
# From -- ./inp_files/5167.got.cif
#   From: 2010.05.17/outbox.cif.g08.bks.cpg/sg33_3_cif.got.tgz:5167.got - 2010.06.03 17:15:25.
