data_PCOD9345144
_publ_section_title
;
Structure prediction by ZEFSAII (Michael W. Deem and Ramdas Pophale) SiO2 
 PCOD9345144
Probable space group: P N A 21
;
_chemical_formula_sum "Si O2"
_cell_formula_units_Z 28
_cell_length_a 17.945944
_cell_length_b 7.280226
_cell_length_c 8.213832
_cell_angle_alpha 90.000000
_cell_angle_beta 90.000000
_cell_angle_gamma 90.000000
_cell_volume 1073.141489
_symmetry_space_group_name_H-M "P N A 21"
_symmetry_group_IT_number 33
_symmetry_cell_setting 'orthorhombic'
loop_
_space_group_symop_operation_xyz
x,y,z
-x,-y,1/2+z
1/2-x,1/2+y,1/2+z
1/2+x,1/2-y,z
loop_
_atom_site_type_symbol
_atom_site_label
_atom_site_fract_x
_atom_site_fract_y
_atom_site_fract_z
Si Si1 0.750868 0.016039 0.741070
Si Si2 0.936047 0.033907 0.055294
Si Si3 0.723964 0.436188 0.629572
Si Si4 0.593762 0.560542 0.192998
Si Si5 0.881550 0.499828 0.721159
Si Si6 0.002097 0.567713 0.993128
Si Si7 0.089857 0.608989 0.704414
O O1 0.732354 0.225493 0.688052
O O2 0.827351 0.971099 0.644814
O O3 0.677256 0.905691 0.696634
O O4 0.762661 0.981115 0.935841
O O5 0.937716 0.253655 0.066261
O O6 0.862359 0.986490 0.159372
O O7 0.920951 0.980172 0.871544
O O8 0.016217 0.962518 0.103997
O O9 0.793524 0.539095 0.718056
O O10 0.610775 0.777601 0.208423
O O11 0.928698 0.559098 0.876709
O O12 0.929110 0.562577 0.562903
O O13 0.056675 0.681503 0.872682
O O14 0.955426 0.579119 0.164229
#
# Coordination Sequence:
#
# PCOD9345144 Si02
#       7
#     4   4   4   4   4   4   4
#     4  10  23  45  70  98 136 190 238 293 361 440
#     4  11  25  43  65  99 136 177 228 293 351 426
#     4  10  23  44  70  95 144 184 236 294 366 426
#     4  10  24  44  64  91 137 176 223 284 352 412
#     4  10  20  43  63 100 132 178 226 284 345 428
#     4  10  22  37  71  92 134 174 224 289 343 422
#     4  11  23  44  65 105 133 175 241 281 358 426
#
# _framework density 26.091622999999998
#
# number of rings (size 3 to 8) (size 9 to 14) (size 15 to 20)
#    0.000    1.714    2.857    0.000    6.000    1.143 
#   10.286    0.000    0.000    0.000    0.000    0.000 
#    0.000    0.000    0.000    0.000    0.000    0.000 
#
# Total GULP energy -155930.792623 kJ/mol
# GULP energy per Si atom -5568.956879 kJ/mol
# Density = 2.603224 g / cm^3
# Si number density = 26.091623 Si / 1000 Ang^3
#
#
#
# Elastic Constant Matrix: (Units=GPa)
#
#
# Indices 1 2 3 4 5 6 
#
# 1 278.5915 41.6102 28.3334 0.0000 0.0000 0.0000
# 2 41.6102 85.9130 13.7184 0.0000 0.0000 0.0000
# 3 28.3334 13.7184 69.6632 0.0000 0.0000 0.0000
# 4 0.0000 0.0000 0.0000 21.1731 0.0000 0.0000
# 5 0.0000 0.0000 0.0000 0.0000 33.2183 0.0000
# 6 0.0000 0.0000 0.0000 0.0000 0.0000 41.5921
#
#
#
# Elastic Compliance Matrix: (Units=1/GPa)
#
#
# Indices 1 2 3 4 5 6 
#
# 1 0.003977 -0.001722 -0.001278 0.000000 0.000000 0.000000
# 2 -0.001722 0.012763 -0.001813 0.000000 0.000000 0.000000
# 3 -0.001278 -0.001813 0.015232 0.000000 0.000000 0.000000
# 4 0.000000 0.000000 0.000000 0.047230 0.000000 0.000000
# 5 0.000000 0.000000 0.000000 0.000000 0.030104 0.000000
# 6 0.000000 0.000000 0.000000 0.000000 0.000000 0.024043
#
#
# Mechanical properties :
#
#
# Convention : Reuss Voigt Hill
#
# Bulk Modulus (GPa) = 44.75266 66.83242 55.79254
# Shear Modulus (GPa) = 33.23957 42.56375 37.90166
#
# Velocity S-wave (km/s) = 3.57312 4.04334 3.81548
# Velocity P-wave (km/s) = 5.84913 6.88972 6.39064
#
# Compressibility (1/GPa) = 0.02234504
#
# Stress axis : x y z
#
# Youngs Moduli (GPa) = 251.46642 78.35048 65.65244
#
# Poissons Ratio (x) = 0.13491 0.08392
# Poissons Ratio (y) = 0.43300 0.11903
# Poissons Ratio (z) = 0.32145 0.14205
#
# Static dielectric constant tensor:
#      x y z
#    x 2.105980 0.000000 0.000000 
#    y 0.000000 2.595570 0.000000 
#    z 0.000000 0.000000 2.150870 
# 
# From -- ./inp_files/4757.got.cif
#   From: 2010.05.17/outbox.cif.g08.bks.cpg/sg33_3_cif.got.tgz:4757.got - 2010.06.03 17:15:25.
