data_PCOD9345453
_publ_section_title
;
Structure prediction by ZEFSAII (Michael W. Deem and Ramdas Pophale) SiO2 
 PCOD9345453
Probable space group: P N A 21
;
_chemical_formula_sum "Si O2"
_cell_formula_units_Z 32
_cell_length_a 14.349774
_cell_length_b 10.718696
_cell_length_c 8.923465
_cell_angle_alpha 90.000000
_cell_angle_beta 90.000000
_cell_angle_gamma 90.000000
_cell_volume 1372.525872
_symmetry_space_group_name_H-M "P N A 21"
_symmetry_group_IT_number 33
_symmetry_cell_setting 'orthorhombic'
loop_
_space_group_symop_operation_xyz
x,y,z
-x,-y,1/2+z
1/2-x,1/2+y,1/2+z
1/2+x,1/2-y,z
loop_
_atom_site_type_symbol
_atom_site_label
_atom_site_fract_x
_atom_site_fract_y
_atom_site_fract_z
Si Si1 0.655916 0.254634 0.170510
Si Si2 0.822076 0.390528 0.536561
Si Si3 0.424772 0.480378 0.380059
Si Si4 0.489729 0.218620 0.349021
Si Si5 0.608338 0.538625 0.231631
Si Si6 0.339654 0.816885 0.062821
Si Si7 0.778330 0.516392 0.820982
Si Si8 0.217449 0.352025 0.875348
O O1 0.554285 0.190068 0.203501
O O2 0.648412 0.395394 0.232351
O O3 0.722108 0.157980 0.256079
O O4 0.691858 0.248812 0.001274
O O5 0.910594 0.359193 0.432992
O O6 0.744589 0.281792 0.539135
O O7 0.837991 0.429851 0.710773
O O8 0.784603 0.517789 0.464053
O O9 0.441492 0.346929 0.304758
O O10 0.516791 0.553472 0.333352
O O11 0.417391 0.450447 0.556550
O O12 0.327122 0.530748 0.321634
O O13 0.570056 0.232714 0.475993
O O14 0.683718 0.636866 0.290311
O O15 0.353789 0.838772 0.238132
O O16 0.314560 0.951450 0.987007
#
# Coordination Sequence:
#
# PCOD9345453 Si02
#       8
#     4   4   4   4   4   4   4   4
#     4   9  23  41  64  91 136 172 225 280 330 408
#     4  11  23  41  69  91 134 186 216 279 346 393
#     4  11  23  40  66  98 133 175 232 279 345 404
#     4  10  22  43  65  92 132 180 223 272 344 406
#     4  11  24  40  64 102 132 179 227 287 339 402
#     4  11  23  42  66  97 136 171 229 284 332 408
#     4  10  21  41  65  94 131 178 219 276 339 402
#     4  11  23  40  65  97 134 177 227 277 341 405
#
# _framework density 23.314679000000002
#
# number of rings (size 3 to 8) (size 9 to 14) (size 15 to 20)
#    0.000    1.500    2.500    2.250    7.000    3.000 
#    0.000    0.000    0.000    0.000    0.000    0.000 
#    0.000    0.000    0.000    0.000    0.000    0.000 
#
# Total GULP energy -178440.108890 kJ/mol
# GULP energy per Si atom -5576.253403 kJ/mol
# Density = 2.326161 g / cm^3
# Si number density = 23.314679 Si / 1000 Ang^3
#
#
#
# Elastic Constant Matrix: (Units=GPa)
#
#
# Indices 1 2 3 4 5 6 
#
# 1 84.2279 16.4543 7.5860 0.0000 0.0000 0.0000
# 2 16.4543 70.3285 2.6303 0.0000 0.0000 0.0000
# 3 7.5860 2.6303 89.5662 0.0000 0.0000 0.0000
# 4 0.0000 0.0000 0.0000 39.0484 0.0000 0.0000
# 5 0.0000 0.0000 0.0000 0.0000 33.2317 0.0000
# 6 0.0000 0.0000 0.0000 0.0000 0.0000 13.9906
#
#
#
# Elastic Compliance Matrix: (Units=1/GPa)
#
#
# Indices 1 2 3 4 5 6 
#
# 1 0.012526 -0.002894 -0.000976 0.000000 0.000000 0.000000
# 2 -0.002894 0.014903 -0.000193 0.000000 0.000000 0.000000
# 3 -0.000976 -0.000193 0.011253 0.000000 0.000000 0.000000
# 4 0.000000 0.000000 0.000000 0.025609 0.000000 0.000000
# 5 0.000000 0.000000 0.000000 0.000000 0.030092 0.000000
# 6 0.000000 0.000000 0.000000 0.000000 0.000000 0.071476
#
#
# Mechanical properties :
#
#
# Convention : Reuss Voigt Hill
#
# Bulk Modulus (GPa) = 32.72542 33.05152 32.88847
# Shear Modulus (GPa) = 27.14873 31.75095 29.44984
#
# Velocity S-wave (km/s) = 3.41610 3.69432 3.55793
# Velocity P-wave (km/s) = 5.44303 5.69248 5.56915
#
# Compressibility (1/GPa) = 0.03055729
#
# Stress axis : x y z
#
# Youngs Moduli (GPa) = 79.83507 67.09924 88.86332
#
# Poissons Ratio (x) = 0.19419 0.08672
# Poissons Ratio (y) = 0.23105 0.01711
# Poissons Ratio (z) = 0.07791 0.01292
#
# Static dielectric constant tensor:
#      x y z
#    x 1.917940 0.000000 0.000000 
#    y 0.000000 1.913830 0.000000 
#    z 0.000000 0.000000 1.958890 
# 
# From -- ./inp_files/4423.got.cif
#   From: 2010.05.17/outbox.cif.g08.bks.cpg/sg33_3_cif.got.tgz:4423.got - 2010.06.03 17:15:25.
