data_PCOD9345634
_publ_section_title
;
Structure prediction by ZEFSAII (Michael W. Deem and Ramdas Pophale) SiO2 
 PCOD9345634
Probable space group: P N A 21
;
_chemical_formula_sum "Si O2"
_cell_formula_units_Z 32
_cell_length_a 12.077784
_cell_length_b 4.875581
_cell_length_c 20.555957
_cell_angle_alpha 90.000000
_cell_angle_beta 90.000000
_cell_angle_gamma 90.000000
_cell_volume 1210.462487
_symmetry_space_group_name_H-M "P N A 21"
_symmetry_group_IT_number 33
_symmetry_cell_setting 'orthorhombic'
loop_
_space_group_symop_operation_xyz
x,y,z
-x,-y,1/2+z
1/2-x,1/2+y,1/2+z
1/2+x,1/2-y,z
loop_
_atom_site_type_symbol
_atom_site_label
_atom_site_fract_x
_atom_site_fract_y
_atom_site_fract_z
Si Si1 0.806149 0.451951 0.223200
Si Si2 0.970260 0.657878 0.153838
Si Si3 0.716488 0.919250 0.154112
Si Si4 0.687278 0.278602 0.849232
Si Si5 0.317616 0.271959 0.516219
Si Si6 0.501898 0.341866 0.059599
Si Si7 0.638600 0.484994 0.437989
Si Si8 0.558317 0.797913 0.886040
O O1 0.746787 0.187706 0.195501
O O2 0.810750 0.685896 0.165801
O O3 0.768920 0.635232 0.283469
O O4 0.937668 0.444258 0.216641
O O5 0.100713 0.705958 0.177070
O O6 0.982972 0.448638 0.092491
O O7 0.706549 0.926146 0.076690
O O8 0.957739 0.950977 0.114690
O O9 0.648693 0.594775 0.850528
O O10 0.773301 0.188159 0.904528
O O11 0.575418 0.103385 0.861578
O O12 0.373313 0.547486 0.544020
O O13 0.205811 0.254921 0.475063
O O14 0.407196 0.185214 0.462008
O O15 0.434646 0.367239 0.992550
O O16 0.560369 0.340115 0.384992
#
# Coordination Sequence:
#
# PCOD9345634 Si02
#       8
#     4   4   4   4   4   4   4   4
#     4  12  25  42  65  92 127 176 224 268 323 387
#     4  11  23  41  62  94 132 165 209 267 329 400
#     4  11  24  41  66  97 128 167 212 268 336 396
#     4  11  26  44  62  92 129 171 230 274 309 392
#     4   9  20  39  64  98 129 154 206 268 324 402
#     4  10  22  38  64  96 128 166 205 260 339 403
#     4  10  22  41  67  92 128 171 212 269 337 387
#     4  10  24  42  64  93 127 170 214 270 337 393
#
# _framework density 26.436174999999999
#
# number of rings (size 3 to 8) (size 9 to 14) (size 15 to 20)
#    0.000    1.500    0.000    4.500    0.000   19.000 
#    0.000    0.000    0.000    0.000    0.000    0.000 
#    0.000    0.000    0.000    0.000    0.000    0.000 
#
# Total GULP energy -178486.560391 kJ/mol
# GULP energy per Si atom -5577.705012 kJ/mol
# Density = 2.637601 g / cm^3
# Si number density = 26.436175 Si / 1000 Ang^3
#
#
#
# Elastic Constant Matrix: (Units=GPa)
#
#
# Indices 1 2 3 4 5 6 
#
# 1 62.5701 20.6115 18.1962 0.0000 0.0000 0.0000
# 2 20.6115 118.3856 19.3111 0.0000 0.0000 0.0000
# 3 18.1962 19.3111 90.7846 0.0000 0.0000 0.0000
# 4 0.0000 0.0000 0.0000 33.3832 0.0000 0.0000
# 5 0.0000 0.0000 0.0000 0.0000 30.9376 0.0000
# 6 0.0000 0.0000 0.0000 0.0000 0.0000 17.9834
#
#
#
# Elastic Compliance Matrix: (Units=1/GPa)
#
#
# Indices 1 2 3 4 5 6 
#
# 1 0.017708 -0.002594 -0.002998 0.000000 0.000000 0.000000
# 2 -0.002594 0.009131 -0.001422 0.000000 0.000000 0.000000
# 3 -0.002998 -0.001422 0.011918 0.000000 0.000000 0.000000
# 4 0.000000 0.000000 0.000000 0.029955 0.000000 0.000000
# 5 0.000000 0.000000 0.000000 0.000000 0.032323 0.000000
# 6 0.000000 0.000000 0.000000 0.000000 0.000000 0.055607
#
#
# Mechanical properties :
#
#
# Convention : Reuss Voigt Hill
#
# Bulk Modulus (GPa) = 40.43749 43.10867 41.77308
# Shear Modulus (GPa) = 27.94646 30.70228 29.32437
#
# Velocity S-wave (km/s) = 3.25488 3.41159 3.33416
# Velocity P-wave (km/s) = 5.42726 5.64453 5.53696
#
# Compressibility (1/GPa) = 0.02472953
#
# Stress axis : x y z
#
# Youngs Moduli (GPa) = 56.47053 109.52149 83.90374
#
# Poissons Ratio (x) = 0.28412 0.25150
# Poissons Ratio (y) = 0.14649 0.11933
# Poissons Ratio (z) = 0.16927 0.15577
#
# Static dielectric constant tensor:
#      x y z
#    x 2.252810 0.000000 0.000000 
#    y 0.000000 2.146480 0.000000 
#    z 0.000000 0.000000 2.163160 
# 
# From -- ./inp_files/9126.got.cif
#   From: 2010.05.17/outbox.cif.g08.bks.cpg/sg33_5_cif.got.tgz:9126.got - 2010.06.03 17:15:25.
