data_PCOD9345003
_publ_section_title
;
Structure prediction by ZEFSAII (Michael W. Deem and Ramdas Pophale) SiO2 
 PCOD9345003
Probable space group: P N A 21
;
_chemical_formula_sum "Si O2"
_cell_formula_units_Z 32
_cell_length_a 8.623999
_cell_length_b 15.740022
_cell_length_c 11.429583
_cell_angle_alpha 90.000000
_cell_angle_beta 90.000000
_cell_angle_gamma 90.000000
_cell_volume 1551.473701
_symmetry_space_group_name_H-M "P N A 21"
_symmetry_group_IT_number 33
_symmetry_cell_setting 'orthorhombic'
loop_
_space_group_symop_operation_xyz
x,y,z
-x,-y,1/2+z
1/2-x,1/2+y,1/2+z
1/2+x,1/2-y,z
loop_
_atom_site_type_symbol
_atom_site_label
_atom_site_fract_x
_atom_site_fract_y
_atom_site_fract_z
Si Si1 0.770634 0.987530 0.451330
Si Si2 0.544899 0.776962 0.948511
Si Si3 0.099103 0.973699 0.574824
Si Si4 0.734508 0.939994 0.871858
Si Si5 0.235393 0.295304 0.614519
Si Si6 0.928939 0.124575 0.290672
Si Si7 0.750322 0.886667 0.225344
Si Si8 0.586709 0.040283 0.668834
O O1 0.810035 0.069556 0.370342
O O2 0.630930 0.001899 0.542213
O O3 0.749337 0.910029 0.361826
O O4 0.926236 0.973509 0.525547
O O5 0.655964 0.857949 0.932585
O O6 0.555636 0.721294 0.832026
O O7 0.601740 0.714071 0.051454
O O8 0.379590 0.799665 0.001955
O O9 0.120830 0.892504 0.657771
O O10 0.218330 0.990452 0.469252
O O11 0.123985 0.054178 0.660838
O O12 0.899056 0.913643 0.814246
O O13 0.620236 0.974864 0.772670
O O14 0.221169 0.210728 0.692145
O O15 0.204560 0.380599 0.684165
O O16 0.583597 0.919886 0.178452
#
# Coordination Sequence:
#
# PCOD9345003 Si02
#       8
#     4   4   4   4   4   4   4   4
#     4  10  22  39  67  95 132 177 214 275 341 392
#     4  12  22  39  68  97 135 165 231 279 325 392
#     4  10  20  41  65  96 130 174 221 272 333 410
#     4  11  23  40  65 100 134 174 223 275 338 402
#     4  12  23  40  65  96 127 175 223 281 319 396
#     4  10  20  38  67  98 124 171 226 276 328 395
#     4  11  25  40  65 101 135 165 231 276 332 401
#     4  12  25  41  68  97 139 177 217 284 342 392
#
# _framework density 20.62555
#
# number of rings (size 3 to 8) (size 9 to 14) (size 15 to 20)
#    0.000    1.000    6.250    0.750    3.500    0.000 
#    0.000    1.250    0.000    0.000    0.000    0.000 
#    0.000    0.000    0.000    0.000    0.000    0.000 
#
# Total GULP energy -178720.452529 kJ/mol
# GULP energy per Si atom -5585.014142 kJ/mol
# Density = 2.057861 g / cm^3
# Si number density = 20.625550 Si / 1000 Ang^3
#
#
#
# Elastic Constant Matrix: (Units=GPa)
#
#
# Indices 1 2 3 4 5 6 
#
# 1 57.3722 7.0867 24.8169 0.0000 0.0000 0.0000
# 2 7.0867 62.5167 35.1600 0.0000 0.0000 0.0000
# 3 24.8169 35.1600 112.2203 0.0000 0.0000 0.0000
# 4 0.0000 0.0000 0.0000 37.5227 0.0000 0.0000
# 5 0.0000 0.0000 0.0000 0.0000 21.9677 0.0000
# 6 0.0000 0.0000 0.0000 0.0000 0.0000 19.5807
#
#
#
# Elastic Compliance Matrix: (Units=1/GPa)
#
#
# Indices 1 2 3 4 5 6 
#
# 1 0.019277 0.000258 -0.004344 0.000000 0.000000 0.000000
# 2 0.000258 0.019421 -0.006142 0.000000 0.000000 0.000000
# 3 -0.004344 -0.006142 0.011796 0.000000 0.000000 0.000000
# 4 0.000000 0.000000 0.000000 0.026651 0.000000 0.000000
# 5 0.000000 0.000000 0.000000 0.000000 0.045521 0.000000
# 6 0.000000 0.000000 0.000000 0.000000 0.000000 0.051071
#
#
# Mechanical properties :
#
#
# Convention : Reuss Voigt Hill
#
# Bulk Modulus (GPa) = 33.29085 40.69292 36.99188
# Shear Modulus (GPa) = 24.48522 26.81725 25.65124
#
# Velocity S-wave (km/s) = 3.44921 3.60973 3.53039
# Velocity P-wave (km/s) = 5.66025 6.09473 5.88150
#
# Compressibility (1/GPa) = 0.03003829
#
# Stress axis : x y z
#
# Youngs Moduli (GPa) = 51.87487 51.49144 84.77488
#
# Poissons Ratio (x) = -0.01328 0.36825
# Poissons Ratio (y) = -0.01337 0.52067
# Poissons Ratio (z) = 0.22533 0.31625
#
# Static dielectric constant tensor:
#      x y z
#    x 1.769110 0.000000 0.000000 
#    y 0.000000 1.739790 0.000000 
#    z 0.000000 0.000000 1.749980 
# 
# From -- ./inp_files/5982.got.cif
#   From: 2010.05.17/outbox.cif.g08.bks.cpg/sg33_3_cif.got.tgz:5982.got - 2010.06.03 17:15:25.
