data_PCOD9345077
_publ_section_title
;
Structure prediction by ZEFSAII (Michael W. Deem and Ramdas Pophale) SiO2 
 PCOD9345077
Probable space group: P N A 21
;
_chemical_formula_sum "Si O2"
_cell_formula_units_Z 28
_cell_length_a 10.115047
_cell_length_b 8.430413
_cell_length_c 14.644575
_cell_angle_alpha 90.000000
_cell_angle_beta 90.000000
_cell_angle_gamma 90.000000
_cell_volume 1248.801836
_symmetry_space_group_name_H-M "P N A 21"
_symmetry_group_IT_number 33
_symmetry_cell_setting 'orthorhombic'
loop_
_space_group_symop_operation_xyz
x,y,z
-x,-y,1/2+z
1/2-x,1/2+y,1/2+z
1/2+x,1/2-y,z
loop_
_atom_site_type_symbol
_atom_site_label
_atom_site_fract_x
_atom_site_fract_y
_atom_site_fract_z
Si Si1 0.498598 0.338232 0.578070
Si Si2 0.565705 0.544034 0.428014
Si Si3 0.792999 0.972753 0.491961
Si Si4 0.319981 0.170546 0.830340
Si Si5 0.597822 0.147165 0.726731
Si Si6 0.222230 0.675651 0.679028
Si Si7 0.494185 0.599460 0.733085
O O1 0.600448 0.421345 0.508201
O O2 0.358049 0.360893 0.526267
O O3 0.553322 0.179461 0.621843
O O4 0.477060 0.447888 0.667376
O O5 0.430373 0.620521 0.467804
O O6 0.666612 0.676653 0.397173
O O7 0.521173 0.450777 0.337340
O O8 0.713776 0.973482 0.398074
O O9 0.723232 0.879980 0.573762
O O10 0.461795 0.149727 0.783362
O O11 0.202457 0.218838 0.760955
O O12 0.671768 0.979948 0.733182
O O13 0.371760 0.711665 0.707357
O O14 0.128314 0.818059 0.704750
#
# Coordination Sequence:
#
# PCOD9345077 Si02
#       7
#     4   4   4   4   4   4   4
#     4   9  20  42  67  94 129 180 219 285 336 408
#     4  10  20  40  69  95 131 184 222 282 343 413
#     4   9  21  40  66 100 130 172 229 280 344 408
#     4  12  20  41  72 101 131 182 233 287 339 429
#     4  12  23  43  69 100 136 179 233 282 354 415
#     4  11  25  41  64  96 139 178 226 282 344 424
#     4  11  21  45  65  96 140 179 222 284 352 405
#
# _framework density 22.421493999999999
#
# number of rings (size 3 to 8) (size 9 to 14) (size 15 to 20)
#    0.857    0.571    4.286    1.714    0.000    2.286 
#    5.143    1.429    0.000    0.000    0.000    0.000 
#    0.000    0.000    0.000    0.000    0.000    0.000 
#
# Total GULP energy -156181.430894 kJ/mol
# GULP energy per Si atom -5577.908246 kJ/mol
# Density = 2.237046 g / cm^3
# Si number density = 22.421494 Si / 1000 Ang^3
#
#
#
# Elastic Constant Matrix: (Units=GPa)
#
#
# Indices 1 2 3 4 5 6 
#
# 1 93.9598 2.5160 21.8638 0.0000 0.0000 0.0000
# 2 2.5160 16.6920 7.9397 0.0000 0.0000 0.0000
# 3 21.8638 7.9397 102.8473 0.0000 0.0000 0.0000
# 4 0.0000 0.0000 0.0000 29.3980 0.0000 0.0000
# 5 0.0000 0.0000 0.0000 0.0000 42.8136 0.0000
# 6 0.0000 0.0000 0.0000 0.0000 0.0000 24.5312
#
#
#
# Elastic Compliance Matrix: (Units=1/GPa)
#
#
# Indices 1 2 3 4 5 6 
#
# 1 0.011202 -0.000577 -0.002337 0.000000 0.000000 0.000000
# 2 -0.000577 0.062222 -0.004681 0.000000 0.000000 0.000000
# 3 -0.002337 -0.004681 0.010581 0.000000 0.000000 0.000000
# 4 0.000000 0.000000 0.000000 0.034016 0.000000 0.000000
# 5 0.000000 0.000000 0.000000 0.000000 0.023357 0.000000
# 6 0.000000 0.000000 0.000000 0.000000 0.000000 0.040764
#
#
# Mechanical properties :
#
#
# Convention : Reuss Voigt Hill
#
# Bulk Modulus (GPa) = 14.53141 30.90422 22.71782
# Shear Modulus (GPa) = 22.69927 31.42718 27.06322
#
# Velocity S-wave (km/s) = 3.18526 3.74793 3.47799
# Velocity P-wave (km/s) = 4.47470 5.70460 5.12667
#
# Compressibility (1/GPa) = 0.06881645
#
# Stress axis : x y z
#
# Youngs Moduli (GPa) = 89.26922 16.07138 94.50646
#
# Poissons Ratio (x) = 0.00927 0.22085
# Poissons Ratio (y) = 0.05151 0.44237
# Poissons Ratio (z) = 0.20861 0.07523
#
# Static dielectric constant tensor:
#      x y z
#    x 1.869240 0.000000 0.000000 
#    y 0.000000 1.853440 0.000000 
#    z 0.000000 0.000000 1.868650 
# 
# From -- ./inp_files/8467.got.cif
#   From: 2010.05.17/outbox.cif.g08.bks.cpg/sg33_5_cif.got.tgz:8467.got - 2010.06.03 17:15:25.
