data_PCOD9345463
_publ_section_title
;
Structure prediction by ZEFSAII (Michael W. Deem and Ramdas Pophale) SiO2 
 PCOD9345463
Probable space group: P N A 21
;
_chemical_formula_sum "Si O2"
_cell_formula_units_Z 16
_cell_length_a 8.676067
_cell_length_b 14.471471
_cell_length_c 5.059230
_cell_angle_alpha 90.000000
_cell_angle_beta 90.000000
_cell_angle_gamma 90.000000
_cell_volume 635.213909
_symmetry_space_group_name_H-M "P N A 21"
_symmetry_group_IT_number 33
_symmetry_cell_setting 'orthorhombic'
loop_
_space_group_symop_operation_xyz
x,y,z
-x,-y,1/2+z
1/2-x,1/2+y,1/2+z
1/2+x,1/2-y,z
loop_
_atom_site_type_symbol
_atom_site_label
_atom_site_fract_x
_atom_site_fract_y
_atom_site_fract_z
Si Si1 0.585835 0.710775 0.413710
Si Si2 0.838966 0.476995 0.198538
Si Si3 0.703303 0.375814 0.701155
Si Si4 0.869304 0.631019 0.566192
O O1 0.476145 0.647880 0.234924
O O2 0.694937 0.782644 0.252646
O O3 0.693541 0.656009 0.619964
O O4 0.465411 0.775275 0.567552
O O5 0.747501 0.424270 0.430084
O O6 0.849529 0.584428 0.274200
O O7 0.014594 0.439157 0.205307
O O8 0.755500 0.444907 0.934384
#
# Coordination Sequence:
#
# PCOD9345463 Si02
#       4
#     4   4   4   4
#     4   9  21  41  64  93 128 167 214 265 320 382
#     4  11  23  41  65  93 127 167 213 263 322 382
#     4  10  23  41  63  93 127 169 214 264 320 381
#     4  10  21  41  66  93 128 169 213 264 322 385
#
# _framework density 25.188368000000001
#
# number of rings (size 3 to 8) (size 9 to 14) (size 15 to 20)
#    0.000    2.000    0.000    3.000    0.000   10.000 
#    0.000   15.000    0.000    0.000    0.000    0.000 
#    0.000    0.000    0.000    0.000    0.000    0.000 
#
# Total GULP energy -89472.946614 kJ/mol
# GULP energy per Si atom -5592.059163 kJ/mol
# Density = 2.513104 g / cm^3
# Si number density = 25.188368 Si / 1000 Ang^3
#
#
#
# Elastic Constant Matrix: (Units=GPa)
#
#
# Indices 1 2 3 4 5 6 
#
# 1 174.0440 35.6731 14.5546 0.0000 0.0000 0.0000
# 2 35.6731 72.1075 10.2548 0.0000 0.0000 0.0000
# 3 14.5546 10.2548 72.8492 0.0000 0.0000 0.0000
# 4 0.0000 0.0000 0.0000 16.6489 0.0000 0.0000
# 5 0.0000 0.0000 0.0000 0.0000 34.8197 0.0000
# 6 0.0000 0.0000 0.0000 0.0000 0.0000 17.4030
#
#
#
# Elastic Compliance Matrix: (Units=1/GPa)
#
#
# Indices 1 2 3 4 5 6 
#
# 1 0.006446 -0.003067 -0.000856 0.000000 0.000000 0.000000
# 2 -0.003067 0.015611 -0.001585 0.000000 0.000000 0.000000
# 3 -0.000856 -0.001585 0.014121 0.000000 0.000000 0.000000
# 4 0.000000 0.000000 0.000000 0.060064 0.000000 0.000000
# 5 0.000000 0.000000 0.000000 0.000000 0.028719 0.000000
# 6 0.000000 0.000000 0.000000 0.000000 0.000000 0.057461
#
#
# Mechanical properties :
#
#
# Convention : Reuss Voigt Hill
#
# Bulk Modulus (GPa) = 39.74242 48.88505 44.31374
# Shear Modulus (GPa) = 24.77381 31.00887 27.89134
#
# Velocity S-wave (km/s) = 3.13955 3.51248 3.33124
# Velocity P-wave (km/s) = 5.38096 5.99166 5.69450
#
# Compressibility (1/GPa) = 0.02516203
#
# Stress axis : x y z
#
# Youngs Moduli (GPa) = 155.13654 64.05755 70.81600
#
# Poissons Ratio (x) = 0.19648 0.06062
# Poissons Ratio (y) = 0.47583 0.11222
# Poissons Ratio (z) = 0.13281 0.10151
#
# Static dielectric constant tensor:
#      x y z
#    x 1.976790 0.000000 0.000000 
#    y 0.000000 2.000320 0.000000 
#    z 0.000000 0.000000 2.048330 
# 
# From -- ./inp_files/278.got.cif
#   From: 2010.05.17/outbox.cif.g08.bks.cpg/sg33_1_cif.got.tgz:278.got - 2010.06.03 17:15:25.
