data_PCOD9345659
_publ_section_title
;
Structure prediction by ZEFSAII (Michael W. Deem and Ramdas Pophale) SiO2 
 PCOD9345659
Probable space group: P N A 21
;
_chemical_formula_sum "Si O2"
_cell_formula_units_Z 28
_cell_length_a 16.472966
_cell_length_b 13.541954
_cell_length_c 5.942497
_cell_angle_alpha 90.000000
_cell_angle_beta 90.000000
_cell_angle_gamma 90.000000
_cell_volume 1325.629339
_symmetry_space_group_name_H-M "P N A 21"
_symmetry_group_IT_number 33
_symmetry_cell_setting 'orthorhombic'
loop_
_space_group_symop_operation_xyz
x,y,z
-x,-y,1/2+z
1/2-x,1/2+y,1/2+z
1/2+x,1/2-y,z
loop_
_atom_site_type_symbol
_atom_site_label
_atom_site_fract_x
_atom_site_fract_y
_atom_site_fract_z
Si Si1 0.799805 0.516244 0.836220
Si Si2 0.083030 0.398603 0.962267
Si Si3 0.699237 0.426704 0.481726
Si Si4 0.845750 0.704426 0.082703
Si Si5 0.132084 0.581117 0.732514
Si Si6 0.024915 0.042719 0.290443
Si Si7 0.008496 0.727477 0.794061
O O1 0.867686 0.550134 0.659724
O O2 0.717323 0.485141 0.712827
O O3 0.792635 0.614280 0.987895
O O4 0.841334 0.427030 0.973575
O O5 0.140386 0.318411 0.842857
O O6 0.071608 0.488331 0.786463
O O7 0.011304 0.335027 0.066919
O O8 0.688298 0.311515 0.535585
O O9 0.781432 0.440164 0.345281
O O10 0.621397 0.459154 0.340138
O O11 0.935957 0.702545 0.968334
O O12 0.094839 0.678563 0.844373
O O13 0.994400 0.155798 0.265634
O O14 0.991791 0.005167 0.540385
#
# Coordination Sequence:
#
# PCOD9345659 Si02
#       7
#     4   4   4   4   4   4   4
#     4   9  20  38  58  98 131 173 224 282 353 409
#     4   9  20  36  63  96 133 175 218 281 355 422
#     4  10  23  42  69  92 138 180 227 290 347 413
#     4   9  20  39  64  90 133 179 228 276 352 424
#     4  10  22  39  64 104 137 175 227 292 355 426
#     4  11  28  51  74 101 140 197 247 293 340 423
#     4  10  23  39  68  99 134 181 235 286 356 417
#
# _framework density 21.122042
#
# number of rings (size 3 to 8) (size 9 to 14) (size 15 to 20)
#    0.000    2.286    0.000    0.000   12.000    4.571 
#    5.143    0.000    0.000    0.000    0.000    0.000 
#    0.000    0.000    0.000    0.000    0.000    0.000 
#
# Total GULP energy -155872.338669 kJ/mol
# GULP energy per Si atom -5566.869238 kJ/mol
# Density = 2.107397 g / cm^3
# Si number density = 21.122042 Si / 1000 Ang^3
#
#
#
# Elastic Constant Matrix: (Units=GPa)
#
#
# Indices 1 2 3 4 5 6 
#
# 1 75.9704 38.6674 22.3014 0.0000 0.0000 0.0000
# 2 38.6674 80.4637 25.3957 0.0000 0.0000 0.0000
# 3 22.3014 25.3957 73.1599 0.0000 0.0000 0.0000
# 4 0.0000 0.0000 0.0000 21.9005 0.0000 0.0000
# 5 0.0000 0.0000 0.0000 0.0000 29.9952 0.0000
# 6 0.0000 0.0000 0.0000 0.0000 0.0000 23.8227
#
#
#
# Elastic Compliance Matrix: (Units=1/GPa)
#
#
# Indices 1 2 3 4 5 6 
#
# 1 0.017914 -0.007732 -0.002777 0.000000 0.000000 0.000000
# 2 -0.007732 0.017295 -0.003646 0.000000 0.000000 0.000000
# 3 -0.002777 -0.003646 0.015781 0.000000 0.000000 0.000000
# 4 0.000000 0.000000 0.000000 0.045661 0.000000 0.000000
# 5 0.000000 0.000000 0.000000 0.000000 0.033339 0.000000
# 6 0.000000 0.000000 0.000000 0.000000 0.000000 0.041977
#
#
# Mechanical properties :
#
#
# Convention : Reuss Voigt Hill
#
# Bulk Modulus (GPa) = 44.09420 44.70256 44.39838
# Shear Modulus (GPa) = 24.05748 24.69230 24.37489
#
# Velocity S-wave (km/s) = 3.37853 3.42282 3.40075
# Velocity P-wave (km/s) = 6.01170 6.06884 6.04034
#
# Compressibility (1/GPa) = 0.02267872
#
# Stress axis : x y z
#
# Youngs Moduli (GPa) = 55.82346 57.82158 63.36796
#
# Poissons Ratio (x) = 0.44709 0.17595
# Poissons Ratio (y) = 0.43164 0.23106
# Poissons Ratio (z) = 0.15500 0.21084
#
# Static dielectric constant tensor:
#      x y z
#    x 1.822310 0.000000 0.000000 
#    y 0.000000 1.791170 0.000000 
#    z 0.000000 0.000000 1.884170 
# 
# From -- ./inp_files/1431.got.cif
#   From: 2010.05.17/outbox.cif.g08.bks.cpg/sg33_1_cif.got.tgz:1431.got - 2010.06.03 17:15:25.
