data_PCOD9345999
_publ_section_title
;
Structure prediction by ZEFSAII (Michael W. Deem and Ramdas Pophale) SiO2 
 PCOD9345999
Probable space group: P N A 21
;
_chemical_formula_sum "Si O2"
_cell_formula_units_Z 24
_cell_length_a 14.812472
_cell_length_b 7.950230
_cell_length_c 7.843346
_cell_angle_alpha 90.000000
_cell_angle_beta 90.000000
_cell_angle_gamma 90.000000
_cell_volume 923.652498
_symmetry_space_group_name_H-M "P N A 21"
_symmetry_group_IT_number 33
_symmetry_cell_setting 'orthorhombic'
loop_
_space_group_symop_operation_xyz
x,y,z
-x,-y,1/2+z
1/2-x,1/2+y,1/2+z
1/2+x,1/2-y,z
loop_
_atom_site_type_symbol
_atom_site_label
_atom_site_fract_x
_atom_site_fract_y
_atom_site_fract_z
Si Si1 0.376460 0.481199 0.256500
Si Si2 0.706752 0.540620 0.241141
Si Si3 0.795982 0.423441 0.604267
Si Si4 0.872843 0.384909 0.101515
Si Si5 0.034321 0.490966 0.282143
Si Si6 0.041734 0.114389 0.425849
O O1 0.269811 0.507742 0.253433
O O2 0.387009 0.297451 0.176661
O O3 0.443031 0.471849 0.415921
O O4 0.416873 0.604699 0.113777
O O5 0.756651 0.497745 0.425994
O O6 0.706415 0.723077 0.147365
O O7 0.768112 0.427683 0.116633
O O8 0.607130 0.483165 0.294284
O O9 0.897278 0.489767 0.624100
O O10 0.932999 0.510594 0.217103
O O11 0.920887 0.387091 0.919578
O O12 0.041901 0.306008 0.363489
#
# Coordination Sequence:
#
# PCOD9345999 Si02
#       6
#     4   4   4   4   4   4
#     4  10  23  40  61  89 122 163 209 260 319 385
#     4  11  24  42  65  94 129 169 215 271 332 399
#     4  11  24  42  65  94 129 169 215 271 332 399
#     4  11  23  40  64  93 126 166 214 267 327 394
#     4  11  23  40  64  93 126 166 214 267 327 394
#     4  10  23  40  61  89 122 163 209 260 319 385
#
# _framework density 25.983796999999999
#
# number of rings (size 3 to 8) (size 9 to 14) (size 15 to 20)
#    0.000    1.333    0.000    6.000    0.000   12.000 
#    0.000    0.000    0.000    0.000    0.000    0.000 
#    0.000    0.000    0.000    0.000    0.000    0.000 
#
# Total GULP energy -134166.062961 kJ/mol
# GULP energy per Si atom -5590.252623 kJ/mol
# Density = 2.592466 g / cm^3
# Si number density = 25.983797 Si / 1000 Ang^3
#
#
#
# Elastic Constant Matrix: (Units=GPa)
#
#
# Indices 1 2 3 4 5 6 
#
# 1 73.9456 7.8438 4.9614 0.0000 0.0000 0.0000
# 2 7.8438 94.1353 1.9532 0.0000 0.0000 0.0000
# 3 4.9614 1.9532 110.7035 0.0000 0.0000 0.0000
# 4 0.0000 0.0000 0.0000 -3.6556 0.0000 0.0000
# 5 0.0000 0.0000 0.0000 0.0000 37.3482 0.0000
# 6 0.0000 0.0000 0.0000 0.0000 0.0000 31.5118
#
#
#
# Elastic Compliance Matrix: (Units=1/GPa)
#
#
# Indices 1 2 3 4 5 6 
#
# 1 0.013683 -0.001128 -0.000593 0.000000 0.000000 0.000000
# 2 -0.001128 0.010720 -0.000139 0.000000 0.000000 0.000000
# 3 -0.000593 -0.000139 0.009062 0.000000 0.000000 0.000000
# 4 0.000000 0.000000 0.000000 -0.273552 0.000000 0.000000
# 5 0.000000 0.000000 0.000000 0.000000 0.026775 0.000000
# 6 0.000000 0.000000 0.000000 0.000000 0.000000 0.031734
#
#
# Mechanical properties :
#
#
# Convention : Reuss Voigt Hill
#
# Bulk Modulus (GPa) = 33.61855 34.25567 33.93711
# Shear Modulus (GPa) = -29.77192 30.64263 0.43536
#
# Velocity S-wave (km/s) = -3.38862 3.43782 0.40977
# Velocity P-wave (km/s) = 1.53100 5.38240 3.64871
#
# Compressibility (1/GPa) = 0.02974548
#
# Stress axis : x y z
#
# Youngs Moduli (GPa) = 73.08393 93.28484 110.34880
#
# Poissons Ratio (x) = 0.10521 0.06547
# Poissons Ratio (y) = 0.08242 0.01529
# Poissons Ratio (z) = 0.04336 0.01293
#
# Static dielectric constant tensor:
#      x y z
#    x 2.034190 0.000000 0.000000 
#    y 0.000000 2.009360 0.000000 
#    z 0.000000 0.000000 2.153260 
# 
# From -- ./inp_files/4251.got.cif
#   From: 2010.05.17/outbox.cif.g08.bks.cpg/sg33_3_cif.got.tgz:4251.got - 2010.06.03 17:15:25.
