data_PCOD9345137
_publ_section_title
;
Structure prediction by ZEFSAII (Michael W. Deem and Ramdas Pophale) SiO2 
 PCOD9345137
Probable space group: P N A 21
;
_chemical_formula_sum "Si O2"
_cell_formula_units_Z 32
_cell_length_a 18.328860
_cell_length_b 6.148320
_cell_length_c 12.701905
_cell_angle_alpha 90.000000
_cell_angle_beta 90.000000
_cell_angle_gamma 90.000000
_cell_volume 1431.399223
_symmetry_space_group_name_H-M "P N A 21"
_symmetry_group_IT_number 33
_symmetry_cell_setting 'orthorhombic'
loop_
_space_group_symop_operation_xyz
x,y,z
-x,-y,1/2+z
1/2-x,1/2+y,1/2+z
1/2+x,1/2-y,z
loop_
_atom_site_type_symbol
_atom_site_label
_atom_site_fract_x
_atom_site_fract_y
_atom_site_fract_z
Si Si1 0.885685 0.444546 0.641160
Si Si2 0.694535 0.300458 0.283206
Si Si3 0.663675 0.391263 0.879860
Si Si4 0.437746 0.237406 0.296722
Si Si5 0.473403 0.880036 0.455750
Si Si6 0.444067 0.404129 0.799608
Si Si7 0.258622 0.309005 0.509565
Si Si8 0.322836 0.931690 0.197369
O O1 0.842060 0.598085 0.722590
O O2 0.948895 0.567190 0.574133
O O3 0.930152 0.272108 0.709849
O O4 0.824843 0.326440 0.565130
O O5 0.630662 0.468431 0.306170
O O6 0.732128 0.267639 0.395826
O O7 0.756831 0.399765 0.209641
O O8 0.627971 0.617797 0.843371
O O9 0.599122 0.238672 0.916170
O O10 0.694777 0.258092 0.782114
O O11 0.713016 0.449469 0.978880
O O12 0.494377 0.423274 0.262217
O O13 0.477589 0.103433 0.389609
O O14 0.397981 0.060317 0.221461
O O15 0.534702 0.717890 0.409214
O O16 0.188606 0.323701 0.584716
#
# Coordination Sequence:
#
# PCOD9345137 Si02
#       8
#     4   4   4   4   4   4   4   4
#     4  12  25  48  77 108 147 209 252 312 393 456
#     4  12  26  47  72 112 152 188 263 322 362 476
#     4  10  20  42  70 102 135 186 250 296 365 461
#     4  10  21  46  70 100 144 193 248 308 371 466
#     4  10  22  44  75  97 140 199 244 296 383 450
#     4  11  26  46  72 105 151 194 260 320 373 469
#     4  12  23  43  76 106 148 194 249 314 394 441
#     4  11  23  42  74 104 143 193 246 320 385 447
#
# _framework density 22.355747000000001
#
# number of rings (size 3 to 8) (size 9 to 14) (size 15 to 20)
#    0.000    1.000    3.750    3.000    0.000    0.000 
#    0.000   16.250    0.000    0.000    0.000    0.000 
#    0.000    0.000    0.000    0.000    0.000    0.000 
#
# Total GULP energy -178587.569839 kJ/mol
# GULP energy per Si atom -5580.861557 kJ/mol
# Density = 2.230486 g / cm^3
# Si number density = 22.355747 Si / 1000 Ang^3
#
#
#
# Elastic Constant Matrix: (Units=GPa)
#
#
# Indices 1 2 3 4 5 6 
#
# 1 68.5878 10.8119 18.9120 0.0000 0.0000 0.0000
# 2 10.8119 74.9123 19.8776 0.0000 0.0000 0.0000
# 3 18.9120 19.8776 88.8597 0.0000 0.0000 0.0000
# 4 0.0000 0.0000 0.0000 16.6138 0.0000 0.0000
# 5 0.0000 0.0000 0.0000 0.0000 27.2666 0.0000
# 6 0.0000 0.0000 0.0000 0.0000 0.0000 34.8614
#
#
#
# Elastic Compliance Matrix: (Units=1/GPa)
#
#
# Indices 1 2 3 4 5 6 
#
# 1 0.015638 -0.001461 -0.003001 0.000000 0.000000 0.000000
# 2 -0.001461 0.014328 -0.002894 0.000000 0.000000 0.000000
# 3 -0.003001 -0.002894 0.012540 0.000000 0.000000 0.000000
# 4 0.000000 0.000000 0.000000 0.060191 0.000000 0.000000
# 5 0.000000 0.000000 0.000000 0.000000 0.036675 0.000000
# 6 0.000000 0.000000 0.000000 0.000000 0.000000 0.028685
#
#
# Mechanical properties :
#
#
# Convention : Reuss Voigt Hill
#
# Bulk Modulus (GPa) = 35.98036 36.84030 36.41033
# Shear Modulus (GPa) = 26.03723 27.93225 26.98474
#
# Velocity S-wave (km/s) = 3.41644 3.53858 3.47805
# Velocity P-wave (km/s) = 5.62958 5.76284 5.69660
#
# Compressibility (1/GPa) = 0.02779294
#
# Stress axis : x y z
#
# Youngs Moduli (GPa) = 63.94809 69.79484 79.74537
#
# Poissons Ratio (x) = 0.10194 0.23935
# Poissons Ratio (y) = 0.09340 0.23080
# Poissons Ratio (z) = 0.19194 0.20200
#
# Static dielectric constant tensor:
#      x y z
#    x 1.873400 0.000000 0.000000 
#    y 0.000000 1.975060 0.000000 
#    z 0.000000 0.000000 1.915470 
# 
# From -- ./inp_files/7212.got.cif
#   From: 2010.05.17/outbox.cif.g08.bks.cpg/sg33_4_cif.got.tgz:7212.got - 2010.06.03 17:15:25.
