data_PCOD9345633
_publ_section_title
;
Structure prediction by ZEFSAII (Michael W. Deem and Ramdas Pophale) SiO2 
 PCOD9345633
Probable space group: P N A 21
;
_chemical_formula_sum "Si O2"
_cell_formula_units_Z 28
_cell_length_a 6.655191
_cell_length_b 19.306367
_cell_length_c 9.085428
_cell_angle_alpha 90.000000
_cell_angle_beta 90.000000
_cell_angle_gamma 90.000000
_cell_volume 1167.364474
_symmetry_space_group_name_H-M "P N A 21"
_symmetry_group_IT_number 33
_symmetry_cell_setting 'orthorhombic'
loop_
_space_group_symop_operation_xyz
x,y,z
-x,-y,1/2+z
1/2-x,1/2+y,1/2+z
1/2+x,1/2-y,z
loop_
_atom_site_type_symbol
_atom_site_label
_atom_site_fract_x
_atom_site_fract_y
_atom_site_fract_z
Si Si1 0.520378 0.596740 0.195290
Si Si2 0.175049 0.684139 0.340567
Si Si3 0.129241 0.233861 0.318774
Si Si4 0.520835 0.403263 0.175153
Si Si5 0.871356 0.233887 0.551669
Si Si6 0.999982 0.003054 0.435230
Si Si7 0.824384 0.684173 0.529841
O O1 0.354564 0.635359 0.292234
O O2 0.652682 0.655599 0.116165
O O3 0.618922 0.545844 0.317968
O O4 0.413777 0.554811 0.060627
O O5 0.094652 0.715315 0.189567
O O6 0.249761 0.749987 0.435176
O O7 0.999730 0.649883 0.435245
O O8 0.370145 0.264517 0.362593
O O9 0.095270 0.284643 0.180845
O O10 0.153246 0.155565 0.254300
O O11 0.130449 0.235462 0.507853
O O12 0.414029 0.445132 0.309823
O O13 0.355180 0.364588 0.078164
O O14 0.619192 0.454219 0.052496
#
# Coordination Sequence:
#
# PCOD9345633 Si02
#       7
#     4   4   4   4   4   4   4
#     4  11  21  39  61  94 128 174 232 264 337 399
#     4  12  22  38  64 100 139 169 215 282 350 406
#     4  12  21  36  60  95 133 165 214 279 345 397
#     4  11  21  39  61  94 128 174 232 264 337 399
#     4  12  21  36  60  95 133 165 214 279 345 397
#     4  10  22  38  64  84 124 182 230 268 310 414
#     4  12  22  38  64 100 139 169 215 282 350 406
#
# _framework density 23.985652999999999
#
# number of rings (size 3 to 8) (size 9 to 14) (size 15 to 20)
#    0.000    0.571    7.143    1.714    0.000    0.000 
#    0.000    0.000    0.000   29.143    0.000    0.000 
#    0.000    0.000    0.000    0.000    0.000    0.000 
#
# Total GULP energy -155932.155051 kJ/mol
# GULP energy per Si atom -5569.005538 kJ/mol
# Density = 2.393106 g / cm^3
# Si number density = 23.985653 Si / 1000 Ang^3
#
#
#
# Elastic Constant Matrix: (Units=GPa)
#
#
# Indices 1 2 3 4 5 6 
#
# 1 86.6337 32.4046 62.3934 0.0000 0.0000 0.0000
# 2 32.4046 112.0417 69.3848 0.0000 0.0000 0.0000
# 3 62.3934 69.3848 219.9132 0.0000 0.0000 0.0000
# 4 0.0000 0.0000 0.0000 86.5315 0.0000 0.0000
# 5 0.0000 0.0000 0.0000 0.0000 59.2872 0.0000
# 6 0.0000 0.0000 0.0000 0.0000 0.0000 8.0899
#
#
#
# Elastic Compliance Matrix: (Units=1/GPa)
#
#
# Indices 1 2 3 4 5 6 
#
# 1 0.014895 -0.002101 -0.003563 0.000000 0.000000 0.000000
# 2 -0.002101 0.011389 -0.002997 0.000000 0.000000 0.000000
# 3 -0.003563 -0.002997 0.006504 0.000000 0.000000 0.000000
# 4 0.000000 0.000000 0.000000 0.011556 0.000000 0.000000
# 5 0.000000 0.000000 0.000000 0.000000 0.016867 0.000000
# 6 0.000000 0.000000 0.000000 0.000000 0.000000 0.123610
#
#
# Mechanical properties :
#
#
# Convention : Reuss Voigt Hill
#
# Bulk Modulus (GPa) = 64.66351 82.99493 73.82922
# Shear Modulus (GPa) = 24.11967 47.74212 35.93089
#
# Velocity S-wave (km/s) = 3.17454 4.46628 3.87462
# Velocity P-wave (km/s) = 6.36040 7.82776 7.13192
#
# Compressibility (1/GPa) = 0.01546467
#
# Stress axis : x y z
#
# Youngs Moduli (GPa) = 67.13710 87.80334 153.75756
#
# Poissons Ratio (x) = 0.18451 0.54783
# Poissons Ratio (y) = 0.14109 0.46083
# Poissons Ratio (z) = 0.23920 0.26316
#
# Static dielectric constant tensor:
#      x y z
#    x 2.081610 0.000000 0.000000 
#    y 0.000000 2.021330 0.000000 
#    z 0.000000 0.000000 1.891040 
# 
# From -- ./inp_files/3348.got.cif
#   From: 2010.05.17/outbox.cif.g08.bks.cpg/sg33_2_cif.got.tgz:3348.got - 2010.06.03 17:15:25.
