data_PCOD9345906
_publ_section_title
;
Structure prediction by ZEFSAII (Michael W. Deem and Ramdas Pophale) SiO2 
 PCOD9345906
Probable space group: P N A 21
;
_chemical_formula_sum "Si O2"
_cell_formula_units_Z 32
_cell_length_a 14.625460
_cell_length_b 6.476318
_cell_length_c 15.175084
_cell_angle_alpha 90.000000
_cell_angle_beta 90.000000
_cell_angle_gamma 90.000000
_cell_volume 1437.370752
_symmetry_space_group_name_H-M "P N A 21"
_symmetry_group_IT_number 33
_symmetry_cell_setting 'orthorhombic'
loop_
_space_group_symop_operation_xyz
x,y,z
-x,-y,1/2+z
1/2-x,1/2+y,1/2+z
1/2+x,1/2-y,z
loop_
_atom_site_type_symbol
_atom_site_label
_atom_site_fract_x
_atom_site_fract_y
_atom_site_fract_z
Si Si1 0.745721 0.977008 0.765200
Si Si2 0.187907 0.644993 0.188824
Si Si3 0.267613 0.242756 0.935958
Si Si4 0.360182 0.894976 0.845941
Si Si5 0.607851 0.034323 0.013808
Si Si6 0.044132 0.856174 0.529374
Si Si7 0.954268 0.181506 0.401990
Si Si8 0.874622 0.115948 0.217405
O O1 0.809455 0.795878 0.801212
O O2 0.658221 0.854985 0.728573
O O3 0.792267 0.112823 0.689595
O O4 0.739681 0.142549 0.844689
O O5 0.128250 0.573010 0.272721
O O6 0.285532 0.525690 0.198844
O O7 0.135532 0.571201 0.104001
O O8 0.181672 0.286499 0.996881
O O9 0.357638 0.342761 0.980357
O O10 0.294941 0.006729 0.916862
O O11 0.455180 0.809921 0.878396
O O12 0.613278 0.855700 0.939978
O O13 0.509164 0.140250 0.018925
O O14 0.060763 0.902695 0.632468
O O15 0.984161 0.024399 0.477924
O O16 0.918057 0.070622 0.313343
#
# Coordination Sequence:
#
# PCOD9345906 Si02
#       8
#     4   4   4   4   4   4   4   4
#     4  10  22  44  74 100 139 200 242 304 375 443
#     4  10  24  44  73 104 143 196 250 306 375 450
#     4  11  22  46  75 103 149 188 246 305 380 451
#     4  10  22  44  71 102 141 190 240 307 371 447
#     4  12  26  46  71 113 145 197 250 308 381 456
#     4  12  27  47  73 113 151 194 252 319 374 461
#     4  12  26  43  72 107 151 195 247 309 380 450
#     4  11  25  46  69 108 149 196 251 312 374 452
#
# _framework density 22.262869999999999
#
# number of rings (size 3 to 8) (size 9 to 14) (size 15 to 20)
#    0.000    1.000    5.000    0.750    5.250    4.000 
#    2.250    0.000    0.000    0.000    0.000    0.000 
#    0.000    0.000    0.000    0.000    0.000    0.000 
#
# Total GULP energy -178865.852281 kJ/mol
# GULP energy per Si atom -5589.557884 kJ/mol
# Density = 2.221220 g / cm^3
# Si number density = 22.262870 Si / 1000 Ang^3
#
#
#
# Elastic Constant Matrix: (Units=GPa)
#
#
# Indices 1 2 3 4 5 6 
#
# 1 52.6450 29.7775 17.4783 0.0000 0.0000 0.0000
# 2 29.7775 79.8883 31.4660 0.0000 0.0000 0.0000
# 3 17.4783 31.4660 99.2832 0.0000 0.0000 0.0000
# 4 0.0000 0.0000 0.0000 37.7858 0.0000 0.0000
# 5 0.0000 0.0000 0.0000 0.0000 36.3042 0.0000
# 6 0.0000 0.0000 0.0000 0.0000 0.0000 30.7614
#
#
#
# Elastic Compliance Matrix: (Units=1/GPa)
#
#
# Indices 1 2 3 4 5 6 
#
# 1 0.024292 -0.008422 -0.001607 0.000000 0.000000 0.000000
# 2 -0.008422 0.017222 -0.003976 0.000000 0.000000 0.000000
# 3 -0.001607 -0.003976 0.011615 0.000000 0.000000 0.000000
# 4 0.000000 0.000000 0.000000 0.026465 0.000000 0.000000
# 5 0.000000 0.000000 0.000000 0.000000 0.027545 0.000000
# 6 0.000000 0.000000 0.000000 0.000000 0.000000 0.032508
#
#
# Mechanical properties :
#
#
# Convention : Reuss Voigt Hill
#
# Bulk Modulus (GPa) = 39.80830 43.25114 41.52972
# Shear Modulus (GPa) = 28.40402 31.17658 29.79030
#
# Velocity S-wave (km/s) = 3.57578 3.74623 3.66199
# Velocity P-wave (km/s) = 5.91338 6.17916 6.04773
#
# Compressibility (1/GPa) = 0.02512039
#
# Stress axis : x y z
#
# Youngs Moduli (GPa) = 41.16529 58.06365 86.09381
#
# Poissons Ratio (x) = 0.48899 0.13840
# Poissons Ratio (y) = 0.34668 0.34229
# Poissons Ratio (z) = 0.06617 0.23085
#
# Static dielectric constant tensor:
#      x y z
#    x 1.812260 0.000000 0.000000 
#    y 0.000000 1.822270 0.000000 
#    z 0.000000 0.000000 1.855740 
# 
# From -- ./inp_files/8809.got.cif
#   From: 2010.05.17/outbox.cif.g08.bks.cpg/sg33_5_cif.got.tgz:8809.got - 2010.06.03 17:15:25.
