data_PCOD9345785
_publ_section_title
;
Structure prediction by ZEFSAII (Michael W. Deem and Ramdas Pophale) SiO2 
 PCOD9345785
Probable space group: P N A 21
;
_chemical_formula_sum "Si O2"
_cell_formula_units_Z 32
_cell_length_a 23.153126
_cell_length_b 6.007281
_cell_length_c 11.603830
_cell_angle_alpha 90.000000
_cell_angle_beta 90.000000
_cell_angle_gamma 90.000000
_cell_volume 1613.945778
_symmetry_space_group_name_H-M "P N A 21"
_symmetry_group_IT_number 33
_symmetry_cell_setting 'orthorhombic'
loop_
_space_group_symop_operation_xyz
x,y,z
-x,-y,1/2+z
1/2-x,1/2+y,1/2+z
1/2+x,1/2-y,z
loop_
_atom_site_type_symbol
_atom_site_label
_atom_site_fract_x
_atom_site_fract_y
_atom_site_fract_z
Si Si1 0.402024 0.347348 0.534640
Si Si2 0.815314 0.226964 0.924254
Si Si3 0.592663 0.030166 0.849408
Si Si4 0.500001 0.675710 0.465047
Si Si5 0.902022 0.847348 0.895460
Si Si6 0.634594 0.999999 0.215049
Si Si7 0.592664 0.969834 0.580689
Si Si8 0.684684 0.273036 0.005843
O O1 0.408796 0.200138 0.419710
O O2 0.453650 0.524634 0.532235
O O3 0.401947 0.180121 0.642593
O O4 0.341513 0.482118 0.530618
O O5 0.827642 0.370680 0.809656
O O6 0.749999 0.250002 0.965050
O O7 0.841511 0.982117 0.899478
O O8 0.855467 0.329832 0.024137
O O9 0.600216 0.999994 0.715049
O O10 0.535079 0.167466 0.878532
O O11 0.644532 0.170167 0.905958
O O12 0.546352 0.524634 0.397863
O O13 0.535079 0.832543 0.551560
O O14 0.901946 0.680117 0.787509
O O15 0.908793 0.700143 0.010392
O O16 0.672356 0.129319 0.120440
#
# Coordination Sequence:
#
# PCOD9345785 Si02
#       8
#     4   4   4   4   4   4   4   4
#     4  10  22  44  61  94 131 167 219 268 328 392
#     4  10  23  41  67  97 129 172 215 267 331 387
#     4  10  23  43  61  95 129 167 218 268 329 391
#     4  10  22  44  60  94 124 176 218 268 332 388
#     4  10  22  44  61  94 131 167 219 268 328 392
#     4  10  22  42  66  96 128 170 218 270 326 394
#     4  10  23  43  61  95 129 167 218 268 329 391
#     4  10  23  41  67  97 129 172 215 267 331 387
#
# _framework density 19.827186000000001
#
# number of rings (size 3 to 8) (size 9 to 14) (size 15 to 20)
#    0.000    2.000    0.000    1.500    0.000   12.000 
#   54.000    0.000    0.000    0.000    0.000    0.000 
#    0.000    0.000    0.000    0.000    0.000    0.000 
#
# Total GULP energy -178879.848542 kJ/mol
# GULP energy per Si atom -5589.995267 kJ/mol
# Density = 1.978206 g / cm^3
# Si number density = 19.827186 Si / 1000 Ang^3
#
#
#
# Elastic Constant Matrix: (Units=GPa)
#
#
# Indices 1 2 3 4 5 6 
#
# 1 110.8111 48.1120 49.6947 0.0000 0.0000 0.0000
# 2 48.1120 122.9380 64.3426 0.0000 0.0000 0.0000
# 3 49.6947 64.3426 186.4416 0.0000 0.0000 0.0000
# 4 0.0000 0.0000 0.0000 21.4905 0.0000 0.0000
# 5 0.0000 0.0000 0.0000 0.0000 9.9582 0.0000
# 6 0.0000 0.0000 0.0000 0.0000 0.0000 10.4188
#
#
#
# Elastic Compliance Matrix: (Units=1/GPa)
#
#
# Indices 1 2 3 4 5 6 
#
# 1 0.011357 -0.003491 -0.001822 0.000000 0.000000 0.000000
# 2 -0.003491 0.011000 -0.002866 0.000000 0.000000 0.000000
# 3 -0.001822 -0.002866 0.006838 0.000000 0.000000 0.000000
# 4 0.000000 0.000000 0.000000 0.046532 0.000000 0.000000
# 5 0.000000 0.000000 0.000000 0.000000 0.100420 0.000000
# 6 0.000000 0.000000 0.000000 0.000000 0.000000 0.095981
#
#
# Mechanical properties :
#
#
# Convention : Reuss Voigt Hill
#
# Bulk Modulus (GPa) = 77.89598 82.72106 80.30852
# Shear Modulus (GPa) = 17.07847 25.57625 21.32736
#
# Velocity S-wave (km/s) = 2.93809 3.59550 3.28329
# Velocity P-wave (km/s) = 7.13320 7.68429 7.41387
#
# Compressibility (1/GPa) = 0.01283763
#
# Stress axis : x y z
#
# Youngs Moduli (GPa) = 88.04865 90.90721 146.23307
#
# Poissons Ratio (x) = 0.31735 0.26651
# Poissons Ratio (y) = 0.30737 0.41908
# Poissons Ratio (z) = 0.16047 0.26052
#
# Static dielectric constant tensor:
#      x y z
#    x 1.686420 0.000000 0.000000 
#    y 0.000000 1.732720 0.000000 
#    z 0.000000 0.000000 1.661490 
# 
# From -- ./inp_files/7224.got.cif
#   From: 2010.05.17/outbox.cif.g08.bks.cpg/sg33_4_cif.got.tgz:7224.got - 2010.06.03 17:15:25.
