data_PCOD9345722
_publ_section_title
;
Structure prediction by ZEFSAII (Michael W. Deem and Ramdas Pophale) SiO2 
 PCOD9345722
Probable space group: P N A 21
;
_chemical_formula_sum "Si O2"
_cell_formula_units_Z 32
_cell_length_a 20.146236
_cell_length_b 12.082110
_cell_length_c 5.386648
_cell_angle_alpha 90.000000
_cell_angle_beta 90.000000
_cell_angle_gamma 90.000000
_cell_volume 1311.158815
_symmetry_space_group_name_H-M "P N A 21"
_symmetry_group_IT_number 33
_symmetry_cell_setting 'orthorhombic'
loop_
_space_group_symop_operation_xyz
x,y,z
-x,-y,1/2+z
1/2-x,1/2+y,1/2+z
1/2+x,1/2-y,z
loop_
_atom_site_type_symbol
_atom_site_label
_atom_site_fract_x
_atom_site_fract_y
_atom_site_fract_z
Si Si1 0.239793 0.537667 0.371460
Si Si2 0.147178 0.143010 0.666686
Si Si3 0.676621 0.754510 0.623058
Si Si4 0.123307 0.566641 0.006140
Si Si5 0.446955 0.242121 0.827626
Si Si6 0.487196 0.566826 0.013341
Si Si7 0.582188 0.170957 0.014547
Si Si8 0.299255 0.825911 0.885952
O O1 0.317519 0.547937 0.322416
O O2 0.219359 0.655733 0.475304
O O3 0.192205 0.526613 0.131268
O O4 0.213986 0.436927 0.542744
O O5 0.089831 0.098571 0.492435
O O6 0.203232 0.207644 0.514768
O O7 0.117120 0.239244 0.837932
O O8 0.617654 0.705491 0.457606
O O9 0.732849 0.672116 0.719010
O O10 0.639911 0.832571 0.823554
O O11 0.077727 0.625862 0.213848
O O12 0.087173 0.455029 0.914290
O O13 0.473864 0.325460 0.616446
O O14 0.506612 0.213287 0.018118
O O15 0.490873 0.482960 0.250275
O O16 0.627967 0.170791 0.260806
#
# Coordination Sequence:
#
# PCOD9345722 Si02
#       8
#     4   4   4   4   4   4   4   4
#     4  10  22  41  61 104 128 181 235 290 369 429
#     4  11  23  44  70 100 142 187 240 305 363 445
#     4  11  22  41  68  96 141 174 236 304 356 437
#     4  10  22  41  65  98 135 176 236 293 369 427
#     4  10  26  42  67 101 142 186 240 299 361 440
#     4  11  29  50  74 108 146 198 255 302 373 446
#     4  10  23  43  65  99 136 186 231 296 364 437
#     4  11  23  40  70  96 140 182 233 299 361 431
#
# _framework density 24.405892999999999
#
# number of rings (size 3 to 8) (size 9 to 14) (size 15 to 20)
#    0.000    1.500    2.500    0.750    8.750    1.000 
#    2.250    0.000    0.000    0.000    0.000    0.000 
#    0.000    0.000    0.000    0.000    0.000    0.000 
#
# Total GULP energy -178713.911270 kJ/mol
# GULP energy per Si atom -5584.809727 kJ/mol
# Density = 2.435034 g / cm^3
# Si number density = 24.405893 Si / 1000 Ang^3
#
#
#
# Elastic Constant Matrix: (Units=GPa)
#
#
# Indices 1 2 3 4 5 6 
#
# 1 118.0445 32.5590 10.5616 0.0000 0.0000 0.0000
# 2 32.5590 97.3887 6.8666 0.0000 0.0000 0.0000
# 3 10.5616 6.8666 37.7250 0.0000 0.0000 0.0000
# 4 0.0000 0.0000 0.0000 29.1020 0.0000 0.0000
# 5 0.0000 0.0000 0.0000 0.0000 14.7964 0.0000
# 6 0.0000 0.0000 0.0000 0.0000 0.0000 34.1592
#
#
#
# Elastic Compliance Matrix: (Units=1/GPa)
#
#
# Indices 1 2 3 4 5 6 
#
# 1 0.009494 -0.003026 -0.002107 0.000000 0.000000 0.000000
# 2 -0.003026 0.011366 -0.001222 0.000000 0.000000 0.000000
# 3 -0.002107 -0.001222 0.027320 0.000000 0.000000 0.000000
# 4 0.000000 0.000000 0.000000 0.034362 0.000000 0.000000
# 5 0.000000 0.000000 0.000000 0.000000 0.067584 0.000000
# 6 0.000000 0.000000 0.000000 0.000000 0.000000 0.029275
#
#
# Mechanical properties :
#
#
# Convention : Reuss Voigt Hill
#
# Bulk Modulus (GPa) = 28.19220 39.23698 33.71459
# Shear Modulus (GPa) = 24.51777 29.15625 26.83701
#
# Velocity S-wave (km/s) = 3.17296 3.46011 3.31964
# Velocity P-wave (km/s) = 5.00000 5.66347 5.34204
#
# Compressibility (1/GPa) = 0.03547080
#
# Stress axis : x y z
#
# Youngs Moduli (GPa) = 105.32471 87.98336 36.60326
#
# Poissons Ratio (x) = 0.26620 0.07714
# Poissons Ratio (y) = 0.31867 0.04472
# Poissons Ratio (z) = 0.22196 0.10749
#
# Static dielectric constant tensor:
#      x y z
#    x 1.943050 0.000000 0.000000 
#    y 0.000000 1.961350 0.000000 
#    z 0.000000 0.000000 2.025540 
# 
# From -- ./inp_files/2033.got.cif
#   From: 2010.05.17/outbox.cif.g08.bks.cpg/sg33_2_cif.got.tgz:2033.got - 2010.06.03 17:15:25.
