data_PCOD9345551
_publ_section_title
;
Structure prediction by ZEFSAII (Michael W. Deem and Ramdas Pophale) SiO2 
 PCOD9345551
Probable space group: P N A 21
;
_chemical_formula_sum "Si O2"
_cell_formula_units_Z 24
_cell_length_a 20.236222
_cell_length_b 9.687945
_cell_length_c 5.096271
_cell_angle_alpha 90.000000
_cell_angle_beta 90.000000
_cell_angle_gamma 90.000000
_cell_volume 999.110709
_symmetry_space_group_name_H-M "P N A 21"
_symmetry_group_IT_number 33
_symmetry_cell_setting 'orthorhombic'
loop_
_space_group_symop_operation_xyz
x,y,z
-x,-y,1/2+z
1/2-x,1/2+y,1/2+z
1/2+x,1/2-y,z
loop_
_atom_site_type_symbol
_atom_site_label
_atom_site_fract_x
_atom_site_fract_y
_atom_site_fract_z
Si Si1 0.037976 0.480155 0.492450
Si Si2 0.884449 0.266562 0.742198
Si Si3 0.704396 0.622507 0.628206
Si Si4 0.251254 0.651298 0.958741
Si Si5 0.400042 0.678416 0.006433
Si Si6 0.601222 0.504422 0.981170
O O1 0.080236 0.600664 0.356508
O O2 0.068882 0.328688 0.486638
O O3 0.024527 0.520603 0.793962
O O4 0.816037 0.314189 0.609472
O O5 0.923804 0.158695 0.556351
O O6 0.861214 0.170534 0.981414
O O7 0.743355 0.513431 0.453610
O O8 0.744226 0.758931 0.696794
O O9 0.676578 0.542857 0.885619
O O10 0.321924 0.698087 0.071695
O O11 0.402228 0.595300 0.732206
O O12 0.428360 0.581176 0.238306
#
# Coordination Sequence:
#
# PCOD9345551 Si02
#       6
#     4   4   4   4   4   4
#     4  12  30  52  76 107 154 210 263 311 380 469
#     4  11  24  46  73 107 151 192 252 317 382 451
#     4  10  22  38  64 106 146 187 235 303 378 454
#     4  10  22  37  70 110 146 188 236 314 384 455
#     4  11  23  46  74 108 148 192 251 308 380 457
#     4  10  21  43  71 100 143 181 239 315 370 444
#
# _framework density 24.021360999999999
#
# number of rings (size 3 to 8) (size 9 to 14) (size 15 to 20)
#    0.000    1.333    3.333    2.000    9.333    1.333 
#    0.000    3.333    0.000    0.000    0.000    0.000 
#    0.000    0.000    0.000    0.000    0.000    0.000 
#
# Total GULP energy -134028.190434 kJ/mol
# GULP energy per Si atom -5584.507935 kJ/mol
# Density = 2.396669 g / cm^3
# Si number density = 24.021361 Si / 1000 Ang^3
#
#
#
# Elastic Constant Matrix: (Units=GPa)
#
#
# Indices 1 2 3 4 5 6 
#
# 1 45.4817 37.3713 8.5938 0.0000 0.0000 0.0000
# 2 37.3713 221.4486 70.9853 0.0000 0.0000 0.0000
# 3 8.5938 70.9853 121.1993 0.0000 0.0000 0.0000
# 4 0.0000 0.0000 0.0000 56.6334 0.0000 0.0000
# 5 0.0000 0.0000 0.0000 0.0000 26.7599 0.0000
# 6 0.0000 0.0000 0.0000 0.0000 0.0000 45.0367
#
#
#
# Elastic Compliance Matrix: (Units=1/GPa)
#
#
# Indices 1 2 3 4 5 6 
#
# 1 0.025603 -0.004603 0.000880 0.000000 0.000000 0.000000
# 2 -0.004603 0.006387 -0.003414 0.000000 0.000000 0.000000
# 3 0.000880 -0.003414 0.010188 0.000000 0.000000 0.000000
# 4 0.000000 0.000000 0.000000 0.017657 0.000000 0.000000
# 5 0.000000 0.000000 0.000000 0.000000 0.037369 0.000000
# 6 0.000000 0.000000 0.000000 0.000000 0.000000 0.022204
#
#
# Mechanical properties :
#
#
# Convention : Reuss Voigt Hill
#
# Bulk Modulus (GPa) = 35.83693 69.11449 52.47571
# Shear Modulus (GPa) = 34.96900 43.76460 39.36680
#
# Velocity S-wave (km/s) = 3.81956 4.27301 4.05263
# Velocity P-wave (km/s) = 5.86543 7.29242 6.61750
#
# Compressibility (1/GPa) = 0.02790417
#
# Stress axis : x y z
#
# Youngs Moduli (GPa) = 39.05849 156.56817 98.15239
#
# Poissons Ratio (x) = 0.72067 -0.08642
# Poissons Ratio (y) = 0.17978 0.33513
# Poissons Ratio (z) = -0.03439 0.53459
#
# Static dielectric constant tensor:
#      x y z
#    x 1.952540 0.000000 0.000000 
#    y 0.000000 1.894700 0.000000 
#    z 0.000000 0.000000 1.956640 
# 
# From -- ./inp_files/2202.got.cif
#   From: 2010.05.17/outbox.cif.g08.bks.cpg/sg33_2_cif.got.tgz:2202.got - 2010.06.03 17:15:25.
