data_PCOD9345347
_publ_section_title
;
Structure prediction by ZEFSAII (Michael W. Deem and Ramdas Pophale) SiO2 
 PCOD9345347
Probable space group: P N A 21
;
_chemical_formula_sum "Si O2"
_cell_formula_units_Z 28
_cell_length_a 8.523898
_cell_length_b 24.263726
_cell_length_c 5.224486
_cell_angle_alpha 90.000000
_cell_angle_beta 90.000000
_cell_angle_gamma 90.000000
_cell_volume 1080.536165
_symmetry_space_group_name_H-M "P N A 21"
_symmetry_group_IT_number 33
_symmetry_cell_setting 'orthorhombic'
loop_
_space_group_symop_operation_xyz
x,y,z
-x,-y,1/2+z
1/2-x,1/2+y,1/2+z
1/2+x,1/2-y,z
loop_
_atom_site_type_symbol
_atom_site_label
_atom_site_fract_x
_atom_site_fract_y
_atom_site_fract_z
Si Si1 0.121478 0.879388 0.106520
Si Si2 0.335704 0.577752 0.678077
Si Si3 0.837664 0.029896 0.946594
Si Si4 0.498223 0.033516 0.008989
Si Si5 0.946795 0.275514 0.949502
Si Si6 0.747694 0.178566 0.117570
Si Si7 0.655642 0.325808 0.809464
O O1 0.152834 0.942912 0.162867
O O2 0.193808 0.847465 0.350599
O O3 0.936422 0.864922 0.113706
O O4 0.195135 0.854828 0.857596
O O5 0.501145 0.551613 0.570790
O O6 0.320265 0.535801 0.922431
O O7 0.355318 0.641516 0.581171
O O8 0.163480 0.566083 0.550249
O O9 0.676169 0.053993 0.065400
O O10 0.510945 0.015984 0.713976
O O11 0.835268 0.310536 0.764680
O O12 0.059808 0.231514 0.811052
O O13 0.830958 0.238705 0.122389
O O14 0.062243 0.313790 0.108042
#
# Coordination Sequence:
#
# PCOD9345347 Si02
#       7
#     4   4   4   4   4   4   4
#     4  10  23  41  64  97 130 174 219 270 341 412
#     4  10  21  39  65  98 137 178 228 271 340 403
#     4  10  22  40  66  96 140 180 221 277 332 403
#     4  10  22  40  63  95 133 174 220 266 326 393
#     4   9  20  40  66  93 130 169 223 285 336 402
#     4  10  22  40  65  93 128 170 221 273 342 396
#     4   9  20  40  65  98 130 175 226 280 343 409
#
# _framework density 25.913062
#
# number of rings (size 3 to 8) (size 9 to 14) (size 15 to 20)
#    0.000    2.286    0.000    0.857    2.000   10.286 
#    5.143    7.143    0.000    0.000    0.000    0.000 
#    0.000    0.000    0.000    0.000    0.000    0.000 
#
# Total GULP energy -156254.988831 kJ/mol
# GULP energy per Si atom -5580.535315 kJ/mol
# Density = 2.585408 g / cm^3
# Si number density = 25.913062 Si / 1000 Ang^3
#
#
#
# Elastic Constant Matrix: (Units=GPa)
#
#
# Indices 1 2 3 4 5 6 
#
# 1 222.0270 46.6963 22.3267 0.0000 0.0000 0.0000
# 2 46.6963 103.7336 9.7339 0.0000 0.0000 0.0000
# 3 22.3267 9.7339 55.9802 0.0000 0.0000 0.0000
# 4 0.0000 0.0000 0.0000 17.6394 0.0000 0.0000
# 5 0.0000 0.0000 0.0000 0.0000 30.6301 0.0000
# 6 0.0000 0.0000 0.0000 0.0000 0.0000 37.0061
#
#
#
# Elastic Compliance Matrix: (Units=1/GPa)
#
#
# Indices 1 2 3 4 5 6 
#
# 1 0.005124 -0.002150 -0.001670 0.000000 0.000000 0.000000
# 2 -0.002150 0.010702 -0.001003 0.000000 0.000000 0.000000
# 3 -0.001670 -0.001003 0.018704 0.000000 0.000000 0.000000
# 4 0.000000 0.000000 0.000000 0.056691 0.000000 0.000000
# 5 0.000000 0.000000 0.000000 0.000000 0.032648 0.000000
# 6 0.000000 0.000000 0.000000 0.000000 0.000000 0.027023
#
#
# Mechanical properties :
#
#
# Convention : Reuss Voigt Hill
#
# Bulk Modulus (GPa) = 40.18697 59.91719 50.05208
# Shear Modulus (GPa) = 29.61520 37.25407 33.43463
#
# Velocity S-wave (km/s) = 3.38430 3.79576 3.59592
# Velocity P-wave (km/s) = 5.55098 6.51022 6.04964
#
# Compressibility (1/GPa) = 0.02488369
#
# Stress axis : x y z
#
# Youngs Moduli (GPa) = 195.15853 93.44011 53.46477
#
# Poissons Ratio (x) = 0.20089 0.08928
# Poissons Ratio (y) = 0.41958 0.05365
# Poissons Ratio (z) = 0.32588 0.09376
#
# Static dielectric constant tensor:
#      x y z
#    x 2.098340 0.000000 0.000000 
#    y 0.000000 2.106730 0.000000 
#    z 0.000000 0.000000 2.145620 
# 
# From -- ./inp_files/504.got.cif
#   From: 2010.05.17/outbox.cif.g08.bks.cpg/sg33_1_cif.got.tgz:504.got - 2010.06.03 17:15:25.
