data_PCOD9345340
_publ_section_title
;
Structure prediction by ZEFSAII (Michael W. Deem and Ramdas Pophale) SiO2 
 PCOD9345340
Probable space group: P N A 21
;
_chemical_formula_sum "Si O2"
_cell_formula_units_Z 32
_cell_length_a 13.402586
_cell_length_b 14.418961
_cell_length_c 7.620668
_cell_angle_alpha 90.000000
_cell_angle_beta 90.000000
_cell_angle_gamma 90.000000
_cell_volume 1472.704492
_symmetry_space_group_name_H-M "P N A 21"
_symmetry_group_IT_number 33
_symmetry_cell_setting 'orthorhombic'
loop_
_space_group_symop_operation_xyz
x,y,z
-x,-y,1/2+z
1/2-x,1/2+y,1/2+z
1/2+x,1/2-y,z
loop_
_atom_site_type_symbol
_atom_site_label
_atom_site_fract_x
_atom_site_fract_y
_atom_site_fract_z
Si Si1 0.038080 0.128693 0.276630
Si Si2 0.118448 0.434219 0.486510
Si Si3 0.821471 0.059147 0.306947
Si Si4 0.789716 0.009425 0.903934
Si Si5 0.329631 0.121450 0.172162
Si Si6 0.144584 0.145273 0.944921
Si Si7 0.962345 0.676110 0.703957
Si Si8 0.142793 0.336107 0.822710
O O1 0.045652 0.136141 0.063535
O O2 0.073690 0.234046 0.315806
O O3 0.926030 0.110084 0.335851
O O4 0.109810 0.043717 0.337985
O O5 0.226242 0.400860 0.409739
O O6 0.131817 0.540011 0.542855
O O7 0.047196 0.414501 0.324193
O O8 0.084417 0.379659 0.659726
O O9 0.836129 0.955388 0.374940
O O10 0.799256 0.041662 0.102821
O O11 0.745374 0.103680 0.816402
O O12 0.706713 0.932194 0.847574
O O13 0.233458 0.166448 0.082410
O O14 0.419911 0.191452 0.183468
O O15 0.148767 0.225533 0.802582
O O16 0.907521 0.658809 0.517705
#
# Coordination Sequence:
#
# PCOD9345340 Si02
#       8
#     4   4   4   4   4   4   4   4
#     4  10  23  39  65  94 129 170 216 263 326 394
#     4  10  23  39  63  92 126 166 218 265 322 388
#     4  11  21  40  66  93 127 175 209 266 330 383
#     4  10  21  39  65  90 127 171 208 263 328 377
#     4   9  22  40  62  90 126 166 215 266 323 382
#     4   9  21  42  61  92 129 166 213 264 322 394
#     4  11  23  41  65  94 128 169 217 269 321 387
#     4  10  22  42  63  91 128 169 210 268 316 385
#
# _framework density 21.728729999999999
#
# number of rings (size 3 to 8) (size 9 to 14) (size 15 to 20)
#    0.000    2.000    1.250    1.500    7.000    1.000 
#    2.250    0.000    0.000    0.000    0.000    0.000 
#    0.000    0.000    0.000    0.000    0.000    0.000 
#
# Total GULP energy -178169.084250 kJ/mol
# GULP energy per Si atom -5567.783883 kJ/mol
# Density = 2.167927 g / cm^3
# Si number density = 21.728730 Si / 1000 Ang^3
#
#
#
# Elastic Constant Matrix: (Units=GPa)
#
#
# Indices 1 2 3 4 5 6 
#
# 1 79.4421 21.4018 5.1490 0.0000 0.0000 0.0000
# 2 21.4018 69.4648 8.0972 0.0000 0.0000 0.0000
# 3 5.1490 8.0972 67.7557 0.0000 0.0000 0.0000
# 4 0.0000 0.0000 0.0000 22.7849 0.0000 0.0000
# 5 0.0000 0.0000 0.0000 0.0000 21.6211 0.0000
# 6 0.0000 0.0000 0.0000 0.0000 0.0000 23.5752
#
#
#
# Elastic Compliance Matrix: (Units=1/GPa)
#
#
# Indices 1 2 3 4 5 6 
#
# 1 0.013747 -0.004172 -0.000546 0.000000 0.000000 0.000000
# 2 -0.004172 0.015865 -0.001579 0.000000 0.000000 0.000000
# 3 -0.000546 -0.001579 0.014989 0.000000 0.000000 0.000000
# 4 0.000000 0.000000 0.000000 0.043889 0.000000 0.000000
# 5 0.000000 0.000000 0.000000 0.000000 0.046251 0.000000
# 6 0.000000 0.000000 0.000000 0.000000 0.000000 0.042417
#
#
# Mechanical properties :
#
#
# Convention : Reuss Voigt Hill
#
# Bulk Modulus (GPa) = 31.24257 31.77318 31.50788
# Shear Modulus (GPa) = 24.94744 25.73056 25.33900
#
# Velocity S-wave (km/s) = 3.39209 3.44491 3.41860
# Velocity P-wave (km/s) = 5.45448 5.52066 5.48767
#
# Compressibility (1/GPa) = 0.03200761
#
# Stress axis : x y z
#
# Youngs Moduli (GPa) = 72.74292 63.03136 66.71508
#
# Poissons Ratio (x) = 0.26295 0.03644
# Poissons Ratio (y) = 0.30346 0.10534
# Poissons Ratio (z) = 0.03973 0.09952
#
# Static dielectric constant tensor:
#      x y z
#    x 1.829900 0.000000 0.000000 
#    y 0.000000 1.859760 0.000000 
#    z 0.000000 0.000000 1.856110 
# 
# From -- ./inp_files/4520.got.cif
#   From: 2010.05.17/outbox.cif.g08.bks.cpg/sg33_3_cif.got.tgz:4520.got - 2010.06.03 17:15:25.
