data_PCOD9345494
_publ_section_title
;
Structure prediction by ZEFSAII (Michael W. Deem and Ramdas Pophale) SiO2 
 PCOD9345494
Probable space group: P N A 21
;
_chemical_formula_sum "Si O2"
_cell_formula_units_Z 32
_cell_length_a 14.517489
_cell_length_b 9.105353
_cell_length_c 11.346616
_cell_angle_alpha 90.000000
_cell_angle_beta 90.000000
_cell_angle_gamma 90.000000
_cell_volume 1499.873564
_symmetry_space_group_name_H-M "P N A 21"
_symmetry_group_IT_number 33
_symmetry_cell_setting 'orthorhombic'
loop_
_space_group_symop_operation_xyz
x,y,z
-x,-y,1/2+z
1/2-x,1/2+y,1/2+z
1/2+x,1/2-y,z
loop_
_atom_site_type_symbol
_atom_site_label
_atom_site_fract_x
_atom_site_fract_y
_atom_site_fract_z
Si Si1 0.480735 0.579334 0.636720
Si Si2 0.975647 0.596161 0.339316
Si Si3 0.959136 0.727803 0.853611
Si Si4 0.125792 0.811738 0.441968
Si Si5 0.507838 0.760911 0.127477
Si Si6 0.277642 0.711048 0.610280
Si Si7 0.777770 0.898754 0.850487
Si Si8 0.650323 0.987859 0.050632
O O1 0.503164 0.660708 0.759629
O O2 0.560608 0.615346 0.542820
O O3 0.474279 0.406752 0.658566
O O4 0.379154 0.637221 0.596257
O O5 0.012813 0.433759 0.315311
O O6 0.057892 0.705487 0.372840
O O7 0.935575 0.668428 0.220056
O O8 0.911167 0.576907 0.453763
O O9 0.852534 0.770151 0.850467
O O10 0.984107 0.743453 0.989686
O O11 0.206665 0.715273 0.501982
O O12 0.171408 0.943885 0.366852
O O13 0.591846 0.876562 0.127959
O O14 0.232898 0.628305 0.722833
O O15 0.297176 0.886660 0.623230
O O16 0.714225 0.892425 0.964339
#
# Coordination Sequence:
#
# PCOD9345494 Si02
#       8
#     4   4   4   4   4   4   4   4
#     4  11  22  42  65  94 131 172 221 270 328 388
#     4  11  23  40  66  96 130 170 225 267 327 397
#     4  10  23  39  65  93 126 173 218 266 331 385
#     4  11  23  41  68  96 130 177 216 276 327 393
#     4  11  23  39  66  95 126 172 216 273 322 396
#     4  10  22  40  70  93 134 174 214 276 331 386
#     4  10  21  42  63  97 133 166 218 278 323 398
#     4  10  23  41  63  96 132 168 220 266 333 391
#
# _framework density 21.335132999999999
#
# number of rings (size 3 to 8) (size 9 to 14) (size 15 to 20)
#    0.000    1.500    2.500    3.000    5.250    1.000 
#    0.000    3.750   11.000    0.000    0.000    0.000 
#    0.000    0.000    0.000    0.000    0.000    0.000 
#
# Total GULP energy -178493.374108 kJ/mol
# GULP energy per Si atom -5577.917941 kJ/mol
# Density = 2.128657 g / cm^3
# Si number density = 21.335133 Si / 1000 Ang^3
#
#
#
# Elastic Constant Matrix: (Units=GPa)
#
#
# Indices 1 2 3 4 5 6 
#
# 1 28.6674 3.7958 14.6551 0.0000 0.0000 0.0000
# 2 3.7958 90.2220 72.5438 0.0000 0.0000 0.0000
# 3 14.6551 72.5438 123.4282 0.0000 0.0000 0.0000
# 4 0.0000 0.0000 0.0000 49.1055 0.0000 0.0000
# 5 0.0000 0.0000 0.0000 0.0000 6.0157 0.0000
# 6 0.0000 0.0000 0.0000 0.0000 0.0000 21.0765
#
#
#
# Elastic Compliance Matrix: (Units=1/GPa)
#
#
# Indices 1 2 3 4 5 6 
#
# 1 0.037822 0.003829 -0.006741 0.000000 0.000000 0.000000
# 2 0.003829 0.021403 -0.013034 0.000000 0.000000 0.000000
# 3 -0.006741 -0.013034 0.016563 0.000000 0.000000 0.000000
# 4 0.000000 0.000000 0.000000 0.020364 0.000000 0.000000
# 5 0.000000 0.000000 0.000000 0.000000 0.166231 0.000000
# 6 0.000000 0.000000 0.000000 0.000000 0.000000 0.047446
#
#
# Mechanical properties :
#
#
# Convention : Reuss Voigt Hill
#
# Bulk Modulus (GPa) = 22.78136 47.14523 34.96330
# Shear Modulus (GPa) = 14.03103 25.32774 19.67939
#
# Velocity S-wave (km/s) = 2.56725 3.44922 3.04039
# Velocity P-wave (km/s) = 4.41460 6.16509 5.36176
#
# Compressibility (1/GPa) = 0.04389553
#
# Stress axis : x y z
#
# Youngs Moduli (GPa) = 26.43959 46.72309 60.37609
#
# Poissons Ratio (x) = -0.17891 0.40701
# Poissons Ratio (y) = -0.10124 0.78694
# Poissons Ratio (z) = 0.17824 0.60898
#
# Static dielectric constant tensor:
#      x y z
#    x 1.812060 0.000000 0.000000 
#    y 0.000000 1.767300 0.000000 
#    z 0.000000 0.000000 1.900130 
# 
# From -- ./inp_files/6852.got.cif
#   From: 2010.05.17/outbox.cif.g08.bks.cpg/sg33_4_cif.got.tgz:6852.got - 2010.06.03 17:15:25.
