data_PCOD9345660
_publ_section_title
;
Structure prediction by ZEFSAII (Michael W. Deem and Ramdas Pophale) SiO2 
 PCOD9345660
Probable space group: P N A 21
;
_chemical_formula_sum "Si O2"
_cell_formula_units_Z 32
_cell_length_a 8.047831
_cell_length_b 14.811642
_cell_length_c 12.594522
_cell_angle_alpha 90.000000
_cell_angle_beta 90.000000
_cell_angle_gamma 90.000000
_cell_volume 1501.287068
_symmetry_space_group_name_H-M "P N A 21"
_symmetry_group_IT_number 33
_symmetry_cell_setting 'orthorhombic'
loop_
_space_group_symop_operation_xyz
x,y,z
-x,-y,1/2+z
1/2-x,1/2+y,1/2+z
1/2+x,1/2-y,z
loop_
_atom_site_type_symbol
_atom_site_label
_atom_site_fract_x
_atom_site_fract_y
_atom_site_fract_z
Si Si1 0.441805 0.557487 0.992200
Si Si2 0.283475 0.789300 0.522522
Si Si3 0.873561 0.463937 0.334223
Si Si4 0.653618 0.142674 0.707424
Si Si5 0.548712 0.349139 0.706951
Si Si6 0.404884 0.128183 0.109774
Si Si7 0.006959 0.127434 0.931352
Si Si8 0.825616 0.551989 0.989434
O O1 0.295252 0.553800 0.903490
O O2 0.477384 0.452059 0.014732
O O3 0.635212 0.584168 0.963616
O O4 0.383057 0.610035 0.097347
O O5 0.400746 0.860658 0.580843
O O6 0.167627 0.729287 0.598727
O O7 0.177783 0.831686 0.427547
O O8 0.391520 0.711322 0.471028
O O9 0.895636 0.567444 0.293756
O O10 0.865698 0.407930 0.225722
O O11 0.039271 0.437988 0.397694
O O12 0.592666 0.244443 0.722864
O O13 0.851750 0.142543 0.697105
O O14 0.602611 0.106092 0.591032
O O15 0.581908 0.401263 0.817981
O O16 0.331764 0.053766 0.027285
#
# Coordination Sequence:
#
# PCOD9345660 Si02
#       8
#     4   4   4   4   4   4   4   4
#     4  11  24  44  66  97 136 176 219 282 347 411
#     4  10  22  39  66  97 132 172 229 277 338 394
#     4  11  24  47  67  94 138 183 224 279 351 402
#     4  10  24  43  66  99 135 175 232 283 337 411
#     4  11  24  41  66  99 133 174 230 284 342 410
#     4  10  22  44  62  96 133 173 226 287 331 414
#     4  11  21  39  67  97 131 173 217 283 338 399
#     4  10  23  45  66  97 136 174 225 279 342 411
#
# _framework density 21.315042999999999
#
# number of rings (size 3 to 8) (size 9 to 14) (size 15 to 20)
#    0.000    1.500    2.500    1.500    5.250    1.000 
#   11.250    0.000    0.000    0.000    0.000    0.000 
#    0.000    0.000    0.000    0.000    0.000    0.000 
#
# Total GULP energy -178299.601736 kJ/mol
# GULP energy per Si atom -5571.862554 kJ/mol
# Density = 2.126653 g / cm^3
# Si number density = 21.315043 Si / 1000 Ang^3
#
#
#
# Elastic Constant Matrix: (Units=GPa)
#
#
# Indices 1 2 3 4 5 6 
#
# 1 71.2803 -9.2211 32.9803 0.0000 0.0000 0.0000
# 2 -9.2211 53.6172 29.9883 0.0000 0.0000 0.0000
# 3 32.9803 29.9883 106.2308 0.0000 0.0000 0.0000
# 4 0.0000 0.0000 0.0000 -15.6470 0.0000 0.0000
# 5 0.0000 0.0000 0.0000 0.0000 18.4556 0.0000
# 6 0.0000 0.0000 0.0000 0.0000 0.0000 24.7291
#
#
#
# Elastic Compliance Matrix: (Units=1/GPa)
#
#
# Indices 1 2 3 4 5 6 
#
# 1 0.018714 0.007681 -0.007978 0.000000 0.000000 0.000000
# 2 0.007681 0.025300 -0.009527 0.000000 0.000000 0.000000
# 3 -0.007978 -0.009527 0.014580 0.000000 0.000000 0.000000
# 4 0.000000 0.000000 0.000000 -0.063910 0.000000 0.000000
# 5 0.000000 0.000000 0.000000 0.000000 0.054184 0.000000
# 6 0.000000 0.000000 0.000000 0.000000 0.000000 0.040438
#
#
# Mechanical properties :
#
#
# Convention : Reuss Voigt Hill
#
# Bulk Modulus (GPa) = 25.67685 37.62482 31.65084
# Shear Modulus (GPa) = 41.00509 17.33291 29.16900
#
# Velocity S-wave (km/s) = 4.39083 2.85472 3.70330
# Velocity P-wave (km/s) = 6.14641 5.34378 5.75909
#
# Compressibility (1/GPa) = 0.03894558
#
# Stress axis : x y z
#
# Youngs Moduli (GPa) = 53.43560 39.52584 68.58875
#
# Poissons Ratio (x) = -0.30359 0.54721
# Poissons Ratio (y) = -0.41042 0.65341
# Poissons Ratio (z) = 0.42632 0.37654
#
# Static dielectric constant tensor:
#      x y z
#    x 1.874090 0.000000 0.000000 
#    y 0.000000 1.950810 0.000000 
#    z 0.000000 0.000000 1.802370 
# 
# From -- ./inp_files/5952.got.cif
#   From: 2010.05.17/outbox.cif.g08.bks.cpg/sg33_3_cif.got.tgz:5952.got - 2010.06.03 17:15:25.
