data_PCOD9345919
_publ_section_title
;
Structure prediction by ZEFSAII (Michael W. Deem and Ramdas Pophale) SiO2 
 PCOD9345919
Probable space group: P N A 21
;
_chemical_formula_sum "Si O2"
_cell_formula_units_Z 24
_cell_length_a 22.911975
_cell_length_b 6.323316
_cell_length_c 7.447766
_cell_angle_alpha 90.000000
_cell_angle_beta 90.000000
_cell_angle_gamma 90.000000
_cell_volume 1079.029792
_symmetry_space_group_name_H-M "P N A 21"
_symmetry_group_IT_number 33
_symmetry_cell_setting 'orthorhombic'
loop_
_space_group_symop_operation_xyz
x,y,z
-x,-y,1/2+z
1/2-x,1/2+y,1/2+z
1/2+x,1/2-y,z
loop_
_atom_site_type_symbol
_atom_site_label
_atom_site_fract_x
_atom_site_fract_y
_atom_site_fract_z
Si Si1 0.531213 0.744161 0.985230
Si Si2 0.617229 0.090380 0.886083
Si Si3 0.063344 0.964351 0.344469
Si Si4 0.680124 0.406153 0.160096
Si Si5 0.790948 0.213414 0.344497
Si Si6 0.106615 0.001991 0.707298
O O1 0.558838 0.972968 0.953251
O O2 0.472648 0.681084 0.879330
O O3 0.577826 0.584388 0.890709
O O4 0.531640 0.677254 0.194703
O O5 0.665718 0.913596 0.849102
O O6 0.603752 0.244811 0.719328
O O7 0.646937 0.237457 0.035130
O O8 0.129176 0.996248 0.280113
O O9 0.071487 0.887352 0.548654
O O10 0.728935 0.288191 0.275462
O O11 0.708696 0.585807 0.032199
O O12 0.825356 0.058868 0.207434
#
# Coordination Sequence:
#
# PCOD9345919 Si02
#       6
#     4   4   4   4   4   4
#     4  11  23  46  67  97 137 179 226 287 342 408
#     4  10  22  45  64  95 142 175 228 284 333 412
#     4  12  23  44  70  99 137 180 222 289 345 404
#     4  11  25  42  67 101 138 176 234 276 347 407
#     4  10  24  43  65  98 139 179 224 283 335 414
#     4  10  23  44  65  96 137 177 228 277 342 403
#
# _framework density 22.242204999999998
#
# number of rings (size 3 to 8) (size 9 to 14) (size 15 to 20)
#    0.000    1.333    6.667    0.000    4.667    4.000 
#    3.000    0.000    0.000    0.000    0.000    0.000 
#    0.000    0.000    0.000    0.000    0.000    0.000 
#
# Total GULP energy -133928.304873 kJ/mol
# GULP energy per Si atom -5580.346036 kJ/mol
# Density = 2.219158 g / cm^3
# Si number density = 22.242205 Si / 1000 Ang^3
#
#
#
# Elastic Constant Matrix: (Units=GPa)
#
#
# Indices 1 2 3 4 5 6 
#
# 1 91.8875 12.1946 36.3828 0.0000 0.0000 0.0000
# 2 12.1946 85.1767 35.9577 0.0000 0.0000 0.0000
# 3 36.3828 35.9577 104.5439 0.0000 0.0000 0.0000
# 4 0.0000 0.0000 0.0000 11.8775 0.0000 0.0000
# 5 0.0000 0.0000 0.0000 0.0000 35.2709 0.0000
# 6 0.0000 0.0000 0.0000 0.0000 0.0000 33.4935
#
#
#
# Elastic Compliance Matrix: (Units=1/GPa)
#
#
# Indices 1 2 3 4 5 6 
#
# 1 0.012622 0.000055 -0.004412 0.000000 0.000000 0.000000
# 2 0.000055 0.013735 -0.004743 0.000000 0.000000 0.000000
# 3 -0.004412 -0.004743 0.012732 0.000000 0.000000 0.000000
# 4 0.000000 0.000000 0.000000 0.084193 0.000000 0.000000
# 5 0.000000 0.000000 0.000000 0.000000 0.028352 0.000000
# 6 0.000000 0.000000 0.000000 0.000000 0.000000 0.029857
#
#
# Mechanical properties :
#
#
# Convention : Reuss Voigt Hill
#
# Bulk Modulus (GPa) = 47.87026 50.07535 48.97280
# Shear Modulus (GPa) = 24.19508 29.26658 26.73083
#
# Velocity S-wave (km/s) = 3.30176 3.63135 3.47047
# Velocity P-wave (km/s) = 6.00870 6.33599 6.17452
#
# Compressibility (1/GPa) = 0.02088980
#
# Stress axis : x y z
#
# Youngs Moduli (GPa) = 79.22438 72.80781 78.54111
#
# Poissons Ratio (x) = -0.00403 0.34651
# Poissons Ratio (y) = -0.00438 0.37255
# Poissons Ratio (z) = 0.34952 0.34535
#
# Static dielectric constant tensor:
#      x y z
#    x 1.844440 0.000000 0.000000 
#    y 0.000000 1.835380 0.000000 
#    z 0.000000 0.000000 1.868700 
# 
# From -- ./inp_files/5091.got.cif
#   From: 2010.05.17/outbox.cif.g08.bks.cpg/sg33_3_cif.got.tgz:5091.got - 2010.06.03 17:15:25.
