data_PCOD9345195
_publ_section_title
;
Structure prediction by ZEFSAII (Michael W. Deem and Ramdas Pophale) SiO2 
 PCOD9345195
Probable space group: P N A 21
;
_chemical_formula_sum "Si O2"
_cell_formula_units_Z 32
_cell_length_a 9.421541
_cell_length_b 8.626514
_cell_length_c 19.660762
_cell_angle_alpha 90.000000
_cell_angle_beta 90.000000
_cell_angle_gamma 90.000000
_cell_volume 1597.929520
_symmetry_space_group_name_H-M "P N A 21"
_symmetry_group_IT_number 33
_symmetry_cell_setting 'orthorhombic'
loop_
_space_group_symop_operation_xyz
x,y,z
-x,-y,1/2+z
1/2-x,1/2+y,1/2+z
1/2+x,1/2-y,z
loop_
_atom_site_type_symbol
_atom_site_label
_atom_site_fract_x
_atom_site_fract_y
_atom_site_fract_z
Si Si1 0.335238 0.356214 0.002640
Si Si2 0.095734 0.605783 0.611846
Si Si3 0.806703 0.451627 0.606003
Si Si4 0.653944 0.838949 0.318038
Si Si5 0.903121 0.779330 0.412659
Si Si6 0.991952 0.868393 0.717445
Si Si7 0.783284 0.628992 0.747427
Si Si8 0.192216 0.865098 0.184219
O O1 0.330223 0.202174 0.051212
O O2 0.306120 0.504835 0.048968
O O3 0.201576 0.339954 0.951710
O O4 0.488822 0.357482 0.966597
O O5 0.033903 0.739461 0.661530
O O6 0.191939 0.488258 0.656164
O O7 0.962953 0.508231 0.583990
O O8 0.772259 0.561189 0.670857
O O9 0.810013 0.277142 0.632012
O O10 0.783499 0.868923 0.369815
O O11 0.515885 0.784491 0.358086
O O12 0.703176 0.717188 0.258932
O O13 0.620923 0.002479 0.283472
O O14 0.120744 0.874479 0.769749
O O15 0.851126 0.796703 0.750544
O O16 0.952297 0.034858 0.687758
#
# Coordination Sequence:
#
# PCOD9345195 Si02
#       8
#     4   4   4   4   4   4   4   4
#     4  11  20  42  65  91 123 173 228 257 312 396
#     4  11  21  37  62  99 128 161 210 265 331 394
#     4  10  22  35  60  95 128 158 201 277 326 373
#     4  10  23  41  61  99 125 167 223 259 313 388
#     4  10  23  39  66  87 125 185 224 255 302 384
#     4  11  20  37  58  98 124 169 191 255 345 387
#     4  10  21  35  62  91 128 158 208 260 327 381
#     4  11  24  36  66  98 135 157 205 278 346 377
#
# _framework density 20.025914
#
# number of rings (size 3 to 8) (size 9 to 14) (size 15 to 20)
#    0.000    1.500    3.750    1.500    8.750    0.000 
#    0.000    0.000    0.000   15.000    0.000    0.000 
#    0.000    0.000    0.000    0.000    0.000    0.000 
#
# Total GULP energy -178302.968950 kJ/mol
# GULP energy per Si atom -5571.967780 kJ/mol
# Density = 1.998033 g / cm^3
# Si number density = 20.025914 Si / 1000 Ang^3
#
#
#
# Elastic Constant Matrix: (Units=GPa)
#
#
# Indices 1 2 3 4 5 6 
#
# 1 84.8595 17.4245 7.4240 0.0000 0.0000 0.0000
# 2 17.4245 89.9610 20.4486 0.0000 0.0000 0.0000
# 3 7.4240 20.4486 58.2369 0.0000 0.0000 0.0000
# 4 0.0000 0.0000 0.0000 22.4971 0.0000 0.0000
# 5 0.0000 0.0000 0.0000 0.0000 28.1024 0.0000
# 6 0.0000 0.0000 0.0000 0.0000 0.0000 20.1593
#
#
#
# Elastic Compliance Matrix: (Units=1/GPa)
#
#
# Indices 1 2 3 4 5 6 
#
# 1 0.012306 -0.002203 -0.000795 0.000000 0.000000 0.000000
# 2 -0.002203 0.012474 -0.004099 0.000000 0.000000 0.000000
# 3 -0.000795 -0.004099 0.018712 0.000000 0.000000 0.000000
# 4 0.000000 0.000000 0.000000 0.044450 0.000000 0.000000
# 5 0.000000 0.000000 0.000000 0.000000 0.035584 0.000000
# 6 0.000000 0.000000 0.000000 0.000000 0.000000 0.049605
#
#
# Mechanical properties :
#
#
# Convention : Reuss Voigt Hill
#
# Bulk Modulus (GPa) = 34.13238 35.96128 35.04683
# Shear Modulus (GPa) = 25.36883 26.66912 26.01898
#
# Velocity S-wave (km/s) = 3.56308 3.65325 3.60844
# Velocity P-wave (km/s) = 5.83168 5.98258 5.90761
#
# Compressibility (1/GPa) = 0.02929769
#
# Stress axis : x y z
#
# Youngs Moduli (GPa) = 81.26075 80.16440 53.44163
#
# Poissons Ratio (x) = 0.17658 0.04250
# Poissons Ratio (y) = 0.17900 0.21907
# Poissons Ratio (z) = 0.06463 0.32862
#
# Static dielectric constant tensor:
#      x y z
#    x 1.806560 0.000000 0.000000 
#    y 0.000000 1.695160 0.000000 
#    z 0.000000 0.000000 1.760680 
# 
# From -- ./inp_files/8939.got.cif
#   From: 2010.05.17/outbox.cif.g08.bks.cpg/sg33_5_cif.got.tgz:8939.got - 2010.06.03 17:15:25.
