data_PCOD9345197
_publ_section_title
;
Structure prediction by ZEFSAII (Michael W. Deem and Ramdas Pophale) SiO2 
 PCOD9345197
Probable space group: P N A 21
;
_chemical_formula_sum "Si O2"
_cell_formula_units_Z 28
_cell_length_a 11.314850
_cell_length_b 17.355285
_cell_length_c 5.565107
_cell_angle_alpha 90.000000
_cell_angle_beta 90.000000
_cell_angle_gamma 90.000000
_cell_volume 1092.833677
_symmetry_space_group_name_H-M "P N A 21"
_symmetry_group_IT_number 33
_symmetry_cell_setting 'orthorhombic'
loop_
_space_group_symop_operation_xyz
x,y,z
-x,-y,1/2+z
1/2-x,1/2+y,1/2+z
1/2+x,1/2-y,z
loop_
_atom_site_type_symbol
_atom_site_label
_atom_site_fract_x
_atom_site_fract_y
_atom_site_fract_z
Si Si1 0.140692 0.542597 0.130340
Si Si2 0.853950 0.842649 0.052760
Si Si3 0.163546 0.777833 0.060895
Si Si4 0.222876 0.943340 0.029038
Si Si5 0.571894 0.098565 0.866386
Si Si6 0.646795 0.389278 0.060089
Si Si7 0.099264 0.701139 0.560742
O O1 0.250654 0.591231 0.034683
O O2 0.194673 0.480876 0.321179
O O3 0.043255 0.604881 0.201782
O O4 0.066268 0.488921 0.955940
O O5 0.796488 0.758472 0.078318
O O6 0.910559 0.866377 0.305731
O O7 0.909035 0.849446 0.790824
O O8 0.153777 0.866109 0.975262
O O9 0.113610 0.757441 0.328021
O O10 0.114132 0.733786 0.827379
O O11 0.303845 0.906792 0.239594
O O12 0.147274 0.018514 0.094734
O O13 0.531248 0.161392 0.056821
O O14 0.784712 0.357738 0.039075
#
# Coordination Sequence:
#
# PCOD9345197 Si02
#       7
#     4   4   4   4   4   4   4
#     4  11  20  30  51  83 108 141 174 219 267 328
#     4   9  17  32  46  67 102 142 167 201 257 320
#     4  10  22  35  47  70 110 151 172 212 264 321
#     4  11  22  31  50  79 110 139 184 224 255 327
#     4  12  20  31  54  77 110 145 182 219 269 332
#     4   9  16  31  47  70  95 133 168 214 246 314
#     4  10  21  36  51  68 107 153 173 207 272 330
#
# _framework density 25.621465000000001
#
# number of rings (size 3 to 8) (size 9 to 14) (size 15 to 20)
#    0.000    1.714    7.143    0.000    6.000    0.000 
#    0.000    0.000    0.000    0.000    0.000    0.000 
#    0.000   34.286    0.000    0.000    0.000    0.000 
#
# Total GULP energy -156060.927151 kJ/mol
# GULP energy per Si atom -5573.604541 kJ/mol
# Density = 2.556315 g / cm^3
# Si number density = 25.621465 Si / 1000 Ang^3
#
#
#
# Elastic Constant Matrix: (Units=GPa)
#
#
# Indices 1 2 3 4 5 6 
#
# 1 29.7966 20.2024 8.0122 0.0000 0.0000 0.0000
# 2 20.2024 155.2259 33.3347 0.0000 0.0000 0.0000
# 3 8.0122 33.3347 134.1670 0.0000 0.0000 0.0000
# 4 0.0000 0.0000 0.0000 -90.7558 0.0000 0.0000
# 5 0.0000 0.0000 0.0000 0.0000 3.7211 0.0000
# 6 0.0000 0.0000 0.0000 0.0000 0.0000 36.9671
#
#
#
# Elastic Compliance Matrix: (Units=1/GPa)
#
#
# Indices 1 2 3 4 5 6 
#
# 1 0.036954 -0.004580 -0.001069 0.000000 0.000000 0.000000
# 2 -0.004580 0.007373 -0.001558 0.000000 0.000000 0.000000
# 3 -0.001069 -0.001558 0.007904 0.000000 0.000000 0.000000
# 4 0.000000 0.000000 0.000000 -0.011019 0.000000 0.000000
# 5 0.000000 0.000000 0.000000 0.000000 0.268737 0.000000
# 6 0.000000 0.000000 0.000000 0.000000 0.000000 0.027051
#
#
# Mechanical properties :
#
#
# Convention : Reuss Voigt Hill
#
# Bulk Modulus (GPa) = 26.44342 49.14313 37.79328
# Shear Modulus (GPa) = 13.73550 7.16250 10.44900
#
# Velocity S-wave (km/s) = 2.31788 1.67379 2.02165
# Velocity P-wave (km/s) = 4.18409 4.79140 4.49801
#
# Compressibility (1/GPa) = 0.03781659
#
# Stress axis : x y z
#
# Youngs Moduli (GPa) = 27.06101 135.63098 126.51159
#
# Poissons Ratio (x) = 0.62118 0.13523
# Poissons Ratio (y) = 0.12394 0.19715
# Poissons Ratio (z) = 0.02893 0.21136
#
# Static dielectric constant tensor:
#      x y z
#    x 2.058190 0.000000 0.000000 
#    y 0.000000 2.171420 0.000000 
#    z 0.000000 0.000000 2.187090 
# 
# From -- ./inp_files/1870.got.cif
#   From: 2010.05.17/outbox.cif.g08.bks.cpg/sg33_1_cif.got.tgz:1870.got - 2010.06.03 17:15:25.
