data_PCOD9345160
_publ_section_title
;
Structure prediction by ZEFSAII (Michael W. Deem and Ramdas Pophale) SiO2 
 PCOD9345160
Probable space group: P N A 21
;
_chemical_formula_sum "Si O2"
_cell_formula_units_Z 32
_cell_length_a 14.703073
_cell_length_b 7.955435
_cell_length_c 10.155797
_cell_angle_alpha 90.000000
_cell_angle_beta 90.000000
_cell_angle_gamma 90.000000
_cell_volume 1187.916888
_symmetry_space_group_name_H-M "P N A 21"
_symmetry_group_IT_number 33
_symmetry_cell_setting 'orthorhombic'
loop_
_space_group_symop_operation_xyz
x,y,z
-x,-y,1/2+z
1/2-x,1/2+y,1/2+z
1/2+x,1/2-y,z
loop_
_atom_site_type_symbol
_atom_site_label
_atom_site_fract_x
_atom_site_fract_y
_atom_site_fract_z
Si Si1 0.966242 0.413867 0.661180
Si Si2 0.701658 0.315608 0.596750
Si Si3 0.647374 0.555861 0.813258
Si Si4 0.658300 0.012061 0.951240
Si Si5 0.852776 0.689910 0.830805
Si Si6 0.729675 0.473525 0.183792
Si Si7 0.889283 0.308995 0.093087
Si Si8 0.024484 0.187813 0.890639
O O1 0.911771 0.386774 0.525144
O O2 0.910015 0.541807 0.761170
O O3 0.053099 0.523975 0.620684
O O4 0.992044 0.253416 0.747067
O O5 0.660216 0.383762 0.730514
O O6 0.754393 0.480129 0.542612
O O7 0.634494 0.253760 0.480745
O O8 0.770863 0.163973 0.634204
O O9 0.747778 0.623450 0.842295
O O10 0.602548 0.691213 0.718979
O O11 0.571975 0.491375 0.913718
O O12 0.700159 0.981253 0.808299
O O13 0.598385 0.178402 0.946300
O O14 0.850893 0.856405 0.737571
O O15 0.785194 0.365875 0.075436
O O16 0.933061 0.209918 0.974083
#
# Coordination Sequence:
#
# PCOD9345160 Si02
#       8
#     4   4   4   4   4   4   4   4
#     4  11  21  42  65  96 130 176 221 265 340 398
#     4  11  21  41  68  93 124 174 217 269 329 392
#     4  11  23  46  63 100 136 173 223 279 335 390
#     4  10  21  39  64  93 124 170 217 264 326 398
#     4  10  24  40  66  98 129 171 225 274 322 395
#     4  10  20  44  65  92 133 172 216 276 330 389
#     4  10  23  41  65  95 134 173 221 274 333 399
#     4  11  23  43  68  93 136 181 214 279 341 395
#
# _framework density 26.937909999999999
#
# number of rings (size 3 to 8) (size 9 to 14) (size 15 to 20)
#    0.000    1.500    3.750    0.750    0.000    4.000 
#   15.750    0.000    0.000    0.000    0.000    0.000 
#    0.000    0.000    0.000    0.000    0.000    0.000 
#
# Total GULP energy -178893.474434 kJ/mol
# GULP energy per Si atom -5590.421076 kJ/mol
# Density = 2.687660 g / cm^3
# Si number density = 26.937910 Si / 1000 Ang^3
#
#
#
# Elastic Constant Matrix: (Units=GPa)
#
#
# Indices 1 2 3 4 5 6 
#
# 1 36.6898 8.6459 -2.5044 0.0000 0.0000 0.0000
# 2 8.6459 100.4648 14.4500 0.0000 0.0000 0.0000
# 3 -2.5044 14.4500 71.4614 0.0000 0.0000 0.0000
# 4 0.0000 0.0000 0.0000 36.3225 0.0000 0.0000
# 5 0.0000 0.0000 0.0000 0.0000 27.4258 0.0000
# 6 0.0000 0.0000 0.0000 0.0000 0.0000 33.0866
#
#
#
# Elastic Compliance Matrix: (Units=1/GPa)
#
#
# Indices 1 2 3 4 5 6 
#
# 1 0.027977 -0.002625 0.001511 0.000000 0.000000 0.000000
# 2 -0.002625 0.010498 -0.002215 0.000000 0.000000 0.000000
# 3 0.001511 -0.002215 0.014494 0.000000 0.000000 0.000000
# 4 0.000000 0.000000 0.000000 0.027531 0.000000 0.000000
# 5 0.000000 0.000000 0.000000 0.000000 0.036462 0.000000
# 6 0.000000 0.000000 0.000000 0.000000 0.000000 0.030224
#
#
# Mechanical properties :
#
#
# Convention : Reuss Voigt Hill
#
# Bulk Modulus (GPa) = 21.59235 27.75544 24.67390
# Shear Modulus (GPa) = 29.53660 31.90195 30.71928
#
# Velocity S-wave (km/s) = 3.31489 3.44507 3.38061
# Velocity P-wave (km/s) = 4.76281 5.11376 4.94140
#
# Compressibility (1/GPa) = 0.04631270
#
# Stress axis : x y z
#
# Youngs Moduli (GPa) = 35.74327 95.25436 68.99227
#
# Poissons Ratio (x) = 0.25005 -0.10427
# Poissons Ratio (y) = 0.09383 0.15280
# Poissons Ratio (z) = -0.05402 0.21097
#
# Static dielectric constant tensor:
#      x y z
#    x 2.154230 0.000000 0.000000 
#    y 0.000000 2.138070 0.000000 
#    z 0.000000 0.000000 2.209250 
# 
# From -- ./inp_files/7067.got.cif
#   From: 2010.05.17/outbox.cif.g08.bks.cpg/sg33_4_cif.got.tgz:7067.got - 2010.06.03 17:15:25.
