data_PCOD9345727
_publ_section_title
;
Structure prediction by ZEFSAII (Michael W. Deem and Ramdas Pophale) SiO2 
 PCOD9345727
Probable space group: P N A 21
;
_chemical_formula_sum "Si O2"
_cell_formula_units_Z 28
_cell_length_a 13.819948
_cell_length_b 5.362321
_cell_length_c 14.903216
_cell_angle_alpha 90.000000
_cell_angle_beta 90.000000
_cell_angle_gamma 90.000000
_cell_volume 1104.432589
_symmetry_space_group_name_H-M "P N A 21"
_symmetry_group_IT_number 33
_symmetry_cell_setting 'orthorhombic'
loop_
_space_group_symop_operation_xyz
x,y,z
-x,-y,1/2+z
1/2-x,1/2+y,1/2+z
1/2+x,1/2-y,z
loop_
_atom_site_type_symbol
_atom_site_label
_atom_site_fract_x
_atom_site_fract_y
_atom_site_fract_z
Si Si1 0.611348 0.539053 0.354740
Si Si2 0.827460 0.493036 0.116175
Si Si3 0.149660 0.712621 0.125299
Si Si4 0.001401 0.331574 0.224619
Si Si5 0.477416 0.684671 0.030738
Si Si6 0.220756 0.337681 0.970956
Si Si7 0.031609 0.402269 0.893319
O O1 0.565076 0.383414 0.273878
O O2 0.556576 0.474936 0.448157
O O3 0.719888 0.540856 0.388399
O O4 0.569164 0.814503 0.349088
O O5 0.734516 0.615550 0.167633
O O6 0.909995 0.305211 0.155357
O O7 0.781171 0.367828 0.026772
O O8 0.891491 0.736101 0.094858
O O9 0.081120 0.514853 0.177841
O O10 0.070452 0.903258 0.084358
O O11 0.197184 0.550900 0.044735
O O12 0.937366 0.431117 0.309165
O O13 0.506310 0.940711 0.980528
O O14 0.122754 0.238687 0.924091
#
# Coordination Sequence:
#
# PCOD9345727 Si02
#       7
#     4   4   4   4   4   4   4
#     4  11  21  43  67  94 136 177 219 290 331 416
#     4  11  21  42  65  99 131 174 228 282 332 411
#     4  10  22  41  64  95 134 176 225 285 330 417
#     4  10  26  42  63  99 143 173 219 282 360 397
#     4   9  19  39  64  93 126 168 229 274 332 396
#     4  11  23  38  73  99 122 181 237 269 340 407
#     4  10  22  41  62  95 130 175 219 276 341 406
#
# _framework density 25.352385999999999
#
# number of rings (size 3 to 8) (size 9 to 14) (size 15 to 20)
#    0.000    1.714    2.857    0.857    0.000    4.571 
#    0.000    0.000    0.000    0.000    0.000    0.000 
#    0.000    0.000    0.000    0.000    0.000    0.000 
#
# Total GULP energy -155895.030656 kJ/mol
# GULP energy per Si atom -5567.679666 kJ/mol
# Density = 2.529468 g / cm^3
# Si number density = 25.352386 Si / 1000 Ang^3
#
#
#
# Elastic Constant Matrix: (Units=GPa)
#
#
# Indices 1 2 3 4 5 6 
#
# 1 159.4054 16.5578 34.3085 0.0000 0.0000 0.0000
# 2 16.5578 16.3950 15.9636 0.0000 0.0000 0.0000
# 3 34.3085 15.9636 86.9615 0.0000 0.0000 0.0000
# 4 0.0000 0.0000 0.0000 41.5281 0.0000 0.0000
# 5 0.0000 0.0000 0.0000 0.0000 39.3333 0.0000
# 6 0.0000 0.0000 0.0000 0.0000 0.0000 29.9563
#
#
#
# Elastic Compliance Matrix: (Units=1/GPa)
#
#
# Indices 1 2 3 4 5 6 
#
# 1 0.007244 -0.005520 -0.001845 0.000000 0.000000 0.000000
# 2 -0.005520 0.078475 -0.012228 0.000000 0.000000 0.000000
# 3 -0.001845 -0.012228 0.014472 0.000000 0.000000 0.000000
# 4 0.000000 0.000000 0.000000 0.024080 0.000000 0.000000
# 5 0.000000 0.000000 0.000000 0.000000 0.025424 0.000000
# 6 0.000000 0.000000 0.000000 0.000000 0.000000 0.033382
#
#
# Mechanical properties :
#
#
# Convention : Reuss Voigt Hill
#
# Bulk Modulus (GPa) = 16.39186 44.04685 30.21935
# Shear Modulus (GPa) = 20.61042 35.22569 27.91805
#
# Velocity S-wave (km/s) = 2.85433 3.73157 3.32203
# Velocity P-wave (km/s) = 4.16445 5.99814 5.16335
#
# Compressibility (1/GPa) = 0.06100591
#
# Stress axis : x y z
#
# Youngs Moduli (GPa) = 138.05217 12.74293 69.09990
#
# Poissons Ratio (x) = 0.07033 0.12746
# Poissons Ratio (y) = 0.76198 0.84496
# Poissons Ratio (z) = 0.25465 0.15582
#
# Static dielectric constant tensor:
#      x y z
#    x 2.278930 0.000000 0.000000 
#    y 0.000000 2.273610 0.000000 
#    z 0.000000 0.000000 2.257510 
# 
# From -- ./inp_files/8097.got.cif
#   From: 2010.05.17/outbox.cif.g08.bks.cpg/sg33_5_cif.got.tgz:8097.got - 2010.06.03 17:15:25.
