data_PCOD9345758
_publ_section_title
;
Structure prediction by ZEFSAII (Michael W. Deem and Ramdas Pophale) SiO2 
 PCOD9345758
Probable space group: P N A 21
;
_chemical_formula_sum "Si O2"
_cell_formula_units_Z 32
_cell_length_a 13.240351
_cell_length_b 5.145990
_cell_length_c 18.754840
_cell_angle_alpha 90.000000
_cell_angle_beta 90.000000
_cell_angle_gamma 90.000000
_cell_volume 1277.855657
_symmetry_space_group_name_H-M "P N A 21"
_symmetry_group_IT_number 33
_symmetry_cell_setting 'orthorhombic'
loop_
_space_group_symop_operation_xyz
x,y,z
-x,-y,1/2+z
1/2-x,1/2+y,1/2+z
1/2+x,1/2-y,z
loop_
_atom_site_type_symbol
_atom_site_label
_atom_site_fract_x
_atom_site_fract_y
_atom_site_fract_z
Si Si1 0.000624 0.601945 0.634980
Si Si2 0.253327 0.396882 0.278675
Si Si3 0.811289 0.381799 0.039413
Si Si4 0.609720 0.879770 0.900880
Si Si5 0.280008 0.258945 0.893432
Si Si6 0.071562 0.124224 0.333338
Si Si7 0.556009 0.400523 0.713872
Si Si8 0.684065 0.858795 0.057306
O O1 0.076586 0.604410 0.568441
O O2 0.999054 0.897655 0.661979
O O3 0.895365 0.474917 0.612832
O O4 0.049843 0.398076 0.691123
O O5 0.319582 0.264210 0.342003
O O6 0.213174 0.659782 0.313487
O O7 0.152073 0.230265 0.275102
O O8 0.330741 0.477511 0.217645
O O9 0.742688 0.597302 0.078050
O O10 0.763854 0.093394 0.044992
O O11 0.807299 0.439461 0.955203
O O12 0.498526 0.841173 0.870362
O O13 0.663437 0.159793 0.902983
O O14 0.625457 0.793920 0.982787
O O15 0.362875 0.485262 0.894211
O O16 0.995719 0.937436 0.290674
#
# Coordination Sequence:
#
# PCOD9345758 Si02
#       8
#     4   4   4   4   4   4   4   4
#     4  12  28  48  70 101 141 195 242 284 348 420
#     4  10  22  42  68  99 137 181 226 291 360 409
#     4  11  25  47  73 105 144 178 234 298 354 425
#     4   9  21  40  64 102 142 163 227 292 356 416
#     4  10  22  41  70 105 134 180 228 296 372 418
#     4  10  24  40  70 103 134 187 229 287 356 428
#     4  11  28  47  66  99 146 185 241 289 333 420
#     4  11  24  45  73 102 138 183 229 291 355 420
#
# _framework density 25.041951999999998
#
# number of rings (size 3 to 8) (size 9 to 14) (size 15 to 20)
#    0.000    1.500    1.250    1.500    8.750    6.000 
#    0.000    0.000    0.000    0.000    0.000    0.000 
#    0.000    0.000    0.000    0.000    0.000    0.000 
#
# Total GULP energy -178873.356231 kJ/mol
# GULP energy per Si atom -5589.792382 kJ/mol
# Density = 2.498495 g / cm^3
# Si number density = 25.041952 Si / 1000 Ang^3
#
#
#
# Elastic Constant Matrix: (Units=GPa)
#
#
# Indices 1 2 3 4 5 6 
#
# 1 110.3684 11.1234 6.7919 0.0000 0.0000 0.0000
# 2 11.1234 76.1612 -1.7321 0.0000 0.0000 0.0000
# 3 6.7919 -1.7321 32.9467 0.0000 0.0000 0.0000
# 4 0.0000 0.0000 0.0000 30.1381 0.0000 0.0000
# 5 0.0000 0.0000 0.0000 0.0000 32.9959 0.0000
# 6 0.0000 0.0000 0.0000 0.0000 0.0000 30.7777
#
#
#
# Elastic Compliance Matrix: (Units=1/GPa)
#
#
# Indices 1 2 3 4 5 6 
#
# 1 0.009325 -0.001407 -0.001996 0.000000 0.000000 0.000000
# 2 -0.001407 0.013358 0.000992 0.000000 0.000000 0.000000
# 3 -0.001996 0.000992 0.030816 0.000000 0.000000 0.000000
# 4 0.000000 0.000000 0.000000 0.033181 0.000000 0.000000
# 5 0.000000 0.000000 0.000000 0.000000 0.030307 0.000000
# 6 0.000000 0.000000 0.000000 0.000000 0.000000 0.032491
#
#
# Mechanical properties :
#
#
# Convention : Reuss Voigt Hill
#
# Bulk Modulus (GPa) = 20.54377 27.98250 24.26313
# Shear Modulus (GPa) = 29.32108 32.33522 30.82815
#
# Velocity S-wave (km/s) = 3.42552 3.59728 3.51245
# Velocity P-wave (km/s) = 4.88540 5.33408 5.11467
#
# Compressibility (1/GPa) = 0.04867656
#
# Stress axis : x y z
#
# Youngs Moduli (GPa) = 107.23565 74.86062 32.45091
#
# Poissons Ratio (x) = 0.10536 0.06478
# Poissons Ratio (y) = 0.15092 -0.03220
# Poissons Ratio (z) = 0.21408 -0.07429
#
# Static dielectric constant tensor:
#      x y z
#    x 1.976610 0.000000 0.000000 
#    y 0.000000 2.044770 0.000000 
#    z 0.000000 0.000000 2.015040 
# 
# From -- ./inp_files/9122.got.cif
#   From: 2010.05.17/outbox.cif.g08.bks.cpg/sg33_5_cif.got.tgz:9122.got - 2010.06.03 17:15:25.
