data_PCOD9345732
_publ_section_title
;
Structure prediction by ZEFSAII (Michael W. Deem and Ramdas Pophale) SiO2 
 PCOD9345732
Probable space group: P N A 21
;
_chemical_formula_sum "Si O2"
_cell_formula_units_Z 28
_cell_length_a 24.053301
_cell_length_b 5.047863
_cell_length_c 8.762829
_cell_angle_alpha 90.000000
_cell_angle_beta 90.000000
_cell_angle_gamma 90.000000
_cell_volume 1063.963140
_symmetry_space_group_name_H-M "P N A 21"
_symmetry_group_IT_number 33
_symmetry_cell_setting 'orthorhombic'
loop_
_space_group_symop_operation_xyz
x,y,z
-x,-y,1/2+z
1/2-x,1/2+y,1/2+z
1/2+x,1/2-y,z
loop_
_atom_site_type_symbol
_atom_site_label
_atom_site_fract_x
_atom_site_fract_y
_atom_site_fract_z
Si Si1 0.704151 0.837921 0.927230
Si Si2 0.020273 0.674519 0.368337
Si Si3 0.422054 0.967776 0.413015
Si Si4 0.362393 0.041195 0.992236
Si Si5 0.887550 0.951086 0.163135
Si Si6 0.016879 0.963185 0.092581
Si Si7 0.759693 0.335992 0.778557
O O1 0.735336 0.052966 0.823322
O O2 0.639251 0.907125 0.941310
O O3 0.718841 0.556754 0.850216
O O4 0.728451 0.855163 0.099205
O O5 0.076117 0.544225 0.417545
O O6 0.033587 0.931426 0.268078
O O7 0.973480 0.504849 0.280591
O O8 0.972554 0.760989 0.500191
O O9 0.453864 0.217367 0.513707
O O10 0.395236 0.690701 0.324628
O O11 0.317664 0.120851 0.868026
O O12 0.364821 0.256741 0.128258
O O13 0.353063 0.753212 0.060425
O O14 0.950219 0.965815 0.092613
#
# Coordination Sequence:
#
# PCOD9345732 Si02
#       7
#     4   4   4   4   4   4   4
#     4  12  30  52  81 113 151 206 264 325 388 464
#     4  10  23  42  69 109 144 198 238 314 374 463
#     4  11  25  43  72 107 153 192 255 308 388 453
#     4  11  23  48  72 105 147 193 251 304 390 443
#     4  10  24  39  75 108 145 195 236 315 370 456
#     4  10  22  41  64 106 149 186 242 293 379 445
#     4  12  29  53  79 112 153 204 264 327 385 462
#
# _framework density 26.316700999999998
#
# number of rings (size 3 to 8) (size 9 to 14) (size 15 to 20)
#    0.000    1.143    1.429    2.571   14.000    0.000 
#    7.714    0.000    0.000    0.000    0.000    0.000 
#    0.000    0.000    0.000    0.000    0.000    0.000 
#
# Total GULP energy -156140.920470 kJ/mol
# GULP energy per Si atom -5576.461445 kJ/mol
# Density = 2.625680 g / cm^3
# Si number density = 26.316701 Si / 1000 Ang^3
#
#
#
# Elastic Constant Matrix: (Units=GPa)
#
#
# Indices 1 2 3 4 5 6 
#
# 1 188.1940 33.2704 50.2661 0.0000 0.0000 0.0000
# 2 33.2704 168.8859 43.0636 0.0000 0.0000 0.0000
# 3 50.2661 43.0636 109.9280 0.0000 0.0000 0.0000
# 4 0.0000 0.0000 0.0000 46.3909 0.0000 0.0000
# 5 0.0000 0.0000 0.0000 0.0000 25.8433 0.0000
# 6 0.0000 0.0000 0.0000 0.0000 0.0000 47.1057
#
#
#
# Elastic Compliance Matrix: (Units=1/GPa)
#
#
# Indices 1 2 3 4 5 6 
#
# 1 0.006098 -0.000545 -0.002575 0.000000 0.000000 0.000000
# 2 -0.000545 0.006627 -0.002347 0.000000 0.000000 0.000000
# 3 -0.002575 -0.002347 0.011194 0.000000 0.000000 0.000000
# 4 0.000000 0.000000 0.000000 0.021556 0.000000 0.000000
# 5 0.000000 0.000000 0.000000 0.000000 0.038695 0.000000
# 6 0.000000 0.000000 0.000000 0.000000 0.000000 0.021229
#
#
# Mechanical properties :
#
#
# Convention : Reuss Voigt Hill
#
# Bulk Modulus (GPa) = 77.01080 80.02312 78.51696
# Shear Modulus (GPa) = 41.43898 46.56184 44.00041
#
# Velocity S-wave (km/s) = 3.97246 4.21085 4.09339
# Velocity P-wave (km/s) = 7.09699 7.35632 7.22782
#
# Compressibility (1/GPa) = 0.01298519
#
# Stress axis : x y z
#
# Youngs Moduli (GPa) = 163.99618 150.89994 89.33612
#
# Poissons Ratio (x) = 0.08219 0.23003
# Poissons Ratio (y) = 0.08933 0.20967
# Poissons Ratio (z) = 0.42227 0.35416
#
# Static dielectric constant tensor:
#      x y z
#    x 2.064420 0.000000 0.000000 
#    y 0.000000 2.190330 0.000000 
#    z 0.000000 0.000000 2.327170 
# 
# From -- ./inp_files/5173.got.cif
#   From: 2010.05.17/outbox.cif.g08.bks.cpg/sg33_3_cif.got.tgz:5173.got - 2010.06.03 17:15:25.
