data_PCOD9345120
_publ_section_title
;
Structure prediction by ZEFSAII (Michael W. Deem and Ramdas Pophale) SiO2 
 PCOD9345120
Probable space group: P N A 21
;
_chemical_formula_sum "Si O2"
_cell_formula_units_Z 28
_cell_length_a 11.713276
_cell_length_b 8.630285
_cell_length_c 12.413442
_cell_angle_alpha 90.000000
_cell_angle_beta 90.000000
_cell_angle_gamma 90.000000
_cell_volume 1254.861323
_symmetry_space_group_name_H-M "P N A 21"
_symmetry_group_IT_number 33
_symmetry_cell_setting 'orthorhombic'
loop_
_space_group_symop_operation_xyz
x,y,z
-x,-y,1/2+z
1/2-x,1/2+y,1/2+z
1/2+x,1/2-y,z
loop_
_atom_site_type_symbol
_atom_site_label
_atom_site_fract_x
_atom_site_fract_y
_atom_site_fract_z
Si Si1 0.786507 0.922333 0.400300
Si Si2 0.136579 0.043862 0.387869
Si Si3 0.581117 0.263630 0.584905
Si Si4 0.056901 0.944690 0.730576
Si Si5 0.344025 0.905186 0.282651
Si Si6 0.523562 0.005957 0.438679
Si Si7 0.993245 0.814445 0.518387
O O1 0.835032 0.035147 0.307291
O O2 0.806579 0.753041 0.345660
O O3 0.658974 0.971521 0.429094
O O4 0.876848 0.913031 0.499975
O O5 0.152754 0.136768 0.498609
O O6 0.248913 0.023867 0.319784
O O7 0.043443 0.113053 0.307503
O O8 0.075838 0.882494 0.424958
O O9 0.531438 0.387205 0.671845
O O10 0.648539 0.142389 0.658770
O O11 0.502184 0.162663 0.505270
O O12 0.060993 0.836524 0.628126
O O13 0.462939 0.977578 0.324181
O O14 0.469498 0.864841 0.505557
#
# Coordination Sequence:
#
# PCOD9345120 Si02
#       7
#     4   4   4   4   4   4   4
#     4   9  19  38  62  87 122 171 208 263 321 389
#     4  10  20  42  64  89 125 173 224 260 323 408
#     4  10  24  40  63 102 123 173 219 266 334 382
#     4   9  20  40  64  89 122 170 221 261 320 395
#     4  10  22  41  63  89 132 173 209 273 330 381
#     4  11  22  41  60  96 134 158 217 275 322 388
#     4   9  19  38  64  86 122 170 212 262 328 391
#
# _framework density 22.313224000000002
#
# number of rings (size 3 to 8) (size 9 to 14) (size 15 to 20)
#    0.000    2.286    1.429    0.857    2.000    2.286 
#   12.857    0.000    0.000    0.000    0.000    0.000 
#    0.000    0.000    0.000    0.000    0.000    0.000 
#
# Total GULP energy -156009.139783 kJ/mol
# GULP energy per Si atom -5571.754992 kJ/mol
# Density = 2.226244 g / cm^3
# Si number density = 22.313224 Si / 1000 Ang^3
#
#
#
# Elastic Constant Matrix: (Units=GPa)
#
#
# Indices 1 2 3 4 5 6 
#
# 1 91.5487 -8.9212 16.0529 0.0000 0.0000 0.0000
# 2 -8.9212 34.1475 13.1155 0.0000 0.0000 0.0000
# 3 16.0529 13.1155 86.4562 0.0000 0.0000 0.0000
# 4 0.0000 0.0000 0.0000 32.9839 0.0000 0.0000
# 5 0.0000 0.0000 0.0000 0.0000 9.6100 0.0000
# 6 0.0000 0.0000 0.0000 0.0000 0.0000 8.5298
#
#
#
# Elastic Compliance Matrix: (Units=1/GPa)
#
#
# Indices 1 2 3 4 5 6 
#
# 1 0.011826 0.004176 -0.002829 0.000000 0.000000 0.000000
# 2 0.004176 0.032571 -0.005717 0.000000 0.000000 0.000000
# 3 -0.002829 -0.005717 0.012959 0.000000 0.000000 0.000000
# 4 0.000000 0.000000 0.000000 0.030318 0.000000 0.000000
# 5 0.000000 0.000000 0.000000 0.000000 0.104058 0.000000
# 6 0.000000 0.000000 0.000000 0.000000 0.000000 0.117235
#
#
# Mechanical properties :
#
#
# Convention : Reuss Voigt Hill
#
# Bulk Modulus (GPa) = 20.56868 28.07189 24.32028
# Shear Modulus (GPa) = 14.97395 23.01843 18.99619
#
# Velocity S-wave (km/s) = 2.59333 3.21534 2.92094
# Velocity P-wave (km/s) = 4.26677 5.13739 4.72218
#
# Compressibility (1/GPa) = 0.04861761
#
# Stress axis : x y z
#
# Youngs Moduli (GPa) = 84.55755 30.70172 77.16569
#
# Poissons Ratio (x) = -0.12822 0.21834
# Poissons Ratio (y) = -0.35315 0.44113
# Poissons Ratio (z) = 0.23925 0.17551
#
# Static dielectric constant tensor:
#      x y z
#    x 1.834460 0.000000 0.000000 
#    y 0.000000 1.923430 0.000000 
#    z 0.000000 0.000000 1.824560 
# 
# From -- ./inp_files/6345.got.cif
#   From: 2010.05.17/outbox.cif.g08.bks.cpg/sg33_4_cif.got.tgz:6345.got - 2010.06.03 17:15:25.
