data_PCOD9345028
_publ_section_title
;
Structure prediction by ZEFSAII (Michael W. Deem and Ramdas Pophale) SiO2 
 PCOD9345028
Probable space group: P N A 21
;
_chemical_formula_sum "Si O2"
_cell_formula_units_Z 32
_cell_length_a 12.944792
_cell_length_b 11.707342
_cell_length_c 9.459017
_cell_angle_alpha 90.000000
_cell_angle_beta 90.000000
_cell_angle_gamma 90.000000
_cell_volume 1433.505580
_symmetry_space_group_name_H-M "P N A 21"
_symmetry_group_IT_number 33
_symmetry_cell_setting 'orthorhombic'
loop_
_space_group_symop_operation_xyz
x,y,z
-x,-y,1/2+z
1/2-x,1/2+y,1/2+z
1/2+x,1/2-y,z
loop_
_atom_site_type_symbol
_atom_site_label
_atom_site_fract_x
_atom_site_fract_y
_atom_site_fract_z
Si Si1 0.553874 0.332727 0.541980
Si Si2 0.475308 0.061515 0.205165
Si Si3 0.391171 0.299017 0.321156
Si Si4 0.661316 0.564910 0.548243
Si Si5 0.534230 0.718224 0.340702
Si Si6 0.225103 0.346743 0.540238
Si Si7 0.381889 0.041819 0.909641
Si Si8 0.835224 0.635089 0.342437
O O1 0.486299 0.354878 0.404076
O O2 0.637596 0.431546 0.560010
O O3 0.481451 0.323854 0.680054
O O4 0.613173 0.213095 0.523173
O O5 0.431705 0.184367 0.247080
O O6 0.584494 0.034490 0.276377
O O7 0.402208 0.968235 0.279152
O O8 0.465393 0.041949 0.038500
O O9 0.346437 0.378933 0.200739
O O10 0.305650 0.280923 0.442337
O O11 0.573468 0.623152 0.448787
O O12 0.768089 0.596258 0.473525
O O13 0.612074 0.826987 0.359389
O O14 0.418029 0.765680 0.374625
O O15 0.214768 0.477472 0.482844
O O16 0.239994 0.338751 0.708641
#
# Coordination Sequence:
#
# PCOD9345028 Si02
#       8
#     4   4   4   4   4   4   4   4
#     4  11  24  45  65  93 135 180 211 266 331 401
#     4  10  20  39  65  94 122 164 211 278 313 384
#     4  12  24  39  63  99 131 166 222 262 328 391
#     4  12  24  43  62  97 135 175 215 268 330 392
#     4  10  22  44  68  95 130 173 221 270 330 385
#     4  10  22  42  64  96 127 171 220 269 325 390
#     4  10  20  40  67  92 124 159 219 269 324 371
#     4   9  22  42  66  92 128 172 223 264 329 386
#
# _framework density 22.322899
#
# number of rings (size 3 to 8) (size 9 to 14) (size 15 to 20)
#    0.000    1.500    2.500    3.000    0.000    3.000 
#    9.000    1.250    0.000    0.000    0.000    0.000 
#    0.000    0.000    0.000    0.000    0.000    0.000 
#
# Total GULP energy -178779.209563 kJ/mol
# GULP energy per Si atom -5586.850299 kJ/mol
# Density = 2.227209 g / cm^3
# Si number density = 22.322899 Si / 1000 Ang^3
#
#
#
# Elastic Constant Matrix: (Units=GPa)
#
#
# Indices 1 2 3 4 5 6 
#
# 1 36.8929 2.0662 12.7736 0.0000 0.0000 0.0000
# 2 2.0662 80.1603 15.2351 0.0000 0.0000 0.0000
# 3 12.7736 15.2351 105.5767 0.0000 0.0000 0.0000
# 4 0.0000 0.0000 0.0000 30.0435 0.0000 0.0000
# 5 0.0000 0.0000 0.0000 0.0000 39.9070 0.0000
# 6 0.0000 0.0000 0.0000 0.0000 0.0000 24.4994
#
#
#
# Elastic Compliance Matrix: (Units=1/GPa)
#
#
# Indices 1 2 3 4 5 6 
#
# 1 0.028291 -0.000081 -0.003411 0.000000 0.000000 0.000000
# 2 -0.000081 0.012827 -0.001841 0.000000 0.000000 0.000000
# 3 -0.003411 -0.001841 0.010150 0.000000 0.000000 0.000000
# 4 0.000000 0.000000 0.000000 0.033285 0.000000 0.000000
# 5 0.000000 0.000000 0.000000 0.000000 0.025058 0.000000
# 6 0.000000 0.000000 0.000000 0.000000 0.000000 0.040817
#
#
# Mechanical properties :
#
#
# Convention : Reuss Voigt Hill
#
# Bulk Modulus (GPa) = 24.62951 31.41995 28.02473
# Shear Modulus (GPa) = 28.63204 31.72697 30.17950
#
# Velocity S-wave (km/s) = 3.58527 3.77407 3.68088
# Velocity P-wave (km/s) = 5.31000 5.75302 5.53594
#
# Compressibility (1/GPa) = 0.04060170
#
# Stress axis : x y z
#
# Youngs Moduli (GPa) = 35.34678 77.96043 98.52019
#
# Poissons Ratio (x) = 0.00631 0.33608
# Poissons Ratio (y) = 0.00286 0.18140
# Poissons Ratio (z) = 0.12058 0.14354
#
# Static dielectric constant tensor:
#      x y z
#    x 1.862940 0.000000 0.000000 
#    y 0.000000 1.809400 0.000000 
#    z 0.000000 0.000000 1.812410 
# 
# From -- ./inp_files/4410.got.cif
#   From: 2010.05.17/outbox.cif.g08.bks.cpg/sg33_3_cif.got.tgz:4410.got - 2010.06.03 17:15:25.
