data_PCOD9345898
_publ_section_title
;
Structure prediction by ZEFSAII (Michael W. Deem and Ramdas Pophale) SiO2 
 PCOD9345898
Probable space group: P N A 21
;
_chemical_formula_sum "Si O2"
_cell_formula_units_Z 20
_cell_length_a 14.385219
_cell_length_b 6.659575
_cell_length_c 9.321335
_cell_angle_alpha 90.000000
_cell_angle_beta 90.000000
_cell_angle_gamma 90.000000
_cell_volume 892.978718
_symmetry_space_group_name_H-M "P N A 21"
_symmetry_group_IT_number 33
_symmetry_cell_setting 'orthorhombic'
loop_
_space_group_symop_operation_xyz
x,y,z
-x,-y,1/2+z
1/2-x,1/2+y,1/2+z
1/2+x,1/2-y,z
loop_
_atom_site_type_symbol
_atom_site_label
_atom_site_fract_x
_atom_site_fract_y
_atom_site_fract_z
Si Si1 0.247737 0.841209 0.757500
Si Si2 0.015934 0.161379 0.900732
Si Si3 0.186759 0.658118 0.471319
Si Si4 0.108961 0.511464 0.739878
Si Si5 0.551865 0.308743 0.214224
O O1 0.228070 0.826883 0.583175
O O2 0.170672 0.684592 0.815437
O O3 0.348117 0.739916 0.774882
O O4 0.256345 0.051711 0.842908
O O5 0.085396 0.319717 0.830634
O O6 0.003863 0.966434 0.806736
O O7 0.911804 0.255600 0.915921
O O8 0.056024 0.106057 0.054871
O O9 0.161720 0.483663 0.588527
O O10 0.009203 0.608409 0.704018
#
# Coordination Sequence:
#
# PCOD9345898 Si02
#       5
#     4   4   4   4   4
#     4  10  22  44  69 105 140 185 245 293 367 435
#     4  11  24  44  70 101 142 189 231 303 353 438
#     4   9  22  44  69 103 138 189 241 296 361 430
#     4   9  23  45  67  97 144 181 233 296 349 433
#     4  11  25  41  71 100 140 184 240 282 364 430
#
# _framework density 22.396948999999999
#
# number of rings (size 3 to 8) (size 9 to 14) (size 15 to 20)
#    1.200    0.800    2.000    0.000    5.600    1.600 
#    0.000    2.000    0.000    0.000    0.000    0.000 
#    0.000    0.000    0.000    0.000    0.000    0.000 
#
# Total GULP energy -111476.594230 kJ/mol
# GULP energy per Si atom -5573.829712 kJ/mol
# Density = 2.234597 g / cm^3
# Si number density = 22.396949 Si / 1000 Ang^3
#
#
#
# Elastic Constant Matrix: (Units=GPa)
#
#
# Indices 1 2 3 4 5 6 
#
# 1 89.5282 31.5649 14.8962 0.0000 0.0000 0.0000
# 2 31.5649 50.6110 49.9610 0.0000 0.0000 0.0000
# 3 14.8962 49.9610 113.2142 0.0000 0.0000 0.0000
# 4 0.0000 0.0000 0.0000 40.7640 0.0000 0.0000
# 5 0.0000 0.0000 0.0000 0.0000 29.4512 0.0000
# 6 0.0000 0.0000 0.0000 0.0000 0.0000 28.1428
#
#
#
# Elastic Compliance Matrix: (Units=1/GPa)
#
#
# Indices 1 2 3 4 5 6 
#
# 1 0.015220 -0.013317 0.003874 0.000000 0.000000 0.000000
# 2 -0.013317 0.046661 -0.018839 0.000000 0.000000 0.000000
# 3 0.003874 -0.018839 0.016637 0.000000 0.000000 0.000000
# 4 0.000000 0.000000 0.000000 0.024531 0.000000 0.000000
# 5 0.000000 0.000000 0.000000 0.000000 0.033954 0.000000
# 6 0.000000 0.000000 0.000000 0.000000 0.000000 0.035533
#
#
# Mechanical properties :
#
#
# Convention : Reuss Voigt Hill
#
# Bulk Modulus (GPa) = 45.54934 49.57751 47.56342
# Shear Modulus (GPa) = 21.14888 30.13370 25.64129
#
# Velocity S-wave (km/s) = 3.07624 3.67200 3.38724
# Velocity P-wave (km/s) = 5.74449 6.33735 6.04819
#
# Compressibility (1/GPa) = 0.02195422
#
# Stress axis : x y z
#
# Youngs Moduli (GPa) = 65.70237 21.43106 60.10774
#
# Poissons Ratio (x) = 0.28539 -0.23286
# Poissons Ratio (y) = 0.87494 1.13239
# Poissons Ratio (z) = -0.25453 0.40375
#
# Static dielectric constant tensor:
#      x y z
#    x 1.891910 0.000000 0.000000 
#    y 0.000000 1.879470 0.000000 
#    z 0.000000 0.000000 1.867840 
# 
# From -- ./inp_files/4591.got.cif
#   From: 2010.05.17/outbox.cif.g08.bks.cpg/sg33_3_cif.got.tgz:4591.got - 2010.06.03 17:15:25.
