data_PCOD9345855
_publ_section_title
;
Structure prediction by ZEFSAII (Michael W. Deem and Ramdas Pophale) SiO2 
 PCOD9345855
Probable space group: P N A 21
;
_chemical_formula_sum "Si O2"
_cell_formula_units_Z 32
_cell_length_a 10.517479
_cell_length_b 16.110293
_cell_length_c 8.476004
_cell_angle_alpha 90.000000
_cell_angle_beta 90.000000
_cell_angle_gamma 90.000000
_cell_volume 1436.171306
_symmetry_space_group_name_H-M "P N A 21"
_symmetry_group_IT_number 33
_symmetry_cell_setting 'orthorhombic'
loop_
_space_group_symop_operation_xyz
x,y,z
-x,-y,1/2+z
1/2-x,1/2+y,1/2+z
1/2+x,1/2-y,z
loop_
_atom_site_type_symbol
_atom_site_label
_atom_site_fract_x
_atom_site_fract_y
_atom_site_fract_z
Si Si1 0.459100 0.653386 0.170460
Si Si2 0.020545 0.853175 0.804973
Si Si3 0.147364 0.439012 0.750897
Si Si4 0.180918 0.008234 0.789606
Si Si5 0.867819 0.314173 0.340667
Si Si6 0.909379 0.478941 0.544802
Si Si7 0.232258 0.769885 0.148228
Si Si8 0.202945 0.078552 0.128939
O O1 0.443341 0.563443 0.248097
O O2 0.328790 0.701189 0.218393
O O3 0.587439 0.707298 0.204681
O O4 0.462280 0.637785 0.981157
O O5 0.034000 0.754838 0.784505
O O6 0.936746 0.889390 0.664325
O O7 0.144989 0.911622 0.805745
O O8 0.189838 0.353692 0.675112
O O9 0.265731 0.501448 0.743367
O O10 0.034416 0.478475 0.649464
O O11 0.100399 0.441964 0.930201
O O12 0.286756 0.022401 0.656888
O O13 0.226689 0.044129 0.956217
O O14 0.914115 0.394769 0.438571
O O15 0.787124 0.261278 0.469077
O O16 0.791926 0.348075 0.191781
#
# Coordination Sequence:
#
# PCOD9345855 Si02
#       8
#     4   4   4   4   4   4   4   4
#     4  11  23  42  69  99 138 188 236 297 359 433
#     4  11  22  43  71  97 131 188 237 294 356 436
#     4  11  23  41  70 100 137 187 238 291 363 432
#     4  12  24  43  66 105 145 180 240 297 363 426
#     4  10  22  43  69  98 137 187 238 288 366 429
#     4  11  24  45  69 103 143 188 242 298 360 440
#     4  11  21  41  72  99 132 185 242 289 361 433
#     4  11  23  42  64 101 139 177 235 298 350 429
#
# _framework density 22.281462999999999
#
# number of rings (size 3 to 8) (size 9 to 14) (size 15 to 20)
#    0.000    1.000    2.500    6.000    0.000    1.000 
#    6.750    0.000    0.000    0.000    0.000    0.000 
#    0.000    0.000    0.000    0.000    0.000    0.000 
#
# Total GULP energy -178623.729793 kJ/mol
# GULP energy per Si atom -5581.991556 kJ/mol
# Density = 2.223075 g / cm^3
# Si number density = 22.281463 Si / 1000 Ang^3
#
#
#
# Elastic Constant Matrix: (Units=GPa)
#
#
# Indices 1 2 3 4 5 6 
#
# 1 86.5178 5.8736 15.1287 0.0000 0.0000 0.0000
# 2 5.8736 70.8110 -2.0647 0.0000 0.0000 0.0000
# 3 15.1287 -2.0647 51.0451 0.0000 0.0000 0.0000
# 4 0.0000 0.0000 0.0000 28.9188 0.0000 0.0000
# 5 0.0000 0.0000 0.0000 0.0000 10.8095 0.0000
# 6 0.0000 0.0000 0.0000 0.0000 0.0000 33.8232
#
#
#
# Elastic Compliance Matrix: (Units=1/GPa)
#
#
# Indices 1 2 3 4 5 6 
#
# 1 0.012279 -0.001126 -0.003685 0.000000 0.000000 0.000000
# 2 -0.001126 0.014242 0.000910 0.000000 0.000000 0.000000
# 3 -0.003685 0.000910 0.020719 0.000000 0.000000 0.000000
# 4 0.000000 0.000000 0.000000 0.034580 0.000000 0.000000
# 5 0.000000 0.000000 0.000000 0.000000 0.092511 0.000000
# 6 0.000000 0.000000 0.000000 0.000000 0.000000 0.029565
#
#
# Mechanical properties :
#
#
# Convention : Reuss Voigt Hill
#
# Bulk Modulus (GPa) = 25.35592 27.36103 26.35847
# Shear Modulus (GPa) = 22.23755 27.33940 24.78848
#
# Velocity S-wave (km/s) = 3.16259 3.50666 3.33906
# Velocity P-wave (km/s) = 4.97398 5.35742 5.16926
#
# Compressibility (1/GPa) = 0.03943853
#
# Stress axis : x y z
#
# Youngs Moduli (GPa) = 81.43928 70.21479 48.26392
#
# Poissons Ratio (x) = 0.07906 0.17784
# Poissons Ratio (y) = 0.09170 -0.04391
# Poissons Ratio (z) = 0.30009 -0.06388
#
# Static dielectric constant tensor:
#      x y z
#    x 1.890950 0.000000 0.000000 
#    y 0.000000 1.859390 0.000000 
#    z 0.000000 0.000000 1.829840 
# 
# From -- ./inp_files/4003.got.cif
#   From: 2010.05.17/outbox.cif.g08.bks.cpg/sg33_3_cif.got.tgz:4003.got - 2010.06.03 17:15:25.
