data_PCOD9345921
_publ_section_title
;
Structure prediction by ZEFSAII (Michael W. Deem and Ramdas Pophale) SiO2 
 PCOD9345921
Probable space group: P N A 21
;
_chemical_formula_sum "Si O2"
_cell_formula_units_Z 28
_cell_length_a 18.972628
_cell_length_b 13.060636
_cell_length_c 5.058595
_cell_angle_alpha 90.000000
_cell_angle_beta 90.000000
_cell_angle_gamma 90.000000
_cell_volume 1253.492465
_symmetry_space_group_name_H-M "P N A 21"
_symmetry_group_IT_number 33
_symmetry_cell_setting 'orthorhombic'
loop_
_space_group_symop_operation_xyz
x,y,z
-x,-y,1/2+z
1/2-x,1/2+y,1/2+z
1/2+x,1/2-y,z
loop_
_atom_site_type_symbol
_atom_site_label
_atom_site_fract_x
_atom_site_fract_y
_atom_site_fract_z
Si Si1 0.968758 0.954814 0.638490
Si Si2 0.172816 0.647035 0.791460
Si Si3 0.145923 0.205454 0.691466
Si Si4 0.974654 0.449159 0.370640
Si Si5 0.699979 0.720954 0.300734
Si Si6 0.182630 0.021454 0.356575
Si Si7 0.440878 0.754877 0.698866
O O1 0.884435 0.962058 0.665502
O O2 0.988287 0.844321 0.757352
O O3 0.997740 0.967097 0.346246
O O4 0.108287 0.572347 0.859099
O O5 0.163642 0.706367 0.516859
O O6 0.244856 0.579471 0.779141
O O7 0.177070 0.735597 0.014867
O O8 0.217007 0.254133 0.801899
O O9 0.159843 0.086020 0.618042
O O10 0.122777 0.253233 0.410160
O O11 0.087458 0.233597 0.906017
O O12 0.002514 0.461770 0.668152
O O13 0.014515 0.354266 0.239404
O O14 0.690750 0.601024 0.366315
#
# Coordination Sequence:
#
# PCOD9345921 Si02
#       7
#     4   4   4   4   4   4   4
#     4  11  24  40  66 101 133 175 221 275 355 416
#     4  11  27  48  67 110 139 181 248 289 343 432
#     4  10  22  45  66 107 131 190 231 285 348 438
#     4  12  28  48  73 104 140 193 241 299 363 420
#     4  11  24  42  75  97 146 179 233 298 352 396
#     4  10  25  44  72 100 141 184 231 285 353 418
#     4  11  24  43  71  93 146 172 237 287 348 424
#
# _framework density 22.337589000000001
#
# number of rings (size 3 to 8) (size 9 to 14) (size 15 to 20)
#    0.000    1.143    0.000    6.000    8.000    5.714 
#    0.000    0.000    0.000    0.000    0.000    0.000 
#    0.000    0.000    0.000    0.000    0.000    0.000 
#
# Total GULP energy -156445.593983 kJ/mol
# GULP energy per Si atom -5587.342642 kJ/mol
# Density = 2.228675 g / cm^3
# Si number density = 22.337589 Si / 1000 Ang^3
#
#
#
# Elastic Constant Matrix: (Units=GPa)
#
#
# Indices 1 2 3 4 5 6 
#
# 1 96.9580 31.9513 19.3240 0.0000 0.0000 0.0000
# 2 31.9513 74.7883 9.4763 0.0000 0.0000 0.0000
# 3 19.3240 9.4763 90.5263 0.0000 0.0000 0.0000
# 4 0.0000 0.0000 0.0000 29.8705 0.0000 0.0000
# 5 0.0000 0.0000 0.0000 0.0000 21.0813 0.0000
# 6 0.0000 0.0000 0.0000 0.0000 0.0000 25.5201
#
#
#
# Elastic Compliance Matrix: (Units=1/GPa)
#
#
# Indices 1 2 3 4 5 6 
#
# 1 0.012392 -0.005026 -0.002119 0.000000 0.000000 0.000000
# 2 -0.005026 0.015589 -0.000559 0.000000 0.000000 0.000000
# 3 -0.002119 -0.000559 0.011557 0.000000 0.000000 0.000000
# 4 0.000000 0.000000 0.000000 0.033478 0.000000 0.000000
# 5 0.000000 0.000000 0.000000 0.000000 0.047436 0.000000
# 6 0.000000 0.000000 0.000000 0.000000 0.000000 0.039185
#
#
# Mechanical properties :
#
#
# Convention : Reuss Voigt Hill
#
# Bulk Modulus (GPa) = 41.44094 42.64175 42.04135
# Shear Modulus (GPa) = 27.30921 28.72911 28.01916
#
# Velocity S-wave (km/s) = 3.50032 3.59016 3.54552
# Velocity P-wave (km/s) = 5.91005 6.02634 5.96848
#
# Compressibility (1/GPa) = 0.02413072
#
# Stress axis : x y z
#
# Youngs Moduli (GPa) = 80.69546 64.14765 86.52467
#
# Poissons Ratio (x) = 0.32239 0.18336
# Poissons Ratio (y) = 0.40556 0.04837
# Poissons Ratio (z) = 0.17101 0.03586
#
# Static dielectric constant tensor:
#      x y z
#    x 1.831610 0.000000 0.000000 
#    y 0.000000 1.841130 0.000000 
#    z 0.000000 0.000000 1.827180 
# 
# From -- ./inp_files/1749.got.cif
#   From: 2010.05.17/outbox.cif.g08.bks.cpg/sg33_1_cif.got.tgz:1749.got - 2010.06.03 17:15:25.
