data_PCOD9345924
_publ_section_title
;
Structure prediction by ZEFSAII (Michael W. Deem and Ramdas Pophale) SiO2 
 PCOD9345924
Probable space group: P N A 21
;
_chemical_formula_sum "Si O2"
_cell_formula_units_Z 28
_cell_length_a 13.070722
_cell_length_b 12.546634
_cell_length_c 7.636566
_cell_angle_alpha 90.000000
_cell_angle_beta 90.000000
_cell_angle_gamma 90.000000
_cell_volume 1252.347683
_symmetry_space_group_name_H-M "P N A 21"
_symmetry_group_IT_number 33
_symmetry_cell_setting 'orthorhombic'
loop_
_space_group_symop_operation_xyz
x,y,z
-x,-y,1/2+z
1/2-x,1/2+y,1/2+z
1/2+x,1/2-y,z
loop_
_atom_site_type_symbol
_atom_site_label
_atom_site_fract_x
_atom_site_fract_y
_atom_site_fract_z
Si Si1 0.166732 0.468334 0.545110
Si Si2 0.293050 0.768714 0.862666
Si Si3 0.217240 0.161459 0.895564
Si Si4 0.973140 0.446540 0.322520
Si Si5 0.712785 0.926374 0.024071
Si Si6 0.030060 0.228770 0.133550
Si Si7 0.180316 0.860323 0.535797
O O1 0.206846 0.348651 0.524081
O O2 0.248465 0.562147 0.519313
O O3 0.101091 0.475618 0.719011
O O4 0.085864 0.478201 0.383844
O O5 0.400543 0.716371 0.807810
O O6 0.253404 0.839364 0.702549
O O7 0.220072 0.671142 0.890099
O O8 0.109645 0.208664 0.971560
O O9 0.297043 0.258664 0.914772
O O10 0.232130 0.114186 0.701469
O O11 0.909624 0.440071 0.508066
O O12 0.985301 0.346227 0.185651
O O13 0.779477 0.027934 0.964757
O O14 0.935800 0.149884 0.101193
#
# Coordination Sequence:
#
# PCOD9345924 Si02
#       7
#     4   4   4   4   4   4   4
#     4  11  22  41  70 100 135 180 233 301 356 426
#     4  10  23  43  66  97 137 181 236 300 355 435
#     4  11  24  42  69 103 138 178 241 296 364 431
#     4  11  23  41  72 102 139 188 245 295 362 436
#     4  12  25  43  67 106 138 185 243 296 360 445
#     4  10  22  45  67  92 138 192 223 296 372 432
#     4  11  23  45  69  94 143 186 229 302 365 429
#
# _framework density 22.358008000000002
#
# number of rings (size 3 to 8) (size 9 to 14) (size 15 to 20)
#    0.000    1.143    4.286    1.714    6.000    1.143 
#    5.143    0.000    0.000    0.000    0.000    0.000 
#    0.000    0.000    0.000    0.000    0.000    0.000 
#
# Total GULP energy -155987.420001 kJ/mol
# GULP energy per Si atom -5570.979286 kJ/mol
# Density = 2.230712 g / cm^3
# Si number density = 22.358008 Si / 1000 Ang^3
#
#
#
# Elastic Constant Matrix: (Units=GPa)
#
#
# Indices 1 2 3 4 5 6 
#
# 1 98.5209 21.8179 21.5665 0.0000 0.0000 0.0000
# 2 21.8179 86.6116 21.8796 0.0000 0.0000 0.0000
# 3 21.5665 21.8796 55.3551 0.0000 0.0000 0.0000
# 4 0.0000 0.0000 0.0000 22.0803 0.0000 0.0000
# 5 0.0000 0.0000 0.0000 0.0000 29.9551 0.0000
# 6 0.0000 0.0000 0.0000 0.0000 0.0000 27.9355
#
#
#
# Elastic Compliance Matrix: (Units=1/GPa)
#
#
# Indices 1 2 3 4 5 6 
#
# 1 0.011383 -0.001941 -0.003668 0.000000 0.000000 0.000000
# 2 -0.001941 0.013157 -0.004444 0.000000 0.000000 0.000000
# 3 -0.003668 -0.004444 0.021251 0.000000 0.000000 0.000000
# 4 0.000000 0.000000 0.000000 0.045289 0.000000 0.000000
# 5 0.000000 0.000000 0.000000 0.000000 0.033383 0.000000
# 6 0.000000 0.000000 0.000000 0.000000 0.000000 0.035797
#
#
# Mechanical properties :
#
#
# Convention : Reuss Voigt Hill
#
# Bulk Modulus (GPa) = 38.93292 41.22394 40.07843
# Shear Modulus (GPa) = 26.46514 27.67577 27.07045
#
# Velocity S-wave (km/s) = 3.44422 3.52212 3.48339
# Velocity P-wave (km/s) = 5.76785 5.91765 5.84323
#
# Compressibility (1/GPa) = 0.02568521
#
# Stress axis : x y z
#
# Youngs Moduli (GPa) = 87.85188 76.00251 47.05707
#
# Poissons Ratio (x) = 0.14751 0.17259
# Poissons Ratio (y) = 0.17051 0.20914
# Poissons Ratio (z) = 0.32221 0.33779
#
# Static dielectric constant tensor:
#      x y z
#    x 1.839610 0.000000 0.000000 
#    y 0.000000 1.849480 0.000000 
#    z 0.000000 0.000000 1.927700 
# 
# From -- ./inp_files/4339.got.cif
#   From: 2010.05.17/outbox.cif.g08.bks.cpg/sg33_3_cif.got.tgz:4339.got - 2010.06.03 17:15:25.
