data_PCOD9345799
_publ_section_title
;
Structure prediction by ZEFSAII (Michael W. Deem and Ramdas Pophale) SiO2 
 PCOD9345799
Probable space group: P N A 21
;
_chemical_formula_sum "Si O2"
_cell_formula_units_Z 32
_cell_length_a 6.884707
_cell_length_b 19.498767
_cell_length_c 9.520278
_cell_angle_alpha 90.000000
_cell_angle_beta 90.000000
_cell_angle_gamma 90.000000
_cell_volume 1278.033513
_symmetry_space_group_name_H-M "P N A 21"
_symmetry_group_IT_number 33
_symmetry_cell_setting 'orthorhombic'
loop_
_space_group_symop_operation_xyz
x,y,z
-x,-y,1/2+z
1/2-x,1/2+y,1/2+z
1/2+x,1/2-y,z
loop_
_atom_site_type_symbol
_atom_site_label
_atom_site_fract_x
_atom_site_fract_y
_atom_site_fract_z
Si Si1 0.834077 0.997113 0.079360
Si Si2 0.604738 0.095724 0.967889
Si Si3 0.698898 0.145451 0.258427
Si Si4 0.202010 0.680164 0.452244
Si Si5 0.387269 0.319682 0.790880
Si Si6 0.495239 0.353158 0.487608
Si Si7 0.724955 0.799904 0.756453
Si Si8 0.150405 0.062107 0.883848
O O1 0.847394 0.983263 0.248567
O O2 0.647714 0.012346 0.977466
O O3 0.025881 0.033169 0.008064
O O4 0.880836 0.916450 0.040858
O O5 0.525699 0.176567 0.006434
O O6 0.740927 0.120046 0.834729
O O7 0.724928 0.094364 0.126338
O O8 0.812546 0.121064 0.396896
O O9 0.472782 0.159356 0.288811
O O10 0.797967 0.219165 0.232383
O O11 0.176307 0.747690 0.355076
O O12 0.304198 0.675501 0.605105
O O13 0.135461 0.590956 0.421183
O O14 0.421042 0.313903 0.626283
O O15 0.590890 0.353554 0.857623
O O16 0.633849 0.309504 0.387517
#
# Coordination Sequence:
#
# PCOD9345799 Si02
#       8
#     4   4   4   4   4   4   4   4
#     4  10  23  45  64  95 130 183 227 267 344 409
#     4  10  22  42  68  96 130 180 235 277 336 428
#     4  11  22  41  70  99 135 175 229 282 346 414
#     4  11  23  41  69 102 130 176 232 294 347 413
#     4  10  22  42  69  98 135 177 222 287 357 412
#     4  11  25  44  68 101 143 182 218 294 351 408
#     4  11  24  40  69 106 130 178 231 277 349 420
#     4  10  23  41  71  93 131 181 224 276 340 412
#
# _framework density 25.038464999999999
#
# number of rings (size 3 to 8) (size 9 to 14) (size 15 to 20)
#    0.000    1.500    2.500    1.500    7.000    3.000 
#   11.250    0.000    0.000    0.000    0.000    0.000 
#    0.000    0.000    0.000    0.000    0.000    0.000 
#
# Total GULP energy -178151.774501 kJ/mol
# GULP energy per Si atom -5567.242953 kJ/mol
# Density = 2.498148 g / cm^3
# Si number density = 25.038465 Si / 1000 Ang^3
#
#
#
# Elastic Constant Matrix: (Units=GPa)
#
#
# Indices 1 2 3 4 5 6 
#
# 1 149.3086 29.1036 76.8863 0.0000 0.0000 0.0000
# 2 29.1036 91.6053 47.7747 0.0000 0.0000 0.0000
# 3 76.8863 47.7747 186.4147 0.0000 0.0000 0.0000
# 4 0.0000 0.0000 0.0000 33.9663 0.0000 0.0000
# 5 0.0000 0.0000 0.0000 0.0000 13.2842 0.0000
# 6 0.0000 0.0000 0.0000 0.0000 0.0000 29.2921
#
#
#
# Elastic Compliance Matrix: (Units=1/GPa)
#
#
# Indices 1 2 3 4 5 6 
#
# 1 0.008585 -0.001017 -0.003280 0.000000 0.000000 0.000000
# 2 -0.001017 0.012721 -0.002841 0.000000 0.000000 0.000000
# 3 -0.003280 -0.002841 0.007445 0.000000 0.000000 0.000000
# 4 0.000000 0.000000 0.000000 0.029441 0.000000 0.000000
# 5 0.000000 0.000000 0.000000 0.000000 0.075277 0.000000
# 6 0.000000 0.000000 0.000000 0.000000 0.000000 0.034139
#
#
# Mechanical properties :
#
#
# Convention : Reuss Voigt Hill
#
# Bulk Modulus (GPa) = 69.08151 81.65087 75.36619
# Shear Modulus (GPa) = 26.77963 33.54611 30.16287
#
# Velocity S-wave (km/s) = 3.27393 3.66428 3.47459
# Velocity P-wave (km/s) = 6.47623 7.11221 6.80166
#
# Compressibility (1/GPa) = 0.01447565
#
# Stress axis : x y z
#
# Youngs Moduli (GPa) = 116.48389 78.61025 134.31184
#
# Poissons Ratio (x) = 0.07993 0.44058
# Poissons Ratio (y) = 0.11843 0.38155
# Poissons Ratio (z) = 0.38210 0.22332
#
# Static dielectric constant tensor:
#      x y z
#    x 2.213780 0.000000 0.000000 
#    y 0.000000 2.448530 0.000000 
#    z 0.000000 0.000000 2.018460 
# 
# From -- ./inp_files/3524.got.cif
#   From: 2010.05.17/outbox.cif.g08.bks.cpg/sg33_2_cif.got.tgz:3524.got - 2010.06.03 17:15:25.
