data_PCOD9345269
_publ_section_title
;
Structure prediction by ZEFSAII (Michael W. Deem and Ramdas Pophale) SiO2 
 PCOD9345269
Probable space group: P N A 21
;
_chemical_formula_sum "Si O2"
_cell_formula_units_Z 20
_cell_length_a 8.996488
_cell_length_b 9.961270
_cell_length_c 8.447651
_cell_angle_alpha 90.000000
_cell_angle_beta 90.000000
_cell_angle_gamma 90.000000
_cell_volume 757.048460
_symmetry_space_group_name_H-M "P N A 21"
_symmetry_group_IT_number 33
_symmetry_cell_setting 'orthorhombic'
loop_
_space_group_symop_operation_xyz
x,y,z
-x,-y,1/2+z
1/2-x,1/2+y,1/2+z
1/2+x,1/2-y,z
loop_
_atom_site_type_symbol
_atom_site_label
_atom_site_fract_x
_atom_site_fract_y
_atom_site_fract_z
Si Si1 0.486767 0.018590 0.337230
Si Si2 0.560152 0.276704 0.785217
Si Si3 0.696230 0.235769 0.457366
Si Si4 0.042473 0.790280 0.751675
Si Si5 0.290636 0.381820 0.955833
O O1 0.614612 0.090344 0.438484
O O2 0.462074 0.132600 0.202558
O O3 0.517839 0.870560 0.275619
O O4 0.330934 0.997016 0.429818
O O5 0.648331 0.296372 0.623312
O O6 0.429878 0.376872 0.834486
O O7 0.685340 0.248904 0.920093
O O8 0.866005 0.210412 0.416522
O O9 0.623340 0.316106 0.309024
O O10 0.130607 0.874210 0.624728
#
# Coordination Sequence:
#
# PCOD9345269 Si02
#       5
#     4   4   4   4   4
#     4   8  24  34  66  82 132 150 218 232 324 338
#     4  10  21  38  61  86 124 158 201 251 302 361
#     4  10  21  38  61  86 124 158 201 251 302 361
#     4  10  21  38  62  89 120 158 205 250 298 367
#     4  10  21  38  62  89 120 158 205 250 298 367
#
# _framework density 26.418389000000001
#
# number of rings (size 3 to 8) (size 9 to 14) (size 15 to 20)
#    2.400    0.000    0.000    2.400    5.600    0.000 
#    0.000    6.000    0.000    0.000    0.000    0.000 
#    0.000    0.000    0.000    0.000    0.000    0.000 
#
# Total GULP energy -111557.938457 kJ/mol
# GULP energy per Si atom -5577.896923 kJ/mol
# Density = 2.635826 g / cm^3
# Si number density = 26.418389 Si / 1000 Ang^3
#
#
#
# Elastic Constant Matrix: (Units=GPa)
#
#
# Indices 1 2 3 4 5 6 
#
# 1 93.4545 -9.4516 8.8324 0.0000 0.0000 0.0000
# 2 -9.4516 72.3513 1.6052 0.0000 0.0000 0.0000
# 3 8.8324 1.6052 87.2347 0.0000 0.0000 0.0000
# 4 0.0000 0.0000 0.0000 23.3439 0.0000 0.0000
# 5 0.0000 0.0000 0.0000 0.0000 41.0364 0.0000
# 6 0.0000 0.0000 0.0000 0.0000 0.0000 44.4608
#
#
#
# Elastic Compliance Matrix: (Units=1/GPa)
#
#
# Indices 1 2 3 4 5 6 
#
# 1 0.010955 0.001456 -0.001136 0.000000 0.000000 0.000000
# 2 0.001456 0.014021 -0.000405 0.000000 0.000000 0.000000
# 3 -0.001136 -0.000405 0.011586 0.000000 0.000000 0.000000
# 4 0.000000 0.000000 0.000000 0.042838 0.000000 0.000000
# 5 0.000000 0.000000 0.000000 0.000000 0.024369 0.000000
# 6 0.000000 0.000000 0.000000 0.000000 0.000000 0.022492
#
#
# Mechanical properties :
#
#
# Convention : Reuss Voigt Hill
#
# Bulk Modulus (GPa) = 27.47907 28.33472 27.90689
# Shear Modulus (GPa) = 36.08540 38.57187 37.32864
#
# Velocity S-wave (km/s) = 3.69984 3.82519 3.76304
# Velocity P-wave (km/s) = 5.35499 5.50074 5.42835
#
# Compressibility (1/GPa) = 0.03639133
#
# Stress axis : x y z
#
# Youngs Moduli (GPa) = 91.28216 71.32312 86.31255
#
# Poissons Ratio (x) = -0.10387 0.09805
# Poissons Ratio (y) = -0.13294 0.03499
# Poissons Ratio (z) = 0.10369 0.02892
#
# Static dielectric constant tensor:
#      x y z
#    x 2.006970 0.000000 0.000000 
#    y 0.000000 2.116350 0.000000 
#    z 0.000000 0.000000 2.088380 
# 
# From -- ./inp_files/3117.got.cif
#   From: 2010.05.17/outbox.cif.g08.bks.cpg/sg33_2_cif.got.tgz:3117.got - 2010.06.03 17:15:25.
