data_PCOD9345640
_publ_section_title
;
Structure prediction by ZEFSAII (Michael W. Deem and Ramdas Pophale) SiO2 
 PCOD9345640
Probable space group: P N A 21
;
_chemical_formula_sum "Si O2"
_cell_formula_units_Z 28
_cell_length_a 10.842037
_cell_length_b 11.037170
_cell_length_c 9.885848
_cell_angle_alpha 90.000000
_cell_angle_beta 90.000000
_cell_angle_gamma 90.000000
_cell_volume 1182.994010
_symmetry_space_group_name_H-M "P N A 21"
_symmetry_group_IT_number 33
_symmetry_cell_setting 'orthorhombic'
loop_
_space_group_symop_operation_xyz
x,y,z
-x,-y,1/2+z
1/2-x,1/2+y,1/2+z
1/2+x,1/2-y,z
loop_
_atom_site_type_symbol
_atom_site_label
_atom_site_fract_x
_atom_site_fract_y
_atom_site_fract_z
Si Si1 0.275570 0.160999 0.341440
Si Si2 0.026043 0.287982 0.452870
Si Si3 0.278506 0.222172 0.042675
Si Si4 0.589594 0.436359 0.948981
Si Si5 0.229710 0.496251 0.088985
Si Si6 0.639270 0.973443 0.366799
Si Si7 0.975792 0.891448 0.169812
O O1 0.601323 0.761984 0.875304
O O2 0.291465 0.044586 0.438096
O O3 0.144735 0.221690 0.384204
O O4 0.282169 0.144890 0.181089
O O5 0.057811 0.428724 0.443228
O O6 0.001288 0.238477 0.603696
O O7 0.286455 0.362075 0.079216
O O8 0.140716 0.195944 0.987146
O O9 0.368266 0.161061 0.931524
O O10 0.716915 0.501998 0.903663
O O11 0.497424 0.422517 0.823974
O O12 0.536349 0.510492 0.071954
O O13 0.126276 0.503243 0.206148
O O14 0.329737 0.589516 0.150126
#
# Coordination Sequence:
#
# PCOD9345640 Si02
#       7
#     4   4   4   4   4   4   4
#     4  11  25  43  76  97 140 191 234 293 367 423
#     4  11  23  44  72 102 141 184 238 293 362 423
#     4  10  23  44  67  99 141 183 234 296 355 424
#     4   9  22  40  62 102 136 182 239 289 355 427
#     4  10  22  44  64  98 136 183 231 292 352 428
#     4   9  21  43  65  95 143 174 236 294 348 420
#     4  10  22  38  68  99 137 187 236 291 353 433
#
# _framework density 23.668759999999999
#
# number of rings (size 3 to 8) (size 9 to 14) (size 15 to 20)
#    0.857    1.143    1.429    0.857    6.000    2.286 
#    5.143    0.000    0.000    0.000    0.000    0.000 
#    0.000    0.000    0.000    0.000    0.000    0.000 
#
# Total GULP energy -156092.444552 kJ/mol
# GULP energy per Si atom -5574.730163 kJ/mol
# Density = 2.361489 g / cm^3
# Si number density = 23.668760 Si / 1000 Ang^3
#
#
#
# Elastic Constant Matrix: (Units=GPa)
#
#
# Indices 1 2 3 4 5 6 
#
# 1 67.2552 1.8641 10.7667 0.0000 0.0000 0.0000
# 2 1.8641 88.7229 42.6202 0.0000 0.0000 0.0000
# 3 10.7667 42.6202 123.6208 0.0000 0.0000 0.0000
# 4 0.0000 0.0000 0.0000 30.0358 0.0000 0.0000
# 5 0.0000 0.0000 0.0000 0.0000 20.8199 0.0000
# 6 0.0000 0.0000 0.0000 0.0000 0.0000 27.3310
#
#
#
# Elastic Compliance Matrix: (Units=1/GPa)
#
#
# Indices 1 2 3 4 5 6 
#
# 1 0.015089 0.000377 -0.001444 0.000000 0.000000 0.000000
# 2 0.000377 0.013518 -0.004693 0.000000 0.000000 0.000000
# 3 -0.001444 -0.004693 0.009833 0.000000 0.000000 0.000000
# 4 0.000000 0.000000 0.000000 0.033294 0.000000 0.000000
# 5 0.000000 0.000000 0.000000 0.000000 0.048031 0.000000
# 6 0.000000 0.000000 0.000000 0.000000 0.000000 0.036589
#
#
# Mechanical properties :
#
#
# Convention : Reuss Voigt Hill
#
# Bulk Modulus (GPa) = 37.14856 43.34452 40.24654
# Shear Modulus (GPa) = 28.27294 30.59386 29.43340
#
# Velocity S-wave (km/s) = 3.45994 3.59915 3.53023
# Velocity P-wave (km/s) = 5.62946 5.96863 5.80153
#
# Compressibility (1/GPa) = 0.02691895
#
# Stress axis : x y z
#
# Youngs Moduli (GPa) = 66.27136 73.97745 101.69747
#
# Poissons Ratio (x) = -0.02786 0.14686
# Poissons Ratio (y) = -0.02496 0.47729
# Poissons Ratio (z) = 0.09570 0.34719
#
# Static dielectric constant tensor:
#      x y z
#    x 1.940970 0.000000 0.000000 
#    y 0.000000 1.922860 0.000000 
#    z 0.000000 0.000000 1.970960 
# 
# From -- ./inp_files/4814.got.cif
#   From: 2010.05.17/outbox.cif.g08.bks.cpg/sg33_3_cif.got.tgz:4814.got - 2010.06.03 17:15:25.
