data_PCOD9345284
_publ_section_title
;
Structure prediction by ZEFSAII (Michael W. Deem and Ramdas Pophale) SiO2 
 PCOD9345284
Probable space group: P N A 21
;
_chemical_formula_sum "Si O2"
_cell_formula_units_Z 24
_cell_length_a 16.724999
_cell_length_b 6.820778
_cell_length_c 7.798422
_cell_angle_alpha 90.000000
_cell_angle_beta 90.000000
_cell_angle_gamma 90.000000
_cell_volume 889.624526
_symmetry_space_group_name_H-M "P N A 21"
_symmetry_group_IT_number 33
_symmetry_cell_setting 'orthorhombic'
loop_
_space_group_symop_operation_xyz
x,y,z
-x,-y,1/2+z
1/2-x,1/2+y,1/2+z
1/2+x,1/2-y,z
loop_
_atom_site_type_symbol
_atom_site_label
_atom_site_fract_x
_atom_site_fract_y
_atom_site_fract_z
Si Si1 0.017354 0.103024 0.484850
Si Si2 0.859484 0.380114 0.944305
Si Si3 0.814619 0.811685 0.843681
Si Si4 0.356454 0.261179 0.333617
Si Si5 0.969428 0.716229 0.352996
Si Si6 0.307385 0.707840 0.429823
O O1 0.101884 0.079625 0.386414
O O2 0.945813 0.238117 0.411979
O O3 0.034691 0.183157 0.670001
O O4 0.981464 0.885742 0.494367
O O5 0.831892 0.602969 0.932852
O O6 0.946226 0.390668 0.857603
O O7 0.867312 0.301994 0.136736
O O8 0.783941 0.258337 0.866887
O O9 0.723453 0.847129 0.906963
O O10 0.806170 0.802216 0.637144
O O11 0.331372 0.493686 0.351985
O O12 0.879804 0.645235 0.383010
#
# Coordination Sequence:
#
# PCOD9345284 Si02
#       6
#     4   4   4   4   4   4
#     4  11  22  37  59  85 119 165 211 254 312 390
#     4  10  21  38  62  92 124 158 206 269 321 367
#     4  10  21  38  62  92 124 158 206 269 321 367
#     4   9  19  39  63  86 123 169 209 253 316 392
#     4  11  22  37  59  85 119 165 211 254 312 390
#     4   9  19  39  63  86 123 169 209 253 316 392
#
# _framework density 26.977671999999998
#
# number of rings (size 3 to 8) (size 9 to 14) (size 15 to 20)
#    0.000    2.000    0.000    5.000    0.000    4.000 
#    0.000    1.667    0.000    0.000    0.000    0.000 
#    0.000    0.000    0.000    0.000    0.000    0.000 
#
# Total GULP energy -134105.484491 kJ/mol
# GULP energy per Si atom -5587.728520 kJ/mol
# Density = 2.691627 g / cm^3
# Si number density = 26.977672 Si / 1000 Ang^3
#
#
#
# Elastic Constant Matrix: (Units=GPa)
#
#
# Indices 1 2 3 4 5 6 
#
# 1 304.6856 62.3837 26.2355 0.0000 0.0000 0.0000
# 2 62.3837 54.2957 12.8324 0.0000 0.0000 0.0000
# 3 26.2355 12.8324 101.2909 0.0000 0.0000 0.0000
# 4 0.0000 0.0000 0.0000 26.1206 0.0000 0.0000
# 5 0.0000 0.0000 0.0000 0.0000 -134.7600 0.0000
# 6 0.0000 0.0000 0.0000 0.0000 0.0000 77.1299
#
#
#
# Elastic Compliance Matrix: (Units=1/GPa)
#
#
# Indices 1 2 3 4 5 6 
#
# 1 0.004317 -0.004840 -0.000505 0.000000 0.000000 0.000000
# 2 -0.004840 0.024414 -0.001839 0.000000 0.000000 0.000000
# 3 -0.000505 -0.001839 0.010236 0.000000 0.000000 0.000000
# 4 0.000000 0.000000 0.000000 0.038284 0.000000 0.000000
# 5 0.000000 0.000000 0.000000 0.000000 -0.007421 0.000000
# 6 0.000000 0.000000 0.000000 0.000000 0.000000 0.012965
#
#
# Mechanical properties :
#
#
# Convention : Reuss Voigt Hill
#
# Bulk Modulus (GPa) = 40.65397 73.68618 57.17007
# Shear Modulus (GPa) = 47.45498 17.61946 32.53722
#
# Velocity S-wave (km/s) = 4.19865 2.55838 3.47663
# Velocity P-wave (km/s) = 6.21346 6.00834 6.11176
#
# Compressibility (1/GPa) = 0.02459784
#
# Stress axis : x y z
#
# Youngs Moduli (GPa) = 231.66509 40.96073 97.69135
#
# Poissons Ratio (x) = 0.19826 0.04932
# Poissons Ratio (y) = 1.12132 0.17968
# Poissons Ratio (z) = 0.11695 0.07534
#
# Static dielectric constant tensor:
#      x y z
#    x 2.341970 0.000000 0.000000 
#    y 0.000000 2.271840 0.000000 
#    z 0.000000 0.000000 2.005980 
# 
# From -- ./inp_files/4676.got.cif
#   From: 2010.05.17/outbox.cif.g08.bks.cpg/sg33_3_cif.got.tgz:4676.got - 2010.06.03 17:15:25.
