data_PCOD9345747
_publ_section_title
;
Structure prediction by ZEFSAII (Michael W. Deem and Ramdas Pophale) SiO2 
 PCOD9345747
Probable space group: P N A 21
;
_chemical_formula_sum "Si O2"
_cell_formula_units_Z 32
_cell_length_a 7.879139
_cell_length_b 17.856549
_cell_length_c 8.601009
_cell_angle_alpha 90.000000
_cell_angle_beta 90.000000
_cell_angle_gamma 90.000000
_cell_volume 1210.112353
_symmetry_space_group_name_H-M "P N A 21"
_symmetry_group_IT_number 33
_symmetry_cell_setting 'orthorhombic'
loop_
_space_group_symop_operation_xyz
x,y,z
-x,-y,1/2+z
1/2-x,1/2+y,1/2+z
1/2+x,1/2-y,z
loop_
_atom_site_type_symbol
_atom_site_label
_atom_site_fract_x
_atom_site_fract_y
_atom_site_fract_z
Si Si1 0.069632 0.005006 0.129910
Si Si2 0.805406 0.128664 0.063114
Si Si3 0.644656 0.163646 0.374998
Si Si4 0.026018 0.615561 0.469079
Si Si5 0.531828 0.280772 0.844018
Si Si6 0.515740 0.315640 0.484402
Si Si7 0.683552 0.909705 0.808180
Si Si8 0.189793 0.069930 0.824230
O O1 0.956420 0.080260 0.133750
O O2 0.218009 0.014683 0.254553
O O3 0.936737 0.941843 0.181854
O O4 0.132050 0.009555 0.952892
O O5 0.725591 0.172997 0.204520
O O6 0.650520 0.076020 0.014735
O O7 0.872730 0.177179 0.921539
O O8 0.532712 0.237729 0.393121
O O9 0.818458 0.156431 0.475554
O O10 0.501139 0.098897 0.389439
O O11 0.972752 0.698142 0.411753
O O12 0.132855 0.618333 0.631247
O O13 0.109716 0.569089 0.327464
O O14 0.538878 0.283944 0.659210
O O15 0.672660 0.343728 0.882886
O O16 0.671851 0.364285 0.408196
#
# Coordination Sequence:
#
# PCOD9345747 Si02
#       8
#     4   4   4   4   4   4   4   4
#     4  10  22  45  68  96 129 186 242 277 339 423
#     4  10  22  41  66  97 136 184 233 285 340 430
#     4  11  23  38  64  96 138 181 224 288 349 423
#     4  10  22  42  70 102 135 183 237 289 359 421
#     4  11  25  41  67 100 142 175 226 297 358 419
#     4  12  24  38  61 104 143 173 229 291 359 413
#     4  10  22  42  68  95 136 186 240 276 344 427
#     4  10  24  43  72  96 133 192 229 283 350 418
#
# _framework density 26.443822999999998
#
# number of rings (size 3 to 8) (size 9 to 14) (size 15 to 20)
#    0.000    1.500    2.500    1.500    7.000    0.000 
#    0.000    7.500    0.000    0.000    0.000    0.000 
#    0.000    0.000    0.000    0.000    0.000    0.000 
#
# Total GULP energy -178365.052480 kJ/mol
# GULP energy per Si atom -5573.907890 kJ/mol
# Density = 2.638364 g / cm^3
# Si number density = 26.443823 Si / 1000 Ang^3
#
#
#
# Elastic Constant Matrix: (Units=GPa)
#
#
# Indices 1 2 3 4 5 6 
#
# 1 132.7667 4.2590 22.8232 0.0000 0.0000 0.0000
# 2 4.2590 63.2815 6.1901 0.0000 0.0000 0.0000
# 3 22.8232 6.1901 88.2372 0.0000 0.0000 0.0000
# 4 0.0000 0.0000 0.0000 29.0537 0.0000 0.0000
# 5 0.0000 0.0000 0.0000 0.0000 15.5642 0.0000
# 6 0.0000 0.0000 0.0000 0.0000 0.0000 24.0718
#
#
#
# Elastic Compliance Matrix: (Units=1/GPa)
#
#
# Indices 1 2 3 4 5 6 
#
# 1 0.007889 -0.000334 -0.002017 0.000000 0.000000 0.000000
# 2 -0.000334 0.015926 -0.001031 0.000000 0.000000 0.000000
# 3 -0.002017 -0.001031 0.011927 0.000000 0.000000 0.000000
# 4 0.000000 0.000000 0.000000 0.034419 0.000000 0.000000
# 5 0.000000 0.000000 0.000000 0.000000 0.064250 0.000000
# 6 0.000000 0.000000 0.000000 0.000000 0.000000 0.041542
#
#
# Mechanical properties :
#
#
# Convention : Reuss Voigt Hill
#
# Bulk Modulus (GPa) = 34.50813 38.98112 36.74462
# Shear Modulus (GPa) = 25.99062 30.47214 28.23138
#
# Velocity S-wave (km/s) = 3.13846 3.39829 3.27096
# Velocity P-wave (km/s) = 5.11969 5.49281 5.30953
#
# Compressibility (1/GPa) = 0.02897868
#
# Stress axis : x y z
#
# Youngs Moduli (GPa) = 126.75088 62.79152 83.84204
#
# Poissons Ratio (x) = 0.02095 0.16913
# Poissons Ratio (y) = 0.04229 0.08644
# Poissons Ratio (z) = 0.25569 0.06473
#
# Static dielectric constant tensor:
#      x y z
#    x 2.276310 0.000000 0.000000 
#    y 0.000000 2.148610 0.000000 
#    z 0.000000 0.000000 2.102530 
# 
# From -- ./inp_files/3525.got.cif
#   From: 2010.05.17/outbox.cif.g08.bks.cpg/sg33_2_cif.got.tgz:3525.got - 2010.06.03 17:15:25.
