data_PCOD9345011
_publ_section_title
;
Structure prediction by ZEFSAII (Michael W. Deem and Ramdas Pophale) SiO2 
 PCOD9345011
Probable space group: P N A 21
;
_chemical_formula_sum "Si O2"
_cell_formula_units_Z 28
_cell_length_a 5.649804
_cell_length_b 15.567214
_cell_length_c 12.986648
_cell_angle_alpha 90.000000
_cell_angle_beta 90.000000
_cell_angle_gamma 90.000000
_cell_volume 1142.197872
_symmetry_space_group_name_H-M "P N A 21"
_symmetry_group_IT_number 33
_symmetry_cell_setting 'orthorhombic'
loop_
_space_group_symop_operation_xyz
x,y,z
-x,-y,1/2+z
1/2-x,1/2+y,1/2+z
1/2+x,1/2-y,z
loop_
_atom_site_type_symbol
_atom_site_label
_atom_site_fract_x
_atom_site_fract_y
_atom_site_fract_z
Si Si1 0.461721 0.708741 0.536740
Si Si2 0.874105 0.846090 0.760516
Si Si3 0.357648 0.481854 0.012646
Si Si4 0.357648 0.518146 0.228489
Si Si5 0.374105 0.346090 0.480619
Si Si6 0.500000 0.929656 0.870567
Si Si7 0.538278 0.708741 0.204395
O O1 0.195455 0.736680 0.503297
O O2 0.441546 0.709357 0.662027
O O3 0.530182 0.611618 0.505993
O O4 0.000000 0.824955 0.870567
O O5 0.602334 0.864199 0.786064
O O6 0.952807 0.942189 0.728543
O O7 0.547194 0.557811 0.012592
O O8 0.191033 0.507909 0.919698
O O9 0.223220 0.500000 0.120567
O O10 0.191032 0.492091 0.321437
O O11 0.469818 0.611618 0.235142
O O12 0.441547 0.290643 0.579107
O O13 0.102334 0.364199 0.455072
O O14 0.804545 0.736680 0.237838
#
# Coordination Sequence:
#
# PCOD9345011 Si02
#       7
#     4   4   4   4   4   4   4
#     4  11  26  41  62  95 136 176 211 264 337 396
#     4   9  21  39  63  93 122 169 222 276 326 388
#     4   9  21  40  64  94 128 176 223 274 322 392
#     4   9  21  40  64  94 128 176 223 274 322 392
#     4   9  21  39  63  93 122 169 222 276 326 388
#     4  10  20  38  74  94 124 164 244 272 320 376
#     4  11  26  41  62  95 136 176 211 264 337 396
#
# _framework density 24.514140000000001
#
# number of rings (size 3 to 8) (size 9 to 14) (size 15 to 20)
#    0.000    2.286    0.000    0.000   16.000    2.286 
#    0.000    1.429    0.000    0.000    0.000    0.000 
#    0.000    0.000    0.000    0.000    0.000    0.000 
#
# Total GULP energy -156262.492250 kJ/mol
# GULP energy per Si atom -5580.803295 kJ/mol
# Density = 2.445835 g / cm^3
# Si number density = 24.514140 Si / 1000 Ang^3
#
#
#
# Elastic Constant Matrix: (Units=GPa)
#
#
# Indices 1 2 3 4 5 6 
#
# 1 116.6810 46.0010 3.2487 0.0000 0.0000 0.0000
# 2 46.0010 81.5503 4.5846 0.0000 0.0000 0.0000
# 3 3.2487 4.5846 62.3936 0.0000 0.0000 0.0000
# 4 0.0000 0.0000 0.0000 35.3100 0.0000 0.0000
# 5 0.0000 0.0000 0.0000 0.0000 12.3427 0.0000
# 6 0.0000 0.0000 0.0000 0.0000 0.0000 6.6843
#
#
#
# Elastic Compliance Matrix: (Units=1/GPa)
#
#
# Indices 1 2 3 4 5 6 
#
# 1 0.011022 -0.006211 -0.000118 0.000000 0.000000 0.000000
# 2 -0.006211 0.015813 -0.000839 0.000000 0.000000 0.000000
# 3 -0.000118 -0.000839 0.016095 0.000000 0.000000 0.000000
# 4 0.000000 0.000000 0.000000 0.028321 0.000000 0.000000
# 5 0.000000 0.000000 0.000000 0.000000 0.081020 0.000000
# 6 0.000000 0.000000 0.000000 0.000000 0.000000 0.149603
#
#
# Mechanical properties :
#
#
# Convention : Reuss Voigt Hill
#
# Bulk Modulus (GPa) = 34.96947 40.92151 37.94549
# Shear Modulus (GPa) = 15.34968 24.65346 20.00157
#
# Velocity S-wave (km/s) = 2.50503 3.17469 2.85953
# Velocity P-wave (km/s) = 4.76055 5.49249 5.13957
#
# Compressibility (1/GPa) = 0.02859637
#
# Stress axis : x y z
#
# Youngs Moduli (GPa) = 90.72568 63.23944 62.13105
#
# Poissons Ratio (x) = 0.39277 0.00730
# Poissons Ratio (y) = 0.56348 0.05210
# Poissons Ratio (z) = 0.01066 0.05303
#
# Static dielectric constant tensor:
#      x y z
#    x 2.014380 0.000000 0.000000 
#    y 0.000000 1.910340 0.000000 
#    z 0.000000 0.000000 2.142780 
# 
# From -- ./inp_files/7398.got.cif
#   From: 2010.05.17/outbox.cif.g08.bks.cpg/sg33_4_cif.got.tgz:7398.got - 2010.06.03 17:15:25.
