data_PCOD9345260
_publ_section_title
;
Structure prediction by ZEFSAII (Michael W. Deem and Ramdas Pophale) SiO2 
 PCOD9345260
Probable space group: P N A 21
;
_chemical_formula_sum "Si O2"
_cell_formula_units_Z 32
_cell_length_a 9.698859
_cell_length_b 13.213490
_cell_length_c 13.614751
_cell_angle_alpha 90.000000
_cell_angle_beta 90.000000
_cell_angle_gamma 90.000000
_cell_volume 1744.808985
_symmetry_space_group_name_H-M "P N A 21"
_symmetry_group_IT_number 33
_symmetry_cell_setting 'orthorhombic'
loop_
_space_group_symop_operation_xyz
x,y,z
-x,-y,1/2+z
1/2-x,1/2+y,1/2+z
1/2+x,1/2-y,z
loop_
_atom_site_type_symbol
_atom_site_label
_atom_site_fract_x
_atom_site_fract_y
_atom_site_fract_z
Si Si1 0.556890 0.013674 0.740680
Si Si2 0.391727 0.819683 0.402753
Si Si3 0.356291 0.972077 0.566995
Si Si4 0.929855 0.965176 0.009801
Si Si5 0.708244 0.245402 0.484688
Si Si6 0.552298 0.859896 0.908330
Si Si7 0.674225 0.598094 0.139964
Si Si8 0.422221 0.365001 0.852763
O O1 0.429881 0.997473 0.668157
O O2 0.572465 0.914022 0.805673
O O3 0.544073 0.105603 0.819153
O O4 0.694754 0.035469 0.678613
O O5 0.405574 0.870897 0.510222
O O6 0.462072 0.711730 0.390455
O O7 0.228475 0.820874 0.380767
O O8 0.190520 0.977509 0.570922
O O9 0.400832 0.060691 0.491662
O O10 0.874819 0.850244 0.998946
O O11 0.076147 0.959533 0.063472
O O12 0.935242 0.026963 0.907626
O O13 0.602925 0.170657 0.431632
O O14 0.762125 0.196452 0.585931
O O15 0.843276 0.267361 0.420820
O O16 0.582515 0.624817 0.235187
#
# Coordination Sequence:
#
# PCOD9345260 Si02
#       8
#     4   4   4   4   4   4   4   4
#     4  10  21  39  60  90 118 159 205 247 302 369
#     4   9  21  37  59  84 120 158 193 250 297 354
#     4   9  19  39  59  82 120 158 197 250 304 353
#     4  10  23  40  58  91 129 151 197 267 299 350
#     4  11  20  37  62  90 120 159 200 253 306 356
#     4  10  21  38  59  88 127 152 200 261 301 354
#     4  11  22  36  65  91 116 162 205 248 305 362
#     4  10  23  40  58  92 124 155 203 248 304 358
#
# _framework density 18.340118
#
# number of rings (size 3 to 8) (size 9 to 14) (size 15 to 20)
#    0.000    2.000    2.500    2.250    7.000    1.000 
#    2.250    5.000    0.000    0.000    0.000    0.000 
#    0.000    0.000    0.000    0.000    0.000    0.000 
#
# Total GULP energy -178442.293595 kJ/mol
# GULP energy per Si atom -5576.321675 kJ/mol
# Density = 1.829837 g / cm^3
# Si number density = 18.340118 Si / 1000 Ang^3
#
#
#
# Elastic Constant Matrix: (Units=GPa)
#
#
# Indices 1 2 3 4 5 6 
#
# 1 33.2342 27.4743 20.1593 0.0000 0.0000 0.0000
# 2 27.4743 67.3781 43.6187 0.0000 0.0000 0.0000
# 3 20.1593 43.6187 61.2544 0.0000 0.0000 0.0000
# 4 0.0000 0.0000 0.0000 15.9383 0.0000 0.0000
# 5 0.0000 0.0000 0.0000 0.0000 15.8865 0.0000
# 6 0.0000 0.0000 0.0000 0.0000 0.0000 19.2891
#
#
#
# Elastic Compliance Matrix: (Units=1/GPa)
#
#
# Indices 1 2 3 4 5 6 
#
# 1 0.045744 -0.016524 -0.003288 0.000000 0.000000 0.000000
# 2 -0.016524 0.033504 -0.018420 0.000000 0.000000 0.000000
# 3 -0.003288 -0.018420 0.030524 0.000000 0.000000 0.000000
# 4 0.000000 0.000000 0.000000 0.062742 0.000000 0.000000
# 5 0.000000 0.000000 0.000000 0.000000 0.062947 0.000000
# 6 0.000000 0.000000 0.000000 0.000000 0.000000 0.051843
#
#
# Mechanical properties :
#
#
# Convention : Reuss Voigt Hill
#
# Bulk Modulus (GPa) = 30.02245 38.26348 34.14297
# Shear Modulus (GPa) = 13.33795 14.93041 14.13418
#
# Velocity S-wave (km/s) = 2.69969 2.85631 2.77911
# Velocity P-wave (km/s) = 5.11108 5.63796 5.38097
#
# Compressibility (1/GPa) = 0.03330840
#
# Stress axis : x y z
#
# Youngs Moduli (GPa) = 21.86062 29.84716 32.76117
#
# Poissons Ratio (x) = 0.49320 0.10772
# Poissons Ratio (y) = 0.36123 0.60345
# Poissons Ratio (z) = 0.07188 0.54977
#
# Static dielectric constant tensor:
#      x y z
#    x 1.646440 0.000000 0.000000 
#    y 0.000000 1.644070 0.000000 
#    z 0.000000 0.000000 1.632860 
# 
# From -- ./inp_files/6005.got.cif
#   From: 2010.05.17/outbox.cif.g08.bks.cpg/sg33_4_cif.got.tgz:6005.got - 2010.06.03 17:15:25.
