data_PCOD9345768
_publ_section_title
;
Structure prediction by ZEFSAII (Michael W. Deem and Ramdas Pophale) SiO2 
 PCOD9345768
Probable space group: P N A 21
;
_chemical_formula_sum "Si O2"
_cell_formula_units_Z 28
_cell_length_a 5.128209
_cell_length_b 27.801609
_cell_length_c 9.566512
_cell_angle_alpha 90.000000
_cell_angle_beta 90.000000
_cell_angle_gamma 90.000000
_cell_volume 1363.921164
_symmetry_space_group_name_H-M "P N A 21"
_symmetry_group_IT_number 33
_symmetry_cell_setting 'orthorhombic'
loop_
_space_group_symop_operation_xyz
x,y,z
-x,-y,1/2+z
1/2-x,1/2+y,1/2+z
1/2+x,1/2-y,z
loop_
_atom_site_type_symbol
_atom_site_label
_atom_site_fract_x
_atom_site_fract_y
_atom_site_fract_z
Si Si1 0.740642 0.780855 0.647600
Si Si2 0.892079 0.472450 0.015937
Si Si3 0.249999 0.428002 0.813678
Si Si4 0.607921 0.472449 0.611418
Si Si5 0.358174 0.624762 0.472938
Si Si6 0.259367 0.719145 0.979758
Si Si7 0.358173 0.124763 0.654421
O O1 0.452674 0.760806 0.617326
O O2 0.820203 0.827064 0.558395
O O3 0.750003 0.791479 0.813679
O O4 0.146273 0.492212 0.097162
O O5 0.646273 0.507789 0.030192
O O6 0.018780 0.462059 0.864611
O O7 0.783175 0.419434 0.051985
O O8 0.481220 0.462059 0.762745
O O9 0.350806 0.394454 0.939371
O O10 0.149192 0.394454 0.687987
O O11 0.716824 0.419433 0.575372
O O12 0.250001 0.631079 0.313679
O O13 0.547338 0.739193 0.010031
O O14 0.179798 0.672937 0.068965
#
# Coordination Sequence:
#
# PCOD9345768 Si02
#       7
#     4   4   4   4   4   4   4
#     4  10  24  45  66  91 129 169 213 267 329 393
#     4  11  22  40  62  91 131 171 212 263 321 385
#     4  10  22  42  62  94 138 168 214 280 324 376
#     4  11  22  40  62  91 131 171 212 263 321 385
#     4  10  23  41  67  97 131 166 219 273 322 382
#     4  10  24  45  66  91 129 169 213 267 329 393
#     4  10  23  41  67  97 131 166 219 273 322 382
#
# _framework density 20.529046999999998
#
# number of rings (size 3 to 8) (size 9 to 14) (size 15 to 20)
#    0.000    1.714    2.857    0.000    8.000    1.143 
#    2.571    2.857    0.000    0.000    0.000    0.000 
#    0.000    0.000    0.000    0.000    0.000    0.000 
#
# Total GULP energy -156051.893121 kJ/mol
# GULP energy per Si atom -5573.281897 kJ/mol
# Density = 2.048232 g / cm^3
# Si number density = 20.529047 Si / 1000 Ang^3
#
#
#
# Elastic Constant Matrix: (Units=GPa)
#
#
# Indices 1 2 3 4 5 6 
#
# 1 130.4235 40.9715 32.6540 0.0000 0.0000 0.0000
# 2 40.9715 129.3733 64.2330 0.0000 0.0000 0.0000
# 3 32.6540 64.2330 59.1061 0.0000 0.0000 0.0000
# 4 0.0000 0.0000 0.0000 31.4093 0.0000 0.0000
# 5 0.0000 0.0000 0.0000 0.0000 32.5228 0.0000
# 6 0.0000 0.0000 0.0000 0.0000 0.0000 24.6088
#
#
#
# Elastic Compliance Matrix: (Units=1/GPa)
#
#
# Indices 1 2 3 4 5 6 
#
# 1 0.008938 -0.000823 -0.004044 0.000000 0.000000 0.000000
# 2 -0.000823 0.016863 -0.017871 0.000000 0.000000 0.000000
# 3 -0.004044 -0.017871 0.038574 0.000000 0.000000 0.000000
# 4 0.000000 0.000000 0.000000 0.031838 0.000000 0.000000
# 5 0.000000 0.000000 0.000000 0.000000 0.030748 0.000000
# 6 0.000000 0.000000 0.000000 0.000000 0.000000 0.040636
#
#
# Mechanical properties :
#
#
# Convention : Reuss Voigt Hill
#
# Bulk Modulus (GPa) = 52.91080 66.06886 59.48983
# Shear Modulus (GPa) = 22.79233 29.77781 26.28507
#
# Velocity S-wave (km/s) = 3.33565 3.81270 3.58213
# Velocity P-wave (km/s) = 6.37691 7.18577 6.79339
#
# Compressibility (1/GPa) = 0.01889973
#
# Stress axis : x y z
#
# Youngs Moduli (GPa) = 111.87831 59.30104 25.92425
#
# Poissons Ratio (x) = 0.04881 0.10483
# Poissons Ratio (y) = 0.09208 0.46330
# Poissons Ratio (z) = 0.45240 1.05978
#
# Static dielectric constant tensor:
#      x y z
#    x 1.850510 0.000000 0.000000 
#    y 0.000000 1.699290 0.000000 
#    z 0.000000 0.000000 1.785610 
# 
# From -- ./inp_files/5544.got.cif
#   From: 2010.05.17/outbox.cif.g08.bks.cpg/sg33_3_cif.got.tgz:5544.got - 2010.06.03 17:15:25.
