data_PCOD9345545
_publ_section_title
;
Structure prediction by ZEFSAII (Michael W. Deem and Ramdas Pophale) SiO2 
 PCOD9345545
Probable space group: P N A 21
;
_chemical_formula_sum "Si O2"
_cell_formula_units_Z 32
_cell_length_a 5.692526
_cell_length_b 18.270113
_cell_length_c 13.855776
_cell_angle_alpha 90.000000
_cell_angle_beta 90.000000
_cell_angle_gamma 90.000000
_cell_volume 1441.043564
_symmetry_space_group_name_H-M "P N A 21"
_symmetry_group_IT_number 33
_symmetry_cell_setting 'orthorhombic'
loop_
_space_group_symop_operation_xyz
x,y,z
-x,-y,1/2+z
1/2-x,1/2+y,1/2+z
1/2+x,1/2-y,z
loop_
_atom_site_type_symbol
_atom_site_label
_atom_site_fract_x
_atom_site_fract_y
_atom_site_fract_z
Si Si1 0.621259 0.712014 0.419750
Si Si2 0.691311 0.208345 0.261736
Si Si3 0.221622 0.883569 0.583172
Si Si4 0.363071 0.513809 0.694437
Si Si5 0.749244 0.423255 0.755811
Si Si6 0.988223 0.561385 0.845253
Si Si7 0.517294 0.973589 0.059681
Si Si8 0.852455 0.261426 0.713709
O O1 0.381402 0.755946 0.443391
O O2 0.602137 0.640551 0.484512
O O3 0.632310 0.706368 0.304225
O O4 0.444437 0.252166 0.280199
O O5 0.694346 0.183633 0.149154
O O6 0.669164 0.131992 0.320856
O O7 0.044343 0.928849 0.650416
O O8 0.424525 0.940265 0.556764
O O9 0.482497 0.450200 0.757089
O O10 0.240794 0.472679 0.605012
O O11 0.191076 0.558840 0.764373
O O12 0.870377 0.482227 0.825307
O O13 0.829587 0.340394 0.766286
O O14 0.826222 0.439417 0.644743
O O15 0.057216 0.562339 0.956863
O O16 0.604034 0.246192 0.661479
#
# Coordination Sequence:
#
# PCOD9345545 Si02
#       8
#     4   4   4   4   4   4   4   4
#     4  10  23  36  57  97 141 170 216 264 356 437
#     4  12  25  44  70  98 144 190 236 298 363 433
#     4  11  22  41  64 104 135 185 218 301 368 433
#     4  10  21  43  69  98 141 181 241 292 363 418
#     4  10  23  44  68  98 139 187 233 294 354 432
#     4  11  24  43  71 100 138 190 249 291 360 432
#     4  10  24  40  70 101 133 179 248 296 350 422
#     4  10  24  41  65 100 139 182 225 278 360 423
#
# _framework density 22.206129000000001
#
# number of rings (size 3 to 8) (size 9 to 14) (size 15 to 20)
#    0.000    1.500    3.750    1.500    8.750    4.000 
#    0.000    1.250    0.000    0.000    0.000    0.000 
#    0.000    0.000    0.000    0.000    0.000    0.000 
#
# Total GULP energy -178374.920172 kJ/mol
# GULP energy per Si atom -5574.216255 kJ/mol
# Density = 2.215559 g / cm^3
# Si number density = 22.206129 Si / 1000 Ang^3
#
#
#
# Elastic Constant Matrix: (Units=GPa)
#
#
# Indices 1 2 3 4 5 6 
#
# 1 126.3881 41.2818 -5.5487 0.0000 0.0000 0.0000
# 2 41.2818 28.5019 -12.6290 0.0000 0.0000 0.0000
# 3 -5.5487 -12.6290 66.2695 0.0000 0.0000 0.0000
# 4 0.0000 0.0000 0.0000 27.0123 0.0000 0.0000
# 5 0.0000 0.0000 0.0000 0.0000 -1.1812 0.0000
# 6 0.0000 0.0000 0.0000 0.0000 0.0000 27.6732
#
#
#
# Elastic Compliance Matrix: (Units=1/GPa)
#
#
# Indices 1 2 3 4 5 6 
#
# 1 0.015645 -0.024115 -0.003286 0.000000 0.000000 0.000000
# 2 -0.024115 0.075494 0.012368 0.000000 0.000000 0.000000
# 3 -0.003286 0.012368 0.017172 0.000000 0.000000 0.000000
# 4 0.000000 0.000000 0.000000 0.037020 0.000000 0.000000
# 5 0.000000 0.000000 0.000000 0.000000 -0.846567 0.000000
# 6 0.000000 0.000000 0.000000 0.000000 0.000000 0.036136
#
#
# Mechanical properties :
#
#
# Convention : Reuss Voigt Hill
#
# Bulk Modulus (GPa) = 12.78064 29.70755 21.24409
# Shear Modulus (GPa) = -8.21083 23.90455 7.84686
#
# Velocity S-wave (km/s) = -1.92499 3.28454 1.88184
# Velocity P-wave (km/s) = 0.90949 5.27176 3.78276
#
# Compressibility (1/GPa) = 0.07824336
#
# Stress axis : x y z
#
# Youngs Moduli (GPa) = 63.91963 13.24609 58.23533
#
# Poissons Ratio (x) = 0.31944 0.19135
# Poissons Ratio (y) = 1.54145 -0.72024
# Poissons Ratio (z) = 0.21003 -0.16382
#
# Static dielectric constant tensor:
#      x y z
#    x 1.939670 0.000000 0.000000 
#    y 0.000000 1.888310 0.000000 
#    z 0.000000 0.000000 1.793220 
# 
# From -- ./inp_files/7448.got.cif
#   From: 2010.05.17/outbox.cif.g08.bks.cpg/sg33_4_cif.got.tgz:7448.got - 2010.06.03 17:15:25.
