data_PCOD9345413
_publ_section_title
;
Structure prediction by ZEFSAII (Michael W. Deem and Ramdas Pophale) SiO2 
 PCOD9345413
Probable space group: P N A 21
;
_chemical_formula_sum "Si O2"
_cell_formula_units_Z 28
_cell_length_a 12.030651
_cell_length_b 20.539148
_cell_length_c 4.839398
_cell_angle_alpha 90.000000
_cell_angle_beta 90.000000
_cell_angle_gamma 90.000000
_cell_volume 1195.811962
_symmetry_space_group_name_H-M "P N A 21"
_symmetry_group_IT_number 33
_symmetry_cell_setting 'orthorhombic'
loop_
_space_group_symop_operation_xyz
x,y,z
-x,-y,1/2+z
1/2-x,1/2+y,1/2+z
1/2+x,1/2-y,z
loop_
_atom_site_type_symbol
_atom_site_label
_atom_site_fract_x
_atom_site_fract_y
_atom_site_fract_z
Si Si1 0.346611 0.948994 0.240430
Si Si2 0.633096 0.634267 0.209222
Si Si3 0.061100 0.378361 0.225675
Si Si4 0.269273 0.071105 0.912037
Si Si5 0.225452 0.797074 0.694199
Si Si6 0.313750 0.153472 0.372620
Si Si7 0.544790 0.464891 0.656987
O O1 0.222029 0.922004 0.290930
O O2 0.411708 0.939898 0.526686
O O3 0.340026 0.017057 0.080164
O O4 0.406335 0.899502 0.032954
O O5 0.659287 0.694964 0.407925
O O6 0.511191 0.604588 0.222619
O O7 0.665485 0.652457 0.899178
O O8 0.148730 0.321855 0.145039
O O9 0.935105 0.355215 0.232831
O O10 0.230404 0.116181 0.165458
O O11 0.316643 0.118088 0.669968
O O12 0.170591 0.034064 0.756293
O O13 0.218993 0.728363 0.846601
O O14 0.521254 0.482733 0.342411
#
# Coordination Sequence:
#
# PCOD9345413 Si02
#       7
#     4   4   4   4   4   4   4
#     4  10  21  42  65  95 126 173 227 264 338 411
#     4  10  21  40  68  96 127 180 226 270 333 407
#     4  10  23  42  70  90 129 179 223 274 330 412
#     4  12  26  41  66  99 142 173 221 292 336 406
#     4  10  23  43  67  95 132 180 231 275 323 419
#     4  12  26  44  64 102 138 175 227 289 340 386
#     4  12  24  40  68 103 138 174 217 282 352 409
#
# _framework density 23.415053
#
# number of rings (size 3 to 8) (size 9 to 14) (size 15 to 20)
#    0.000    1.143    1.429    4.286    4.000    4.571 
#    0.000    0.000    0.000    0.000    0.000    0.000 
#    0.000    0.000    0.000    0.000    0.000    0.000 
#
# Total GULP energy -156527.985198 kJ/mol
# GULP energy per Si atom -5590.285186 kJ/mol
# Density = 2.336176 g / cm^3
# Si number density = 23.415053 Si / 1000 Ang^3
#
#
#
# Elastic Constant Matrix: (Units=GPa)
#
#
# Indices 1 2 3 4 5 6 
#
# 1 62.9198 26.7517 6.4632 0.0000 0.0000 0.0000
# 2 26.7517 105.6660 17.4527 0.0000 0.0000 0.0000
# 3 6.4632 17.4527 115.9348 0.0000 0.0000 0.0000
# 4 0.0000 0.0000 0.0000 37.9597 0.0000 0.0000
# 5 0.0000 0.0000 0.0000 0.0000 19.9554 0.0000
# 6 0.0000 0.0000 0.0000 0.0000 0.0000 22.6238
#
#
#
# Elastic Compliance Matrix: (Units=1/GPa)
#
#
# Indices 1 2 3 4 5 6 
#
# 1 0.017822 -0.004459 -0.000322 0.000000 0.000000 0.000000
# 2 -0.004459 0.010821 -0.001380 0.000000 0.000000 0.000000
# 3 -0.000322 -0.001380 0.008851 0.000000 0.000000 0.000000
# 4 0.000000 0.000000 0.000000 0.026344 0.000000 0.000000
# 5 0.000000 0.000000 0.000000 0.000000 0.050112 0.000000
# 6 0.000000 0.000000 0.000000 0.000000 0.000000 0.044201
#
#
# Mechanical properties :
#
#
# Convention : Reuss Voigt Hill
#
# Bulk Modulus (GPa) = 39.72820 42.87285 41.30053
# Shear Modulus (GPa) = 27.95415 31.69797 29.82606
#
# Velocity S-wave (km/s) = 3.45897 3.68332 3.57290
# Velocity P-wave (km/s) = 5.74077 6.03646 5.89047
#
# Compressibility (1/GPa) = 0.02517104
#
# Stress axis : x y z
#
# Youngs Moduli (GPa) = 56.11007 92.41616 112.97769
#
# Poissons Ratio (x) = 0.41207 0.03642
# Poissons Ratio (y) = 0.25018 0.15595
# Poissons Ratio (z) = 0.01809 0.12757
#
# Static dielectric constant tensor:
#      x y z
#    x 1.912650 0.000000 0.000000 
#    y 0.000000 1.927560 0.000000 
#    z 0.000000 0.000000 1.848420 
# 
# From -- ./inp_files/945.got.cif
#   From: 2010.05.17/outbox.cif.g08.bks.cpg/sg33_1_cif.got.tgz:945.got - 2010.06.03 17:15:25.
