data_PCOD9345596
_publ_section_title
;
Structure prediction by ZEFSAII (Michael W. Deem and Ramdas Pophale) SiO2 
 PCOD9345596
Probable space group: P N A 21
;
_chemical_formula_sum "Si O2"
_cell_formula_units_Z 28
_cell_length_a 15.600400
_cell_length_b 12.440975
_cell_length_c 5.338914
_cell_angle_alpha 90.000000
_cell_angle_beta 90.000000
_cell_angle_gamma 90.000000
_cell_volume 1036.198780
_symmetry_space_group_name_H-M "P N A 21"
_symmetry_group_IT_number 33
_symmetry_cell_setting 'orthorhombic'
loop_
_space_group_symop_operation_xyz
x,y,z
-x,-y,1/2+z
1/2-x,1/2+y,1/2+z
1/2+x,1/2-y,z
loop_
_atom_site_type_symbol
_atom_site_label
_atom_site_fract_x
_atom_site_fract_y
_atom_site_fract_z
Si Si1 0.236008 0.633843 0.343570
Si Si2 0.090537 0.530786 0.589405
Si Si3 0.863831 0.154885 0.666841
Si Si4 0.750583 0.000374 0.916534
Si Si5 0.743141 0.706482 0.754004
Si Si6 0.585110 0.206469 0.539523
Si Si7 0.005304 0.241669 0.032758
O O1 0.162959 0.544282 0.378169
O O2 0.186392 0.737302 0.245191
O O3 0.257721 0.678111 0.620843
O O4 0.289750 0.582445 0.119466
O O5 0.153869 0.526848 0.828574
O O6 0.046013 0.415643 0.553240
O O7 0.036059 0.638852 0.563868
O O8 0.817785 0.039597 0.702100
O O9 0.851810 0.181106 0.368285
O O10 0.943210 0.165149 0.861383
O O11 0.742786 0.114799 0.053248
O O12 0.817498 0.691835 0.956312
O O13 0.580571 0.247279 0.824352
O O14 0.540281 0.275484 0.316541
#
# Coordination Sequence:
#
# PCOD9345596 Si02
#       7
#     4   4   4   4   4   4   4
#     4  10  22  35  66  98 133 175 245 291 357 422
#     4  11  22  40  63 102 137 181 228 290 369 448
#     4  10  23  41  64  96 136 183 241 297 360 440
#     4  11  20  39  68  97 133 183 244 303 351 434
#     4  11  23  40  68 101 140 188 246 303 365 444
#     4  12  24  43  65 100 147 187 225 295 380 454
#     4  11  28  40  66 102 146 187 227 293 380 464
#
# _framework density 27.021844999999999
#
# number of rings (size 3 to 8) (size 9 to 14) (size 15 to 20)
#    0.000    1.143    2.857    2.571   12.000    0.000 
#    0.000    0.000    0.000    0.000   11.143    0.000 
#    0.000    0.000    0.000    0.000    0.000    0.000 
#
# Total GULP energy -156028.519542 kJ/mol
# GULP energy per Si atom -5572.447127 kJ/mol
# Density = 2.696034 g / cm^3
# Si number density = 27.021845 Si / 1000 Ang^3
#
#
#
# Elastic Constant Matrix: (Units=GPa)
#
#
# Indices 1 2 3 4 5 6 
#
# 1 39.2263 -13.7154 16.8209 0.0000 0.0000 0.0000
# 2 -13.7154 77.7057 16.2259 0.0000 0.0000 0.0000
# 3 16.8209 16.2259 162.8275 0.0000 0.0000 0.0000
# 4 0.0000 0.0000 0.0000 47.9149 0.0000 0.0000
# 5 0.0000 0.0000 0.0000 0.0000 51.8722 0.0000
# 6 0.0000 0.0000 0.0000 0.0000 0.0000 33.6366
#
#
#
# Elastic Compliance Matrix: (Units=1/GPa)
#
#
# Indices 1 2 3 4 5 6 
#
# 1 0.029091 0.005885 -0.003592 0.000000 0.000000 0.000000
# 2 0.005885 0.014333 -0.002036 0.000000 0.000000 0.000000
# 3 -0.003592 -0.002036 0.006715 0.000000 0.000000 0.000000
# 4 0.000000 0.000000 0.000000 0.020870 0.000000 0.000000
# 5 0.000000 0.000000 0.000000 0.000000 0.019278 0.000000
# 6 0.000000 0.000000 0.000000 0.000000 0.000000 0.029730
#
#
# Mechanical properties :
#
#
# Convention : Reuss Voigt Hill
#
# Bulk Modulus (GPa) = 19.74228 35.38025 27.56126
# Shear Modulus (GPa) = 36.66019 44.04662 40.35340
#
# Velocity S-wave (km/s) = 3.68732 4.04175 3.86860
# Velocity P-wave (km/s) = 5.04483 5.90785 5.49331
#
# Compressibility (1/GPa) = 0.05065272
#
# Stress axis : x y z
#
# Youngs Moduli (GPa) = 34.37514 69.76947 148.91120
#
# Poissons Ratio (x) = -0.41057 0.53483
# Poissons Ratio (y) = -0.20229 0.30321
# Poissons Ratio (z) = 0.12346 0.14206
#
# Static dielectric constant tensor:
#      x y z
#    x 2.220310 0.000000 0.000000 
#    y 0.000000 2.111150 0.000000 
#    z 0.000000 0.000000 2.543160 
# 
# From -- ./inp_files/1764.got.cif
#   From: 2010.05.17/outbox.cif.g08.bks.cpg/sg33_1_cif.got.tgz:1764.got - 2010.06.03 17:15:25.
