data_PCOD9345236
_publ_section_title
;
Structure prediction by ZEFSAII (Michael W. Deem and Ramdas Pophale) SiO2 
 PCOD9345236
Probable space group: P N A 21
;
_chemical_formula_sum "Si O2"
_cell_formula_units_Z 32
_cell_length_a 10.721272
_cell_length_b 17.047978
_cell_length_c 8.894287
_cell_angle_alpha 90.000000
_cell_angle_beta 90.000000
_cell_angle_gamma 90.000000
_cell_volume 1625.662282
_symmetry_space_group_name_H-M "P N A 21"
_symmetry_group_IT_number 33
_symmetry_cell_setting 'orthorhombic'
loop_
_space_group_symop_operation_xyz
x,y,z
-x,-y,1/2+z
1/2-x,1/2+y,1/2+z
1/2+x,1/2-y,z
loop_
_atom_site_type_symbol
_atom_site_label
_atom_site_fract_x
_atom_site_fract_y
_atom_site_fract_z
Si Si1 0.569327 0.603621 0.680470
Si Si2 0.755693 0.906449 0.255238
Si Si3 0.066671 0.986236 0.959240
Si Si4 0.687313 0.231555 0.816811
Si Si5 0.770313 0.565565 0.189052
Si Si6 0.572446 0.930886 0.525471
Si Si7 0.218188 0.467044 0.027734
Si Si8 0.064914 0.742257 0.514990
O O1 0.518655 0.540539 0.560784
O O2 0.519463 0.577905 0.841693
O O3 0.717293 0.590159 0.651670
O O4 0.534932 0.690475 0.633932
O O5 0.859878 0.952658 0.351585
O O6 0.794029 0.816375 0.241360
O O7 0.634092 0.922191 0.359538
O O8 0.736812 0.947294 0.096442
O O9 0.156114 0.941214 0.074817
O O10 0.685149 0.155319 0.709951
O O11 0.812203 0.228949 0.922503
O O12 0.557709 0.233010 0.909900
O O13 0.865141 0.500541 0.121488
O O14 0.732763 0.541781 0.358497
O O15 0.426910 0.947186 0.515983
O O16 0.593487 0.842653 0.586762
#
# Coordination Sequence:
#
# PCOD9345236 Si02
#       8
#     4   4   4   4   4   4   4   4
#     4  11  21  38  64  89 127 165 219 268 326 393
#     4   9  21  38  61  88 124 166 214 266 315 387
#     4  10  22  38  62  89 123 166 211 269 324 385
#     4  11  22  39  67  94 128 175 224 264 330 391
#     4  11  22  40  62  91 128 168 219 263 328 399
#     4  10  21  37  61  89 125 170 215 259 323 386
#     4  11  20  36  61  91 121 165 211 263 323 391
#     4  11  21  40  64  95 126 177 219 272 319 398
#
# _framework density 19.684284999999999
#
# number of rings (size 3 to 8) (size 9 to 14) (size 15 to 20)
#    0.000    1.500    3.750    1.500    1.750    0.000 
#    2.250    0.000    0.000    4.500    0.000    0.000 
#    0.000    0.000    0.000    0.000    0.000    0.000 
#
# Total GULP energy -178452.192936 kJ/mol
# GULP energy per Si atom -5576.631029 kJ/mol
# Density = 1.963948 g / cm^3
# Si number density = 19.684285 Si / 1000 Ang^3
#
#
#
# Elastic Constant Matrix: (Units=GPa)
#
#
# Indices 1 2 3 4 5 6 
#
# 1 66.0433 13.2673 2.3321 0.0000 0.0000 0.0000
# 2 13.2673 169.5175 47.0266 0.0000 0.0000 0.0000
# 3 2.3321 47.0266 75.8597 0.0000 0.0000 0.0000
# 4 0.0000 0.0000 0.0000 42.4446 0.0000 0.0000
# 5 0.0000 0.0000 0.0000 0.0000 11.4718 0.0000
# 6 0.0000 0.0000 0.0000 0.0000 0.0000 20.9619
#
#
#
# Elastic Compliance Matrix: (Units=1/GPa)
#
#
# Indices 1 2 3 4 5 6 
#
# 1 0.015390 -0.001296 0.000330 0.000000 0.000000 0.000000
# 2 -0.001296 0.007233 -0.004444 0.000000 0.000000 0.000000
# 3 0.000330 -0.004444 0.015927 0.000000 0.000000 0.000000
# 4 0.000000 0.000000 0.000000 0.023560 0.000000 0.000000
# 5 0.000000 0.000000 0.000000 0.000000 0.087170 0.000000
# 6 0.000000 0.000000 0.000000 0.000000 0.000000 0.047706
#
#
# Mechanical properties :
#
#
# Convention : Reuss Voigt Hill
#
# Bulk Modulus (GPa) = 36.06105 48.51916 42.29011
# Shear Modulus (GPa) = 23.03611 31.56196 27.29904
#
# Velocity S-wave (km/s) = 3.42465 4.00860 3.72808
# Velocity P-wave (km/s) = 5.83070 6.79171 6.32947
#
# Compressibility (1/GPa) = 0.02773075
#
# Stress axis : x y z
#
# Youngs Moduli (GPa) = 64.97603 138.24666 62.78591
#
# Poissons Ratio (x) = 0.17919 -0.02074
# Poissons Ratio (y) = 0.08422 0.27904
# Poissons Ratio (z) = -0.02147 0.61441
#
# Static dielectric constant tensor:
#      x y z
#    x 1.805860 0.000000 0.000000 
#    y 0.000000 1.717120 0.000000 
#    z 0.000000 0.000000 1.677030 
# 
# From -- ./inp_files/4066.got.cif
#   From: 2010.05.17/outbox.cif.g08.bks.cpg/sg33_3_cif.got.tgz:4066.got - 2010.06.03 17:15:25.
