data_PCOD9345165
_publ_section_title
;
Structure prediction by ZEFSAII (Michael W. Deem and Ramdas Pophale) SiO2 
 PCOD9345165
Probable space group: P N A 21
;
_chemical_formula_sum "Si O2"
_cell_formula_units_Z 24
_cell_length_a 5.517215
_cell_length_b 15.582498
_cell_length_c 10.972388
_cell_angle_alpha 90.000000
_cell_angle_beta 90.000000
_cell_angle_gamma 90.000000
_cell_volume 943.318050
_symmetry_space_group_name_H-M "P N A 21"
_symmetry_group_IT_number 33
_symmetry_cell_setting 'orthorhombic'
loop_
_space_group_symop_operation_xyz
x,y,z
-x,-y,1/2+z
1/2-x,1/2+y,1/2+z
1/2+x,1/2-y,z
loop_
_atom_site_type_symbol
_atom_site_label
_atom_site_fract_x
_atom_site_fract_y
_atom_site_fract_z
Si Si1 0.499956 0.228681 0.912410
Si Si2 0.146637 0.516436 0.181349
Si Si3 0.020690 0.117150 0.091269
Si Si4 0.890444 0.464190 0.951729
Si Si5 0.735216 0.803237 0.808312
Si Si6 0.218735 0.194930 0.589362
O O1 0.246290 0.246485 0.845978
O O2 0.508743 0.130599 0.951725
O O3 0.475080 0.291268 0.029023
O O4 0.312933 0.435005 0.155337
O O5 0.055152 0.503371 0.318101
O O6 0.279939 0.608406 0.170637
O O7 0.964405 0.519252 0.067597
O O8 0.220648 0.132427 0.196063
O O9 0.111082 0.058430 0.978655
O O10 0.468314 0.761539 0.796547
O O11 0.769955 0.835626 0.946481
O O12 0.470104 0.249817 0.602729
#
# Coordination Sequence:
#
# PCOD9345165 Si02
#       6
#     4   4   4   4   4   4
#     4  10  20  44  72 111 145 199 255 316 383 468
#     4  12  29  49  77 114 158 212 268 337 403 484
#     4  11  25  43  76 110 156 200 265 318 397 476
#     4  11  28  47  76 113 156 206 260 334 401 475
#     4  10  22  41  76 108 150 199 257 320 393 475
#     4  10  26  50  75 110 155 212 263 333 407 484
#
# _framework density 25.442105999999999
#
# number of rings (size 3 to 8) (size 9 to 14) (size 15 to 20)
#    0.000    1.333    1.667    2.000    9.333    4.000 
#    0.000    0.000    0.000    0.000    0.000    0.000 
#    0.000    0.000    0.000    0.000    0.000    0.000 
#
# Total GULP energy -134208.512115 kJ/mol
# GULP energy per Si atom -5592.021338 kJ/mol
# Density = 2.538420 g / cm^3
# Si number density = 25.442106 Si / 1000 Ang^3
#
#
#
# Elastic Constant Matrix: (Units=GPa)
#
#
# Indices 1 2 3 4 5 6 
#
# 1 112.4679 33.8007 34.4214 0.0000 0.0000 0.0000
# 2 33.8007 65.5126 42.1600 0.0000 0.0000 0.0000
# 3 34.4214 42.1600 170.1131 0.0000 0.0000 0.0000
# 4 0.0000 0.0000 0.0000 49.3758 0.0000 0.0000
# 5 0.0000 0.0000 0.0000 0.0000 37.4315 0.0000
# 6 0.0000 0.0000 0.0000 0.0000 0.0000 35.3410
#
#
#
# Elastic Compliance Matrix: (Units=1/GPa)
#
#
# Indices 1 2 3 4 5 6 
#
# 1 0.010649 -0.004887 -0.000944 0.000000 0.000000 0.000000
# 2 -0.004887 0.020403 -0.004068 0.000000 0.000000 0.000000
# 3 -0.000944 -0.004068 0.007078 0.000000 0.000000 0.000000
# 4 0.000000 0.000000 0.000000 0.020253 0.000000 0.000000
# 5 0.000000 0.000000 0.000000 0.000000 0.026715 0.000000
# 6 0.000000 0.000000 0.000000 0.000000 0.000000 0.028296
#
#
# Mechanical properties :
#
#
# Convention : Reuss Voigt Hill
#
# Bulk Modulus (GPa) = 54.54620 63.20642 58.87631
# Shear Modulus (GPa) = 35.89328 40.27710 38.08519
#
# Velocity S-wave (km/s) = 3.76011 3.98312 3.87322
# Velocity P-wave (km/s) = 6.35115 6.78608 6.57221
#
# Compressibility (1/GPa) = 0.01833308
#
# Stress axis : x y z
#
# Youngs Moduli (GPa) = 93.90605 49.01128 141.29235
#
# Poissons Ratio (x) = 0.23952 0.13332
# Poissons Ratio (y) = 0.45892 0.57475
# Poissons Ratio (z) = 0.08861 0.19937
#
# Static dielectric constant tensor:
#      x y z
#    x 2.115590 0.000000 0.000000 
#    y 0.000000 1.980380 0.000000 
#    z 0.000000 0.000000 2.047380 
# 
# From -- ./inp_files/5438.got.cif
#   From: 2010.05.17/outbox.cif.g08.bks.cpg/sg33_3_cif.got.tgz:5438.got - 2010.06.03 17:15:25.
