data_PCOD9345896
_publ_section_title
;
Structure prediction by ZEFSAII (Michael W. Deem and Ramdas Pophale) SiO2 
 PCOD9345896
Probable space group: P N A 21
;
_chemical_formula_sum "Si O2"
_cell_formula_units_Z 28
_cell_length_a 11.998364
_cell_length_b 14.628991
_cell_length_c 6.884593
_cell_angle_alpha 90.000000
_cell_angle_beta 90.000000
_cell_angle_gamma 90.000000
_cell_volume 1208.411019
_symmetry_space_group_name_H-M "P N A 21"
_symmetry_group_IT_number 33
_symmetry_cell_setting 'orthorhombic'
loop_
_space_group_symop_operation_xyz
x,y,z
-x,-y,1/2+z
1/2-x,1/2+y,1/2+z
1/2+x,1/2-y,z
loop_
_atom_site_type_symbol
_atom_site_label
_atom_site_fract_x
_atom_site_fract_y
_atom_site_fract_z
Si Si1 0.551814 0.790718 0.480470
Si Si2 0.341697 0.320882 0.317972
Si Si3 0.283208 0.082716 0.747652
Si Si4 0.396952 0.888093 0.782468
Si Si5 0.490070 0.757628 0.069492
Si Si6 0.629940 0.424696 0.420277
Si Si7 0.409071 0.518606 0.486085
O O1 0.591475 0.711981 0.627921
O O2 0.652854 0.839546 0.366369
O O3 0.482591 0.861644 0.612487
O O4 0.481834 0.753002 0.299352
O O5 0.213660 0.325854 0.259673
O O6 0.383875 0.254114 0.488567
O O7 0.368402 0.418742 0.414315
O O8 0.250211 0.076298 0.520634
O O9 0.356127 0.991682 0.785345
O O10 0.157427 0.079827 0.834059
O O11 0.447662 0.853622 0.986167
O O12 0.424303 0.674168 0.967053
O O13 0.542300 0.503645 0.492639
O O14 0.633348 0.447481 0.193381
#
# Coordination Sequence:
#
# PCOD9345896 Si02
#       7
#     4   4   4   4   4   4   4
#     4  11  26  44  72 102 144 195 247 299 369 441
#     4   9  23  45  68 100 136 182 239 301 365 428
#     4  11  26  42  72 104 142 192 245 301 370 432
#     4  10  25  46  66  99 141 191 240 300 357 440
#     4  10  25  42  69 100 144 186 241 300 369 438
#     4  11  23  41  72 108 139 186 238 307 372 436
#     4  10  22  44  69 101 142 176 236 304 364 435
#
# _framework density 23.170923999999999
#
# number of rings (size 3 to 8) (size 9 to 14) (size 15 to 20)
#    0.000    1.714    1.429    0.000    8.000   10.286 
#    0.000    0.000    0.000    0.000    0.000    0.000 
#    0.000    0.000    0.000    0.000    0.000    0.000 
#
# Total GULP energy -156242.278111 kJ/mol
# GULP energy per Si atom -5580.081361 kJ/mol
# Density = 2.311819 g / cm^3
# Si number density = 23.170924 Si / 1000 Ang^3
#
#
#
# Elastic Constant Matrix: (Units=GPa)
#
#
# Indices 1 2 3 4 5 6 
#
# 1 50.6731 21.0280 -2.3193 0.0000 0.0000 0.0000
# 2 21.0280 79.2267 18.8185 0.0000 0.0000 0.0000
# 3 -2.3193 18.8185 123.5439 0.0000 0.0000 0.0000
# 4 0.0000 0.0000 0.0000 24.2628 0.0000 0.0000
# 5 0.0000 0.0000 0.0000 0.0000 22.1128 0.0000
# 6 0.0000 0.0000 0.0000 0.0000 0.0000 26.8531
#
#
#
# Elastic Compliance Matrix: (Units=1/GPa)
#
#
# Indices 1 2 3 4 5 6 
#
# 1 0.022400 -0.006272 0.001376 0.000000 0.000000 0.000000
# 2 -0.006272 0.014852 -0.002380 0.000000 0.000000 0.000000
# 3 0.001376 -0.002380 0.008483 0.000000 0.000000 0.000000
# 4 0.000000 0.000000 0.000000 0.041215 0.000000 0.000000
# 5 0.000000 0.000000 0.000000 0.000000 0.045223 0.000000
# 6 0.000000 0.000000 0.000000 0.000000 0.000000 0.037240
#
#
# Mechanical properties :
#
#
# Convention : Reuss Voigt Hill
#
# Bulk Modulus (GPa) = 32.06955 36.49979 34.28467
# Shear Modulus (GPa) = 25.72559 29.04018 27.38289
#
# Velocity S-wave (km/s) = 3.33566 3.54404 3.44143
# Velocity P-wave (km/s) = 5.35780 5.70382 5.53351
#
# Compressibility (1/GPa) = 0.03118223
#
# Stress axis : x y z
#
# Youngs Moduli (GPa) = 44.64268 67.33076 117.88761
#
# Poissons Ratio (x) = 0.42231 -0.16220
# Poissons Ratio (y) = 0.28001 0.28058
# Poissons Ratio (z) = -0.06142 0.16025
#
# Static dielectric constant tensor:
#      x y z
#    x 1.953620 0.000000 0.000000 
#    y 0.000000 1.892460 0.000000 
#    z 0.000000 0.000000 1.888020 
# 
# From -- ./inp_files/906.got.cif
#   From: 2010.05.17/outbox.cif.g08.bks.cpg/sg33_1_cif.got.tgz:906.got - 2010.06.03 17:15:25.
