data_PCOD9345247
_publ_section_title
;
Structure prediction by ZEFSAII (Michael W. Deem and Ramdas Pophale) SiO2 
 PCOD9345247
Probable space group: P N A 21
;
_chemical_formula_sum "Si O2"
_cell_formula_units_Z 32
_cell_length_a 14.601956
_cell_length_b 19.355486
_cell_length_c 5.106049
_cell_angle_alpha 90.000000
_cell_angle_beta 90.000000
_cell_angle_gamma 90.000000
_cell_volume 1443.112187
_symmetry_space_group_name_H-M "P N A 21"
_symmetry_group_IT_number 33
_symmetry_cell_setting 'orthorhombic'
loop_
_space_group_symop_operation_xyz
x,y,z
-x,-y,1/2+z
1/2-x,1/2+y,1/2+z
1/2+x,1/2-y,z
loop_
_atom_site_type_symbol
_atom_site_label
_atom_site_fract_x
_atom_site_fract_y
_atom_site_fract_z
Si Si1 0.594995 0.058093 0.090890
Si Si2 0.887099 0.467663 0.089282
Si Si3 0.744503 0.845767 0.735412
Si Si4 0.593512 0.661629 0.496665
Si Si5 0.788690 0.258592 0.716095
Si Si6 0.561466 0.395333 0.267857
Si Si7 0.755345 0.639179 0.877683
Si Si8 0.106418 0.953905 0.108295
O O1 0.486217 0.069471 0.118761
O O2 0.659935 0.118798 0.196402
O O3 0.616464 0.996094 0.294902
O O4 0.614135 0.031002 0.797853
O O5 0.807200 0.415154 0.154861
O O6 0.747470 0.798727 0.472634
O O7 0.844140 0.862555 0.855463
O O8 0.694238 0.809890 0.977209
O O9 0.617373 0.718393 0.284018
O O10 0.491382 0.661340 0.597199
O O11 0.673012 0.671674 0.707592
O O12 0.607665 0.583401 0.389763
O O13 0.725871 0.195372 0.604113
O O14 0.482668 0.420340 0.468191
O O15 0.591116 0.464958 0.116103
O O16 0.702227 0.571089 0.984966
#
# Coordination Sequence:
#
# PCOD9345247 Si02
#       8
#     4   4   4   4   4   4   4   4
#     4  10  22  41  70  97 127 159 221 275 343 396
#     4  10  23  43  64 100 130 162 210 285 339 391
#     4  12  26  43  68  96 139 180 225 274 331 399
#     4  10  22  44  65  92 134 177 216 277 328 401
#     4  11  25  47  61  92 133 183 233 261 310 405
#     4  11  23  38  67 105 136 173 216 283 350 418
#     4  10  22  41  70  91 129 179 218 278 323 397
#     4  10  21  37  65 103 136 163 217 273 360 409
#
# _framework density 22.174299000000001
#
# number of rings (size 3 to 8) (size 9 to 14) (size 15 to 20)
#    0.000    1.500    2.500    1.500    7.000    0.000 
#    4.500    0.000    0.000    0.000    0.000    0.000 
#    0.000    0.000    0.000    0.000    0.000    0.000 
#
# Total GULP energy -178631.158712 kJ/mol
# GULP energy per Si atom -5582.223710 kJ/mol
# Density = 2.212383 g / cm^3
# Si number density = 22.174299 Si / 1000 Ang^3
#
#
#
# Elastic Constant Matrix: (Units=GPa)
#
#
# Indices 1 2 3 4 5 6 
#
# 1 72.1447 7.0837 -2.6846 0.0000 0.0000 0.0000
# 2 7.0837 40.4718 5.8891 0.0000 0.0000 0.0000
# 3 -2.6846 5.8891 70.1950 0.0000 0.0000 0.0000
# 4 0.0000 0.0000 0.0000 27.6127 0.0000 0.0000
# 5 0.0000 0.0000 0.0000 0.0000 23.2104 0.0000
# 6 0.0000 0.0000 0.0000 0.0000 0.0000 7.1593
#
#
#
# Elastic Compliance Matrix: (Units=1/GPa)
#
#
# Indices 1 2 3 4 5 6 
#
# 1 0.014143 -0.002586 0.000758 0.000000 0.000000 0.000000
# 2 -0.002586 0.025487 -0.002237 0.000000 0.000000 0.000000
# 3 0.000758 -0.002237 0.014463 0.000000 0.000000 0.000000
# 4 0.000000 0.000000 0.000000 0.036215 0.000000 0.000000
# 5 0.000000 0.000000 0.000000 0.000000 0.043084 0.000000
# 6 0.000000 0.000000 0.000000 0.000000 0.000000 0.139678
#
#
# Mechanical properties :
#
#
# Convention : Reuss Voigt Hill
#
# Bulk Modulus (GPa) = 21.75689 22.59865 22.17777
# Shear Modulus (GPa) = 16.86225 23.09805 19.98015
#
# Velocity S-wave (km/s) = 2.76060 3.23098 3.00501
# Velocity P-wave (km/s) = 4.47150 4.91248 4.69716
#
# Compressibility (1/GPa) = 0.04596246
#
# Stress axis : x y z
#
# Youngs Moduli (GPa) = 70.70576 39.23622 69.14336
#
# Poissons Ratio (x) = 0.10145 -0.05240
# Poissons Ratio (y) = 0.18283 0.15468
# Poissons Ratio (z) = -0.05358 0.08778
#
# Static dielectric constant tensor:
#      x y z
#    x 1.780070 0.000000 0.000000 
#    y 0.000000 1.844320 0.000000 
#    z 0.000000 0.000000 1.886960 
# 
# From -- ./inp_files/1524.got.cif
#   From: 2010.05.17/outbox.cif.g08.bks.cpg/sg33_1_cif.got.tgz:1524.got - 2010.06.03 17:15:25.
