data_PCOD9345115
_publ_section_title
;
Structure prediction by ZEFSAII (Michael W. Deem and Ramdas Pophale) SiO2 
 PCOD9345115
Probable space group: P N A 21
;
_chemical_formula_sum "Si O2"
_cell_formula_units_Z 32
_cell_length_a 32.481576
_cell_length_b 5.304141
_cell_length_c 8.740522
_cell_angle_alpha 90.000000
_cell_angle_beta 90.000000
_cell_angle_gamma 90.000000
_cell_volume 1505.877081
_symmetry_space_group_name_H-M "P N A 21"
_symmetry_group_IT_number 33
_symmetry_cell_setting 'orthorhombic'
loop_
_space_group_symop_operation_xyz
x,y,z
-x,-y,1/2+z
1/2-x,1/2+y,1/2+z
1/2+x,1/2-y,z
loop_
_atom_site_type_symbol
_atom_site_label
_atom_site_fract_x
_atom_site_fract_y
_atom_site_fract_z
Si Si1 0.224121 0.571909 0.968820
Si Si2 0.560161 0.533072 0.492140
Si Si3 0.977218 0.531867 0.139723
Si Si4 0.435299 0.721044 0.411146
Si Si5 0.626677 0.583512 0.704523
Si Si6 0.944107 0.169820 0.643116
Si Si7 0.281247 0.572537 0.265165
Si Si8 0.130223 0.587574 0.991237
O O1 0.227612 0.326393 0.860545
O O2 0.177442 0.569184 0.034567
O O3 0.228539 0.826995 0.869057
O O4 0.255614 0.566157 0.108890
O O5 0.544363 0.255977 0.541410
O O6 0.608503 0.589057 0.534364
O O7 0.553425 0.563903 0.312325
O O8 0.537519 0.763229 0.580441
O O9 0.961912 0.581208 0.314005
O O10 0.025860 0.588554 0.136079
O O11 0.410726 0.560444 0.285769
O O12 0.459589 0.529196 0.517135
O O13 0.397593 0.841930 0.503477
O O14 0.670164 0.446648 0.724326
O O15 0.630155 0.833151 0.810281
O O16 0.897346 0.223422 0.591041
#
# Coordination Sequence:
#
# PCOD9345115 Si02
#       8
#     4   4   4   4   4   4   4   4
#     4  11  24  44  70 101 135 174 217 273 328 403
#     4  11  25  42  62  97 125 169 218 284 318 379
#     4  11  25  42  64  88 134 170 223 265 337 385
#     4  10  20  42  63  87 124 179 210 260 324 393
#     4   9  20  41  66  88 127 174 215 254 328 403
#     4  11  26  37  64  97 127 169 224 281 318 382
#     4  11  23  43  69 101 134 171 222 266 333 396
#     4  10  21  41  66  89 130 176 215 255 334 397
#
# _framework density 21.250071999999999
#
# number of rings (size 3 to 8) (size 9 to 14) (size 15 to 20)
#    0.000    1.500    2.500    1.500    5.250    1.000 
#    2.250    0.000    0.000    0.000    0.000    0.000 
#    0.000    0.000    0.000    0.000    0.000    0.000 
#
# Total GULP energy -178701.358784 kJ/mol
# GULP energy per Si atom -5584.417462 kJ/mol
# Density = 2.120171 g / cm^3
# Si number density = 21.250072 Si / 1000 Ang^3
#
#
#
# Elastic Constant Matrix: (Units=GPa)
#
#
# Indices 1 2 3 4 5 6 
#
# 1 109.4252 40.5517 59.9267 0.0000 0.0000 0.0000
# 2 40.5517 111.0159 25.7819 0.0000 0.0000 0.0000
# 3 59.9267 25.7819 96.4032 0.0000 0.0000 0.0000
# 4 0.0000 0.0000 0.0000 25.4143 0.0000 0.0000
# 5 0.0000 0.0000 0.0000 0.0000 27.9586 0.0000
# 6 0.0000 0.0000 0.0000 0.0000 0.0000 24.4006
#
#
#
# Elastic Compliance Matrix: (Units=1/GPa)
#
#
# Indices 1 2 3 4 5 6 
#
# 1 0.015061 -0.003548 -0.008414 0.000000 0.000000 0.000000
# 2 -0.003548 0.010440 -0.000587 0.000000 0.000000 0.000000
# 3 -0.008414 -0.000587 0.015760 0.000000 0.000000 0.000000
# 4 0.000000 0.000000 0.000000 0.039348 0.000000 0.000000
# 5 0.000000 0.000000 0.000000 0.000000 0.035767 0.000000
# 6 0.000000 0.000000 0.000000 0.000000 0.000000 0.040983
#
#
# Mechanical properties :
#
#
# Convention : Reuss Voigt Hill
#
# Bulk Modulus (GPa) = 61.86123 63.26277 62.56200
# Shear Modulus (GPa) = 26.61800 28.26031 27.43915
#
# Velocity S-wave (km/s) = 3.54306 3.65072 3.59729
# Velocity P-wave (km/s) = 6.77584 6.89968 6.83804
#
# Compressibility (1/GPa) = 0.01616521
#
# Stress axis : x y z
#
# Youngs Moduli (GPa) = 66.39645 95.78707 63.45121
#
# Poissons Ratio (x) = 0.33981 0.53385
# Poissons Ratio (y) = 0.23554 0.03723
# Poissons Ratio (z) = 0.55863 0.05621
#
# Static dielectric constant tensor:
#      x y z
#    x 1.762740 0.000000 0.000000 
#    y 0.000000 1.805230 0.000000 
#    z 0.000000 0.000000 1.821850 
# 
# From -- ./inp_files/5299.got.cif
#   From: 2010.05.17/outbox.cif.g08.bks.cpg/sg33_3_cif.got.tgz:5299.got - 2010.06.03 17:15:25.
