data_PCOD9345454
_publ_section_title
;
Structure prediction by ZEFSAII (Michael W. Deem and Ramdas Pophale) SiO2 
 PCOD9345454
Probable space group: P N A 21
;
_chemical_formula_sum "Si O2"
_cell_formula_units_Z 28
_cell_length_a 13.612172
_cell_length_b 8.974211
_cell_length_c 10.583784
_cell_angle_alpha 90.000000
_cell_angle_beta 90.000000
_cell_angle_gamma 90.000000
_cell_volume 1292.899217
_symmetry_space_group_name_H-M "P N A 21"
_symmetry_group_IT_number 33
_symmetry_cell_setting 'orthorhombic'
loop_
_space_group_symop_operation_xyz
x,y,z
-x,-y,1/2+z
1/2-x,1/2+y,1/2+z
1/2+x,1/2-y,z
loop_
_atom_site_type_symbol
_atom_site_label
_atom_site_fract_x
_atom_site_fract_y
_atom_site_fract_z
Si Si1 0.679303 0.456317 0.501970
Si Si2 0.564919 0.151698 0.523504
Si Si3 0.672384 0.492321 0.789497
Si Si4 0.633709 0.794007 0.901701
Si Si5 0.521096 0.670909 0.392663
Si Si6 0.480892 0.131562 0.146621
Si Si7 0.883810 0.447979 0.784206
O O1 0.631024 0.295826 0.531591
O O2 0.674280 0.533883 0.640222
O O3 0.784387 0.416992 0.438158
O O4 0.607162 0.549384 0.411232
O O5 0.451718 0.203642 0.506540
O O6 0.578829 0.022204 0.625000
O O7 0.589151 0.054612 0.400178
O O8 0.685093 0.635263 0.880100
O O9 0.576337 0.407869 0.839496
O O10 0.772057 0.398067 0.796976
O O11 0.571755 0.805140 0.770546
O O12 0.512086 0.756678 0.528473
O O13 0.551478 0.800868 0.296561
O O14 0.588836 0.061126 0.171735
#
# Coordination Sequence:
#
# PCOD9345454 Si02
#       7
#     4   4   4   4   4   4   4
#     4  12  24  41  70 101 141 180 237 297 354 426
#     4  10  21  41  65  94 136 176 227 284 352 415
#     4  12  24  43  68 104 140 184 238 293 360 428
#     4  11  23  43  69 101 141 187 232 292 360 426
#     4  11  25  44  70 105 142 182 247 295 354 432
#     4  10  22  46  68  97 137 192 233 293 353 423
#     4  10  23  42  66  96 135 181 230 288 357 418
#
# _framework density 21.656755
#
# number of rings (size 3 to 8) (size 9 to 14) (size 15 to 20)
#    0.000    1.143    4.286    1.714    0.000    5.714 
#    0.000    0.000    0.000    0.000    0.000    0.000 
#    0.000    0.000    0.000    0.000    0.000    0.000 
#
# Total GULP energy -156002.549420 kJ/mol
# GULP energy per Si atom -5571.519622 kJ/mol
# Density = 2.160746 g / cm^3
# Si number density = 21.656755 Si / 1000 Ang^3
#
#
#
# Elastic Constant Matrix: (Units=GPa)
#
#
# Indices 1 2 3 4 5 6 
#
# 1 127.6054 14.7413 27.7759 0.0000 0.0000 0.0000
# 2 14.7413 44.1558 13.0953 0.0000 0.0000 0.0000
# 3 27.7759 13.0953 68.3993 0.0000 0.0000 0.0000
# 4 0.0000 0.0000 0.0000 21.0133 0.0000 0.0000
# 5 0.0000 0.0000 0.0000 0.0000 19.3961 0.0000
# 6 0.0000 0.0000 0.0000 0.0000 0.0000 28.1563
#
#
#
# Elastic Compliance Matrix: (Units=1/GPa)
#
#
# Indices 1 2 3 4 5 6 
#
# 1 0.008757 -0.001981 -0.003177 0.000000 0.000000 0.000000
# 2 -0.001981 0.024459 -0.003878 0.000000 0.000000 0.000000
# 3 -0.003177 -0.003878 0.016653 0.000000 0.000000 0.000000
# 4 0.000000 0.000000 0.000000 0.047589 0.000000 0.000000
# 5 0.000000 0.000000 0.000000 0.000000 0.051557 0.000000
# 6 0.000000 0.000000 0.000000 0.000000 0.000000 0.035516
#
#
# Mechanical properties :
#
#
# Convention : Reuss Voigt Hill
#
# Bulk Modulus (GPa) = 31.45070 39.04284 35.24677
# Shear Modulus (GPa) = 23.45203 26.01633 24.73418
#
# Velocity S-wave (km/s) = 3.29431 3.46974 3.38316
# Velocity P-wave (km/s) = 5.38738 5.84117 5.61886
#
# Compressibility (1/GPa) = 0.03179579
#
# Stress axis : x y z
#
# Youngs Moduli (GPa) = 114.19385 40.88527 60.05086
#
# Poissons Ratio (x) = 0.08101 0.19077
# Poissons Ratio (y) = 0.22626 0.23288
# Poissons Ratio (z) = 0.36277 0.15856
#
# Static dielectric constant tensor:
#      x y z
#    x 1.874510 0.000000 0.000000 
#    y 0.000000 1.772230 0.000000 
#    z 0.000000 0.000000 1.862750 
# 
# From -- ./inp_files/6338.got.cif
#   From: 2010.05.17/outbox.cif.g08.bks.cpg/sg33_4_cif.got.tgz:6338.got - 2010.06.03 17:15:25.
