data_PCOD9345695
_publ_section_title
;
Structure prediction by ZEFSAII (Michael W. Deem and Ramdas Pophale) SiO2 
 PCOD9345695
Probable space group: P N A 21
;
_chemical_formula_sum "Si O2"
_cell_formula_units_Z 28
_cell_length_a 11.668118
_cell_length_b 18.631980
_cell_length_c 5.270118
_cell_angle_alpha 90.000000
_cell_angle_beta 90.000000
_cell_angle_gamma 90.000000
_cell_volume 1145.724397
_symmetry_space_group_name_H-M "P N A 21"
_symmetry_group_IT_number 33
_symmetry_cell_setting 'orthorhombic'
loop_
_space_group_symop_operation_xyz
x,y,z
-x,-y,1/2+z
1/2-x,1/2+y,1/2+z
1/2+x,1/2-y,z
loop_
_atom_site_type_symbol
_atom_site_label
_atom_site_fract_x
_atom_site_fract_y
_atom_site_fract_z
Si Si1 0.568195 0.382965 0.272150
Si Si2 0.023560 0.390168 0.007965
Si Si3 0.120024 0.992715 0.607443
Si Si4 0.345543 0.013569 0.730008
Si Si5 0.243596 0.867788 0.336868
Si Si6 0.179776 0.642405 0.820274
Si Si7 0.645368 0.703486 0.848364
O O1 0.584927 0.427706 0.531506
O O2 0.697141 0.366699 0.185402
O O3 0.489425 0.313587 0.308638
O O4 0.489080 0.441604 0.129557
O O5 0.118007 0.360472 0.815717
O O6 0.939137 0.450911 0.905625
O O7 0.106354 0.433811 0.193494
O O8 0.929978 0.341799 0.142029
O O9 0.200300 0.948380 0.408862
O O10 0.215444 0.004030 0.824375
O O11 0.341317 0.072374 0.496440
O O12 0.203413 0.818688 0.578346
O O13 0.185408 0.848401 0.073742
O O14 0.183452 0.719138 0.955738
#
# Coordination Sequence:
#
# PCOD9345695 Si02
#       7
#     4   4   4   4   4   4   4
#     4  10  22  42  70  97 145 176 242 290 354 416
#     4  11  23  41  71 100 142 181 233 302 359 425
#     4   9  20  40  67 106 126 187 228 297 342 410
#     4  10  22  40  65 103 132 178 233 293 355 418
#     4  10  25  45  73  99 141 186 239 286 358 420
#     4  11  26  42  65 104 137 187 236 289 363 429
#     4  11  26  48  67 103 139 195 235 289 353 432
#
# _framework density 24.438685
#
# number of rings (size 3 to 8) (size 9 to 14) (size 15 to 20)
#    0.000    1.714    1.429    0.857    8.000    1.143 
#    2.571    0.000    0.000    0.000    0.000    0.000 
#    0.000    0.000    0.000    0.000    0.000    0.000 
#
# Total GULP energy -156017.144056 kJ/mol
# GULP energy per Si atom -5572.040859 kJ/mol
# Density = 2.438306 g / cm^3
# Si number density = 24.438685 Si / 1000 Ang^3
#
#
#
# Elastic Constant Matrix: (Units=GPa)
#
#
# Indices 1 2 3 4 5 6 
#
# 1 33.0373 154.0082 20.4508 0.0000 0.0000 0.0000
# 2 154.0082 -24.4840 -8.5686 0.0000 0.0000 0.0000
# 3 20.4508 -8.5686 45.5385 0.0000 0.0000 0.0000
# 4 0.0000 0.0000 0.0000 24.2541 0.0000 0.0000
# 5 0.0000 0.0000 0.0000 0.0000 17.4339 0.0000
# 6 0.0000 0.0000 0.0000 0.0000 0.0000 32.0048
#
#
#
# Elastic Compliance Matrix: (Units=1/GPa)
#
#
# Indices 1 2 3 4 5 6 
#
# 1 0.001022 0.006180 0.000704 0.000000 0.000000 0.000000
# 2 0.006180 -0.000934 -0.002951 0.000000 0.000000 0.000000
# 3 0.000704 -0.002951 0.021088 0.000000 0.000000 0.000000
# 4 0.000000 0.000000 0.000000 0.041230 0.000000 0.000000
# 5 0.000000 0.000000 0.000000 0.000000 0.057359 0.000000
# 6 0.000000 0.000000 0.000000 0.000000 0.000000 0.031245
#
#
# Mechanical properties :
#
#
# Convention : Reuss Voigt Hill
#
# Bulk Modulus (GPa) = 34.43258 42.87475 38.65366
# Shear Modulus (GPa) = 32.71719 7.28533 20.00126
#
# Velocity S-wave (km/s) = 3.66286 1.72845 2.86392
# Velocity P-wave (km/s) = 5.65762 4.64384 5.17561
#
# Compressibility (1/GPa) = 0.02904226
#
# Stress axis : x y z
#
# Youngs Moduli (GPa) = 978.72693 -1070.76844 47.42047
#
# Poissons Ratio (x) = 6.61787 -0.03339
# Poissons Ratio (y) = -6.04901 0.13995
# Poissons Ratio (z) = -0.68910 -3.16017
#
# Static dielectric constant tensor:
#      x y z
#    x 1.987010 0.000000 0.000000 
#    y 0.000000 2.078260 0.000000 
#    z 0.000000 0.000000 2.080340 
# 
# From -- ./inp_files/927.got.cif
#   From: 2010.05.17/outbox.cif.g08.bks.cpg/sg33_1_cif.got.tgz:927.got - 2010.06.03 17:15:25.
