data_PCOD9345469
_publ_section_title
;
Structure prediction by ZEFSAII (Michael W. Deem and Ramdas Pophale) SiO2 
 PCOD9345469
Probable space group: P N A 21
;
_chemical_formula_sum "Si O2"
_cell_formula_units_Z 32
_cell_length_a 14.232674
_cell_length_b 6.730851
_cell_length_c 13.851865
_cell_angle_alpha 90.000000
_cell_angle_beta 90.000000
_cell_angle_gamma 90.000000
_cell_volume 1326.981074
_symmetry_space_group_name_H-M "P N A 21"
_symmetry_group_IT_number 33
_symmetry_cell_setting 'orthorhombic'
loop_
_space_group_symop_operation_xyz
x,y,z
-x,-y,1/2+z
1/2-x,1/2+y,1/2+z
1/2+x,1/2-y,z
loop_
_atom_site_type_symbol
_atom_site_label
_atom_site_fract_x
_atom_site_fract_y
_atom_site_fract_z
Si Si1 0.320415 0.113257 0.519110
Si Si2 0.990230 0.627143 0.809755
Si Si3 0.965756 0.050229 0.552873
Si Si4 0.745033 0.321413 0.732530
Si Si5 0.362691 0.548363 0.744900
Si Si6 0.794897 0.235200 0.320222
Si Si7 0.005473 0.641495 0.491289
Si Si8 0.428494 0.898927 0.150124
O O1 0.379763 0.319356 0.515354
O O2 0.268175 0.109382 0.621923
O O3 0.265111 0.144259 0.418222
O O4 0.399190 0.940343 0.514646
O O5 0.095589 0.715268 0.808410
O O6 0.971683 0.479781 0.896546
O O7 0.987474 0.487755 0.715377
O O8 0.921576 0.812738 0.815722
O O9 0.926860 0.950332 0.650158
O O10 0.000683 0.876926 0.484495
O O11 0.041341 0.210799 0.586199
O O12 0.725521 0.501536 0.805853
O O13 0.652183 0.184886 0.719165
O O14 0.829207 0.175131 0.764874
O O15 0.265905 0.668424 0.734250
O O16 0.080944 0.575193 0.572447
#
# Coordination Sequence:
#
# PCOD9345469 Si02
#       8
#     4   4   4   4   4   4   4   4
#     4   9  23  41  64  96 136 174 230 292 342 431
#     4  11  24  44  71  99 147 185 241 302 360 431
#     4  10  21  41  67  91 136 181 228 281 358 415
#     4  11  24  41  68  99 138 184 234 291 361 429
#     4  11  23  42  67  98 134 185 234 288 356 428
#     4  11  24  44  67 101 137 184 236 293 358 433
#     4  10  22  43  67  95 133 186 228 289 355 424
#     4  11  23  42  65 103 135 179 235 288 354 429
#
# _framework density 24.114889000000002
#
# number of rings (size 3 to 8) (size 9 to 14) (size 15 to 20)
#    0.000    1.500    2.500    1.500    7.000    0.000 
#    2.250    0.000    0.000    0.000    0.000    0.000 
#    0.000    0.000    0.000    0.000    0.000    0.000 
#
# Total GULP energy -178679.700904 kJ/mol
# GULP energy per Si atom -5583.740653 kJ/mol
# Density = 2.406000 g / cm^3
# Si number density = 24.114889 Si / 1000 Ang^3
#
#
#
# Elastic Constant Matrix: (Units=GPa)
#
#
# Indices 1 2 3 4 5 6 
#
# 1 51.9777 14.1533 -1.8763 0.0000 0.0000 0.0000
# 2 14.1533 118.6291 22.8704 0.0000 0.0000 0.0000
# 3 -1.8763 22.8704 54.0679 0.0000 0.0000 0.0000
# 4 0.0000 0.0000 0.0000 44.8037 0.0000 0.0000
# 5 0.0000 0.0000 0.0000 0.0000 28.2948 0.0000
# 6 0.0000 0.0000 0.0000 0.0000 0.0000 25.7788
#
#
#
# Elastic Compliance Matrix: (Units=1/GPa)
#
#
# Indices 1 2 3 4 5 6 
#
# 1 0.020055 -0.002751 0.001860 0.000000 0.000000 0.000000
# 2 -0.002751 0.009556 -0.004137 0.000000 0.000000 0.000000
# 3 0.001860 -0.004137 0.020310 0.000000 0.000000 0.000000
# 4 0.000000 0.000000 0.000000 0.022320 0.000000 0.000000
# 5 0.000000 0.000000 0.000000 0.000000 0.035342 0.000000
# 6 0.000000 0.000000 0.000000 0.000000 0.000000 0.038792
#
#
# Mechanical properties :
#
#
# Convention : Reuss Voigt Hill
#
# Bulk Modulus (GPa) = 25.08600 32.77438 28.93019
# Shear Modulus (GPa) = 29.46037 32.41062 30.93549
#
# Velocity S-wave (km/s) = 3.49903 3.67005 3.58556
# Velocity P-wave (km/s) = 5.17200 5.61956 5.40042
#
# Compressibility (1/GPa) = 0.03986287
#
# Stress axis : x y z
#
# Youngs Moduli (GPa) = 49.86207 104.65144 49.23706
#
# Poissons Ratio (x) = 0.28793 -0.09157
# Poissons Ratio (y) = 0.13718 0.20371
# Poissons Ratio (z) = -0.09273 0.43299
#
# Static dielectric constant tensor:
#      x y z
#    x 1.977740 0.000000 0.000000 
#    y 0.000000 1.925060 0.000000 
#    z 0.000000 0.000000 2.048990 
# 
# From -- ./inp_files/8264.got.cif
#   From: 2010.05.17/outbox.cif.g08.bks.cpg/sg33_5_cif.got.tgz:8264.got - 2010.06.03 17:15:25.
