data_PCOD9345367
_publ_section_title
;
Structure prediction by ZEFSAII (Michael W. Deem and Ramdas Pophale) SiO2 
 PCOD9345367
Probable space group: P N A 21
;
_chemical_formula_sum "Si O2"
_cell_formula_units_Z 28
_cell_length_a 9.973807
_cell_length_b 12.562371
_cell_length_c 10.558455
_cell_angle_alpha 90.000000
_cell_angle_beta 90.000000
_cell_angle_gamma 90.000000
_cell_volume 1322.918070
_symmetry_space_group_name_H-M "P N A 21"
_symmetry_group_IT_number 33
_symmetry_cell_setting 'orthorhombic'
loop_
_space_group_symop_operation_xyz
x,y,z
-x,-y,1/2+z
1/2-x,1/2+y,1/2+z
1/2+x,1/2-y,z
loop_
_atom_site_type_symbol
_atom_site_label
_atom_site_fract_x
_atom_site_fract_y
_atom_site_fract_z
Si Si1 0.529992 0.705800 0.158830
Si Si2 0.399685 0.048419 0.683952
Si Si3 0.220650 0.954496 0.034229
Si Si4 0.085930 0.282532 0.411753
Si Si5 0.898461 0.456886 0.393645
Si Si6 0.601753 0.474537 0.784496
Si Si7 0.161525 0.097049 0.242892
O O1 0.578538 0.824542 0.181886
O O2 0.656623 0.632379 0.127081
O O3 0.449284 0.646030 0.267835
O O4 0.434626 0.708436 0.034287
O O5 0.420562 0.009253 0.539148
O O6 0.249088 0.018938 0.723892
O O7 0.507230 0.009554 0.787558
O O8 0.244879 0.060500 0.118141
O O9 0.332028 0.885885 0.959794
O O10 0.116442 0.990101 0.928297
O O11 0.144418 0.217283 0.294086
O O12 0.939528 0.331586 0.384442
O O13 0.743913 0.463429 0.353619
O O14 0.487839 0.550366 0.725519
#
# Coordination Sequence:
#
# PCOD9345367 Si02
#       7
#     4   4   4   4   4   4   4
#     4  10  21  39  69  93 129 181 231 277 355 428
#     4  11  24  44  71 100 139 185 236 293 356 419
#     4  11  22  41  65  98 136 178 234 292 349 426
#     4  11  20  42  69  94 133 185 234 283 359 425
#     4  11  24  41  69 102 135 182 237 293 350 424
#     4  11  23  42  66 103 137 178 233 298 350 425
#     4  11  24  39  69 102 135 185 241 292 359 429
#
# _framework density 21.165330999999998
#
# number of rings (size 3 to 8) (size 9 to 14) (size 15 to 20)
#    0.000    1.143    2.857    5.143    2.000    1.143 
#    2.571    0.000    0.000    0.000    0.000    0.000 
#    0.000    0.000    0.000    0.000    0.000    0.000 
#
# Total GULP energy -156063.341319 kJ/mol
# GULP energy per Si atom -5573.690761 kJ/mol
# Density = 2.111716 g / cm^3
# Si number density = 21.165331 Si / 1000 Ang^3
#
#
#
# Elastic Constant Matrix: (Units=GPa)
#
#
# Indices 1 2 3 4 5 6 
#
# 1 106.3233 25.3516 32.4045 0.0000 0.0000 0.0000
# 2 25.3516 55.9066 37.4418 0.0000 0.0000 0.0000
# 3 32.4045 37.4418 74.3188 0.0000 0.0000 0.0000
# 4 0.0000 0.0000 0.0000 47.4806 0.0000 0.0000
# 5 0.0000 0.0000 0.0000 0.0000 30.6729 0.0000
# 6 0.0000 0.0000 0.0000 0.0000 0.0000 32.6394
#
#
#
# Elastic Compliance Matrix: (Units=1/GPa)
#
#
# Indices 1 2 3 4 5 6 
#
# 1 0.011112 -0.002708 -0.003481 0.000000 0.000000 0.000000
# 2 -0.002708 0.027655 -0.012752 0.000000 0.000000 0.000000
# 3 -0.003481 -0.012752 0.021398 0.000000 0.000000 0.000000
# 4 0.000000 0.000000 0.000000 0.021061 0.000000 0.000000
# 5 0.000000 0.000000 0.000000 0.000000 0.032602 0.000000
# 6 0.000000 0.000000 0.000000 0.000000 0.000000 0.030638
#
#
# Mechanical properties :
#
#
# Convention : Reuss Voigt Hill
#
# Bulk Modulus (GPa) = 44.87608 47.43826 46.15717
# Shear Modulus (GPa) = 26.34703 31.58197 28.96450
#
# Velocity S-wave (km/s) = 3.53203 3.86703 3.70332
# Velocity P-wave (km/s) = 6.15486 6.51156 6.33572
#
# Compressibility (1/GPa) = 0.02228359
#
# Stress axis : x y z
#
# Youngs Moduli (GPa) = 89.99491 36.15965 46.73375
#
# Poissons Ratio (x) = 0.09790 0.16267
# Poissons Ratio (y) = 0.24366 0.59595
# Poissons Ratio (z) = 0.31326 0.46111
#
# Static dielectric constant tensor:
#      x y z
#    x 1.850050 0.000000 0.000000 
#    y 0.000000 1.772150 0.000000 
#    z 0.000000 0.000000 1.788390 
# 
# From -- ./inp_files/5871.got.cif
#   From: 2010.05.17/outbox.cif.g08.bks.cpg/sg33_3_cif.got.tgz:5871.got - 2010.06.03 17:15:25.
