data_PCOD9345145
_publ_section_title
;
Structure prediction by ZEFSAII (Michael W. Deem and Ramdas Pophale) SiO2 
 PCOD9345145
Probable space group: P N A 21
;
_chemical_formula_sum "Si O2"
_cell_formula_units_Z 32
_cell_length_a 28.285520
_cell_length_b 5.391573
_cell_length_c 8.505403
_cell_angle_alpha 90.000000
_cell_angle_beta 90.000000
_cell_angle_gamma 90.000000
_cell_volume 1297.103266
_symmetry_space_group_name_H-M "P N A 21"
_symmetry_group_IT_number 33
_symmetry_cell_setting 'orthorhombic'
loop_
_space_group_symop_operation_xyz
x,y,z
-x,-y,1/2+z
1/2-x,1/2+y,1/2+z
1/2+x,1/2-y,z
loop_
_atom_site_type_symbol
_atom_site_label
_atom_site_fract_x
_atom_site_fract_y
_atom_site_fract_z
Si Si1 0.800132 0.001705 0.546950
Si Si2 0.567032 0.866407 0.805800
Si Si3 0.229165 0.715336 0.765810
Si Si4 0.365124 0.430657 0.102339
Si Si5 0.122501 0.787074 0.245850
Si Si6 0.435129 0.795236 0.723338
Si Si7 0.492235 0.924848 0.038798
Si Si8 0.156882 0.329426 0.808392
O O1 0.764646 0.136465 0.427024
O O2 0.827980 0.186900 0.657594
O O3 0.773807 0.805215 0.655467
O O4 0.840277 0.883982 0.436804
O O5 0.586573 0.655267 0.688982
O O6 0.537767 0.073216 0.702275
O O7 0.616370 0.984204 0.858105
O O8 0.535695 0.778764 0.952569
O O9 0.183548 0.822952 0.674992
O O10 0.209213 0.442327 0.805429
O O11 0.357883 0.720592 0.139080
O O12 0.368267 0.328459 0.929458
O O13 0.101219 0.521258 0.205613
O O14 0.087738 0.024169 0.214440
O O15 0.476503 0.831029 0.591734
O O16 0.455507 0.870498 0.897737
#
# Coordination Sequence:
#
# PCOD9345145 Si02
#       8
#     4   4   4   4   4   4   4   4
#     4  11  27  44  73 105 140 192 241 307 368 451
#     4  10  20  43  64  97 140 182 240 294 363 427
#     4  10  26  46  69 103 140 186 246 301 368 444
#     4  10  23  43  68  99 140 191 235 301 364 441
#     4  12  27  45  74 107 148 190 247 300 378 442
#     4  11  26  46  69 108 145 193 246 305 370 442
#     4  10  22  43  68 101 142 189 243 303 361 434
#     4  10  23  44  69  94 141 189 234 297 370 435
#
# _framework density 24.670354
#
# number of rings (size 3 to 8) (size 9 to 14) (size 15 to 20)
#    0.000    1.500    1.250    1.500   12.250    2.000 
#    9.000    0.000    0.000    0.000    0.000    0.000 
#    0.000    0.000    0.000    0.000    0.000    0.000 
#
# Total GULP energy -178365.946730 kJ/mol
# GULP energy per Si atom -5573.935835 kJ/mol
# Density = 2.461420 g / cm^3
# Si number density = 24.670354 Si / 1000 Ang^3
#
#
#
# Elastic Constant Matrix: (Units=GPa)
#
#
# Indices 1 2 3 4 5 6 
#
# 1 73.8766 2.7598 18.0611 0.0000 0.0000 0.0000
# 2 2.7598 53.9696 13.4084 0.0000 0.0000 0.0000
# 3 18.0611 13.4084 93.9316 0.0000 0.0000 0.0000
# 4 0.0000 0.0000 0.0000 24.2969 0.0000 0.0000
# 5 0.0000 0.0000 0.0000 0.0000 38.0827 0.0000
# 6 0.0000 0.0000 0.0000 0.0000 0.0000 17.9148
#
#
#
# Elastic Compliance Matrix: (Units=1/GPa)
#
#
# Indices 1 2 3 4 5 6 
#
# 1 0.014204 -0.000050 -0.002724 0.000000 0.000000 0.000000
# 2 -0.000050 0.019210 -0.002733 0.000000 0.000000 0.000000
# 3 -0.002724 -0.002733 0.011560 0.000000 0.000000 0.000000
# 4 0.000000 0.000000 0.000000 0.041158 0.000000 0.000000
# 5 0.000000 0.000000 0.000000 0.000000 0.026259 0.000000
# 6 0.000000 0.000000 0.000000 0.000000 0.000000 0.055820
#
#
# Mechanical properties :
#
#
# Convention : Reuss Voigt Hill
#
# Bulk Modulus (GPa) = 29.44499 32.24849 30.84674
# Shear Modulus (GPa) = 26.24077 28.56213 27.40145
#
# Velocity S-wave (km/s) = 3.26491 3.40627 3.33634
# Velocity P-wave (km/s) = 5.11607 5.34512 5.23185
#
# Compressibility (1/GPa) = 0.03396164
#
# Stress axis : x y z
#
# Youngs Moduli (GPa) = 70.40322 52.05512 86.50596
#
# Poissons Ratio (x) = 0.00258 0.23565
# Poissons Ratio (y) = 0.00349 0.23639
# Poissons Ratio (z) = 0.19178 0.14225
#
# Static dielectric constant tensor:
#      x y z
#    x 1.968250 0.000000 0.000000 
#    y 0.000000 2.083180 0.000000 
#    z 0.000000 0.000000 2.013200 
# 
# From -- ./inp_files/5357.got.cif
#   From: 2010.05.17/outbox.cif.g08.bks.cpg/sg33_3_cif.got.tgz:5357.got - 2010.06.03 17:15:25.
