data_PCOD9345850
_publ_section_title
;
Structure prediction by ZEFSAII (Michael W. Deem and Ramdas Pophale) SiO2 
 PCOD9345850
Probable space group: P N A 21
;
_chemical_formula_sum "Si O2"
_cell_formula_units_Z 32
_cell_length_a 12.614335
_cell_length_b 9.058896
_cell_length_c 13.719916
_cell_angle_alpha 90.000000
_cell_angle_beta 90.000000
_cell_angle_gamma 90.000000
_cell_volume 1567.801540
_symmetry_space_group_name_H-M "P N A 21"
_symmetry_group_IT_number 33
_symmetry_cell_setting 'orthorhombic'
loop_
_space_group_symop_operation_xyz
x,y,z
-x,-y,1/2+z
1/2-x,1/2+y,1/2+z
1/2+x,1/2-y,z
loop_
_atom_site_type_symbol
_atom_site_label
_atom_site_fract_x
_atom_site_fract_y
_atom_site_fract_z
Si Si1 0.543445 0.799448 0.788430
Si Si2 0.126545 0.481628 0.183083
Si Si3 0.973815 0.036587 0.769931
Si Si4 0.208082 0.906249 0.116858
Si Si5 0.150867 0.643168 0.989162
Si Si6 0.691280 0.617682 0.434578
Si Si7 0.800629 0.801476 0.273779
Si Si8 0.715840 0.772222 0.623991
O O1 0.470855 0.929851 0.747204
O O2 0.489449 0.639180 0.777896
O O3 0.646989 0.790181 0.720684
O O4 0.574544 0.832665 0.898797
O O5 0.097970 0.570856 0.085161
O O6 0.209855 0.581090 0.243020
O O7 0.186291 0.333918 0.148439
O O8 0.086544 0.118714 0.769372
O O9 0.902697 0.076689 0.675821
O O10 0.905255 0.088325 0.862415
O O11 0.195184 0.799625 0.025335
O O12 0.288089 0.827081 0.192826
O O13 0.247289 0.067655 0.090853
O O14 0.245164 0.532466 0.957961
O O15 0.771349 0.727060 0.376778
O O16 0.655884 0.690759 0.535885
#
# Coordination Sequence:
#
# PCOD9345850 Si02
#       8
#     4   4   4   4   4   4   4   4
#     4  12  24  41  73  99 135 176 233 276 335 408
#     4  10  23  45  65  98 138 173 224 281 336 403
#     4  11  23  43  71 100 131 179 225 280 343 400
#     4  10  23  44  69  97 137 178 222 280 338 400
#     4  10  25  45  66 101 135 181 228 281 335 402
#     4  10  25  43  65  98 137 175 225 279 336 408
#     4  10  22  43  68  94 137 176 220 279 338 397
#     4  11  23  42  65  97 132 178 219 280 341 398
#
# _framework density 20.410746
#
# number of rings (size 3 to 8) (size 9 to 14) (size 15 to 20)
#    0.000    1.500    2.500    1.500    1.750   10.000 
#    2.250    0.000    0.000    0.000    0.000    0.000 
#    0.000    0.000    0.000    0.000    0.000    0.000 
#
# Total GULP energy -178948.692850 kJ/mol
# GULP energy per Si atom -5592.146652 kJ/mol
# Density = 2.036429 g / cm^3
# Si number density = 20.410746 Si / 1000 Ang^3
#
#
#
# Elastic Constant Matrix: (Units=GPa)
#
#
# Indices 1 2 3 4 5 6 
#
# 1 50.4747 26.9802 36.4562 0.0000 0.0000 0.0000
# 2 26.9802 132.6788 36.3290 0.0000 0.0000 0.0000
# 3 36.4562 36.3290 93.4715 0.0000 0.0000 0.0000
# 4 0.0000 0.0000 0.0000 22.9314 0.0000 0.0000
# 5 0.0000 0.0000 0.0000 0.0000 20.5294 0.0000
# 6 0.0000 0.0000 0.0000 0.0000 0.0000 27.2249
#
#
#
# Elastic Compliance Matrix: (Units=1/GPa)
#
#
# Indices 1 2 3 4 5 6 
#
# 1 0.028677 -0.003099 -0.009980 0.000000 0.000000 0.000000
# 2 -0.003099 0.008769 -0.002200 0.000000 0.000000 0.000000
# 3 -0.009980 -0.002200 0.015446 0.000000 0.000000 0.000000
# 4 0.000000 0.000000 0.000000 0.043608 0.000000 0.000000
# 5 0.000000 0.000000 0.000000 0.000000 0.048711 0.000000
# 6 0.000000 0.000000 0.000000 0.000000 0.000000 0.036731
#
#
# Mechanical properties :
#
#
# Convention : Reuss Voigt Hill
#
# Bulk Modulus (GPa) = 44.77362 52.90622 48.83992
# Shear Modulus (GPa) = 22.73303 25.92779 24.33041
#
# Velocity S-wave (km/s) = 3.34095 3.56799 3.45634
# Velocity P-wave (km/s) = 6.07178 6.55371 6.31734
#
# Compressibility (1/GPa) = 0.02233458
#
# Stress axis : x y z
#
# Youngs Moduli (GPa) = 34.87163 114.03227 64.74181
#
# Poissons Ratio (x) = 0.35335 0.64614
# Poissons Ratio (y) = 0.10806 0.14242
# Poissons Ratio (z) = 0.34803 0.25085
#
# Static dielectric constant tensor:
#      x y z
#    x 1.704240 0.000000 0.000000 
#    y 0.000000 1.721350 0.000000 
#    z 0.000000 0.000000 1.713260 
# 
# From -- ./inp_files/7954.got.cif
#   From: 2010.05.17/outbox.cif.g08.bks.cpg/sg33_4_cif.got.tgz:7954.got - 2010.06.03 17:15:25.
