data_PCOD9345984
_publ_section_title
;
Structure prediction by ZEFSAII (Michael W. Deem and Ramdas Pophale) SiO2 
 PCOD9345984
Probable space group: P N A 21
;
_chemical_formula_sum "Si O2"
_cell_formula_units_Z 32
_cell_length_a 20.414551
_cell_length_b 12.426904
_cell_length_c 5.293229
_cell_angle_alpha 90.000000
_cell_angle_beta 90.000000
_cell_angle_gamma 90.000000
_cell_volume 1342.837494
_symmetry_space_group_name_H-M "P N A 21"
_symmetry_group_IT_number 33
_symmetry_cell_setting 'orthorhombic'
loop_
_space_group_symop_operation_xyz
x,y,z
-x,-y,1/2+z
1/2-x,1/2+y,1/2+z
1/2+x,1/2-y,z
loop_
_atom_site_type_symbol
_atom_site_label
_atom_site_fract_x
_atom_site_fract_y
_atom_site_fract_z
Si Si1 0.935624 0.757482 0.037640
Si Si2 0.037932 0.000847 0.520615
Si Si3 0.798719 0.807856 0.934878
Si Si4 0.174218 0.819669 0.064522
Si Si5 0.855465 0.360922 0.912482
Si Si6 0.941478 0.220537 0.227200
Si Si7 0.717954 0.440028 0.951823
Si Si8 0.518091 0.934918 0.202919
O O1 0.975379 0.675755 0.215115
O O2 0.932683 0.884795 0.107759
O O3 0.859924 0.730000 0.996535
O O4 0.983288 0.759216 0.793249
O O5 0.071313 0.885634 0.558897
O O6 0.020170 0.010066 0.227308
O O7 0.812435 0.863043 0.666248
O O8 0.729859 0.745966 0.910813
O O9 0.792206 0.894315 0.166762
O O10 0.177028 0.752108 0.323339
O O11 0.191469 0.942973 0.021599
O O12 0.099479 0.806636 0.976979
O O13 0.903875 0.411705 0.705018
O O14 0.907226 0.325278 0.120430
O O15 0.796590 0.437007 0.989101
O O16 0.502070 0.007702 0.444018
#
# Coordination Sequence:
#
# PCOD9345984 Si02
#       8
#     4   4   4   4   4   4   4   4
#     4  11  25  47  70 110 150 180 247 309 371 441
#     4  10  23  38  66 107 138 178 222 292 361 422
#     4  11  27  48  68 112 147 191 239 317 365 440
#     4  11  25  46  74 104 143 199 244 301 363 440
#     4  11  25  49  76 107 147 199 253 303 363 460
#     4  11  22  44  77 104 144 194 240 293 374 443
#     4  11  27  47  77 105 151 195 255 297 376 435
#     4  12  28  47  74 111 146 200 248 308 377 447
#
# _framework density 23.830137000000001
#
# number of rings (size 3 to 8) (size 9 to 14) (size 15 to 20)
#    0.000    1.000    2.500    2.250    7.000    7.000 
#    0.000    0.000    0.000    0.000    0.000    0.000 
#    0.000    0.000    0.000    0.000    0.000    0.000 
#
# Total GULP energy -178615.002399 kJ/mol
# GULP energy per Si atom -5581.718825 kJ/mol
# Density = 2.377590 g / cm^3
# Si number density = 23.830137 Si / 1000 Ang^3
#
#
#
# Elastic Constant Matrix: (Units=GPa)
#
#
# Indices 1 2 3 4 5 6 
#
# 1 82.3299 31.4032 13.9097 0.0000 0.0000 0.0000
# 2 31.4032 58.6431 13.2737 0.0000 0.0000 0.0000
# 3 13.9097 13.2737 74.8363 0.0000 0.0000 0.0000
# 4 0.0000 0.0000 0.0000 24.5818 0.0000 0.0000
# 5 0.0000 0.0000 0.0000 0.0000 20.1645 0.0000
# 6 0.0000 0.0000 0.0000 0.0000 0.0000 37.9653
#
#
#
# Elastic Compliance Matrix: (Units=1/GPa)
#
#
# Indices 1 2 3 4 5 6 
#
# 1 0.015416 -0.007925 -0.001460 0.000000 0.000000 0.000000
# 2 -0.007925 0.021839 -0.002401 0.000000 0.000000 0.000000
# 3 -0.001460 -0.002401 0.014060 0.000000 0.000000 0.000000
# 4 0.000000 0.000000 0.000000 0.040681 0.000000 0.000000
# 5 0.000000 0.000000 0.000000 0.000000 0.049592 0.000000
# 6 0.000000 0.000000 0.000000 0.000000 0.000000 0.026340
#
#
# Mechanical properties :
#
#
# Convention : Reuss Voigt Hill
#
# Bulk Modulus (GPa) = 36.04314 36.99804 36.52059
# Shear Modulus (GPa) = 24.90723 27.02384 25.96553
#
# Velocity S-wave (km/s) = 3.23646 3.37117 3.30450
# Velocity P-wave (km/s) = 5.39667 5.54189 5.46976
#
# Compressibility (1/GPa) = 0.02774453
#
# Stress axis : x y z
#
# Youngs Moduli (GPa) = 64.86960 45.78910 71.12572
#
# Poissons Ratio (x) = 0.36286 0.10382
# Poissons Ratio (y) = 0.51406 0.17075
# Poissons Ratio (z) = 0.09469 0.10993
#
# Static dielectric constant tensor:
#      x y z
#    x 1.937730 0.000000 0.000000 
#    y 0.000000 1.964200 0.000000 
#    z 0.000000 0.000000 1.967120 
# 
# From -- ./inp_files/2040.got.cif
#   From: 2010.05.17/outbox.cif.g08.bks.cpg/sg33_2_cif.got.tgz:2040.got - 2010.06.03 17:15:25.
