data_PCOD9345740
_publ_section_title
;
Structure prediction by ZEFSAII (Michael W. Deem and Ramdas Pophale) SiO2 
 PCOD9345740
Probable space group: P N A 21
;
_chemical_formula_sum "Si O2"
_cell_formula_units_Z 20
_cell_length_a 15.625441
_cell_length_b 5.001785
_cell_length_c 10.828183
_cell_angle_alpha 90.000000
_cell_angle_beta 90.000000
_cell_angle_gamma 90.000000
_cell_volume 846.277686
_symmetry_space_group_name_H-M "P N A 21"
_symmetry_group_IT_number 33
_symmetry_cell_setting 'orthorhombic'
loop_
_space_group_symop_operation_xyz
x,y,z
-x,-y,1/2+z
1/2-x,1/2+y,1/2+z
1/2+x,1/2-y,z
loop_
_atom_site_type_symbol
_atom_site_label
_atom_site_fract_x
_atom_site_fract_y
_atom_site_fract_z
Si Si1 0.650352 0.371832 0.760530
Si Si2 0.427020 0.816779 0.878507
Si Si3 0.342054 0.337943 0.773882
Si Si4 0.058327 0.654683 0.662417
Si Si5 0.560734 0.504033 0.020429
O O1 0.746759 0.268718 0.759518
O O2 0.636073 0.634152 0.676162
O O3 0.619261 0.439919 0.900750
O O4 0.594440 0.131336 0.702729
O O5 0.349957 0.610051 0.852678
O O6 0.494327 0.763613 0.770912
O O7 0.485956 0.717674 0.990313
O O8 0.392063 0.111014 0.851783
O O9 0.384425 0.392972 0.638463
O O10 0.995544 0.740818 0.551277
#
# Coordination Sequence:
#
# PCOD9345740 Si02
#       5
#     4   4   4   4   4
#     4  11  24  42  66 104 138 173 233 289 337 407
#     4  10  22  41  65  95 131 181 232 270 334 423
#     4  11  24  42  66 104 138 173 233 289 337 407
#     4  10  22  41  65  95 131 181 232 270 334 423
#     4  10  24  44  72  98 144 192 222 284 350 400
#
# _framework density 23.632902999999999
#
# number of rings (size 3 to 8) (size 9 to 14) (size 15 to 20)
#    0.000    1.600    0.000    4.800    0.000   17.600 
#    0.000    0.000    0.000    0.000    0.000    0.000 
#    0.000    0.000    0.000    0.000    0.000    0.000 
#
# Total GULP energy -111590.056217 kJ/mol
# GULP energy per Si atom -5579.502811 kJ/mol
# Density = 2.357911 g / cm^3
# Si number density = 23.632903 Si / 1000 Ang^3
#
#
#
# Elastic Constant Matrix: (Units=GPa)
#
#
# Indices 1 2 3 4 5 6 
#
# 1 77.9865 -36.3756 42.3423 0.0000 0.0000 0.0000
# 2 -36.3756 90.5403 22.8629 0.0000 0.0000 0.0000
# 3 42.3423 22.8629 93.8278 0.0000 0.0000 0.0000
# 4 0.0000 0.0000 0.0000 41.9987 0.0000 0.0000
# 5 0.0000 0.0000 0.0000 0.0000 33.2476 0.0000
# 6 0.0000 0.0000 0.0000 0.0000 0.0000 8.3661
#
#
#
# Elastic Compliance Matrix: (Units=1/GPa)
#
#
# Indices 1 2 3 4 5 6 
#
# 1 0.030103 0.016543 -0.017616 0.000000 0.000000 0.000000
# 2 0.016543 0.020860 -0.012548 0.000000 0.000000 0.000000
# 3 -0.017616 -0.012548 0.021665 0.000000 0.000000 0.000000
# 4 0.000000 0.000000 0.000000 0.023810 0.000000 0.000000
# 5 0.000000 0.000000 0.000000 0.000000 0.030077 0.000000
# 6 0.000000 0.000000 0.000000 0.000000 0.000000 0.119530
#
#
# Mechanical properties :
#
#
# Convention : Reuss Voigt Hill
#
# Bulk Modulus (GPa) = 22.03368 35.55709 28.79538
# Shear Modulus (GPa) = 17.33608 32.29081 24.81344
#
# Velocity S-wave (km/s) = 2.71136 3.70043 3.24381
# Velocity P-wave (km/s) = 4.37556 5.77372 5.12256
#
# Compressibility (1/GPa) = 0.04538507
#
# Stress axis : x y z
#
# Youngs Moduli (GPa) = 33.21912 47.93967 46.15740
#
# Poissons Ratio (x) = -0.79304 0.81310
# Poissons Ratio (y) = -0.54953 0.57919
# Poissons Ratio (z) = 0.58518 0.60155
#
# Static dielectric constant tensor:
#      x y z
#    x 1.858590 0.000000 0.000000 
#    y 0.000000 1.846600 0.000000 
#    z 0.000000 0.000000 2.046480 
# 
# From -- ./inp_files/6624.got.cif
#   From: 2010.05.17/outbox.cif.g08.bks.cpg/sg33_4_cif.got.tgz:6624.got - 2010.06.03 17:15:25.
