data_PCOD9345829
_publ_section_title
;
Structure prediction by ZEFSAII (Michael W. Deem and Ramdas Pophale) SiO2 
 PCOD9345829
Probable space group: P N A 21
;
_chemical_formula_sum "Si O2"
_cell_formula_units_Z 32
_cell_length_a 15.522194
_cell_length_b 7.687983
_cell_length_c 12.047456
_cell_angle_alpha 90.000000
_cell_angle_beta 90.000000
_cell_angle_gamma 90.000000
_cell_volume 1437.675495
_symmetry_space_group_name_H-M "P N A 21"
_symmetry_group_IT_number 33
_symmetry_cell_setting 'orthorhombic'
loop_
_space_group_symop_operation_xyz
x,y,z
-x,-y,1/2+z
1/2-x,1/2+y,1/2+z
1/2+x,1/2-y,z
loop_
_atom_site_type_symbol
_atom_site_label
_atom_site_fract_x
_atom_site_fract_y
_atom_site_fract_z
Si Si1 0.118846 0.769611 0.384550
Si Si2 0.592590 0.298661 0.659915
Si Si3 0.145949 0.953662 0.050667
Si Si4 0.225324 0.276314 0.032180
Si Si5 0.433825 0.872714 0.386440
Si Si6 0.039700 0.073205 0.239213
Si Si7 0.293161 0.113530 0.676671
Si Si8 0.983289 0.254838 0.436670
O O1 0.183089 0.827189 0.480606
O O2 0.168104 0.637188 0.300474
O O3 0.027274 0.696753 0.424336
O O4 0.094293 0.938260 0.313200
O O5 0.568626 0.155823 0.753680
O O6 0.546988 0.474899 0.703523
O O7 0.694014 0.328075 0.664506
O O8 0.548673 0.255998 0.540931
O O9 0.157346 0.765351 0.107581
O O10 0.232454 0.066034 0.047571
O O11 0.091870 0.087517 0.126742
O O12 0.084626 0.904601 0.948409
O O13 0.202463 0.418419 0.126654
O O14 0.150598 0.286182 0.938722
O O15 0.431503 0.068506 0.428344
O O16 0.028083 0.236013 0.317501
#
# Coordination Sequence:
#
# PCOD9345829 Si02
#       8
#     4   4   4   4   4   4   4   4
#     4  10  23  43  64  96 136 178 228 281 343 406
#     4  10  22  43  65  95 143 178 225 292 338 406
#     4  10  23  40  64  97 135 172 228 278 336 415
#     4  12  24  44  69 100 134 183 225 284 346 416
#     4  11  24  42  69  97 136 184 225 287 345 408
#     4   9  21  42  63  92 131 178 222 278 338 399
#     4  11  23  43  64  98 139 177 223 289 341 405
#     4  11  22  41  70  99 134 188 232 281 351 413
#
# _framework density 22.258151000000002
#
# number of rings (size 3 to 8) (size 9 to 14) (size 15 to 20)
#    0.000    1.500    2.500    3.000    3.500    1.000 
#    2.250    0.000    0.000    0.000    0.000    0.000 
#    0.000    0.000    0.000    0.000    0.000    0.000 
#
# Total GULP energy -178467.567339 kJ/mol
# GULP energy per Si atom -5577.111479 kJ/mol
# Density = 2.220749 g / cm^3
# Si number density = 22.258151 Si / 1000 Ang^3
#
#
#
# Elastic Constant Matrix: (Units=GPa)
#
#
# Indices 1 2 3 4 5 6 
#
# 1 72.5880 0.0454 0.8506 0.0000 0.0000 0.0000
# 2 0.0454 75.3474 7.9264 0.0000 0.0000 0.0000
# 3 0.8506 7.9264 50.4655 0.0000 0.0000 0.0000
# 4 0.0000 0.0000 0.0000 28.8222 0.0000 0.0000
# 5 0.0000 0.0000 0.0000 0.0000 24.6787 0.0000
# 6 0.0000 0.0000 0.0000 0.0000 0.0000 6.9662
#
#
#
# Elastic Compliance Matrix: (Units=1/GPa)
#
#
# Indices 1 2 3 4 5 6 
#
# 1 0.013779 0.000016 -0.000235 0.000000 0.000000 0.000000
# 2 0.000016 0.013495 -0.002120 0.000000 0.000000 0.000000
# 3 -0.000235 -0.002120 0.020152 0.000000 0.000000 0.000000
# 4 0.000000 0.000000 0.000000 0.034695 0.000000 0.000000
# 5 0.000000 0.000000 0.000000 0.000000 0.040521 0.000000
# 6 0.000000 0.000000 0.000000 0.000000 0.000000 0.143550
#
#
# Mechanical properties :
#
#
# Convention : Reuss Voigt Hill
#
# Bulk Modulus (GPa) = 23.39189 24.00507 23.69848
# Shear Modulus (GPa) = 17.53655 24.73199 21.13427
#
# Velocity S-wave (km/s) = 2.80995 3.33700 3.08475
# Velocity P-wave (km/s) = 4.58911 5.06514 4.83299
#
# Compressibility (1/GPa) = 0.04274986
#
# Stress axis : x y z
#
# Youngs Moduli (GPa) = 72.57355 74.10228 49.62180
#
# Poissons Ratio (x) = -0.00122 0.01165
# Poissons Ratio (y) = -0.00119 0.10519
# Poissons Ratio (z) = 0.01704 0.15709
#
# Static dielectric constant tensor:
#      x y z
#    x 1.908350 0.000000 0.000000 
#    y 0.000000 1.961780 0.000000 
#    z 0.000000 0.000000 1.856190 
# 
# From -- ./inp_files/6788.got.cif
#   From: 2010.05.17/outbox.cif.g08.bks.cpg/sg33_4_cif.got.tgz:6788.got - 2010.06.03 17:15:25.
