data_PCOD9345814
_publ_section_title
;
Structure prediction by ZEFSAII (Michael W. Deem and Ramdas Pophale) SiO2 
 PCOD9345814
Probable space group: P N A 21
;
_chemical_formula_sum "Si O2"
_cell_formula_units_Z 20
_cell_length_a 14.711263
_cell_length_b 7.200097
_cell_length_c 7.649712
_cell_angle_alpha 90.000000
_cell_angle_beta 90.000000
_cell_angle_gamma 90.000000
_cell_volume 810.276777
_symmetry_space_group_name_H-M "P N A 21"
_symmetry_group_IT_number 33
_symmetry_cell_setting 'orthorhombic'
loop_
_space_group_symop_operation_xyz
x,y,z
-x,-y,1/2+z
1/2-x,1/2+y,1/2+z
1/2+x,1/2-y,z
loop_
_atom_site_type_symbol
_atom_site_label
_atom_site_fract_x
_atom_site_fract_y
_atom_site_fract_z
Si Si1 0.176899 0.627773 0.222400
Si Si2 0.604865 0.815716 0.868327
Si Si3 0.976961 0.712610 0.357351
Si Si4 0.286670 0.329860 0.043784
Si Si5 0.545756 0.436726 0.506836
O O1 0.077425 0.634567 0.309112
O O2 0.212248 0.429437 0.161829
O O3 0.240499 0.711709 0.374482
O O4 0.164738 0.738988 0.039292
O O5 0.654151 0.782756 0.685681
O O6 0.581643 0.032073 0.890686
O O7 0.511453 0.701110 0.885332
O O8 0.947083 0.828792 0.188116
O O9 0.987990 0.871188 0.503104
O O10 0.353104 0.491562 0.964455
#
# Coordination Sequence:
#
# PCOD9345814 Si02
#       5
#     4   4   4   4   4
#     4  10  27  43  71 110 145 196 245 303 383 438
#     4  11  25  46  75 107 147 202 254 308 373 449
#     4  10  23  44  73 107 140 196 247 313 364 451
#     4  11  25  49  70 111 153 201 243 318 382 449
#     4  10  22  42  71 101 145 189 251 306 360 443
#
# _framework density 24.682922999999999
#
# number of rings (size 3 to 8) (size 9 to 14) (size 15 to 20)
#    0.000    1.600    2.000    0.000   14.000    3.200 
#    0.000    2.000    0.000    0.000    0.000    0.000 
#    0.000    0.000    0.000    0.000    0.000    0.000 
#
# Total GULP energy -111739.523602 kJ/mol
# GULP energy per Si atom -5586.976180 kJ/mol
# Density = 2.462674 g / cm^3
# Si number density = 24.682923 Si / 1000 Ang^3
#
#
#
# Elastic Constant Matrix: (Units=GPa)
#
#
# Indices 1 2 3 4 5 6 
#
# 1 37.0006 41.4703 22.5026 0.0000 0.0000 0.0000
# 2 41.4703 141.8066 55.8099 0.0000 0.0000 0.0000
# 3 22.5026 55.8099 171.9292 0.0000 0.0000 0.0000
# 4 0.0000 0.0000 0.0000 41.6477 0.0000 0.0000
# 5 0.0000 0.0000 0.0000 0.0000 26.2648 0.0000
# 6 0.0000 0.0000 0.0000 0.0000 0.0000 28.2664
#
#
#
# Elastic Compliance Matrix: (Units=1/GPa)
#
#
# Indices 1 2 3 4 5 6 
#
# 1 0.040620 -0.011220 -0.001674 0.000000 0.000000 0.000000
# 2 -0.011220 0.011184 -0.002162 0.000000 0.000000 0.000000
# 3 -0.001674 -0.002162 0.006737 0.000000 0.000000 0.000000
# 4 0.000000 0.000000 0.000000 0.024011 0.000000 0.000000
# 5 0.000000 0.000000 0.000000 0.000000 0.038074 0.000000
# 6 0.000000 0.000000 0.000000 0.000000 0.000000 0.035378
#
#
# Mechanical properties :
#
#
# Convention : Reuss Voigt Hill
#
# Bulk Modulus (GPa) = 35.17555 65.58912 50.38234
# Shear Modulus (GPa) = 25.56326 34.63269 30.09797
#
# Velocity S-wave (km/s) = 3.22167 3.74987 3.49576
# Velocity P-wave (km/s) = 5.30290 6.73639 6.06217
#
# Compressibility (1/GPa) = 0.02842884
#
# Stress axis : x y z
#
# Youngs Moduli (GPa) = 24.61812 89.41371 148.42819
#
# Poissons Ratio (x) = 1.00324 0.24852
# Poissons Ratio (y) = 0.27622 0.32089
# Poissons Ratio (z) = 0.04122 0.19330
#
# Static dielectric constant tensor:
#      x y z
#    x 2.061370 0.000000 0.000000 
#    y 0.000000 1.947020 0.000000 
#    z 0.000000 0.000000 1.981470 
# 
# From -- ./inp_files/4586.got.cif
#   From: 2010.05.17/outbox.cif.g08.bks.cpg/sg33_3_cif.got.tgz:4586.got - 2010.06.03 17:15:25.
