data_PCOD9345322
_publ_section_title
;
Structure prediction by ZEFSAII (Michael W. Deem and Ramdas Pophale) SiO2 
 PCOD9345322
Probable space group: P N A 21
;
_chemical_formula_sum "Si O2"
_cell_formula_units_Z 32
_cell_length_a 14.575982
_cell_length_b 12.720241
_cell_length_c 9.453543
_cell_angle_alpha 90.000000
_cell_angle_beta 90.000000
_cell_angle_gamma 90.000000
_cell_volume 1752.781444
_symmetry_space_group_name_H-M "P N A 21"
_symmetry_group_IT_number 33
_symmetry_cell_setting 'orthorhombic'
loop_
_space_group_symop_operation_xyz
x,y,z
-x,-y,1/2+z
1/2-x,1/2+y,1/2+z
1/2+x,1/2-y,z
loop_
_atom_site_type_symbol
_atom_site_label
_atom_site_fract_x
_atom_site_fract_y
_atom_site_fract_z
Si Si1 0.760502 0.661752 0.843480
Si Si2 0.500001 0.392226 0.963416
Si Si3 0.739501 0.838252 0.083357
Si Si4 0.388262 0.499997 0.213419
Si Si5 0.843132 0.269204 0.876970
Si Si6 0.843129 0.730798 0.549862
Si Si7 0.088402 0.502094 0.381604
Si Si8 0.411596 0.997905 0.545228
O O1 0.675307 0.596071 0.774264
O O2 0.813448 0.714951 0.712131
O O3 0.824763 0.571086 0.907464
O O4 0.750002 0.750002 0.963419
O O5 0.548391 0.459279 0.840739
O O6 0.418878 0.319845 0.899732
O O7 0.451607 0.459271 0.086097
O O8 0.581126 0.319848 0.027095
O O9 0.686552 0.785053 0.214703
O O10 0.824694 0.903934 0.152576
O O11 0.675241 0.928918 0.019370
O O12 0.887209 0.379623 0.924998
O O13 0.750002 0.249999 0.963417
O O14 0.887209 0.620379 0.501836
O O15 0.071082 0.500000 0.213416
O O16 0.999998 0.463124 0.463415
#
# Coordination Sequence:
#
# PCOD9345322 Si02
#       8
#     4   4   4   4   4   4   4   4
#     4  11  24  43  68  95 138 174 221 287 341 403
#     4  12  26  42  72  94 138 186 228 282 358 408
#     4  11  24  43  68  95 138 174 221 287 341 403
#     4  12  26  48  62 104 142 174 238 296 336 434
#     4  11  21  43  67  91 131 179 217 272 337 396
#     4  11  21  43  67  91 131 179 217 272 337 396
#     4  10  21  39  62  93 126 160 212 270 317 390
#     4  10  21  39  62  93 126 160 212 270 317 390
#
# _framework density 18.256696000000002
#
# number of rings (size 3 to 8) (size 9 to 14) (size 15 to 20)
#    0.000    1.000    7.500    0.000    3.500    6.000 
#    0.000    0.000    0.000    0.000    0.000    0.000 
#    0.000    0.000    0.000    0.000    0.000    0.000 
#
# Total GULP energy -178585.415095 kJ/mol
# GULP energy per Si atom -5580.794222 kJ/mol
# Density = 1.821514 g / cm^3
# Si number density = 18.256696 Si / 1000 Ang^3
#
#
#
# Elastic Constant Matrix: (Units=GPa)
#
#
# Indices 1 2 3 4 5 6 
#
# 1 136.2789 60.6486 60.4768 0.0000 0.0000 0.0000
# 2 60.6486 101.5692 71.8659 0.0000 0.0000 0.0000
# 3 60.4768 71.8659 75.4041 0.0000 0.0000 0.0000
# 4 0.0000 0.0000 0.0000 34.2945 0.0000 0.0000
# 5 0.0000 0.0000 0.0000 0.0000 46.1246 0.0000
# 6 0.0000 0.0000 0.0000 0.0000 0.0000 19.2027
#
#
#
# Elastic Compliance Matrix: (Units=1/GPa)
#
#
# Indices 1 2 3 4 5 6 
#
# 1 0.011429 -0.001040 -0.008175 0.000000 0.000000 0.000000
# 2 -0.001040 0.030329 -0.028071 0.000000 0.000000 0.000000
# 3 -0.008175 -0.028071 0.046573 0.000000 0.000000 0.000000
# 4 0.000000 0.000000 0.000000 0.029159 0.000000 0.000000
# 5 0.000000 0.000000 0.000000 0.000000 0.021680 0.000000
# 6 0.000000 0.000000 0.000000 0.000000 0.000000 0.052076
#
#
# Mechanical properties :
#
#
# Convention : Reuss Voigt Hill
#
# Bulk Modulus (GPa) = 72.68913 77.69276 75.19094
# Shear Modulus (GPa) = 18.49086 27.94174 23.21630
#
# Velocity S-wave (km/s) = 3.18595 3.91640 3.56990
# Velocity P-wave (km/s) = 7.30994 7.94349 7.63329
#
# Compressibility (1/GPa) = 0.01375722
#
# Stress axis : x y z
#
# Youngs Moduli (GPa) = 87.50040 32.97225 21.47179
#
# Poissons Ratio (x) = 0.03429 0.17553
# Poissons Ratio (y) = 0.09099 0.60274
# Poissons Ratio (z) = 0.71532 0.92558
#
# Static dielectric constant tensor:
#      x y z
#    x 1.630410 0.000000 0.000000 
#    y 0.000000 1.640390 0.000000 
#    z 0.000000 0.000000 1.621170 
# 
# From -- ./inp_files/4486.got.cif
#   From: 2010.05.17/outbox.cif.g08.bks.cpg/sg33_3_cif.got.tgz:4486.got - 2010.06.03 17:15:25.
