data_PCOD9345131
_publ_section_title
;
Structure prediction by ZEFSAII (Michael W. Deem and Ramdas Pophale) SiO2 
 PCOD9345131
Probable space group: P N A 21
;
_chemical_formula_sum "Si O2"
_cell_formula_units_Z 20
_cell_length_a 8.933841
_cell_length_b 11.435554
_cell_length_c 9.175321
_cell_angle_alpha 90.000000
_cell_angle_beta 90.000000
_cell_angle_gamma 90.000000
_cell_volume 937.382184
_symmetry_space_group_name_H-M "P N A 21"
_symmetry_group_IT_number 33
_symmetry_cell_setting 'orthorhombic'
loop_
_space_group_symop_operation_xyz
x,y,z
-x,-y,1/2+z
1/2-x,1/2+y,1/2+z
1/2+x,1/2-y,z
loop_
_atom_site_type_symbol
_atom_site_label
_atom_site_fract_x
_atom_site_fract_y
_atom_site_fract_z
Si Si1 0.465987 0.593979 0.893630
Si Si2 0.954192 0.864411 0.244488
Si Si3 0.103347 0.616814 0.319685
Si Si4 0.706132 0.751741 0.926332
Si Si5 0.943867 0.578522 0.049204
O O1 0.463977 0.464636 0.836231
O O2 0.614405 0.657579 0.834806
O O3 0.325530 0.669838 0.844111
O O4 0.583814 0.842640 0.989367
O O5 0.777086 0.870161 0.277492
O O6 0.024937 0.743026 0.300261
O O7 0.972276 0.892222 0.070835
O O8 0.002841 0.542934 0.206465
O O9 0.093106 0.539387 0.463941
O O10 0.803972 0.669363 0.036969
#
# Coordination Sequence:
#
# PCOD9345131 Si02
#       5
#     4   4   4   4   4
#     4  11  22  43  69  93 131 170 216 262 324 377
#     4  12  25  44  66  98 130 171 215 264 320 383
#     4  12  25  44  66  98 130 171 215 264 320 383
#     4  10  20  42  68  92 126 182 204 264 322 380
#     4  11  22  43  69  93 131 170 216 262 324 377
#
# _framework density 21.336015
#
# number of rings (size 3 to 8) (size 9 to 14) (size 15 to 20)
#    0.000    0.800    8.000    0.000    2.800    0.000 
#    7.200    0.000    0.000    0.000    0.000    0.000 
#    0.000    0.000    0.000    0.000    0.000    0.000 
#
# Total GULP energy -111542.930187 kJ/mol
# GULP energy per Si atom -5577.146509 kJ/mol
# Density = 2.128745 g / cm^3
# Si number density = 21.336015 Si / 1000 Ang^3
#
#
#
# Elastic Constant Matrix: (Units=GPa)
#
#
# Indices 1 2 3 4 5 6 
#
# 1 123.2447 34.1270 13.1051 0.0000 0.0000 0.0000
# 2 34.1270 135.2002 64.6731 0.0000 0.0000 0.0000
# 3 13.1051 64.6731 45.8677 0.0000 0.0000 0.0000
# 4 0.0000 0.0000 0.0000 35.7683 0.0000 0.0000
# 5 0.0000 0.0000 0.0000 0.0000 16.7640 0.0000
# 6 0.0000 0.0000 0.0000 0.0000 0.0000 25.4318
#
#
#
# Elastic Compliance Matrix: (Units=1/GPa)
#
#
# Indices 1 2 3 4 5 6 
#
# 1 0.008777 -0.003121 0.001893 0.000000 0.000000 0.000000
# 2 -0.003121 0.023831 -0.032710 0.000000 0.000000 0.000000
# 3 0.001893 -0.032710 0.067382 0.000000 0.000000 0.000000
# 4 0.000000 0.000000 0.000000 0.027958 0.000000 0.000000
# 5 0.000000 0.000000 0.000000 0.000000 0.059652 0.000000
# 6 0.000000 0.000000 0.000000 0.000000 0.000000 0.039321
#
#
# Mechanical properties :
#
#
# Convention : Reuss Voigt Hill
#
# Bulk Modulus (GPa) = 31.13956 58.68031 44.90994
# Shear Modulus (GPa) = 16.36660 28.41998 22.39329
#
# Velocity S-wave (km/s) = 2.77264 3.65364 3.24320
# Velocity P-wave (km/s) = 4.98764 6.73509 5.92613
#
# Compressibility (1/GPa) = 0.03211349
#
# Stress axis : x y z
#
# Youngs Moduli (GPa) = 113.93620 41.96234 14.84083
#
# Poissons Ratio (x) = 0.13095 -0.02809
# Poissons Ratio (y) = 0.35556 0.48544
# Poissons Ratio (z) = -0.21563 1.37258
#
# Static dielectric constant tensor:
#      x y z
#    x 1.809400 0.000000 0.000000 
#    y 0.000000 1.758550 0.000000 
#    z 0.000000 0.000000 1.809750 
# 
# From -- ./inp_files/6252.got.cif
#   From: 2010.05.17/outbox.cif.g08.bks.cpg/sg33_4_cif.got.tgz:6252.got - 2010.06.03 17:15:25.
