data_PCOD9345600
_publ_section_title
;
Structure prediction by ZEFSAII (Michael W. Deem and Ramdas Pophale) SiO2 
 PCOD9345600
Probable space group: P N A 21
;
_chemical_formula_sum "Si O2"
_cell_formula_units_Z 28
_cell_length_a 8.565701
_cell_length_b 19.234525
_cell_length_c 7.805409
_cell_angle_alpha 90.000000
_cell_angle_beta 90.000000
_cell_angle_gamma 90.000000
_cell_volume 1285.997254
_symmetry_space_group_name_H-M "P N A 21"
_symmetry_group_IT_number 33
_symmetry_cell_setting 'orthorhombic'
loop_
_space_group_symop_operation_xyz
x,y,z
-x,-y,1/2+z
1/2-x,1/2+y,1/2+z
1/2+x,1/2-y,z
loop_
_atom_site_type_symbol
_atom_site_label
_atom_site_fract_x
_atom_site_fract_y
_atom_site_fract_z
Si Si1 0.438553 0.177321 0.053210
Si Si2 0.147533 0.961874 0.072476
Si Si3 0.205492 0.758605 0.265123
Si Si4 0.096690 0.927545 0.676892
Si Si5 0.105482 0.201790 0.217617
Si Si6 0.169557 0.408895 0.877109
Si Si7 0.048210 0.173004 0.594512
O O1 0.264726 0.177199 0.128907
O O2 0.559454 0.218081 0.178071
O O3 0.418549 0.230372 0.897364
O O4 0.504596 0.105867 0.971991
O O5 0.297124 0.948273 0.196633
O O6 0.018210 0.903244 0.123207
O O7 0.159755 0.950518 0.865963
O O8 0.062060 0.032049 0.128179
O O9 0.276771 0.830169 0.332515
O O10 0.329287 0.698697 0.232988
O O11 0.105780 0.778757 0.098568
O O12 0.218353 0.939824 0.523741
O O13 0.044386 0.846840 0.675592
O O14 0.129311 0.185361 0.415758
#
# Coordination Sequence:
#
# PCOD9345600 Si02
#       7
#     4   4   4   4   4   4   4
#     4  12  21  36  60  90 126 160 203 251 331 372
#     4  10  23  39  69  92 121 171 218 262 304 392
#     4  11  19  36  57  88 123 161 196 258 322 377
#     4  11  21  42  68  90 124 167 225 256 314 376
#     4  11  22  37  60  92 123 166 202 268 314 386
#     4  11  22  38  64  93 123 164 209 260 317 375
#     4  10  22  36  58  91 124 157 211 259 322 376
#
# _framework density 21.772987000000001
#
# number of rings (size 3 to 8) (size 9 to 14) (size 15 to 20)
#    0.000    1.143    5.714    0.857    2.000    2.286 
#    2.571    0.000    6.286    0.000    0.000    0.000 
#    0.000    0.000    0.000    0.000    0.000    0.000 
#
# Total GULP energy -156055.108308 kJ/mol
# GULP energy per Si atom -5573.396725 kJ/mol
# Density = 2.172343 g / cm^3
# Si number density = 21.772987 Si / 1000 Ang^3
#
#
#
# Elastic Constant Matrix: (Units=GPa)
#
#
# Indices 1 2 3 4 5 6 
#
# 1 38.6275 -18.1585 27.9722 0.0000 0.0000 0.0000
# 2 -18.1585 28.1459 6.5178 0.0000 0.0000 0.0000
# 3 27.9722 6.5178 99.3075 0.0000 0.0000 0.0000
# 4 0.0000 0.0000 0.0000 23.7046 0.0000 0.0000
# 5 0.0000 0.0000 0.0000 0.0000 29.2102 0.0000
# 6 0.0000 0.0000 0.0000 0.0000 0.0000 21.3149
#
#
#
# Elastic Compliance Matrix: (Units=1/GPa)
#
#
# Indices 1 2 3 4 5 6 
#
# 1 0.061254 0.044185 -0.020153 0.000000 0.000000 0.000000
# 2 0.044185 0.067950 -0.016906 0.000000 0.000000 0.000000
# 3 -0.020153 -0.016906 0.016856 0.000000 0.000000 0.000000
# 4 0.000000 0.000000 0.000000 0.042186 0.000000 0.000000
# 5 0.000000 0.000000 0.000000 0.000000 0.034235 0.000000
# 6 0.000000 0.000000 0.000000 0.000000 0.000000 0.046916
#
#
# Mechanical properties :
#
#
# Convention : Reuss Voigt Hill
#
# Bulk Modulus (GPa) = 6.23782 22.08264 14.16023
# Shear Modulus (GPa) = 16.20320 24.82923 20.51622
#
# Velocity S-wave (km/s) = 2.73094 3.38060 3.07299
# Velocity P-wave (km/s) = 3.57983 5.04006 4.37135
#
# Compressibility (1/GPa) = 0.16031242
#
# Stress axis : x y z
#
# Youngs Moduli (GPa) = 16.32557 14.71662 59.32624
#
# Poissons Ratio (x) = -0.65026 1.19563
# Poissons Ratio (y) = -0.72135 1.00294
# Poissons Ratio (z) = 0.32902 0.24879
#
# Static dielectric constant tensor:
#      x y z
#    x 1.849490 0.000000 0.000000 
#    y 0.000000 1.804170 0.000000 
#    z 0.000000 0.000000 1.860320 
# 
# From -- ./inp_files/3297.got.cif
#   From: 2010.05.17/outbox.cif.g08.bks.cpg/sg33_2_cif.got.tgz:3297.got - 2010.06.03 17:15:25.
