data_PCOD9345527
_publ_section_title
;
Structure prediction by ZEFSAII (Michael W. Deem and Ramdas Pophale) SiO2 
 PCOD9345527
Probable space group: P N A 21
;
_chemical_formula_sum "Si O2"
_cell_formula_units_Z 32
_cell_length_a 11.135116
_cell_length_b 16.561791
_cell_length_c 7.755953
_cell_angle_alpha 90.000000
_cell_angle_beta 90.000000
_cell_angle_gamma 90.000000
_cell_volume 1430.333183
_symmetry_space_group_name_H-M "P N A 21"
_symmetry_group_IT_number 33
_symmetry_cell_setting 'orthorhombic'
loop_
_space_group_symop_operation_xyz
x,y,z
-x,-y,1/2+z
1/2-x,1/2+y,1/2+z
1/2+x,1/2-y,z
loop_
_atom_site_type_symbol
_atom_site_label
_atom_site_fract_x
_atom_site_fract_y
_atom_site_fract_z
Si Si1 0.605196 0.574011 0.037880
Si Si2 0.503647 0.410836 0.895650
Si Si3 0.232034 0.397414 0.020678
Si Si4 0.350689 0.987519 0.214575
Si Si5 0.382051 0.173082 0.235842
Si Si6 0.238599 0.312530 0.353913
Si Si7 0.557985 0.238661 0.941095
Si Si8 0.018075 0.335156 0.591168
O O1 0.517104 0.594296 0.192338
O O2 0.729724 0.544747 0.124018
O O3 0.555538 0.498372 0.934040
O O4 0.637195 0.652609 0.928860
O O5 0.580836 0.333708 0.949661
O O6 0.374274 0.401844 0.990096
O O7 0.200721 0.383605 0.220356
O O8 0.171046 0.470518 0.918081
O O9 0.175428 0.317628 0.932456
O O10 0.454489 0.927398 0.149694
O O11 0.364929 0.081218 0.176965
O O12 0.266807 0.231571 0.248939
O O13 0.426640 0.167960 0.433622
O O14 0.477892 0.212911 0.105352
O O15 0.141324 0.302499 0.502466
O O16 0.489267 0.215443 0.763010
#
# Coordination Sequence:
#
# PCOD9345527 Si02
#       8
#     4   4   4   4   4   4   4   4
#     4  10  23  42  65  95 132 172 222 270 331 395
#     4  11  22  41  69  92 132 173 219 268 333 393
#     4  10  21  43  64  92 135 167 213 275 331 377
#     4   9  24  42  64  98 134 169 220 276 325 403
#     4  12  24  42  73  95 129 181 226 263 341 411
#     4  11  22  44  66  94 136 173 222 283 328 390
#     4  11  24  41  68  98 130 172 220 274 328 395
#     4  10  24  43  63  98 136 171 214 287 329 386
#
# _framework density 22.372409999999999
#
# number of rings (size 3 to 8) (size 9 to 14) (size 15 to 20)
#    0.000    1.500    2.500    2.250    5.250    0.000 
#   11.250    0.000    0.000    0.000    0.000    0.000 
#    0.000    0.000    0.000    0.000    0.000    0.000 
#
# Total GULP energy -178801.717172 kJ/mol
# GULP energy per Si atom -5587.553662 kJ/mol
# Density = 2.232149 g / cm^3
# Si number density = 22.372410 Si / 1000 Ang^3
#
#
#
# Elastic Constant Matrix: (Units=GPa)
#
#
# Indices 1 2 3 4 5 6 
#
# 1 19.2979 2.0383 -10.6525 0.0000 0.0000 0.0000
# 2 2.0383 119.2993 -5.8976 0.0000 0.0000 0.0000
# 3 -10.6525 -5.8976 95.9034 0.0000 0.0000 0.0000
# 4 0.0000 0.0000 0.0000 29.4336 0.0000 0.0000
# 5 0.0000 0.0000 0.0000 0.0000 26.7118 0.0000
# 6 0.0000 0.0000 0.0000 0.0000 0.0000 20.3138
#
#
#
# Elastic Compliance Matrix: (Units=1/GPa)
#
#
# Indices 1 2 3 4 5 6 
#
# 1 0.055253 -0.000643 0.006098 0.000000 0.000000 0.000000
# 2 -0.000643 0.008415 0.000446 0.000000 0.000000 0.000000
# 3 0.006098 0.000446 0.011132 0.000000 0.000000 0.000000
# 4 0.000000 0.000000 0.000000 0.033975 0.000000 0.000000
# 5 0.000000 0.000000 0.000000 0.000000 0.037437 0.000000
# 6 0.000000 0.000000 0.000000 0.000000 0.000000 0.049228
#
#
# Mechanical properties :
#
#
# Convention : Reuss Voigt Hill
#
# Bulk Modulus (GPa) = 11.54700 22.83080 17.18890
# Shear Modulus (GPa) = 23.52895 31.89267 27.71081
#
# Velocity S-wave (km/s) = 3.24650 3.77972 3.52322
# Velocity P-wave (km/s) = 4.38469 5.41068 4.92448
#
# Compressibility (1/GPa) = 0.08660258
#
# Stress axis : x y z
#
# Youngs Moduli (GPa) = 18.09860 118.83105 89.83194
#
# Poissons Ratio (x) = 0.07636 -0.54777
# Poissons Ratio (y) = 0.01163 -0.04008
# Poissons Ratio (z) = -0.11036 -0.05301
#
# Static dielectric constant tensor:
#      x y z
#    x 1.852890 0.000000 0.000000 
#    y 0.000000 1.795020 0.000000 
#    z 0.000000 0.000000 1.858710 
# 
# From -- ./inp_files/3985.got.cif
#   From: 2010.05.17/outbox.cif.g08.bks.cpg/sg33_2_cif.got.tgz:3985.got - 2010.06.03 17:15:25.
