data_PCOD9345646
_publ_section_title
;
Structure prediction by ZEFSAII (Michael W. Deem and Ramdas Pophale) SiO2 
 PCOD9345646
Probable space group: P N A 21
;
_chemical_formula_sum "Si O2"
_cell_formula_units_Z 24
_cell_length_a 6.666579
_cell_length_b 10.988881
_cell_length_c 13.960743
_cell_angle_alpha 90.000000
_cell_angle_beta 90.000000
_cell_angle_gamma 90.000000
_cell_volume 1022.739507
_symmetry_space_group_name_H-M "P N A 21"
_symmetry_group_IT_number 33
_symmetry_cell_setting 'orthorhombic'
loop_
_space_group_symop_operation_xyz
x,y,z
-x,-y,1/2+z
1/2-x,1/2+y,1/2+z
1/2+x,1/2-y,z
loop_
_atom_site_type_symbol
_atom_site_label
_atom_site_fract_x
_atom_site_fract_y
_atom_site_fract_z
Si Si1 0.099999 0.963182 0.166820
Si Si2 0.270931 0.392413 0.288827
Si Si3 0.971337 0.950975 0.958656
Si Si4 0.026237 0.238347 0.974392
Si Si5 0.880181 0.542742 0.337207
Si Si6 0.225774 0.715181 0.623831
O O1 0.245972 0.070245 0.128420
O O2 0.913591 0.023654 0.222129
O O3 0.236240 0.907189 0.251355
O O4 0.005693 0.909830 0.068616
O O5 0.380468 0.378626 0.389825
O O6 0.263859 0.267792 0.231442
O O7 0.060605 0.459926 0.299530
O O8 0.030131 0.094328 0.949643
O O9 0.750561 0.960175 0.911720
O O10 0.276367 0.252010 0.002031
O O11 0.030245 0.342025 0.892906
O O12 0.476407 0.758299 0.600407
#
# Coordination Sequence:
#
# PCOD9345646 Si02
#       6
#     4   4   4   4   4   4
#     4  10  22  39  60  93 129 160 207 265 318 374
#     4  11  22  35  59  97 125 159 214 263 314 376
#     4  10  22  39  59  92 131 164 207 266 314 375
#     4  11  19  37  64  93 122 157 211 264 311 370
#     4  11  22  35  62  99 122 164 211 263 324 372
#     4  11  19  37  64  92 123 158 206 267 309 365
#
# _framework density 23.466386
#
# number of rings (size 3 to 8) (size 9 to 14) (size 15 to 20)
#    0.000    1.333    5.000    3.000    0.000    1.333 
#    0.000    0.000    0.000   10.000    0.000    0.000 
#    0.000    0.000    0.000    0.000    0.000    0.000 
#
# Total GULP energy -133873.450858 kJ/mol
# GULP energy per Si atom -5578.060452 kJ/mol
# Density = 2.341298 g / cm^3
# Si number density = 23.466386 Si / 1000 Ang^3
#
#
#
# Elastic Constant Matrix: (Units=GPa)
#
#
# Indices 1 2 3 4 5 6 
#
# 1 133.0641 5.1065 43.3353 0.0000 0.0000 0.0000
# 2 5.1065 34.7297 15.9502 0.0000 0.0000 0.0000
# 3 43.3353 15.9502 164.7454 0.0000 0.0000 0.0000
# 4 0.0000 0.0000 0.0000 30.7327 0.0000 0.0000
# 5 0.0000 0.0000 0.0000 0.0000 58.4624 0.0000
# 6 0.0000 0.0000 0.0000 0.0000 0.0000 29.3233
#
#
#
# Elastic Compliance Matrix: (Units=1/GPa)
#
#
# Indices 1 2 3 4 5 6 
#
# 1 0.008221 -0.000226 -0.002141 0.000000 0.000000 0.000000
# 2 -0.000226 0.030140 -0.002859 0.000000 0.000000 0.000000
# 3 -0.002141 -0.002859 0.006910 0.000000 0.000000 0.000000
# 4 0.000000 0.000000 0.000000 0.032539 0.000000 0.000000
# 5 0.000000 0.000000 0.000000 0.000000 0.017105 0.000000
# 6 0.000000 0.000000 0.000000 0.000000 0.000000 0.034103
#
#
# Mechanical properties :
#
#
# Convention : Reuss Voigt Hill
#
# Bulk Modulus (GPa) = 28.71856 51.25814 39.98835
# Shear Modulus (GPa) = 33.09642 41.58017 37.33829
#
# Velocity S-wave (km/s) = 3.75957 4.21396 3.99324
# Velocity P-wave (km/s) = 5.57768 6.75036 6.19184
#
# Compressibility (1/GPa) = 0.03482069
#
# Stress axis : x y z
#
# Youngs Moduli (GPa) = 121.63999 33.17866 144.72152
#
# Poissons Ratio (x) = 0.00749 0.30980
# Poissons Ratio (y) = 0.02745 0.41372
# Poissons Ratio (z) = 0.26039 0.09485
#
# Static dielectric constant tensor:
#      x y z
#    x 1.984240 0.000000 0.000000 
#    y 0.000000 1.817490 0.000000 
#    z 0.000000 0.000000 1.945680 
# 
# From -- ./inp_files/5426.got.cif
#   From: 2010.05.17/outbox.cif.g08.bks.cpg/sg33_3_cif.got.tgz:5426.got - 2010.06.03 17:15:25.
