data_PCOD9345349
_publ_section_title
;
Structure prediction by ZEFSAII (Michael W. Deem and Ramdas Pophale) SiO2 
 PCOD9345349
Probable space group: P N A 21
;
_chemical_formula_sum "Si O2"
_cell_formula_units_Z 20
_cell_length_a 28.228189
_cell_length_b 5.016314
_cell_length_c 5.076701
_cell_angle_alpha 90.000000
_cell_angle_beta 90.000000
_cell_angle_gamma 90.000000
_cell_volume 718.868272
_symmetry_space_group_name_H-M "P N A 21"
_symmetry_group_IT_number 33
_symmetry_cell_setting 'orthorhombic'
loop_
_space_group_symop_operation_xyz
x,y,z
-x,-y,1/2+z
1/2-x,1/2+y,1/2+z
1/2+x,1/2-y,z
loop_
_atom_site_type_symbol
_atom_site_label
_atom_site_fract_x
_atom_site_fract_y
_atom_site_fract_z
Si Si1 0.029523 0.428664 0.265500
Si Si2 0.889209 0.435183 0.414755
Si Si3 0.793711 0.319015 0.239499
Si Si4 0.190184 0.179456 0.424107
Si Si5 0.092288 0.058599 0.538436
O O1 0.045884 0.142141 0.376950
O O2 0.001796 0.568099 0.502929
O O3 0.078265 0.569107 0.172116
O O4 0.832697 0.403874 0.455160
O O5 0.899885 0.705526 0.254358
O O6 0.905240 0.202751 0.214878
O O7 0.738335 0.376078 0.269889
O O8 0.809270 0.513114 0.003955
O O9 0.801216 0.009485 0.180071
O O10 0.137963 0.086671 0.343490
#
# Coordination Sequence:
#
# PCOD9345349 Si02
#       5
#     4   4   4   4   4
#     4  12  26  54  80 116 150 210 264 332 400 466
#     4  10  24  49  73 107 155 199 254 321 388 464
#     4  10  21  39  66 104 146 194 245 304 376 456
#     4  10  21  39  66 104 146 194 245 304 376 456
#     4  10  24  49  73 107 155 199 254 321 388 464
#
# _framework density 27.821505999999999
#
# number of rings (size 3 to 8) (size 9 to 14) (size 15 to 20)
#    0.000    1.600    2.000    1.200    2.800    1.600 
#    7.200    0.000    0.000    0.000    0.000    0.000 
#    0.000    0.000    0.000    0.000    0.000    0.000 
#
# Total GULP energy -112094.887200 kJ/mol
# GULP energy per Si atom -5604.744360 kJ/mol
# Density = 2.775818 g / cm^3
# Si number density = 27.821506 Si / 1000 Ang^3
#
#
#
# Elastic Constant Matrix: (Units=GPa)
#
#
# Indices 1 2 3 4 5 6 
#
# 1 141.4074 22.5994 52.6791 0.0000 0.0000 0.0000
# 2 22.5994 144.1445 43.7369 0.0000 0.0000 0.0000
# 3 52.6791 43.7369 147.7001 0.0000 0.0000 0.0000
# 4 0.0000 0.0000 0.0000 21.0443 0.0000 0.0000
# 5 0.0000 0.0000 0.0000 0.0000 58.9131 0.0000
# 6 0.0000 0.0000 0.0000 0.0000 0.0000 40.9391
#
#
#
# Elastic Compliance Matrix: (Units=1/GPa)
#
#
# Indices 1 2 3 4 5 6 
#
# 1 0.008180 -0.000436 -0.002788 0.000000 0.000000 0.000000
# 2 -0.000436 0.007646 -0.002108 0.000000 0.000000 0.000000
# 3 -0.002788 -0.002108 0.008389 0.000000 0.000000 0.000000
# 4 0.000000 0.000000 0.000000 0.047519 0.000000 0.000000
# 5 0.000000 0.000000 0.000000 0.000000 0.016974 0.000000
# 6 0.000000 0.000000 0.000000 0.000000 0.000000 0.024427
#
#
# Mechanical properties :
#
#
# Convention : Reuss Voigt Hill
#
# Bulk Modulus (GPa) = 73.80693 74.58699 74.19696
# Shear Modulus (GPa) = 38.96586 45.12839 42.04712
#
# Velocity S-wave (km/s) = 3.74647 4.03186 3.89178
# Velocity P-wave (km/s) = 6.73061 6.96720 6.84992
#
# Compressibility (1/GPa) = 0.01354886
#
# Stress axis : x y z
#
# Youngs Moduli (GPa) = 122.24521 130.79352 119.19946
#
# Poissons Ratio (x) = 0.05709 0.33237
# Poissons Ratio (y) = 0.05336 0.25131
# Poissons Ratio (z) = 0.34086 0.27576
#
# Static dielectric constant tensor:
#      x y z
#    x 2.237130 0.000000 0.000000 
#    y 0.000000 2.143200 0.000000 
#    z 0.000000 0.000000 2.156650 
# 
# From -- ./inp_files/2483.got.cif
#   From: 2010.05.17/outbox.cif.g08.bks.cpg/sg33_2_cif.got.tgz:2483.got - 2010.06.03 17:15:25.
