data_PCOD9345592
_publ_section_title
;
Structure prediction by ZEFSAII (Michael W. Deem and Ramdas Pophale) SiO2 
 PCOD9345592
Probable space group: P N A 21
;
_chemical_formula_sum "Si O2"
_cell_formula_units_Z 28
_cell_length_a 8.342874
_cell_length_b 29.466063
_cell_length_c 5.364054
_cell_angle_alpha 90.000000
_cell_angle_beta 90.000000
_cell_angle_gamma 90.000000
_cell_volume 1318.654250
_symmetry_space_group_name_H-M "P N A 21"
_symmetry_group_IT_number 33
_symmetry_cell_setting 'orthorhombic'
loop_
_space_group_symop_operation_xyz
x,y,z
-x,-y,1/2+z
1/2-x,1/2+y,1/2+z
1/2+x,1/2-y,z
loop_
_atom_site_type_symbol
_atom_site_label
_atom_site_fract_x
_atom_site_fract_y
_atom_site_fract_z
Si Si1 0.417843 0.773910 0.638500
Si Si2 0.932424 0.352617 0.439806
Si Si3 0.079687 0.558488 0.664369
Si Si4 0.392436 0.495125 0.654340
Si Si5 0.393392 0.932161 0.157995
Si Si6 0.348352 0.272309 0.800542
Si Si7 0.637364 0.297991 0.508865
O O1 0.489700 0.806509 0.844189
O O2 0.549742 0.767844 0.426972
O O3 0.256985 0.793593 0.519689
O O4 0.391176 0.721997 0.732436
O O5 0.056219 0.379629 0.615597
O O6 0.900322 0.387625 0.213507
O O7 0.757373 0.339500 0.539112
O O8 0.248503 0.532489 0.654860
O O9 0.976825 0.553241 0.414563
O O10 0.979386 0.545483 0.914545
O O11 0.499381 0.499697 0.403635
O O12 0.290487 0.447947 0.657644
O O13 0.469398 0.303298 0.648036
O O14 0.227518 0.245850 0.622853
#
# Coordination Sequence:
#
# PCOD9345592 Si02
#       7
#     4   4   4   4   4   4   4
#     4  11  20  39  58  92 123 174 222 277 328 391
#     4  10  24  38  68  89 138 172 237 272 332 406
#     4  10  23  43  71  99 133 183 224 270 336 426
#     4  12  24  44  76 104 138 168 222 282 354 406
#     4  10  23  43  71  99 133 183 224 270 336 426
#     4  10  22  32  66  85 124 176 225 278 336 386
#     4  11  20  39  58  92 123 174 222 277 328 391
#
# _framework density 21.233768000000001
#
# number of rings (size 3 to 8) (size 9 to 14) (size 15 to 20)
#    0.857    0.571    2.857    2.571    2.000    0.000 
#    0.000    5.714    3.143    0.000    0.000    0.000 
#    0.000    0.000    0.000    0.000    0.000    0.000 
#
# Total GULP energy -156062.277317 kJ/mol
# GULP energy per Si atom -5573.652761 kJ/mol
# Density = 2.118544 g / cm^3
# Si number density = 21.233768 Si / 1000 Ang^3
#
#
#
# Elastic Constant Matrix: (Units=GPa)
#
#
# Indices 1 2 3 4 5 6 
#
# 1 115.8918 -8.5516 51.6588 0.0000 0.0000 0.0000
# 2 -8.5516 29.3572 -5.6725 0.0000 0.0000 0.0000
# 3 51.6588 -5.6725 124.7720 0.0000 0.0000 0.0000
# 4 0.0000 0.0000 0.0000 -107.4181 0.0000 0.0000
# 5 0.0000 0.0000 0.0000 0.0000 52.5250 0.0000
# 6 0.0000 0.0000 0.0000 0.0000 0.0000 26.5979
#
#
#
# Elastic Compliance Matrix: (Units=1/GPa)
#
#
# Indices 1 2 3 4 5 6 
#
# 1 0.010732 0.002288 -0.004339 0.000000 0.000000 0.000000
# 2 0.002288 0.034853 0.000637 0.000000 0.000000 0.000000
# 3 -0.004339 0.000637 0.009840 0.000000 0.000000 0.000000
# 4 0.000000 0.000000 0.000000 -0.009309 0.000000 0.000000
# 5 0.000000 0.000000 0.000000 0.000000 0.019039 0.000000
# 6 0.000000 0.000000 0.000000 0.000000 0.000000 0.037597
#
#
# Mechanical properties :
#
#
# Convention : Reuss Voigt Hill
#
# Bulk Modulus (GPa) = 19.01278 38.32115 28.66697
# Shear Modulus (GPa) = 40.61372 9.84671 25.23022
#
# Velocity S-wave (km/s) = 4.37818 2.15577 3.45078
# Velocity P-wave (km/s) = 5.87635 4.92777 5.42284
#
# Compressibility (1/GPa) = 0.05259619
#
# Stress axis : x y z
#
# Youngs Moduli (GPa) = 93.18143 28.69220 101.62454
#
# Poissons Ratio (x) = -0.06564 0.44097
# Poissons Ratio (y) = -0.21317 -0.06477
# Poissons Ratio (z) = 0.40433 -0.01829
#
# Static dielectric constant tensor:
#      x y z
#    x 1.763520 0.000000 0.000000 
#    y 0.000000 1.810550 0.000000 
#    z 0.000000 0.000000 1.808410 
# 
# From -- ./inp_files/554.got.cif
#   From: 2010.05.17/outbox.cif.g08.bks.cpg/sg33_1_cif.got.tgz:554.got - 2010.06.03 17:15:25.
