data_PCOD9345762
_publ_section_title
;
Structure prediction by ZEFSAII (Michael W. Deem and Ramdas Pophale) SiO2 
 PCOD9345762
Probable space group: P N A 21
;
_chemical_formula_sum "Si O2"
_cell_formula_units_Z 32
_cell_length_a 13.850280
_cell_length_b 11.849225
_cell_length_c 9.433777
_cell_angle_alpha 90.000000
_cell_angle_beta 90.000000
_cell_angle_gamma 90.000000
_cell_volume 1548.225105
_symmetry_space_group_name_H-M "P N A 21"
_symmetry_group_IT_number 33
_symmetry_cell_setting 'orthorhombic'
loop_
_space_group_symop_operation_xyz
x,y,z
-x,-y,1/2+z
1/2-x,1/2+y,1/2+z
1/2+x,1/2-y,z
loop_
_atom_site_type_symbol
_atom_site_label
_atom_site_fract_x
_atom_site_fract_y
_atom_site_fract_z
Si Si1 0.138421 0.904465 0.673400
Si Si2 0.946150 0.783464 0.590270
Si Si3 0.423728 0.854945 0.243924
Si Si4 0.295737 0.991983 0.469903
Si Si5 0.373361 0.103787 0.755511
Si Si6 0.246580 0.686207 0.744260
Si Si7 0.837996 0.850358 0.300987
Si Si8 0.411933 0.070632 0.054142
O O1 0.205162 0.923364 0.533902
O O2 0.189098 0.803915 0.762229
O O3 0.030145 0.869830 0.634952
O O4 0.141585 0.022753 0.754837
O O5 0.856019 0.785681 0.698617
O O6 0.897463 0.819085 0.441371
O O7 0.005539 0.665693 0.577063
O O8 0.534716 0.815191 0.255687
O O9 0.368561 0.745689 0.189574
O O10 0.598128 0.970470 0.392153
O O11 0.433486 0.960506 0.142268
O O12 0.363101 0.910655 0.374559
O O13 0.349981 0.041148 0.609254
O O14 0.262808 0.098425 0.374132
O O15 0.276402 0.162924 0.807378
O O16 0.186776 0.624323 0.617067
#
# Coordination Sequence:
#
# PCOD9345762 Si02
#       8
#     4   4   4   4   4   4   4   4
#     4  10  25  44  65 101 143 178 231 288 349 416
#     4  11  22  42  73  92 134 186 230 278 350 420
#     4  11  23  42  70  99 133 179 232 276 351 416
#     4  10  24  44  69 102 141 179 230 295 338 413
#     4  11  22  42  63 100 138 173 225 282 343 406
#     4  10  22  45  68  96 132 184 236 277 347 414
#     4  11  24  42  64 101 135 174 224 288 348 410
#     4  10  22  41  70  99 126 183 226 282 340 411
#
# _framework density 20.66883
#
# number of rings (size 3 to 8) (size 9 to 14) (size 15 to 20)
#    0.000    1.500    2.500    1.500    7.000    0.000 
#   13.500    3.750    0.000    0.000    0.000    0.000 
#    0.000    0.000    0.000    0.000    0.000    0.000 
#
# Total GULP energy -178425.887223 kJ/mol
# GULP energy per Si atom -5575.808976 kJ/mol
# Density = 2.062179 g / cm^3
# Si number density = 20.668830 Si / 1000 Ang^3
#
#
#
# Elastic Constant Matrix: (Units=GPa)
#
#
# Indices 1 2 3 4 5 6 
#
# 1 166.0513 47.2777 25.3937 0.0000 0.0000 0.0000
# 2 47.2777 115.7677 25.1160 0.0000 0.0000 0.0000
# 3 25.3937 25.1160 69.3635 0.0000 0.0000 0.0000
# 4 0.0000 0.0000 0.0000 22.0894 0.0000 0.0000
# 5 0.0000 0.0000 0.0000 0.0000 24.2291 0.0000
# 6 0.0000 0.0000 0.0000 0.0000 0.0000 22.0258
#
#
#
# Elastic Compliance Matrix: (Units=1/GPa)
#
#
# Indices 1 2 3 4 5 6 
#
# 1 0.006985 -0.002494 -0.001654 0.000000 0.000000 0.000000
# 2 -0.002494 0.010265 -0.002804 0.000000 0.000000 0.000000
# 3 -0.001654 -0.002804 0.016038 0.000000 0.000000 0.000000
# 4 0.000000 0.000000 0.000000 0.045271 0.000000 0.000000
# 5 0.000000 0.000000 0.000000 0.000000 0.041273 0.000000
# 6 0.000000 0.000000 0.000000 0.000000 0.000000 0.045401
#
#
# Mechanical properties :
#
#
# Convention : Reuss Voigt Hill
#
# Bulk Modulus (GPa) = 51.58928 60.75081 56.17005
# Shear Modulus (GPa) = 26.94008 30.56189 28.75099
#
# Velocity S-wave (km/s) = 3.61420 3.84949 3.73370
# Velocity P-wave (km/s) = 6.51389 7.01530 6.76924
#
# Compressibility (1/GPa) = 0.01938387
#
# Stress axis : x y z
#
# Youngs Moduli (GPa) = 143.15908 97.42142 62.35321
#
# Poissons Ratio (x) = 0.24295 0.10315
# Poissons Ratio (y) = 0.35700 0.17483
# Poissons Ratio (z) = 0.23683 0.27315
#
# Static dielectric constant tensor:
#      x y z
#    x 1.776170 0.000000 0.000000 
#    y 0.000000 1.744490 0.000000 
#    z 0.000000 0.000000 1.796500 
# 
# From -- ./inp_files/4413.got.cif
#   From: 2010.05.17/outbox.cif.g08.bks.cpg/sg33_3_cif.got.tgz:4413.got - 2010.06.03 17:15:25.
