data_PCOD9345992
_publ_section_title
;
Structure prediction by ZEFSAII (Michael W. Deem and Ramdas Pophale) SiO2 
 PCOD9345992
Probable space group: P N A 21
;
_chemical_formula_sum "Si O2"
_cell_formula_units_Z 28
_cell_length_a 7.319392
_cell_length_b 13.807110
_cell_length_c 11.922132
_cell_angle_alpha 90.000000
_cell_angle_beta 90.000000
_cell_angle_gamma 90.000000
_cell_volume 1204.846493
_symmetry_space_group_name_H-M "P N A 21"
_symmetry_group_IT_number 33
_symmetry_cell_setting 'orthorhombic'
loop_
_space_group_symop_operation_xyz
x,y,z
-x,-y,1/2+z
1/2-x,1/2+y,1/2+z
1/2+x,1/2-y,z
loop_
_atom_site_type_symbol
_atom_site_label
_atom_site_fract_x
_atom_site_fract_y
_atom_site_fract_z
Si Si1 0.236264 0.425115 0.752380
Si Si2 0.364552 0.174411 0.482309
Si Si3 0.333988 0.965018 0.005266
Si Si4 0.621471 0.696472 0.607475
Si Si5 0.552511 0.153969 0.966468
Si Si6 0.007073 0.125263 0.581617
Si Si7 0.802190 0.854462 0.760496
O O1 0.143787 0.359664 0.845493
O O2 0.433819 0.390888 0.707136
O O3 0.252555 0.535970 0.789426
O O4 0.126516 0.434153 0.635016
O O5 0.534292 0.109269 0.441661
O O6 0.438655 0.268522 0.544670
O O7 0.236902 0.200949 0.375836
O O8 0.220645 0.117968 0.561093
O O9 0.116235 0.946784 0.003621
O O10 0.396770 0.072494 0.977500
O O11 0.516872 0.739040 0.498777
O O12 0.791599 0.636674 0.561235
O O13 0.683748 0.794753 0.670772
O O14 0.496829 0.643571 0.698422
#
# Coordination Sequence:
#
# PCOD9345992 Si02
#       7
#     4   4   4   4   4   4   4
#     4  10  23  41  64  92 133 164 219 267 325 391
#     4  12  21  41  67  93 131 170 213 266 326 378
#     4  10  23  41  65  91 133 163 214 272 317 386
#     4  10  24  39  66  90 131 166 226 264 328 393
#     4  11  22  45  65  91 128 177 209 278 328 383
#     4  10  23  39  62  97 130 162 213 266 313 392
#     4  11  22  40  61  96 124 170 218 269 321 395
#
# _framework density 23.239473
#
# number of rings (size 3 to 8) (size 9 to 14) (size 15 to 20)
#    0.857    0.571    4.286    0.857    2.000    2.286 
#    2.571    1.429    0.000    0.000    0.000    0.000 
#    0.000    0.000    0.000    0.000    0.000    0.000 
#
# Total GULP energy -156166.225169 kJ/mol
# GULP energy per Si atom -5577.365185 kJ/mol
# Density = 2.318658 g / cm^3
# Si number density = 23.239473 Si / 1000 Ang^3
#
#
#
# Elastic Constant Matrix: (Units=GPa)
#
#
# Indices 1 2 3 4 5 6 
#
# 1 56.4192 -6.0765 -15.8595 0.0000 0.0000 0.0000
# 2 -6.0765 55.5180 -6.5369 0.0000 0.0000 0.0000
# 3 -15.8595 -6.5369 38.2732 0.0000 0.0000 0.0000
# 4 0.0000 0.0000 0.0000 25.5850 0.0000 0.0000
# 5 0.0000 0.0000 0.0000 0.0000 35.1935 0.0000
# 6 0.0000 0.0000 0.0000 0.0000 0.0000 21.5545
#
#
#
# Elastic Compliance Matrix: (Units=1/GPa)
#
#
# Indices 1 2 3 4 5 6 
#
# 1 0.020649 0.003335 0.009126 0.000000 0.000000 0.000000
# 2 0.003335 0.018920 0.004613 0.000000 0.000000 0.000000
# 3 0.009126 0.004613 0.030697 0.000000 0.000000 0.000000
# 4 0.000000 0.000000 0.000000 0.039085 0.000000 0.000000
# 5 0.000000 0.000000 0.000000 0.000000 0.028414 0.000000
# 6 0.000000 0.000000 0.000000 0.000000 0.000000 0.046394
#
#
# Mechanical properties :
#
#
# Convention : Reuss Voigt Hill
#
# Bulk Modulus (GPa) = 9.57725 10.36276 9.97000
# Shear Modulus (GPa) = 27.05368 28.37881 27.71625
#
# Velocity S-wave (km/s) = 3.41563 3.49828 3.45720
# Velocity P-wave (km/s) = 4.43683 4.55918 4.49842
#
# Compressibility (1/GPa) = 0.10441408
#
# Stress axis : x y z
#
# Youngs Moduli (GPa) = 48.42877 52.85321 32.57600
#
# Poissons Ratio (x) = -0.17624 -0.29729
# Poissons Ratio (y) = -0.16149 -0.15028
# Poissons Ratio (z) = -0.44196 -0.24382
#
# Static dielectric constant tensor:
#      x y z
#    x 1.948320 0.000000 0.000000 
#    y 0.000000 1.902460 0.000000 
#    z 0.000000 0.000000 1.913480 
# 
# From -- ./inp_files/5906.got.cif
#   From: 2010.05.17/outbox.cif.g08.bks.cpg/sg33_3_cif.got.tgz:5906.got - 2010.06.03 17:15:25.
