data_PCOD9345577
_publ_section_title
;
Structure prediction by ZEFSAII (Michael W. Deem and Ramdas Pophale) SiO2 
 PCOD9345577
Probable space group: P N A 21
;
_chemical_formula_sum "Si O2"
_cell_formula_units_Z 24
_cell_length_a 9.617482
_cell_length_b 18.131577
_cell_length_c 5.061815
_cell_angle_alpha 90.000000
_cell_angle_beta 90.000000
_cell_angle_gamma 90.000000
_cell_volume 882.679884
_symmetry_space_group_name_H-M "P N A 21"
_symmetry_group_IT_number 33
_symmetry_cell_setting 'orthorhombic'
loop_
_space_group_symop_operation_xyz
x,y,z
-x,-y,1/2+z
1/2-x,1/2+y,1/2+z
1/2+x,1/2-y,z
loop_
_atom_site_type_symbol
_atom_site_label
_atom_site_fract_x
_atom_site_fract_y
_atom_site_fract_z
Si Si1 0.570544 0.407450 0.937450
Si Si2 0.417132 0.179345 0.405320
Si Si3 0.171533 0.360446 0.082123
Si Si4 0.172485 0.240589 0.687346
Si Si5 0.119128 0.926601 0.940366
Si Si6 0.585448 0.987373 0.035569
O O1 0.650774 0.333988 0.857182
O O2 0.449701 0.413628 0.720143
O O3 0.649755 0.485767 0.913567
O O4 0.500589 0.406230 0.224818
O O5 0.512123 0.163983 0.146339
O O6 0.273194 0.221904 0.442460
O O7 0.527733 0.224980 0.583210
O O8 0.375494 0.096851 0.497784
O O9 0.252590 0.376363 0.353417
O O10 0.176793 0.442213 0.953684
O O11 0.234148 0.299842 0.891622
O O12 0.542511 0.002017 0.334921
#
# Coordination Sequence:
#
# PCOD9345577 Si02
#       6
#     4   4   4   4   4   4
#     4  10  24  45  74 109 149 197 252 312 376 463
#     4  11  27  45  74 108 149 199 248 317 381 458
#     4  11  25  44  75 107 151 200 252 317 381 462
#     4  12  26  47  70 109 150 192 251 318 386 443
#     4  10  23  46  75 106 147 202 249 305 383 459
#     4  10  21  45  70 103 140 194 248 297 365 453
#
# _framework density 27.189927000000001
#
# number of rings (size 3 to 8) (size 9 to 14) (size 15 to 20)
#    0.000    1.333    1.667    2.000    7.000    1.333 
#    0.000    5.000    0.000    0.000    0.000    0.000 
#    0.000    0.000    0.000    0.000    0.000    0.000 
#
# Total GULP energy -134463.589356 kJ/mol
# GULP energy per Si atom -5602.649556 kJ/mol
# Density = 2.712804 g / cm^3
# Si number density = 27.189927 Si / 1000 Ang^3
#
#
#
# Elastic Constant Matrix: (Units=GPa)
#
#
# Indices 1 2 3 4 5 6 
#
# 1 92.6001 60.5662 53.6312 0.0000 0.0000 0.0000
# 2 60.5662 221.4392 22.9641 0.0000 0.0000 0.0000
# 3 53.6312 22.9641 60.3144 0.0000 0.0000 0.0000
# 4 0.0000 0.0000 0.0000 40.4126 0.0000 0.0000
# 5 0.0000 0.0000 0.0000 0.0000 29.6102 0.0000
# 6 0.0000 0.0000 0.0000 0.0000 0.0000 25.0988
#
#
#
# Elastic Compliance Matrix: (Units=1/GPa)
#
#
# Indices 1 2 3 4 5 6 
#
# 1 0.026785 -0.005056 -0.021892 0.000000 0.000000 0.000000
# 2 -0.005056 0.005656 0.002342 0.000000 0.000000 0.000000
# 3 -0.021892 0.002342 0.035155 0.000000 0.000000 0.000000
# 4 0.000000 0.000000 0.000000 0.024745 0.000000 0.000000
# 5 0.000000 0.000000 0.000000 0.000000 0.033772 0.000000
# 6 0.000000 0.000000 0.000000 0.000000 0.000000 0.039843
#
#
# Mechanical properties :
#
#
# Convention : Reuss Voigt Hill
#
# Bulk Modulus (GPa) = 54.39588 72.07519 63.23554
# Shear Modulus (GPa) = 22.59425 34.83712 28.71569
#
# Velocity S-wave (km/s) = 2.88580 3.58334 3.25332
# Velocity P-wave (km/s) = 5.58150 6.60954 6.11715
#
# Compressibility (1/GPa) = 0.01838374
#
# Stress axis : x y z
#
# Youngs Moduli (GPa) = 37.33386 176.80854 28.44576
#
# Poissons Ratio (x) = 0.89390 0.62275
# Poissons Ratio (y) = 0.18875 -0.06662
# Poissons Ratio (z) = 0.81733 -0.41411
#
# Static dielectric constant tensor:
#      x y z
#    x 2.106210 0.000000 0.000000 
#    y 0.000000 2.174580 0.000000 
#    z 0.000000 0.000000 2.093460 
# 
# From -- ./inp_files/888.got.cif
#   From: 2010.05.17/outbox.cif.g08.bks.cpg/sg33_1_cif.got.tgz:888.got - 2010.06.03 17:15:25.
