data_PCOD9345510
_publ_section_title
;
Structure prediction by ZEFSAII (Michael W. Deem and Ramdas Pophale) SiO2 
 PCOD9345510
Probable space group: P N A 21
;
_chemical_formula_sum "Si O2"
_cell_formula_units_Z 20
_cell_length_a 7.938831
_cell_length_b 16.750529
_cell_length_c 6.397903
_cell_angle_alpha 90.000000
_cell_angle_beta 90.000000
_cell_angle_gamma 90.000000
_cell_volume 850.790703
_symmetry_space_group_name_H-M "P N A 21"
_symmetry_group_IT_number 33
_symmetry_cell_setting 'orthorhombic'
loop_
_space_group_symop_operation_xyz
x,y,z
-x,-y,1/2+z
1/2-x,1/2+y,1/2+z
1/2+x,1/2-y,z
loop_
_atom_site_type_symbol
_atom_site_label
_atom_site_fract_x
_atom_site_fract_y
_atom_site_fract_z
Si Si1 0.089647 0.423829 0.134540
Si Si2 0.723345 0.213736 0.345518
Si Si3 0.208209 0.844219 0.256662
Si Si4 0.237467 0.002232 0.995530
Si Si5 0.042784 0.159828 0.096410
O O1 0.075656 0.350944 0.299437
O O2 0.220541 0.483324 0.251942
O O3 0.918075 0.468743 0.086267
O O4 0.163599 0.378995 0.931186
O O5 0.731859 0.222635 0.593223
O O6 0.690689 0.287904 0.195003
O O7 0.895572 0.173022 0.265827
O O8 0.046461 0.813661 0.382276
O O9 0.179058 0.922848 0.115361
O O10 0.106763 0.071654 0.046993
#
# Coordination Sequence:
#
# PCOD9345510 Si02
#       5
#     4   4   4   4   4
#     4  10  21  42  68 102 142 181 235 287 358 425
#     4  10  24  45  65 103 141 191 237 295 363 432
#     4  10  24  42  68 103 145 184 240 297 359 432
#     4  11  22  40  71 107 141 184 233 297 359 434
#     4  11  25  43  72 101 145 186 245 294 365 439
#
# _framework density 23.507545
#
# number of rings (size 3 to 8) (size 9 to 14) (size 15 to 20)
#    0.000    1.600    2.000    1.200    8.400    3.200 
#    0.000    4.000    0.000    0.000    0.000    0.000 
#    0.000    0.000    0.000    0.000    0.000    0.000 
#
# Total GULP energy -111625.764875 kJ/mol
# GULP energy per Si atom -5581.288244 kJ/mol
# Density = 2.345404 g / cm^3
# Si number density = 23.507545 Si / 1000 Ang^3
#
#
#
# Elastic Constant Matrix: (Units=GPa)
#
#
# Indices 1 2 3 4 5 6 
#
# 1 90.5090 14.6876 47.1631 0.0000 0.0000 0.0000
# 2 14.6876 36.0976 23.8970 0.0000 0.0000 0.0000
# 3 47.1631 23.8970 156.4605 0.0000 0.0000 0.0000
# 4 0.0000 0.0000 0.0000 38.9069 0.0000 0.0000
# 5 0.0000 0.0000 0.0000 0.0000 36.1752 0.0000
# 6 0.0000 0.0000 0.0000 0.0000 0.0000 36.3438
#
#
#
# Elastic Compliance Matrix: (Units=1/GPa)
#
#
# Indices 1 2 3 4 5 6 
#
# 1 0.013411 -0.003093 -0.003570 0.000000 0.000000 0.000000
# 2 -0.003093 0.031532 -0.003884 0.000000 0.000000 0.000000
# 3 -0.003570 -0.003884 0.008061 0.000000 0.000000 0.000000
# 4 0.000000 0.000000 0.000000 0.025702 0.000000 0.000000
# 5 0.000000 0.000000 0.000000 0.000000 0.027643 0.000000
# 6 0.000000 0.000000 0.000000 0.000000 0.000000 0.027515
#
#
# Mechanical properties :
#
#
# Convention : Reuss Voigt Hill
#
# Bulk Modulus (GPa) = 31.33829 50.50697 40.92263
# Shear Modulus (GPa) = 30.19409 35.43979 32.81694
#
# Velocity S-wave (km/s) = 3.58780 3.88698 3.74039
# Velocity P-wave (km/s) = 5.52478 6.45577 6.00833
#
# Compressibility (1/GPa) = 0.03190985
#
# Stress axis : x y z
#
# Youngs Moduli (GPa) = 74.56602 31.71355 124.05837
#
# Poissons Ratio (x) = 0.09810 0.44290
# Poissons Ratio (y) = 0.23065 0.48180
# Poissons Ratio (z) = 0.26621 0.12316
#
# Static dielectric constant tensor:
#      x y z
#    x 1.929030 0.000000 0.000000 
#    y 0.000000 1.956550 0.000000 
#    z 0.000000 0.000000 1.925990 
# 
# From -- ./inp_files/362.got.cif
#   From: 2010.05.17/outbox.cif.g08.bks.cpg/sg33_1_cif.got.tgz:362.got - 2010.06.03 17:15:25.
