data_PCOD9345459
_publ_section_title
;
Structure prediction by ZEFSAII (Michael W. Deem and Ramdas Pophale) SiO2 
 PCOD9345459
Probable space group: P N A 21
;
_chemical_formula_sum "Si O2"
_cell_formula_units_Z 32
_cell_length_a 18.372825
_cell_length_b 11.827318
_cell_length_c 5.411995
_cell_angle_alpha 90.000000
_cell_angle_beta 90.000000
_cell_angle_gamma 90.000000
_cell_volume 1176.033245
_symmetry_space_group_name_H-M "P N A 21"
_symmetry_group_IT_number 33
_symmetry_cell_setting 'orthorhombic'
loop_
_space_group_symop_operation_xyz
x,y,z
-x,-y,1/2+z
1/2-x,1/2+y,1/2+z
1/2+x,1/2-y,z
loop_
_atom_site_type_symbol
_atom_site_label
_atom_site_fract_x
_atom_site_fract_y
_atom_site_fract_z
Si Si1 0.615390 0.798850 0.660090
Si Si2 0.897954 0.112149 0.813547
Si Si3 0.923681 0.530614 0.386392
Si Si4 0.770739 0.622569 0.183899
Si Si5 0.473861 0.744910 0.170798
Si Si6 0.323785 0.025970 0.767882
Si Si7 0.740037 0.328446 0.414413
Si Si8 0.407995 0.645434 0.679152
O O1 0.584335 0.679573 0.568604
O O2 0.686395 0.772211 0.818837
O O3 0.569349 0.901536 0.786284
O O4 0.651351 0.865660 0.425527
O O5 0.810659 0.113928 0.786773
O O6 0.923399 0.984199 0.763789
O O7 0.945534 0.192633 0.636471
O O8 0.845952 0.577049 0.291757
O O9 0.975721 0.626220 0.274764
O O10 0.900414 0.526381 0.673458
O O11 0.775048 0.558286 0.923380
O O12 0.788324 0.752451 0.134299
O O13 0.435819 0.677655 0.404456
O O14 0.437061 0.724119 0.904716
O O15 0.271133 0.061799 0.545336
O O16 0.679818 0.343586 0.206984
#
# Coordination Sequence:
#
# PCOD9345459 Si02
#       8
#     4   4   4   4   4   4   4   4
#     4  10  24  43  67 111 140 182 250 310 383 437
#     4  12  27  48  72 112 151 198 249 317 376 455
#     4  10  23  47  72 101 143 197 246 310 371 452
#     4  11  23  39  72 103 142 182 244 312 369 439
#     4  12  29  52  75 108 150 207 256 304 375 458
#     4  10  21  41  66 106 140 177 242 307 378 432
#     4  11  23  39  73 108 139 191 245 315 373 445
#     4  12  28  49  77 105 155 202 254 305 379 454
#
# _framework density 27.210111999999999
#
# number of rings (size 3 to 8) (size 9 to 14) (size 15 to 20)
#    0.000    1.000    2.500    3.750   10.500    1.000 
#    2.250    0.000    0.000    0.000    0.000    0.000 
#    0.000    0.000    0.000    0.000    0.000    0.000 
#
# Total GULP energy -178826.530328 kJ/mol
# GULP energy per Si atom -5588.329073 kJ/mol
# Density = 2.714818 g / cm^3
# Si number density = 27.210112 Si / 1000 Ang^3
#
#
#
# Elastic Constant Matrix: (Units=GPa)
#
#
# Indices 1 2 3 4 5 6 
#
# 1 122.1581 30.8607 29.4729 0.0000 0.0000 0.0000
# 2 30.8607 142.1518 23.5068 0.0000 0.0000 0.0000
# 3 29.4729 23.5068 88.5005 0.0000 0.0000 0.0000
# 4 0.0000 0.0000 0.0000 27.9139 0.0000 0.0000
# 5 0.0000 0.0000 0.0000 0.0000 41.3150 0.0000
# 6 0.0000 0.0000 0.0000 0.0000 0.0000 42.7759
#
#
#
# Elastic Compliance Matrix: (Units=1/GPa)
#
#
# Indices 1 2 3 4 5 6 
#
# 1 0.009222 -0.001563 -0.002656 0.000000 0.000000 0.000000
# 2 -0.001563 0.007623 -0.001504 0.000000 0.000000 0.000000
# 3 -0.002656 -0.001504 0.012583 0.000000 0.000000 0.000000
# 4 0.000000 0.000000 0.000000 0.035824 0.000000 0.000000
# 5 0.000000 0.000000 0.000000 0.000000 0.024204 0.000000
# 6 0.000000 0.000000 0.000000 0.000000 0.000000 0.023378
#
#
# Mechanical properties :
#
#
# Convention : Reuss Voigt Hill
#
# Bulk Modulus (GPa) = 55.61154 57.83234 56.72194
# Shear Modulus (GPa) = 38.38055 40.33228 39.35641
#
# Velocity S-wave (km/s) = 3.75977 3.85418 3.80727
# Velocity P-wave (km/s) = 6.27137 6.41143 6.34178
#
# Compressibility (1/GPa) = 0.01798188
#
# Stress axis : x y z
#
# Youngs Moduli (GPa) = 108.43952 131.18605 79.46960
#
# Poissons Ratio (x) = 0.20502 0.21107
# Poissons Ratio (y) = 0.16947 0.11954
# Poissons Ratio (z) = 0.28801 0.19734
#
# Static dielectric constant tensor:
#      x y z
#    x 2.142450 0.000000 0.000000 
#    y 0.000000 2.169330 0.000000 
#    z 0.000000 0.000000 2.394990 
# 
# From -- ./inp_files/2041.got.cif
#   From: 2010.05.17/outbox.cif.g08.bks.cpg/sg33_2_cif.got.tgz:2041.got - 2010.06.03 17:15:25.
