data_PCOD9345536
_publ_section_title
;
Structure prediction by ZEFSAII (Michael W. Deem and Ramdas Pophale) SiO2 
 PCOD9345536
Probable space group: P N A 21
;
_chemical_formula_sum "Si O2"
_cell_formula_units_Z 28
_cell_length_a 10.795198
_cell_length_b 20.444661
_cell_length_c 5.062642
_cell_angle_alpha 90.000000
_cell_angle_beta 90.000000
_cell_angle_gamma 90.000000
_cell_volume 1117.346168
_symmetry_space_group_name_H-M "P N A 21"
_symmetry_group_IT_number 33
_symmetry_cell_setting 'orthorhombic'
loop_
_space_group_symop_operation_xyz
x,y,z
-x,-y,1/2+z
1/2-x,1/2+y,1/2+z
1/2+x,1/2-y,z
loop_
_atom_site_type_symbol
_atom_site_label
_atom_site_fract_x
_atom_site_fract_y
_atom_site_fract_z
Si Si1 0.855339 0.189149 0.093730
Si Si2 0.146244 0.615622 0.186265
Si Si3 0.859326 0.956455 0.425471
Si Si4 0.916065 0.490085 0.302177
Si Si5 0.711433 0.745700 0.088000
Si Si6 0.002980 0.085885 0.416791
Si Si7 0.138196 0.369479 0.798024
O O1 0.825843 0.249381 0.284382
O O2 0.728855 0.147573 0.043272
O O3 0.951473 0.149403 0.270616
O O4 0.886052 0.214487 0.800553
O O5 0.221247 0.562481 0.353672
O O6 0.128576 0.580527 0.902896
O O7 0.229760 0.680546 0.178005
O O8 0.010556 0.633734 0.295131
O O9 0.888688 0.938870 0.725280
O O10 0.949167 0.917517 0.217095
O O11 0.896863 0.031208 0.384680
O O12 0.833608 0.554201 0.230113
O O13 0.016893 0.485546 0.073102
O O14 0.818467 0.690897 0.110375
#
# Coordination Sequence:
#
# PCOD9345536 Si02
#       7
#     4   4   4   4   4   4   4
#     4  10  22  44  67  93 127 189 220 285 344 422
#     4  11  24  47  67 108 139 182 238 297 354 443
#     4  10  23  39  66 102 130 178 219 290 332 400
#     4  10  23  40  69 100 137 180 221 294 355 416
#     4  10  25  41  65  98 135 182 227 277 363 416
#     4  10  21  43  67  94 136 172 234 270 340 419
#     4   9  24  44  69 101 138 175 233 287 364 416
#
# _framework density 25.059377000000001
#
# number of rings (size 3 to 8) (size 9 to 14) (size 15 to 20)
#    0.857    1.143    0.000    1.714    4.000    8.000 
#    2.571    0.000    0.000    0.000    0.000    0.000 
#    0.000    0.000    0.000    0.000    0.000    0.000 
#
# Total GULP energy -156120.588232 kJ/mol
# GULP energy per Si atom -5575.735294 kJ/mol
# Density = 2.500234 g / cm^3
# Si number density = 25.059377 Si / 1000 Ang^3
#
#
#
# Elastic Constant Matrix: (Units=GPa)
#
#
# Indices 1 2 3 4 5 6 
#
# 1 51.5841 10.4158 12.2160 0.0000 0.0000 0.0000
# 2 10.4158 116.4510 -0.5177 0.0000 0.0000 0.0000
# 3 12.2160 -0.5177 89.6938 0.0000 0.0000 0.0000
# 4 0.0000 0.0000 0.0000 14.2301 0.0000 0.0000
# 5 0.0000 0.0000 0.0000 0.0000 39.8905 0.0000
# 6 0.0000 0.0000 0.0000 0.0000 0.0000 22.9004
#
#
#
# Elastic Compliance Matrix: (Units=1/GPa)
#
#
# Indices 1 2 3 4 5 6 
#
# 1 0.020418 -0.001839 -0.002792 0.000000 0.000000 0.000000
# 2 -0.001839 0.008753 0.000301 0.000000 0.000000 0.000000
# 3 -0.002792 0.000301 0.011531 0.000000 0.000000 0.000000
# 4 0.000000 0.000000 0.000000 0.070274 0.000000 0.000000
# 5 0.000000 0.000000 0.000000 0.000000 0.025069 0.000000
# 6 0.000000 0.000000 0.000000 0.000000 0.000000 0.043667
#
#
# Mechanical properties :
#
#
# Convention : Reuss Voigt Hill
#
# Bulk Modulus (GPa) = 31.20733 33.55079 32.37906
# Shear Modulus (GPa) = 25.11912 31.11185 28.11549
#
# Velocity S-wave (km/s) = 3.16948 3.52735 3.35319
# Velocity P-wave (km/s) = 5.08670 5.47788 5.28591
#
# Compressibility (1/GPa) = 0.03204375
#
# Stress axis : x y z
#
# Youngs Moduli (GPa) = 48.97600 114.24530 86.72298
#
# Poissons Ratio (x) = 0.21006 0.24209
# Poissons Ratio (y) = 0.09005 -0.02610
# Poissons Ratio (z) = 0.13672 -0.03438
#
# Static dielectric constant tensor:
#      x y z
#    x 2.053920 0.000000 0.000000 
#    y 0.000000 2.081850 0.000000 
#    z 0.000000 0.000000 1.987720 
# 
# From -- ./inp_files/995.got.cif
#   From: 2010.05.17/outbox.cif.g08.bks.cpg/sg33_1_cif.got.tgz:995.got - 2010.06.03 17:15:25.
