data_PCOD9345875
_publ_section_title
;
Structure prediction by ZEFSAII (Michael W. Deem and Ramdas Pophale) SiO2 
 PCOD9345875
Probable space group: P N A 21
;
_chemical_formula_sum "Si O2"
_cell_formula_units_Z 32
_cell_length_a 14.011852
_cell_length_b 8.317062
_cell_length_c 11.477520
_cell_angle_alpha 90.000000
_cell_angle_beta 90.000000
_cell_angle_gamma 90.000000
_cell_volume 1337.560819
_symmetry_space_group_name_H-M "P N A 21"
_symmetry_group_IT_number 33
_symmetry_cell_setting 'orthorhombic'
loop_
_space_group_symop_operation_xyz
x,y,z
-x,-y,1/2+z
1/2-x,1/2+y,1/2+z
1/2+x,1/2-y,z
loop_
_atom_site_type_symbol
_atom_site_label
_atom_site_fract_x
_atom_site_fract_y
_atom_site_fract_z
Si Si1 0.907961 0.144261 0.008320
Si Si2 0.692879 0.227246 0.003746
Si Si3 0.433086 0.185590 0.252302
Si Si4 0.409768 0.026198 0.652007
Si Si5 0.035658 0.023935 0.338895
Si Si6 0.025122 0.156070 0.613081
Si Si7 0.275961 0.695889 0.243065
Si Si8 0.224069 0.061417 0.231319
O O1 0.929501 0.247977 0.118786
O O2 0.956381 0.962383 0.001904
O O3 0.795383 0.138531 0.999542
O O4 0.955759 0.170270 0.884916
O O5 0.686866 0.308458 0.876882
O O6 0.702680 0.356353 0.107244
O O7 0.615918 0.098078 0.047547
O O8 0.454847 0.335414 0.334821
O O9 0.328729 0.115682 0.274656
O O10 0.518610 0.057646 0.244349
O O11 0.465662 0.181909 0.602497
O O12 0.308247 0.071551 0.711467
O O13 0.141479 0.105446 0.321472
O O14 0.023560 0.965816 0.201402
O O15 0.131717 0.181094 0.661589
O O16 0.232167 0.870680 0.221053
#
# Coordination Sequence:
#
# PCOD9345875 Si02
#       8
#     4   4   4   4   4   4   4   4
#     4  10  22  44  64  96 131 177 221 275 345 404
#     4  11  24  43  70  95 133 184 221 281 346 405
#     4  10  24  40  70  97 134 175 229 284 330 417
#     4  12  23  44  66  99 136 174 229 285 333 404
#     4  11  22  43  70  93 136 179 219 281 348 398
#     4  11  24  41  65  98 135 171 223 282 331 409
#     4  12  25  45  68  99 139 177 224 286 343 401
#     4  11  22  44  65  97 138 173 228 280 338 408
#
# _framework density 23.924143999999998
#
# number of rings (size 3 to 8) (size 9 to 14) (size 15 to 20)
#    0.000    1.000    6.250    0.000    1.750    1.000 
#    2.250    1.250    0.000    0.000    0.000    0.000 
#    0.000    0.000    0.000    0.000    0.000    0.000 
#
# Total GULP energy -178555.857482 kJ/mol
# GULP energy per Si atom -5579.870546 kJ/mol
# Density = 2.386969 g / cm^3
# Si number density = 23.924144 Si / 1000 Ang^3
#
#
#
# Elastic Constant Matrix: (Units=GPa)
#
#
# Indices 1 2 3 4 5 6 
#
# 1 125.0121 21.4647 23.3370 0.0000 0.0000 0.0000
# 2 21.4647 45.1609 18.8991 0.0000 0.0000 0.0000
# 3 23.3370 18.8991 102.5739 0.0000 0.0000 0.0000
# 4 0.0000 0.0000 0.0000 33.7963 0.0000 0.0000
# 5 0.0000 0.0000 0.0000 0.0000 34.7573 0.0000
# 6 0.0000 0.0000 0.0000 0.0000 0.0000 51.6163
#
#
#
# Elastic Compliance Matrix: (Units=1/GPa)
#
#
# Indices 1 2 3 4 5 6 
#
# 1 0.008878 -0.003656 -0.001346 0.000000 0.000000 0.000000
# 2 -0.003656 0.025499 -0.003866 0.000000 0.000000 0.000000
# 3 -0.001346 -0.003866 0.010768 0.000000 0.000000 0.000000
# 4 0.000000 0.000000 0.000000 0.029589 0.000000 0.000000
# 5 0.000000 0.000000 0.000000 0.000000 0.028771 0.000000
# 6 0.000000 0.000000 0.000000 0.000000 0.000000 0.019374
#
#
# Mechanical properties :
#
#
# Convention : Reuss Voigt Hill
#
# Bulk Modulus (GPa) = 36.48693 44.46094 40.47393
# Shear Modulus (GPa) = 33.38847 37.97038 35.67943
#
# Velocity S-wave (km/s) = 3.73982 3.98818 3.86600
# Velocity P-wave (km/s) = 5.82517 6.31126 6.07308
#
# Compressibility (1/GPa) = 0.02740708
#
# Stress axis : x y z
#
# Youngs Moduli (GPa) = 112.63346 39.21735 92.87022
#
# Poissons Ratio (x) = 0.14340 0.12503
# Poissons Ratio (y) = 0.41184 0.35906
# Poissons Ratio (z) = 0.15163 0.15162
#
# Static dielectric constant tensor:
#      x y z
#    x 2.070270 0.000000 0.000000 
#    y 0.000000 1.968370 0.000000 
#    z 0.000000 0.000000 1.979820 
# 
# From -- ./inp_files/6782.got.cif
#   From: 2010.05.17/outbox.cif.g08.bks.cpg/sg33_4_cif.got.tgz:6782.got - 2010.06.03 17:15:25.
