data_PCOD9345770
_publ_section_title
;
Structure prediction by ZEFSAII (Michael W. Deem and Ramdas Pophale) SiO2 
 PCOD9345770
Probable space group: P N A 21
;
_chemical_formula_sum "Si O2"
_cell_formula_units_Z 28
_cell_length_a 13.951912
_cell_length_b 14.527103
_cell_length_c 6.872684
_cell_angle_alpha 90.000000
_cell_angle_beta 90.000000
_cell_angle_gamma 90.000000
_cell_volume 1392.961522
_symmetry_space_group_name_H-M "P N A 21"
_symmetry_group_IT_number 33
_symmetry_cell_setting 'orthorhombic'
loop_
_space_group_symop_operation_xyz
x,y,z
-x,-y,1/2+z
1/2-x,1/2+y,1/2+z
1/2+x,1/2-y,z
loop_
_atom_site_type_symbol
_atom_site_label
_atom_site_fract_x
_atom_site_fract_y
_atom_site_fract_z
Si Si1 0.648843 0.515000 0.910040
Si Si2 0.197183 0.332347 0.496077
Si Si3 0.409569 0.101210 0.435869
Si Si4 0.037392 0.285890 0.175139
Si Si5 0.957774 0.596170 0.287315
Si Si6 0.945407 0.919377 0.761185
Si Si7 0.706456 0.377712 0.583401
O O1 0.714711 0.605385 0.927045
O O2 0.548005 0.537472 0.806851
O O3 0.699406 0.434221 0.784081
O O4 0.620758 0.481602 0.125016
O O5 0.126724 0.313450 0.313420
O O6 0.135232 0.387740 0.654389
O O7 0.220397 0.232789 0.590444
O O8 0.442808 0.181943 0.292527
O O9 0.452644 0.118923 0.649370
O O10 0.297158 0.087527 0.459066
O O11 0.459415 0.008930 0.356483
O O12 0.038890 0.176986 0.150729
O O13 0.043649 0.339000 0.973690
O O14 0.889694 0.896532 0.960387
#
# Coordination Sequence:
#
# PCOD9345770 Si02
#       7
#     4   4   4   4   4   4   4
#     4  12  23  43  68  95 128 180 219 267 335 384
#     4  10  24  41  65  94 132 169 216 273 325 388
#     4  11  22  37  65  93 127 165 209 265 323 387
#     4  10  22  42  63  95 133 167 214 266 329 384
#     4  11  21  39  62  95 126 166 206 266 325 385
#     4  11  24  43  66  91 131 174 219 271 319 393
#     4  11  24  43  63  97 129 169 223 270 322 397
#
# _framework density 20.101056
#
# number of rings (size 3 to 8) (size 9 to 14) (size 15 to 20)
#    0.000    1.143    2.857    3.429    2.000    1.143 
#    2.571    0.000    0.000    0.000    0.000    0.000 
#    0.000    0.000    0.000    0.000    0.000    0.000 
#
# Total GULP energy -156502.019126 kJ/mol
# GULP energy per Si atom -5589.357826 kJ/mol
# Density = 2.005531 g / cm^3
# Si number density = 20.101056 Si / 1000 Ang^3
#
#
#
# Elastic Constant Matrix: (Units=GPa)
#
#
# Indices 1 2 3 4 5 6 
#
# 1 66.2042 9.2009 19.4098 0.0000 0.0000 0.0000
# 2 9.2009 75.2006 23.9360 0.0000 0.0000 0.0000
# 3 19.4098 23.9360 61.9947 0.0000 0.0000 0.0000
# 4 0.0000 0.0000 0.0000 26.7875 0.0000 0.0000
# 5 0.0000 0.0000 0.0000 0.0000 17.6436 0.0000
# 6 0.0000 0.0000 0.0000 0.0000 0.0000 28.2505
#
#
#
# Elastic Compliance Matrix: (Units=1/GPa)
#
#
# Indices 1 2 3 4 5 6 
#
# 1 0.016644 -0.000431 -0.005045 0.000000 0.000000 0.000000
# 2 -0.000431 0.015172 -0.005723 0.000000 0.000000 0.000000
# 3 -0.005045 -0.005723 0.019919 0.000000 0.000000 0.000000
# 4 0.000000 0.000000 0.000000 0.037331 0.000000 0.000000
# 5 0.000000 0.000000 0.000000 0.000000 0.056678 0.000000
# 6 0.000000 0.000000 0.000000 0.000000 0.000000 0.035398
#
#
# Mechanical properties :
#
#
# Convention : Reuss Voigt Hill
#
# Bulk Modulus (GPa) = 34.08497 34.27698 34.18098
# Shear Modulus (GPa) = 23.43922 24.59318 24.01620
#
# Velocity S-wave (km/s) = 3.41848 3.50162 3.46030
# Velocity P-wave (km/s) = 5.70745 5.78254 5.74512
#
# Compressibility (1/GPa) = 0.02933844
#
# Stress axis : x y z
#
# Youngs Moduli (GPa) = 60.08312 65.91051 50.20210
#
# Poissons Ratio (x) = 0.02839 0.25325
# Poissons Ratio (y) = 0.02588 0.28731
# Poissons Ratio (z) = 0.30310 0.37721
#
# Static dielectric constant tensor:
#      x y z
#    x 1.711440 0.000000 0.000000 
#    y 0.000000 1.711190 0.000000 
#    z 0.000000 0.000000 1.689560 
# 
# From -- ./inp_files/1386.got.cif
#   From: 2010.05.17/outbox.cif.g08.bks.cpg/sg33_1_cif.got.tgz:1386.got - 2010.06.03 17:15:25.
