data_PCOD9345591
_publ_section_title
;
Structure prediction by ZEFSAII (Michael W. Deem and Ramdas Pophale) SiO2 
 PCOD9345591
Probable space group: P N A 21
;
_chemical_formula_sum "Si O2"
_cell_formula_units_Z 20
_cell_length_a 8.770848
_cell_length_b 5.401021
_cell_length_c 15.959926
_cell_angle_alpha 90.000000
_cell_angle_beta 90.000000
_cell_angle_gamma 90.000000
_cell_volume 756.046181
_symmetry_space_group_name_H-M "P N A 21"
_symmetry_group_IT_number 33
_symmetry_cell_setting 'orthorhombic'
loop_
_space_group_symop_operation_xyz
x,y,z
-x,-y,1/2+z
1/2-x,1/2+y,1/2+z
1/2+x,1/2-y,z
loop_
_atom_site_type_symbol
_atom_site_label
_atom_site_fract_x
_atom_site_fract_y
_atom_site_fract_z
Si Si1 0.108779 0.871400 0.025140
Si Si2 0.174550 0.023702 0.633433
Si Si3 0.658692 0.257750 0.249828
Si Si4 0.621628 0.041341 0.418482
Si Si5 0.990890 0.732142 0.274580
O O1 0.204136 0.662823 0.075634
O O2 0.986002 0.999183 0.086019
O O3 0.997311 0.728927 0.960367
O O4 0.243382 0.031491 0.981908
O O5 0.732783 0.732798 0.670816
O O6 0.153468 0.185019 0.719508
O O7 0.588660 0.522814 0.261078
O O8 0.714393 0.179221 0.342924
O O9 0.540635 0.031039 0.236383
O O10 0.518852 0.832053 0.372801
#
# Coordination Sequence:
#
# PCOD9345591 Si02
#       5
#     4   4   4   4   4
#     4  10  21  47  77 125 161 212 256 357 403 486
#     4  11  22  47  82 115 163 207 276 323 416 475
#     4  10  24  45  80 107 148 204 266 315 385 477
#     4   9  23  44  79 111 166 198 274 319 419 461
#     4  10  24  47  78 106 152 207 264 318 383 487
#
# _framework density 26.453412
#
# number of rings (size 3 to 8) (size 9 to 14) (size 15 to 20)
#    1.200    0.800    2.000    0.000    2.800    3.200 
#    0.000    8.000    0.000    0.000    0.000    0.000 
#    0.000    0.000    0.000    0.000    0.000    0.000 
#
# Total GULP energy -111645.461986 kJ/mol
# GULP energy per Si atom -5582.273099 kJ/mol
# Density = 2.639320 g / cm^3
# Si number density = 26.453412 Si / 1000 Ang^3
#
#
#
# Elastic Constant Matrix: (Units=GPa)
#
#
# Indices 1 2 3 4 5 6 
#
# 1 100.1682 13.4063 58.6114 0.0000 0.0000 0.0000
# 2 13.4063 95.0039 25.7917 0.0000 0.0000 0.0000
# 3 58.6114 25.7917 143.7758 0.0000 0.0000 0.0000
# 4 0.0000 0.0000 0.0000 32.6151 0.0000 0.0000
# 5 0.0000 0.0000 0.0000 0.0000 71.8955 0.0000
# 6 0.0000 0.0000 0.0000 0.0000 0.0000 42.3001
#
#
#
# Elastic Compliance Matrix: (Units=1/GPa)
#
#
# Indices 1 2 3 4 5 6 
#
# 1 0.013126 -0.000420 -0.005276 0.000000 0.000000 0.000000
# 2 -0.000420 0.011078 -0.001816 0.000000 0.000000 0.000000
# 3 -0.005276 -0.001816 0.009432 0.000000 0.000000 0.000000
# 4 0.000000 0.000000 0.000000 0.030661 0.000000 0.000000
# 5 0.000000 0.000000 0.000000 0.000000 0.013909 0.000000
# 6 0.000000 0.000000 0.000000 0.000000 0.000000 0.023641
#
#
# Mechanical properties :
#
#
# Convention : Reuss Voigt Hill
#
# Bulk Modulus (GPa) = 53.72688 59.39628 56.56158
# Shear Modulus (GPa) = 40.62575 45.43802 43.03189
#
# Velocity S-wave (km/s) = 3.92311 4.14896 4.03762
# Velocity P-wave (km/s) = 6.39337 6.74194 6.56997
#
# Compressibility (1/GPa) = 0.01861266
#
# Stress axis : x y z
#
# Youngs Moduli (GPa) = 76.18223 90.26749 106.02489
#
# Poissons Ratio (x) = 0.03792 0.55936
# Poissons Ratio (y) = 0.03200 0.19255
# Poissons Ratio (z) = 0.40192 0.16393
#
# Static dielectric constant tensor:
#      x y z
#    x 2.131870 0.000000 0.000000 
#    y 0.000000 2.015910 0.000000 
#    z 0.000000 0.000000 2.214170 
# 
# From -- ./inp_files/7830.got.cif
#   From: 2010.05.17/outbox.cif.g08.bks.cpg/sg33_4_cif.got.tgz:7830.got - 2010.06.03 17:15:25.
