data_PCOD9345556
_publ_section_title
;
Structure prediction by ZEFSAII (Michael W. Deem and Ramdas Pophale) SiO2 
 PCOD9345556
Probable space group: P N A 21
;
_chemical_formula_sum "Si O2"
_cell_formula_units_Z 20
_cell_length_a 9.478006
_cell_length_b 12.425898
_cell_length_c 6.951543
_cell_angle_alpha 90.000000
_cell_angle_beta 90.000000
_cell_angle_gamma 90.000000
_cell_volume 818.702237
_symmetry_space_group_name_H-M "P N A 21"
_symmetry_group_IT_number 33
_symmetry_cell_setting 'orthorhombic'
loop_
_space_group_symop_operation_xyz
x,y,z
-x,-y,1/2+z
1/2-x,1/2+y,1/2+z
1/2+x,1/2-y,z
loop_
_atom_site_type_symbol
_atom_site_label
_atom_site_fract_x
_atom_site_fract_y
_atom_site_fract_z
Si Si1 0.982188 0.660030 0.066860
Si Si2 0.271237 0.450388 0.683249
Si Si3 0.124039 0.754334 0.422060
Si Si4 0.623310 0.392081 0.940259
Si Si5 0.807388 0.864597 0.989761
O O1 0.884605 0.554811 0.089378
O O2 0.893728 0.753608 0.959328
O O3 0.017822 0.686901 0.289500
O O4 0.137877 0.652161 0.982200
O O5 0.296010 0.333889 0.773250
O O6 0.368996 0.485601 0.507910
O O7 0.317874 0.535628 0.844832
O O8 0.240562 0.677495 0.514070
O O9 0.015525 0.834559 0.523923
O O10 0.644409 0.391288 0.709768
#
# Coordination Sequence:
#
# PCOD9345556 Si02
#       5
#     4   4   4   4   4
#     4  10  21  44  62  91 133 160 210 269 305 372
#     4  12  24  40  70  94 126 172 214 254 328 370
#     4  10  21  44  62  91 133 160 210 269 305 372
#     4  10  24  43  66  93 128 168 209 265 315 376
#     4  10  24  43  66  93 128 168 209 265 315 376
#
# _framework density 24.428906999999999
#
# number of rings (size 3 to 8) (size 9 to 14) (size 15 to 20)
#    0.000    1.600    6.000    0.000   11.200    1.600 
#    3.600    0.000    0.000    0.000    0.000    0.000 
#    0.000    0.000    0.000    0.000    0.000    0.000 
#
# Total GULP energy -111496.947563 kJ/mol
# GULP energy per Si atom -5574.847378 kJ/mol
# Density = 2.437331 g / cm^3
# Si number density = 24.428907 Si / 1000 Ang^3
#
#
#
# Elastic Constant Matrix: (Units=GPa)
#
#
# Indices 1 2 3 4 5 6 
#
# 1 138.9911 16.7218 12.6296 0.0000 0.0000 0.0000
# 2 16.7218 61.6851 24.7848 0.0000 0.0000 0.0000
# 3 12.6296 24.7848 56.3296 0.0000 0.0000 0.0000
# 4 0.0000 0.0000 0.0000 42.4189 0.0000 0.0000
# 5 0.0000 0.0000 0.0000 0.0000 11.5654 0.0000
# 6 0.0000 0.0000 0.0000 0.0000 0.0000 33.5652
#
#
#
# Elastic Compliance Matrix: (Units=1/GPa)
#
#
# Indices 1 2 3 4 5 6 
#
# 1 0.007479 -0.001644 -0.000953 0.000000 0.000000 0.000000
# 2 -0.001644 0.020054 -0.008455 0.000000 0.000000 0.000000
# 3 -0.000953 -0.008455 0.021687 0.000000 0.000000 0.000000
# 4 0.000000 0.000000 0.000000 0.023574 0.000000 0.000000
# 5 0.000000 0.000000 0.000000 0.000000 0.086465 0.000000
# 6 0.000000 0.000000 0.000000 0.000000 0.000000 0.029793
#
#
# Mechanical properties :
#
#
# Convention : Reuss Voigt Hill
#
# Bulk Modulus (GPa) = 36.88088 40.58646 38.73367
# Shear Modulus (GPa) = 22.70705 31.03454 26.87080
#
# Velocity S-wave (km/s) = 3.05210 3.56814 3.32016
# Velocity P-wave (km/s) = 5.24885 5.79876 5.53065
#
# Compressibility (1/GPa) = 0.02711432
#
# Stress axis : x y z
#
# Youngs Moduli (GPa) = 133.70463 49.86443 46.11139
#
# Poissons Ratio (x) = 0.08200 0.04396
# Poissons Ratio (y) = 0.21987 0.38988
# Poissons Ratio (z) = 0.12747 0.42161
#
# Static dielectric constant tensor:
#      x y z
#    x 2.015250 0.000000 0.000000 
#    y 0.000000 1.967080 0.000000 
#    z 0.000000 0.000000 1.981420 
# 
# From -- ./inp_files/2975.got.cif
#   From: 2010.05.17/outbox.cif.g08.bks.cpg/sg33_2_cif.got.tgz:2975.got - 2010.06.03 17:15:25.
