data_PCOD9345885
_publ_section_title
;
Structure prediction by ZEFSAII (Michael W. Deem and Ramdas Pophale) SiO2 
 PCOD9345885
Probable space group: P N A 21
;
_chemical_formula_sum "Si O2"
_cell_formula_units_Z 28
_cell_length_a 26.902783
_cell_length_b 5.340333
_cell_length_c 7.987888
_cell_angle_alpha 90.000000
_cell_angle_beta 90.000000
_cell_angle_gamma 90.000000
_cell_volume 1147.618430
_symmetry_space_group_name_H-M "P N A 21"
_symmetry_group_IT_number 33
_symmetry_cell_setting 'orthorhombic'
loop_
_space_group_symop_operation_xyz
x,y,z
-x,-y,1/2+z
1/2-x,1/2+y,1/2+z
1/2+x,1/2-y,z
loop_
_atom_site_type_symbol
_atom_site_label
_atom_site_fract_x
_atom_site_fract_y
_atom_site_fract_z
Si Si1 0.354378 0.185297 0.797720
Si Si2 0.223969 0.891823 0.102147
Si Si3 0.556228 0.455723 0.207485
Si Si4 0.963635 0.777463 0.068499
Si Si5 0.596658 0.788837 0.634184
Si Si6 0.188210 0.605482 0.791166
Si Si7 0.865669 0.737506 0.517330
O O1 0.296826 0.252149 0.768309
O O2 0.393233 0.412700 0.771954
O O3 0.365146 0.986777 0.653395
O O4 0.370021 0.103921 0.980239
O O5 0.274343 0.028471 0.146435
O O6 0.179351 0.082187 0.067609
O O7 0.221952 0.705539 0.944480
O O8 0.536812 0.284816 0.362373
O O9 0.516857 0.661784 0.150063
O O10 0.577852 0.329653 0.037916
O O11 0.942008 0.520488 0.146173
O O12 0.933208 0.032800 0.108482
O O13 0.641846 0.711107 0.757863
O O14 0.154080 0.371704 0.844687
#
# Coordination Sequence:
#
# PCOD9345885 Si02
#       7
#     4   4   4   4   4   4   4
#     4   9  21  45  66  96 136 185 235 299 356 429
#     4  10  25  43  66 103 131 194 234 303 362 442
#     4  10  23  42  69 102 143 184 245 294 366 425
#     4  11  26  43  72 105 144 193 239 300 360 441
#     4  11  26  45  69 108 144 188 240 300 363 428
#     4  11  27  42  72 101 144 187 245 299 369 442
#     4  10  22  44  66  95 142 181 238 299 360 427
#
# _framework density 24.398353
#
# number of rings (size 3 to 8) (size 9 to 14) (size 15 to 20)
#    0.000    1.714    1.429    0.000   10.000    3.429 
#    0.000    0.000    0.000    0.000    0.000    0.000 
#    0.000    0.000    0.000    0.000    0.000    0.000 
#
# Total GULP energy -156057.469244 kJ/mol
# GULP energy per Si atom -5573.481044 kJ/mol
# Density = 2.434282 g / cm^3
# Si number density = 24.398353 Si / 1000 Ang^3
#
#
#
# Elastic Constant Matrix: (Units=GPa)
#
#
# Indices 1 2 3 4 5 6 
#
# 1 81.4107 3.2746 22.9649 0.0000 0.0000 0.0000
# 2 3.2746 66.0359 3.4806 0.0000 0.0000 0.0000
# 3 22.9649 3.4806 49.9793 0.0000 0.0000 0.0000
# 4 0.0000 0.0000 0.0000 17.4966 0.0000 0.0000
# 5 0.0000 0.0000 0.0000 0.0000 32.0379 0.0000
# 6 0.0000 0.0000 0.0000 0.0000 0.0000 21.8103
#
#
#
# Elastic Compliance Matrix: (Units=1/GPa)
#
#
# Indices 1 2 3 4 5 6 
#
# 1 0.014121 -0.000360 -0.006463 0.000000 0.000000 0.000000
# 2 -0.000360 0.015208 -0.000894 0.000000 0.000000 0.000000
# 3 -0.006463 -0.000894 0.023040 0.000000 0.000000 0.000000
# 4 0.000000 0.000000 0.000000 0.057154 0.000000 0.000000
# 5 0.000000 0.000000 0.000000 0.000000 0.031213 0.000000
# 6 0.000000 0.000000 0.000000 0.000000 0.000000 0.045850
#
#
# Mechanical properties :
#
#
# Convention : Reuss Voigt Hill
#
# Bulk Modulus (GPa) = 27.07390 28.54067 27.80728
# Shear Modulus (GPa) = 23.32823 25.44935 24.38879
#
# Velocity S-wave (km/s) = 3.09551 3.23317 3.16509
# Velocity P-wave (km/s) = 4.88845 5.06567 4.97785
#
# Compressibility (1/GPa) = 0.03693595
#
# Stress axis : x y z
#
# Youngs Moduli (GPa) = 70.81587 65.75395 43.40196
#
# Poissons Ratio (x) = 0.02364 0.28053
# Poissons Ratio (y) = 0.02546 0.03880
# Poissons Ratio (z) = 0.45772 0.05878
#
# Static dielectric constant tensor:
#      x y z
#    x 1.934690 0.000000 0.000000 
#    y 0.000000 2.084180 0.000000 
#    z 0.000000 0.000000 2.261800 
# 
# From -- ./inp_files/5131.got.cif
#   From: 2010.05.17/outbox.cif.g08.bks.cpg/sg33_3_cif.got.tgz:5131.got - 2010.06.03 17:15:25.
