data_PCOD9345682
_publ_section_title
;
Structure prediction by ZEFSAII (Michael W. Deem and Ramdas Pophale) SiO2 
 PCOD9345682
Probable space group: P N A 21
;
_chemical_formula_sum "Si O2"
_cell_formula_units_Z 28
_cell_length_a 12.527436
_cell_length_b 5.241732
_cell_length_c 20.335400
_cell_angle_alpha 90.000000
_cell_angle_beta 90.000000
_cell_angle_gamma 90.000000
_cell_volume 1335.333439
_symmetry_space_group_name_H-M "P N A 21"
_symmetry_group_IT_number 33
_symmetry_cell_setting 'orthorhombic'
loop_
_space_group_symop_operation_xyz
x,y,z
-x,-y,1/2+z
1/2-x,1/2+y,1/2+z
1/2+x,1/2-y,z
loop_
_atom_site_type_symbol
_atom_site_label
_atom_site_fract_x
_atom_site_fract_y
_atom_site_fract_z
Si Si1 0.063482 1.000000 0.588830
Si Si2 0.979894 0.412270 0.416015
Si Si3 0.603032 0.606282 0.196746
Si Si4 0.834756 0.595359 0.016755
Si Si5 0.020106 0.412270 0.261645
Si Si6 0.834756 0.404641 0.160905
Si Si7 0.396968 0.606282 0.480914
O O1 0.144409 0.892147 0.644579
O O2 0.975852 0.854675 0.543023
O O3 0.144409 0.107853 0.533081
O O4 0.975852 0.145325 0.634637
O O5 0.898812 0.633209 0.439574
O O6 0.088572 0.467512 0.456380
O O7 0.000000 0.421489 0.338830
O O8 0.940961 0.133143 0.438704
O O9 0.559039 0.366857 0.238956
O O10 0.718570 0.513974 0.172974
O O11 0.601188 0.866791 0.238086
O O12 0.871692 0.500000 0.088830
O O13 0.718570 0.486026 0.004686
O O14 0.911428 0.467512 0.221280
#
# Coordination Sequence:
#
# PCOD9345682 Si02
#       7
#     4   4   4   4   4   4   4
#     4  10  22  40  62  98 132 160 218 276 334 380
#     4  11  26  45  64  97 139 177 219 269 328 399
#     4  11  24  40  70  94 129 173 222 270 331 392
#     4  11  23  40  69  97 132 173 222 279 332 384
#     4  11  26  45  64  97 139 177 219 269 328 399
#     4  11  23  40  69  97 132 173 222 279 332 384
#     4  11  24  40  70  94 129 173 222 270 331 392
#
# _framework density 20.968546
#
# number of rings (size 3 to 8) (size 9 to 14) (size 15 to 20)
#    0.000    1.143    4.286    0.857    4.000    2.286 
#    0.000    0.000    0.000    0.000    0.000    0.000 
#    0.000    0.000    0.000    0.000    0.000    0.000 
#
# Total GULP energy -155956.635334 kJ/mol
# GULP energy per Si atom -5569.879833 kJ/mol
# Density = 2.092082 g / cm^3
# Si number density = 20.968546 Si / 1000 Ang^3
#
#
#
# Elastic Constant Matrix: (Units=GPa)
#
#
# Indices 1 2 3 4 5 6 
#
# 1 124.5623 31.4434 58.0589 0.0000 0.0000 0.0000
# 2 31.4434 48.2099 22.5809 0.0000 0.0000 0.0000
# 3 58.0589 22.5809 165.8580 0.0000 0.0000 0.0000
# 4 0.0000 0.0000 0.0000 -16.3495 0.0000 0.0000
# 5 0.0000 0.0000 0.0000 0.0000 20.8449 0.0000
# 6 0.0000 0.0000 0.0000 0.0000 0.0000 15.9301
#
#
#
# Elastic Compliance Matrix: (Units=1/GPa)
#
#
# Indices 1 2 3 4 5 6 
#
# 1 0.010874 -0.005671 -0.003034 0.000000 0.000000 0.000000
# 2 -0.005671 0.025113 -0.001434 0.000000 0.000000 0.000000
# 3 -0.003034 -0.001434 0.007287 0.000000 0.000000 0.000000
# 4 0.000000 0.000000 0.000000 -0.061164 0.000000 0.000000
# 5 0.000000 0.000000 0.000000 0.000000 0.047973 0.000000
# 6 0.000000 0.000000 0.000000 0.000000 0.000000 0.062774
#
#
# Mechanical properties :
#
#
# Convention : Reuss Voigt Hill
#
# Bulk Modulus (GPa) = 43.48746 62.53296 53.01021
# Shear Modulus (GPa) = 41.39050 19.18823 30.28937
#
# Velocity S-wave (km/s) = 4.44772 3.02834 3.80480
# Velocity P-wave (km/s) = 6.86736 6.48959 6.68115
#
# Compressibility (1/GPa) = 0.02299514
#
# Stress axis : x y z
#
# Youngs Moduli (GPa) = 91.96275 39.82008 137.23701
#
# Poissons Ratio (x) = 0.22582 0.41643
# Poissons Ratio (y) = 0.52152 0.19679
# Poissons Ratio (z) = 0.27905 0.05710
#
# Static dielectric constant tensor:
#      x y z
#    x 1.727760 0.000000 0.000000 
#    y 0.000000 3.096160 0.000000 
#    z 0.000000 0.000000 1.717640 
# 
# From -- ./inp_files/8619.got.cif
#   From: 2010.05.17/outbox.cif.g08.bks.cpg/sg33_5_cif.got.tgz:8619.got - 2010.06.03 17:15:25.
