data_PCOD9345977
_publ_section_title
;
Structure prediction by ZEFSAII (Michael W. Deem and Ramdas Pophale) SiO2 
 PCOD9345977
Probable space group: P N A 21
;
_chemical_formula_sum "Si O2"
_cell_formula_units_Z 32
_cell_length_a 7.382268
_cell_length_b 13.523418
_cell_length_c 15.635846
_cell_angle_alpha 90.000000
_cell_angle_beta 90.000000
_cell_angle_gamma 90.000000
_cell_volume 1560.981168
_symmetry_space_group_name_H-M "P N A 21"
_symmetry_group_IT_number 33
_symmetry_cell_setting 'orthorhombic'
loop_
_space_group_symop_operation_xyz
x,y,z
-x,-y,1/2+z
1/2-x,1/2+y,1/2+z
1/2+x,1/2-y,z
loop_
_atom_site_type_symbol
_atom_site_label
_atom_site_fract_x
_atom_site_fract_y
_atom_site_fract_z
Si Si1 0.273663 0.376117 0.336140
Si Si2 0.237851 0.535718 0.950164
Si Si3 0.789296 0.843637 0.607908
Si Si4 0.488041 0.368490 0.566345
Si Si5 0.899856 0.626971 0.549507
Si Si6 0.378020 0.164652 0.294081
Si Si7 0.102348 0.354863 0.521071
Si Si8 0.119438 0.975200 0.674249
O O1 0.378202 0.272453 0.336767
O O2 0.200015 0.384658 0.431736
O O3 0.377400 0.452705 0.275350
O O4 0.085055 0.364028 0.285601
O O5 0.214557 0.585963 0.857788
O O6 0.431990 0.562545 0.989731
O O7 0.183978 0.421541 0.963503
O O8 0.087583 0.589122 0.011445
O O9 0.857963 0.742711 0.564208
O O10 0.616637 0.886221 0.556673
O O11 0.711268 0.821687 0.702451
O O12 0.954584 0.916302 0.628216
O O13 0.272567 0.375468 0.582552
O O14 0.545889 0.258696 0.537622
O O15 0.589111 0.411108 0.649581
O O16 0.793613 0.568374 0.624591
#
# Coordination Sequence:
#
# PCOD9345977 Si02
#       8
#     4   4   4   4   4   4   4   4
#     4  11  19  32  52  84 116 147 180 237 285 339
#     4  10  23  35  54  83 122 147 191 238 285 345
#     4  12  20  35  59  81 118 154 194 231 292 340
#     4  11  21  36  55  85 115 154 189 237 287 343
#     4  11  21  37  52  87 117 151 190 240 284 342
#     4  11  19  32  53  82 113 150 180 235 289 339
#     4  11  20  37  58  82 115 155 193 232 292 339
#     4  11  23  34  53  86 120 148 191 236 288 343
#
# _framework density 20.499927
#
# number of rings (size 3 to 8) (size 9 to 14) (size 15 to 20)
#    0.000    1.000    6.250    2.250    1.750    0.000 
#    0.000    0.000    0.000    0.000    0.000   24.500 
#    0.000    0.000    0.000    0.000    0.000    0.000 
#
# Total GULP energy -178403.125098 kJ/mol
# GULP energy per Si atom -5575.097659 kJ/mol
# Density = 2.045327 g / cm^3
# Si number density = 20.499927 Si / 1000 Ang^3
#
#
#
# Elastic Constant Matrix: (Units=GPa)
#
#
# Indices 1 2 3 4 5 6 
#
# 1 87.4188 17.4899 -7.1651 0.0000 0.0000 0.0000
# 2 17.4899 69.3102 27.1690 0.0000 0.0000 0.0000
# 3 -7.1651 27.1690 43.9236 0.0000 0.0000 0.0000
# 4 0.0000 0.0000 0.0000 -3.1850 0.0000 0.0000
# 5 0.0000 0.0000 0.0000 0.0000 21.9176 0.0000
# 6 0.0000 0.0000 0.0000 0.0000 0.0000 14.6197
#
#
#
# Elastic Compliance Matrix: (Units=1/GPa)
#
#
# Indices 1 2 3 4 5 6 
#
# 1 0.012971 -0.005416 0.005466 0.000000 0.000000 0.000000
# 2 -0.005416 0.021307 -0.014063 0.000000 0.000000 0.000000
# 3 0.005466 -0.014063 0.032357 0.000000 0.000000 0.000000
# 4 0.000000 0.000000 0.000000 -0.313971 0.000000 0.000000
# 5 0.000000 0.000000 0.000000 0.000000 0.045625 0.000000
# 6 0.000000 0.000000 0.000000 0.000000 0.000000 0.068401
#
#
# Mechanical properties :
#
#
# Convention : Reuss Voigt Hill
#
# Bulk Modulus (GPa) = 25.90061 30.62668 28.26365
# Shear Modulus (GPa) = -54.10370 17.54773 -18.27798
#
# Velocity S-wave (km/s) = -5.14290 2.92890 -2.98923
# Velocity P-wave (km/s) = 4.75437 5.13910 1.37955
#
# Compressibility (1/GPa) = 0.03860912
#
# Stress axis : x y z
#
# Youngs Moduli (GPa) = 77.09708 46.93298 30.90523
#
# Poissons Ratio (x) = 0.25417 -0.16892
# Poissons Ratio (y) = 0.41752 0.43462
# Poissons Ratio (z) = -0.42139 0.66001
#
# Static dielectric constant tensor:
#      x y z
#    x 1.822140 0.000000 0.000000 
#    y 0.000000 1.838190 0.000000 
#    z 0.000000 0.000000 1.781270 
# 
# From -- ./inp_files/7734.got.cif
#   From: 2010.05.17/outbox.cif.g08.bks.cpg/sg33_4_cif.got.tgz:7734.got - 2010.06.03 17:15:25.
