data_PCOD9345201
_publ_section_title
;
Structure prediction by ZEFSAII (Michael W. Deem and Ramdas Pophale) SiO2 
 PCOD9345201
Probable space group: P N A 21
;
_chemical_formula_sum "Si O2"
_cell_formula_units_Z 24
_cell_length_a 5.254615
_cell_length_b 20.112011
_cell_length_c 11.371341
_cell_angle_alpha 90.000000
_cell_angle_beta 90.000000
_cell_angle_gamma 90.000000
_cell_volume 1201.733263
_symmetry_space_group_name_H-M "P N A 21"
_symmetry_group_IT_number 33
_symmetry_cell_setting 'orthorhombic'
loop_
_space_group_symop_operation_xyz
x,y,z
-x,-y,1/2+z
1/2-x,1/2+y,1/2+z
1/2+x,1/2-y,z
loop_
_atom_site_type_symbol
_atom_site_label
_atom_site_fract_x
_atom_site_fract_y
_atom_site_fract_z
Si Si1 0.246453 0.086789 0.866950
Si Si2 0.431866 0.224060 0.781881
Si Si3 0.743758 0.062737 0.014923
Si Si4 0.246446 0.586788 0.933784
Si Si5 0.568140 0.275940 0.518847
Si Si6 0.756253 0.062736 0.285813
O O1 0.314002 0.150837 0.789108
O O2 0.475249 0.083017 0.960083
O O3 0.978765 0.088942 0.935953
O O4 0.255952 0.017861 0.795541
O O5 0.211789 0.269860 0.838319
O O6 0.500002 0.249999 0.650363
O O7 0.755967 0.982141 0.005193
O O8 0.749992 0.082949 0.150369
O O9 0.314002 0.650837 0.011623
O O10 0.475228 0.583017 0.840643
O O11 0.978746 0.588939 0.864792
O O12 0.288218 0.269859 0.462408
#
# Coordination Sequence:
#
# PCOD9345201 Si02
#       6
#     4   4   4   4   4   4
#     4  10  21  38  57  90 123 149 208 245 301 363
#     4  10  21  36  57  88 118 158 186 250 305 348
#     4  10  21  37  61  85 118 166 191 255 298 354
#     4  10  21  38  57  90 123 149 208 245 301 363
#     4  10  21  36  57  88 118 158 186 250 305 348
#     4  10  21  37  61  85 118 166 191 255 298 354
#
# _framework density 19.971153999999999
#
# number of rings (size 3 to 8) (size 9 to 14) (size 15 to 20)
#    0.000    2.000    0.000    3.000    4.667    0.000 
#   12.000    0.000    0.000   20.000    0.000    0.000 
#    0.000    0.000    0.000    0.000    0.000    0.000 
#
# Total GULP energy -133778.165695 kJ/mol
# GULP energy per Si atom -5574.090237 kJ/mol
# Density = 1.992570 g / cm^3
# Si number density = 19.971154 Si / 1000 Ang^3
#
#
#
# Elastic Constant Matrix: (Units=GPa)
#
#
# Indices 1 2 3 4 5 6 
#
# 1 140.0513 11.5197 3.4605 0.0000 0.0000 0.0000
# 2 11.5197 105.1094 13.7269 0.0000 0.0000 0.0000
# 3 3.4605 13.7269 64.2631 0.0000 0.0000 0.0000
# 4 0.0000 0.0000 0.0000 18.8187 0.0000 0.0000
# 5 0.0000 0.0000 0.0000 0.0000 11.9403 0.0000
# 6 0.0000 0.0000 0.0000 0.0000 0.0000 32.7826
#
#
#
# Elastic Compliance Matrix: (Units=1/GPa)
#
#
# Indices 1 2 3 4 5 6 
#
# 1 0.007208 -0.000761 -0.000226 0.000000 0.000000 0.000000
# 2 -0.000761 0.009867 -0.002067 0.000000 0.000000 0.000000
# 3 -0.000226 -0.002067 0.016015 0.000000 0.000000 0.000000
# 4 0.000000 0.000000 0.000000 0.053139 0.000000 0.000000
# 5 0.000000 0.000000 0.000000 0.000000 0.083750 0.000000
# 6 0.000000 0.000000 0.000000 0.000000 0.000000 0.030504
#
#
# Mechanical properties :
#
#
# Convention : Reuss Voigt Hill
#
# Bulk Modulus (GPa) = 37.05866 40.75978 38.90922
# Shear Modulus (GPa) = 23.19290 31.42278 27.30784
#
# Velocity S-wave (km/s) = 3.41151 3.97092 3.70180
# Velocity P-wave (km/s) = 5.84074 6.44034 6.14785
#
# Compressibility (1/GPa) = 0.02698424
#
# Stress axis : x y z
#
# Youngs Moduli (GPa) = 138.72755 101.34636 62.44287
#
# Poissons Ratio (x) = 0.07708 0.01409
# Poissons Ratio (y) = 0.10551 0.12905
# Poissons Ratio (z) = 0.03131 0.20945
#
# Static dielectric constant tensor:
#      x y z
#    x 1.814810 0.000000 0.000000 
#    y 0.000000 1.753400 0.000000 
#    z 0.000000 0.000000 1.745810 
# 
# From -- ./inp_files/5506.got.cif
#   From: 2010.05.17/outbox.cif.g08.bks.cpg/sg33_3_cif.got.tgz:5506.got - 2010.06.03 17:15:25.
