data_PCOD9345226
_publ_section_title
;
Structure prediction by ZEFSAII (Michael W. Deem and Ramdas Pophale) SiO2 
 PCOD9345226
Probable space group: P N A 21
;
_chemical_formula_sum "Si O2"
_cell_formula_units_Z 16
_cell_length_a 9.639794
_cell_length_b 7.000863
_cell_length_c 8.510491
_cell_angle_alpha 90.000000
_cell_angle_beta 90.000000
_cell_angle_gamma 90.000000
_cell_volume 574.346461
_symmetry_space_group_name_H-M "P N A 21"
_symmetry_group_IT_number 33
_symmetry_cell_setting 'orthorhombic'
loop_
_space_group_symop_operation_xyz
x,y,z
-x,-y,1/2+z
1/2-x,1/2+y,1/2+z
1/2+x,1/2-y,z
loop_
_atom_site_type_symbol
_atom_site_label
_atom_site_fract_x
_atom_site_fract_y
_atom_site_fract_z
Si Si1 0.762804 0.327750 0.653860
Si Si2 0.342759 0.720869 0.655564
Si Si3 0.008244 0.246085 0.844630
Si Si4 0.911736 0.325995 0.342622
O O1 0.802658 0.552547 0.654643
O O2 0.603294 0.299652 0.693878
O O3 0.817224 0.257311 0.486009
O O4 0.850141 0.222631 0.792167
O O5 0.417370 0.657527 0.495629
O O6 0.194512 0.634516 0.698820
O O7 0.462580 0.693900 0.786465
O O8 0.021516 0.471322 0.882292
#
# Coordination Sequence:
#
# PCOD9345226 Si02
#       4
#     4   4   4   4
#     4  10  21  37  57  81 109 142 180 222 268 318
#     4  10  21  37  57  81 109 142 180 222 268 318
#     4  10  21  37  57  81 109 142 180 222 268 318
#     4  10  21  37  57  81 109 142 180 222 268 318
#
# _framework density 27.857748000000001
#
# number of rings (size 3 to 8) (size 9 to 14) (size 15 to 20)
#    0.000    2.000    0.000    3.000    0.000    8.000 
#    0.000    0.000    0.000    0.000    0.000    0.000 
#    0.000    0.000    0.000    0.000    0.000    0.000 
#
# Total GULP energy -89683.255530 kJ/mol
# GULP energy per Si atom -5605.203471 kJ/mol
# Density = 2.779434 g / cm^3
# Si number density = 27.857748 Si / 1000 Ang^3
#
#
#
# Elastic Constant Matrix: (Units=GPa)
#
#
# Indices 1 2 3 4 5 6 
#
# 1 118.1419 1.4533 2.9835 0.0000 0.0000 0.0000
# 2 1.4533 90.2059 -2.8663 0.0000 0.0000 0.0000
# 3 2.9835 -2.8663 80.5280 0.0000 0.0000 0.0000
# 4 0.0000 0.0000 0.0000 23.8859 0.0000 0.0000
# 5 0.0000 0.0000 0.0000 0.0000 51.7630 0.0000
# 6 0.0000 0.0000 0.0000 0.0000 0.0000 37.4344
#
#
#
# Elastic Compliance Matrix: (Units=1/GPa)
#
#
# Indices 1 2 3 4 5 6 
#
# 1 0.008474 -0.000147 -0.000319 0.000000 0.000000 0.000000
# 2 -0.000147 0.011101 0.000401 0.000000 0.000000 0.000000
# 3 -0.000319 0.000401 0.012444 0.000000 0.000000 0.000000
# 4 0.000000 0.000000 0.000000 0.041866 0.000000 0.000000
# 5 0.000000 0.000000 0.000000 0.000000 0.019319 0.000000
# 6 0.000000 0.000000 0.000000 0.000000 0.000000 0.026713
#
#
# Mechanical properties :
#
#
# Convention : Reuss Voigt Hill
#
# Bulk Modulus (GPa) = 31.35913 32.44630 31.90272
# Shear Modulus (GPa) = 38.26219 41.77035 40.01627
#
# Velocity S-wave (km/s) = 3.71008 3.87643 3.79416
# Velocity P-wave (km/s) = 5.44373 5.63099 5.53815
#
# Compressibility (1/GPa) = 0.03188864
#
# Stress axis : x y z
#
# Youngs Moduli (GPa) = 118.00437 90.08332 80.35917
#
# Poissons Ratio (x) = 0.01321 0.02565
# Poissons Ratio (y) = 0.01731 -0.03219
# Poissons Ratio (z) = 0.03766 -0.03608
#
# Static dielectric constant tensor:
#      x y z
#    x 2.026610 0.000000 0.000000 
#    y 0.000000 2.182420 0.000000 
#    z 0.000000 0.000000 2.214040 
# 
# From -- ./inp_files/2893.got.cif
#   From: 2010.05.17/outbox.cif.g08.bks.cpg/sg33_2_cif.got.tgz:2893.got - 2010.06.03 17:15:25.
