data_PCOD9345426
_publ_section_title
;
Structure prediction by ZEFSAII (Michael W. Deem and Ramdas Pophale) SiO2 
 PCOD9345426
Probable space group: P N A 21
;
_chemical_formula_sum "Si O2"
_cell_formula_units_Z 28
_cell_length_a 5.419667
_cell_length_b 14.983352
_cell_length_c 13.293082
_cell_angle_alpha 90.000000
_cell_angle_beta 90.000000
_cell_angle_gamma 90.000000
_cell_volume 1079.461778
_symmetry_space_group_name_H-M "P N A 21"
_symmetry_group_IT_number 33
_symmetry_cell_setting 'orthorhombic'
loop_
_space_group_symop_operation_xyz
x,y,z
-x,-y,1/2+z
1/2-x,1/2+y,1/2+z
1/2+x,1/2-y,z
loop_
_atom_site_type_symbol
_atom_site_label
_atom_site_fract_x
_atom_site_fract_y
_atom_site_fract_z
Si Si1 0.894354 0.697965 0.505430
Si Si2 0.618412 0.871910 0.706365
Si Si3 0.135896 0.499592 0.987915
Si Si4 0.499743 0.517119 0.162804
Si Si5 0.605324 0.325409 0.391188
Si Si6 0.260576 0.965636 0.843219
Si Si7 0.533967 0.712179 0.106654
O O1 0.164911 0.737694 0.481017
O O2 0.943277 0.675387 0.624953
O O3 0.822992 0.602895 0.456732
O O4 0.492098 0.950804 0.770954
O O5 0.726512 0.807628 0.793639
O O6 0.839625 0.926752 0.652011
O O7 0.267611 0.585768 0.940068
O O8 0.851649 0.508895 0.953337
O O9 0.248970 0.505477 0.098619
O O10 0.428082 0.525006 0.280493
O O11 0.611474 0.610194 0.125340
O O12 0.516248 0.267522 0.486947
O O13 0.355481 0.368381 0.349477
O O14 0.758747 0.770811 0.148064
#
# Coordination Sequence:
#
# PCOD9345426 Si02
#       7
#     4   4   4   4   4   4   4
#     4  12  27  41  64 100 142 179 215 279 357 408
#     4  10  22  42  67  97 129 178 244 283 343 411
#     4  10  22  41  68  95 134 180 238 279 334 410
#     4  10  22  42  71  97 135 184 241 287 335 414
#     4   9  23  40  69  95 131 179 237 289 338 413
#     4  10  21  40  73 100 121 178 257 285 327 400
#     4  11  27  42  66 104 146 182 218 282 366 414
#
# _framework density 25.938851
#
# number of rings (size 3 to 8) (size 9 to 14) (size 15 to 20)
#    0.000    1.714    1.429    0.857   16.000    1.143 
#    0.000    1.429    0.000    0.000    0.000    0.000 
#    0.000    0.000    0.000    0.000    0.000    0.000 
#
# Total GULP energy -156128.816009 kJ/mol
# GULP energy per Si atom -5576.029143 kJ/mol
# Density = 2.587981 g / cm^3
# Si number density = 25.938851 Si / 1000 Ang^3
#
#
#
# Elastic Constant Matrix: (Units=GPa)
#
#
# Indices 1 2 3 4 5 6 
#
# 1 94.6503 21.2496 32.4737 0.0000 0.0000 0.0000
# 2 21.2496 108.3791 14.4020 0.0000 0.0000 0.0000
# 3 32.4737 14.4020 48.1610 0.0000 0.0000 0.0000
# 4 0.0000 0.0000 0.0000 29.9047 0.0000 0.0000
# 5 0.0000 0.0000 0.0000 0.0000 32.0398 0.0000
# 6 0.0000 0.0000 0.0000 0.0000 0.0000 27.8448
#
#
#
# Elastic Compliance Matrix: (Units=1/GPa)
#
#
# Indices 1 2 3 4 5 6 
#
# 1 0.013991 -0.001551 -0.008970 0.000000 0.000000 0.000000
# 2 -0.001551 0.009781 -0.001879 0.000000 0.000000 0.000000
# 3 -0.008970 -0.001879 0.027374 0.000000 0.000000 0.000000
# 4 0.000000 0.000000 0.000000 0.033440 0.000000 0.000000
# 5 0.000000 0.000000 0.000000 0.000000 0.031211 0.000000
# 6 0.000000 0.000000 0.000000 0.000000 0.000000 0.035913
#
#
# Mechanical properties :
#
#
# Convention : Reuss Voigt Hill
#
# Bulk Modulus (GPa) = 37.95721 43.04900 40.50311
# Shear Modulus (GPa) = 26.98458 30.16221 28.57339
#
# Velocity S-wave (km/s) = 3.22889 3.41371 3.32259
# Velocity P-wave (km/s) = 5.34473 5.67189 5.51073
#
# Compressibility (1/GPa) = 0.02634546
#
# Stress axis : x y z
#
# Youngs Moduli (GPa) = 71.47475 102.24231 36.53145
#
# Poissons Ratio (x) = 0.15860 0.32768
# Poissons Ratio (y) = 0.11087 0.06864
# Poissons Ratio (z) = 0.64112 0.19210
#
# Static dielectric constant tensor:
#      x y z
#    x 2.175940 0.000000 0.000000 
#    y 0.000000 2.016390 0.000000 
#    z 0.000000 0.000000 2.095860 
# 
# From -- ./inp_files/7410.got.cif
#   From: 2010.05.17/outbox.cif.g08.bks.cpg/sg33_4_cif.got.tgz:7410.got - 2010.06.03 17:15:25.
