data_PCOD9345436
_publ_section_title
;
Structure prediction by ZEFSAII (Michael W. Deem and Ramdas Pophale) SiO2 
 PCOD9345436
Probable space group: P N A 21
;
_chemical_formula_sum "Si O2"
_cell_formula_units_Z 20
_cell_length_a 7.902202
_cell_length_b 11.939816
_cell_length_c 8.002616
_cell_angle_alpha 90.000000
_cell_angle_beta 90.000000
_cell_angle_gamma 90.000000
_cell_volume 755.053525
_symmetry_space_group_name_H-M "P N A 21"
_symmetry_group_IT_number 33
_symmetry_cell_setting 'orthorhombic'
loop_
_space_group_symop_operation_xyz
x,y,z
-x,-y,1/2+z
1/2-x,1/2+y,1/2+z
1/2+x,1/2-y,z
loop_
_atom_site_type_symbol
_atom_site_label
_atom_site_fract_x
_atom_site_fract_y
_atom_site_fract_z
Si Si1 0.057677 0.608935 0.657100
Si Si2 0.416537 0.660054 0.577862
Si Si3 0.335015 0.648609 0.922878
Si Si4 0.945494 0.140924 0.730096
Si Si5 0.076312 0.364963 0.603528
O O1 0.223359 0.629020 0.543479
O O2 0.932415 0.706762 0.603763
O O3 0.148590 0.625230 0.842390
O O4 0.990911 0.486389 0.617239
O O5 0.453525 0.616138 0.765034
O O6 0.520157 0.619888 0.422069
O O7 0.414372 0.601625 0.093783
O O8 0.351150 0.783435 0.955140
O O9 0.756218 0.106409 0.689995
O O10 0.961093 0.275755 0.701313
#
# Coordination Sequence:
#
# PCOD9345436 Si02
#       5
#     4   4   4   4   4
#     4  10  22  41  65  92 128 171 209 267 334 373
#     4  10  21  41  62  90 129 161 220 266 306 409
#     4   8  22  40  62  88 136 156 222 264 314 398
#     4  10  21  41  62  90 129 161 220 266 306 409
#     4  10  22  41  65  92 128 171 209 267 334 373
#
# _framework density 26.488187
#
# number of rings (size 3 to 8) (size 9 to 14) (size 15 to 20)
#    2.400    0.000    0.000    2.400    0.000    3.200 
#    0.000    4.000    0.000    0.000    0.000    0.000 
#    0.000    0.000    0.000    0.000    0.000    0.000 
#
# Total GULP energy -111451.553707 kJ/mol
# GULP energy per Si atom -5572.577685 kJ/mol
# Density = 2.642790 g / cm^3
# Si number density = 26.488187 Si / 1000 Ang^3
#
#
#
# Elastic Constant Matrix: (Units=GPa)
#
#
# Indices 1 2 3 4 5 6 
#
# 1 25.4170 11.8866 -8.3278 0.0000 0.0000 0.0000
# 2 11.8866 172.4794 37.2342 0.0000 0.0000 0.0000
# 3 -8.3278 37.2342 146.1050 0.0000 0.0000 0.0000
# 4 0.0000 0.0000 0.0000 23.3193 0.0000 0.0000
# 5 0.0000 0.0000 0.0000 0.0000 27.0254 0.0000
# 6 0.0000 0.0000 0.0000 0.0000 0.0000 19.5214
#
#
#
# Elastic Compliance Matrix: (Units=1/GPa)
#
#
# Indices 1 2 3 4 5 6 
#
# 1 0.042126 -0.003621 0.003324 0.000000 0.000000 0.000000
# 2 -0.003621 0.006447 -0.001849 0.000000 0.000000 0.000000
# 3 0.003324 -0.001849 0.007505 0.000000 0.000000 0.000000
# 4 0.000000 0.000000 0.000000 0.042883 0.000000 0.000000
# 5 0.000000 0.000000 0.000000 0.000000 0.037002 0.000000
# 6 0.000000 0.000000 0.000000 0.000000 0.000000 0.051226
#
#
# Mechanical properties :
#
#
# Convention : Reuss Voigt Hill
#
# Bulk Modulus (GPa) = 19.31045 47.28751 33.29898
# Shear Modulus (GPa) = 23.95294 34.18712 29.07003
#
# Velocity S-wave (km/s) = 3.01040 3.59647 3.31640
# Velocity P-wave (km/s) = 4.40334 5.92766 5.22142
#
# Compressibility (1/GPa) = 0.05178544
#
# Stress axis : x y z
#
# Youngs Moduli (GPa) = 23.73831 155.12233 133.24242
#
# Poissons Ratio (x) = 0.56165 -0.44288
# Poissons Ratio (y) = 0.08595 0.24640
# Poissons Ratio (z) = -0.07890 0.28686
#
# Static dielectric constant tensor:
#      x y z
#    x 2.039590 0.000000 0.000000 
#    y 0.000000 2.116050 0.000000 
#    z 0.000000 0.000000 2.211230 
# 
# From -- ./inp_files/3023.got.cif
#   From: 2010.05.17/outbox.cif.g08.bks.cpg/sg33_2_cif.got.tgz:3023.got - 2010.06.03 17:15:25.
