data_PCOD9345513
_publ_section_title
;
Structure prediction by ZEFSAII (Michael W. Deem and Ramdas Pophale) SiO2 
 PCOD9345513
Probable space group: P N A 21
;
_chemical_formula_sum "Si O2"
_cell_formula_units_Z 20
_cell_length_a 15.210712
_cell_length_b 9.698244
_cell_length_c 4.987859
_cell_angle_alpha 90.000000
_cell_angle_beta 90.000000
_cell_angle_gamma 90.000000
_cell_volume 735.794976
_symmetry_space_group_name_H-M "P N A 21"
_symmetry_group_IT_number 33
_symmetry_cell_setting 'orthorhombic'
loop_
_space_group_symop_operation_xyz
x,y,z
-x,-y,1/2+z
1/2-x,1/2+y,1/2+z
1/2+x,1/2-y,z
loop_
_atom_site_type_symbol
_atom_site_label
_atom_site_fract_x
_atom_site_fract_y
_atom_site_fract_z
Si Si1 0.717613 0.800016 0.095760
Si Si2 0.613732 0.256231 0.230618
Si Si3 0.031938 0.925222 0.639129
Si Si4 0.806593 0.008451 0.436675
Si Si5 0.935890 0.489093 0.432174
O O1 0.726750 0.913704 0.331174
O O2 0.639525 0.871177 0.923849
O O3 0.814341 0.777110 0.960236
O O4 0.700602 0.637625 0.134906
O O5 0.510508 0.287000 0.267908
O O6 0.617220 0.120549 0.053613
O O7 0.635944 0.388610 0.057809
O O8 0.135762 0.931025 0.693221
O O9 0.011533 0.956146 0.329810
O O10 0.985051 0.529961 0.153921
#
# Coordination Sequence:
#
# PCOD9345513 Si02
#       5
#     4   4   4   4   4
#     4  12  26  48  76 119 160 223 273 357 413 515
#     4  11  26  46  78 112 161 208 282 334 423 503
#     4  10  21  42  69 106 145 203 259 331 395 481
#     4  11  26  44  77 108 163 208 283 337 427 494
#     4  12  31  54  82 121 173 222 277 353 436 513
#
# _framework density 27.181483
#
# number of rings (size 3 to 8) (size 9 to 14) (size 15 to 20)
#    0.000    0.800    4.000    1.200    8.400    6.400 
#    0.000    0.000    0.000    0.000    0.000    0.000 
#    0.000    0.000    0.000    0.000    0.000    0.000 
#
# Total GULP energy -111483.117536 kJ/mol
# GULP energy per Si atom -5574.155877 kJ/mol
# Density = 2.711962 g / cm^3
# Si number density = 27.181483 Si / 1000 Ang^3
#
#
#
# Elastic Constant Matrix: (Units=GPa)
#
#
# Indices 1 2 3 4 5 6 
#
# 1 84.1102 48.8648 30.8572 0.0000 0.0000 0.0000
# 2 48.8648 189.0905 22.9667 0.0000 0.0000 0.0000
# 3 30.8572 22.9667 107.5615 0.0000 0.0000 0.0000
# 4 0.0000 0.0000 0.0000 29.4058 0.0000 0.0000
# 5 0.0000 0.0000 0.0000 0.0000 37.6808 0.0000
# 6 0.0000 0.0000 0.0000 0.0000 0.0000 57.0522
#
#
#
# Elastic Compliance Matrix: (Units=1/GPa)
#
#
# Indices 1 2 3 4 5 6 
#
# 1 0.015255 -0.003501 -0.003629 0.000000 0.000000 0.000000
# 2 -0.003501 0.006233 -0.000326 0.000000 0.000000 0.000000
# 3 -0.003629 -0.000326 0.010408 0.000000 0.000000 0.000000
# 4 0.000000 0.000000 0.000000 0.034007 0.000000 0.000000
# 5 0.000000 0.000000 0.000000 0.000000 0.026539 0.000000
# 6 0.000000 0.000000 0.000000 0.000000 0.000000 0.017528
#
#
# Mechanical properties :
#
#
# Convention : Reuss Voigt Hill
#
# Bulk Modulus (GPa) = 58.88437 65.12663 62.00550
# Shear Modulus (GPa) = 38.30182 43.36598 40.83390
#
# Velocity S-wave (km/s) = 3.75789 3.99861 3.88012
# Velocity P-wave (km/s) = 6.36706 6.73279 6.55248
#
# Compressibility (1/GPa) = 0.01698243
#
# Stress axis : x y z
#
# Youngs Moduli (GPa) = 65.55432 160.43804 96.08298
#
# Poissons Ratio (x) = 0.56175 0.34865
# Poissons Ratio (y) = 0.22953 0.03136
# Poissons Ratio (z) = 0.23787 0.05237
#
# Static dielectric constant tensor:
#      x y z
#    x 2.668090 0.000000 0.000000 
#    y 0.000000 2.249500 0.000000 
#    z 0.000000 0.000000 2.141820 
# 
# From -- ./inp_files/1643.got.cif
#   From: 2010.05.17/outbox.cif.g08.bks.cpg/sg33_1_cif.got.tgz:1643.got - 2010.06.03 17:15:25.
