data_PCOD9345053
_publ_section_title
;
Structure prediction by ZEFSAII (Michael W. Deem and Ramdas Pophale) SiO2 
 PCOD9345053
Probable space group: P N A 21
;
_chemical_formula_sum "Si O2"
_cell_formula_units_Z 32
_cell_length_a 11.475768
_cell_length_b 21.504192
_cell_length_c 6.548270
_cell_angle_alpha 90.000000
_cell_angle_beta 90.000000
_cell_angle_gamma 90.000000
_cell_volume 1615.963201
_symmetry_space_group_name_H-M "P N A 21"
_symmetry_group_IT_number 33
_symmetry_cell_setting 'orthorhombic'
loop_
_space_group_symop_operation_xyz
x,y,z
-x,-y,1/2+z
1/2-x,1/2+y,1/2+z
1/2+x,1/2-y,z
loop_
_atom_site_type_symbol
_atom_site_label
_atom_site_fract_x
_atom_site_fract_y
_atom_site_fract_z
Si Si1 0.772508 0.566161 0.551260
Si Si2 0.175119 0.841247 0.218989
Si Si3 0.851815 0.960721 0.795276
Si Si4 0.983980 0.637072 0.566486
Si Si5 0.614565 0.548273 0.941757
Si Si6 0.291915 0.160946 0.333484
Si Si7 0.551811 0.783559 0.181753
Si Si8 0.345654 0.780952 0.887458
O O1 0.729800 0.624235 0.412695
O O2 0.725602 0.505266 0.437538
O O3 0.912667 0.572615 0.554977
O O4 0.707545 0.566162 0.768204
O O5 0.108629 0.778129 0.277687
O O6 0.102519 0.894809 0.102161
O O7 0.267777 0.818716 0.049209
O O8 0.805474 0.891796 0.831128
O O9 0.988298 0.965146 0.848445
O O10 0.841099 0.988412 0.567467
O O11 0.900649 0.676809 0.714225
O O12 0.109124 0.638632 0.675717
O O13 0.997998 0.671566 0.351294
O O14 0.356103 0.176342 0.548380
O O15 0.229669 0.226366 0.287392
O O16 0.455055 0.758418 0.023136
#
# Coordination Sequence:
#
# PCOD9345053 Si02
#       8
#     4   4   4   4   4   4   4   4
#     4  11  23  41  66  89 127 169 215 266 320 383
#     4  10  21  36  64  93 122 167 207 258 324 374
#     4  11  24  44  62  95 124 166 220 266 323 374
#     4  11  23  41  62  96 130 172 212 254 330 391
#     4  11  22  42  68  91 124 164 220 272 317 382
#     4  10  25  41  62  98 132 167 213 269 315 390
#     4  10  22  39  63  96 131 165 207 257 326 393
#     4  10  20  40  63  92 134 162 208 266 315 385
#
# _framework density 19.802430999999999
#
# number of rings (size 3 to 8) (size 9 to 14) (size 15 to 20)
#    0.000    1.500    3.750    0.750    1.750    3.000 
#    4.500    0.000    0.000    0.000    0.000    0.000 
#    0.000    0.000    0.000    0.000    0.000    0.000 
#
# Total GULP energy -178580.699673 kJ/mol
# GULP energy per Si atom -5580.646865 kJ/mol
# Density = 1.975736 g / cm^3
# Si number density = 19.802431 Si / 1000 Ang^3
#
#
#
# Elastic Constant Matrix: (Units=GPa)
#
#
# Indices 1 2 3 4 5 6 
#
# 1 34.6149 -3.0844 1.9698 0.0000 0.0000 0.0000
# 2 -3.0844 40.5168 3.4792 0.0000 0.0000 0.0000
# 3 1.9698 3.4792 49.1400 0.0000 0.0000 0.0000
# 4 0.0000 0.0000 0.0000 23.4494 0.0000 0.0000
# 5 0.0000 0.0000 0.0000 0.0000 19.2559 0.0000
# 6 0.0000 0.0000 0.0000 0.0000 0.0000 40.9241
#
#
#
# Elastic Compliance Matrix: (Units=1/GPa)
#
#
# Indices 1 2 3 4 5 6 
#
# 1 0.029173 0.002336 -0.001335 0.000000 0.000000 0.000000
# 2 0.002336 0.025019 -0.001865 0.000000 0.000000 0.000000
# 3 -0.001335 -0.001865 0.020536 0.000000 0.000000 0.000000
# 4 0.000000 0.000000 0.000000 0.042645 0.000000 0.000000
# 5 0.000000 0.000000 0.000000 0.000000 0.051932 0.000000
# 6 0.000000 0.000000 0.000000 0.000000 0.000000 0.024435
#
#
# Mechanical properties :
#
#
# Convention : Reuss Voigt Hill
#
# Bulk Modulus (GPa) = 13.69874 14.33342 14.01608
# Shear Modulus (GPa) = 22.74771 24.85303 23.80037
#
# Velocity S-wave (km/s) = 3.39297 3.54651 3.47059
# Velocity P-wave (km/s) = 4.72043 4.90145 4.81179
#
# Compressibility (1/GPa) = 0.07299943
#
# Stress axis : x y z
#
# Youngs Moduli (GPa) = 34.27787 39.96951 48.69602
#
# Poissons Ratio (x) = -0.09335 0.06500
# Poissons Ratio (y) = -0.08006 0.09082
# Poissons Ratio (z) = 0.04575 0.07454
#
# Static dielectric constant tensor:
#      x y z
#    x 1.728480 0.000000 0.000000 
#    y 0.000000 1.685340 0.000000 
#    z 0.000000 0.000000 1.695010 
# 
# From -- ./inp_files/1049.got.cif
#   From: 2010.05.17/outbox.cif.g08.bks.cpg/sg33_1_cif.got.tgz:1049.got - 2010.06.03 17:15:25.
