data_PCOD9345993
_publ_section_title
;
Structure prediction by ZEFSAII (Michael W. Deem and Ramdas Pophale) SiO2 
 PCOD9345993
Probable space group: P N A 21
;
_chemical_formula_sum "Si O2"
_cell_formula_units_Z 20
_cell_length_a 8.990092
_cell_length_b 8.917268
_cell_length_c 9.804357
_cell_angle_alpha 90.000000
_cell_angle_beta 90.000000
_cell_angle_gamma 90.000000
_cell_volume 785.986473
_symmetry_space_group_name_H-M "P N A 21"
_symmetry_group_IT_number 33
_symmetry_cell_setting 'orthorhombic'
loop_
_space_group_symop_operation_xyz
x,y,z
-x,-y,1/2+z
1/2-x,1/2+y,1/2+z
1/2+x,1/2-y,z
loop_
_atom_site_type_symbol
_atom_site_label
_atom_site_fract_x
_atom_site_fract_y
_atom_site_fract_z
Si Si1 0.480779 0.222372 0.636270
Si Si2 0.077808 0.717138 0.586442
Si Si3 0.207348 0.443428 0.101656
Si Si4 0.121140 0.244136 0.340611
Si Si5 0.246668 0.968341 0.215727
O O1 0.559816 0.233812 0.490019
O O2 0.608073 0.138402 0.725412
O O3 0.402906 0.375111 0.685692
O O4 0.338840 0.113025 0.618347
O O5 0.149758 0.868383 0.532582
O O6 0.203969 0.588416 0.597321
O O7 0.933552 0.636792 0.528121
O O8 0.015750 0.764599 0.735154
O O9 0.203373 0.379490 0.259578
O O10 0.215129 0.090961 0.332304
#
# Coordination Sequence:
#
# PCOD9345993 Si02
#       5
#     4   4   4   4   4
#     4  11  23  37  70  97 130 178 221 265 340 392
#     4   8  17  37  60  82 130 169 196 271 317 373
#     4   8  18  35  62  88 126 170 215 259 319 388
#     4   9  21  42  67  87 141 169 213 273 337 377
#     4  10  23  39  63 102 127 172 223 270 323 396
#
# _framework density 25.445730999999999
#
# number of rings (size 3 to 8) (size 9 to 14) (size 15 to 20)
#    1.200    1.600    0.000    0.000    8.400    0.000 
#    0.000    4.000   17.600    0.000    0.000    0.000 
#    0.000    0.000    0.000    0.000    0.000    0.000 
#
# Total GULP energy -111382.646880 kJ/mol
# GULP energy per Si atom -5569.132344 kJ/mol
# Density = 2.538782 g / cm^3
# Si number density = 25.445731 Si / 1000 Ang^3
#
#
#
# Elastic Constant Matrix: (Units=GPa)
#
#
# Indices 1 2 3 4 5 6 
#
# 1 42.3426 40.0445 3.3083 0.0000 0.0000 0.0000
# 2 40.0445 110.8823 28.9310 0.0000 0.0000 0.0000
# 3 3.3083 28.9310 93.5557 0.0000 0.0000 0.0000
# 4 0.0000 0.0000 0.0000 27.8561 0.0000 0.0000
# 5 0.0000 0.0000 0.0000 0.0000 9.1144 0.0000
# 6 0.0000 0.0000 0.0000 0.0000 0.0000 73.9348
#
#
#
# Elastic Compliance Matrix: (Units=1/GPa)
#
#
# Indices 1 2 3 4 5 6 
#
# 1 0.036646 -0.014028 0.003042 0.000000 0.000000 0.000000
# 2 -0.014028 0.015180 -0.004198 0.000000 0.000000 0.000000
# 3 0.003042 -0.004198 0.011879 0.000000 0.000000 0.000000
# 4 0.000000 0.000000 0.000000 0.035899 0.000000 0.000000
# 5 0.000000 0.000000 0.000000 0.000000 0.109716 0.000000
# 6 0.000000 0.000000 0.000000 0.000000 0.000000 0.013525
#
#
# Mechanical properties :
#
#
# Convention : Reuss Voigt Hill
#
# Bulk Modulus (GPa) = 29.99653 43.48312 36.73983
# Shear Modulus (GPa) = 18.91595 33.81419 26.36507
#
# Velocity S-wave (km/s) = 2.72946 3.64933 3.22239
# Velocity P-wave (km/s) = 4.66340 5.90614 5.32117
#
# Compressibility (1/GPa) = 0.03333719
#
# Stress axis : x y z
#
# Youngs Moduli (GPa) = 27.28806 65.87541 84.17868
#
# Poissons Ratio (x) = 0.92412 -0.25609
# Poissons Ratio (y) = 0.38280 0.35340
# Poissons Ratio (z) = -0.08302 0.27656
#
# Static dielectric constant tensor:
#      x y z
#    x 2.036470 0.000000 0.000000 
#    y 0.000000 2.035470 0.000000 
#    z 0.000000 0.000000 2.045580 
# 
# From -- ./inp_files/6250.got.cif
#   From: 2010.05.17/outbox.cif.g08.bks.cpg/sg33_4_cif.got.tgz:6250.got - 2010.06.03 17:15:25.
