data_PCOD9345517
_publ_section_title
;
Structure prediction by ZEFSAII (Michael W. Deem and Ramdas Pophale) SiO2 
 PCOD9345517
Probable space group: P N A 21
;
_chemical_formula_sum "Si O2"
_cell_formula_units_Z 28
_cell_length_a 12.137800
_cell_length_b 9.929773
_cell_length_c 9.081375
_cell_angle_alpha 90.000000
_cell_angle_beta 90.000000
_cell_angle_gamma 90.000000
_cell_volume 1094.538159
_symmetry_space_group_name_H-M "P N A 21"
_symmetry_group_IT_number 33
_symmetry_cell_setting 'orthorhombic'
loop_
_space_group_symop_operation_xyz
x,y,z
-x,-y,1/2+z
1/2-x,1/2+y,1/2+z
1/2+x,1/2-y,z
loop_
_atom_site_type_symbol
_atom_site_label
_atom_site_fract_x
_atom_site_fract_y
_atom_site_fract_z
Si Si1 0.005777 0.260332 0.559730
Si Si2 0.863224 0.904023 0.459116
Si Si3 0.540289 0.023655 0.189833
Si Si4 0.798884 0.632555 0.918441
Si Si5 0.546997 0.528438 0.648539
Si Si6 0.232025 0.389769 0.970516
Si Si7 0.662322 0.859601 0.804326
O O1 0.136294 0.271745 0.528464
O O2 0.992015 0.105945 0.585575
O O3 0.983086 0.365127 0.688148
O O4 0.919647 0.305421 0.434175
O O5 0.920989 0.972948 0.312337
O O6 0.795730 0.764779 0.426485
O O7 0.775809 0.021304 0.492590
O O8 0.947525 0.873366 0.594960
O O9 0.602238 0.055589 0.339657
O O10 0.626532 0.064182 0.066298
O O11 0.425064 0.102246 0.179538
O O12 0.742809 0.732318 0.799290
O O13 0.655281 0.579391 0.560858
O O14 0.227353 0.504297 0.843601
#
# Coordination Sequence:
#
# PCOD9345517 Si02
#       7
#     4   4   4   4   4   4   4
#     4  10  22  42  71 103 145 198 255 317 387 465
#     4  12  29  48  78 113 159 206 264 332 397 485
#     4  10  23  41  74 103 150 197 260 322 388 474
#     4  11  22  43  73 106 150 204 256 317 398 471
#     4  12  26  52  76 114 159 203 265 329 402 480
#     4  11  25  46  74 112 154 205 260 331 393 478
#     4  10  21  42  70 105 145 201 252 312 391 467
#
# _framework density 25.581565000000001
#
# number of rings (size 3 to 8) (size 9 to 14) (size 15 to 20)
#    0.000    1.143    4.286    0.857    2.000    5.714 
#    5.143    0.000    0.000    0.000    0.000    0.000 
#    0.000    0.000    0.000    0.000    0.000    0.000 
#
# Total GULP energy -156279.581466 kJ/mol
# GULP energy per Si atom -5581.413624 kJ/mol
# Density = 2.552334 g / cm^3
# Si number density = 25.581565 Si / 1000 Ang^3
#
#
#
# Elastic Constant Matrix: (Units=GPa)
#
#
# Indices 1 2 3 4 5 6 
#
# 1 102.2759 41.8735 24.0983 0.0000 0.0000 0.0000
# 2 41.8735 148.3612 9.1956 0.0000 0.0000 0.0000
# 3 24.0983 9.1956 53.6097 0.0000 0.0000 0.0000
# 4 0.0000 0.0000 0.0000 24.2190 0.0000 0.0000
# 5 0.0000 0.0000 0.0000 0.0000 37.5316 0.0000
# 6 0.0000 0.0000 0.0000 0.0000 0.0000 35.2211
#
#
#
# Elastic Compliance Matrix: (Units=1/GPa)
#
#
# Indices 1 2 3 4 5 6 
#
# 1 0.012234 -0.003145 -0.004960 0.000000 0.000000 0.000000
# 2 -0.003145 0.007621 0.000107 0.000000 0.000000 0.000000
# 3 -0.004960 0.000107 0.020865 0.000000 0.000000 0.000000
# 4 0.000000 0.000000 0.000000 0.041290 0.000000 0.000000
# 5 0.000000 0.000000 0.000000 0.000000 0.026644 0.000000
# 6 0.000000 0.000000 0.000000 0.000000 0.000000 0.028392
#
#
# Mechanical properties :
#
#
# Convention : Reuss Voigt Hill
#
# Bulk Modulus (GPa) = 40.44866 50.50906 45.47886
# Shear Modulus (GPa) = 31.00115 34.66629 32.83372
#
# Velocity S-wave (km/s) = 3.48495 3.68520 3.58647
# Velocity P-wave (km/s) = 5.66031 6.15587 5.91329
#
# Compressibility (1/GPa) = 0.02472270
#
# Stress axis : x y z
#
# Youngs Moduli (GPa) = 81.73988 131.20799 47.92816
#
# Poissons Ratio (x) = 0.41271 0.23771
# Poissons Ratio (y) = 0.25711 -0.00511
# Poissons Ratio (z) = 0.40541 -0.01399
#
# Static dielectric constant tensor:
#      x y z
#    x 2.086750 0.000000 0.000000 
#    y 0.000000 2.043950 0.000000 
#    z 0.000000 0.000000 2.168960 
# 
# From -- ./inp_files/6367.got.cif
#   From: 2010.05.17/outbox.cif.g08.bks.cpg/sg33_4_cif.got.tgz:6367.got - 2010.06.03 17:15:25.
