data_PCOD9345215
_publ_section_title
;
Structure prediction by ZEFSAII (Michael W. Deem and Ramdas Pophale) SiO2 
 PCOD9345215
Probable space group: P N A 21
;
_chemical_formula_sum "Si O2"
_cell_formula_units_Z 32
_cell_length_a 5.859450
_cell_length_b 31.303902
_cell_length_c 7.376700
_cell_angle_alpha 90.000000
_cell_angle_beta 90.000000
_cell_angle_gamma 90.000000
_cell_volume 1353.061228
_symmetry_space_group_name_H-M "P N A 21"
_symmetry_group_IT_number 33
_symmetry_cell_setting 'orthorhombic'
loop_
_space_group_symop_operation_xyz
x,y,z
-x,-y,1/2+z
1/2-x,1/2+y,1/2+z
1/2+x,1/2-y,z
loop_
_atom_site_type_symbol
_atom_site_label
_atom_site_fract_x
_atom_site_fract_y
_atom_site_fract_z
Si Si1 0.642296 0.424235 0.868920
Si Si2 0.489083 0.052988 0.551342
Si Si3 0.403156 0.257861 0.912952
Si Si4 0.131392 0.729185 0.005424
Si Si5 0.745242 0.026746 0.879284
Si Si6 0.584352 0.145715 0.392807
Si Si7 0.465306 0.887309 0.520160
Si Si8 0.326696 0.347987 0.741022
O O1 0.817951 0.437813 0.716057
O O2 0.510633 0.467223 0.920217
O O3 0.482619 0.388375 0.781356
O O4 0.770302 0.399669 0.030698
O O5 0.706238 0.036932 0.666746
O O6 0.527185 0.097074 0.448303
O O7 0.381039 0.016291 0.429255
O O8 0.650548 0.248007 0.003082
O O9 0.384207 0.230465 0.725775
O O10 0.412332 0.306267 0.841082
O O11 0.382891 0.748484 0.954829
O O12 0.107856 0.681085 0.931016
O O13 0.648983 0.066169 0.000719
O O14 0.630047 0.141258 0.180811
O O15 0.786757 0.159069 0.529104
O O16 0.412228 0.861894 0.335075
#
# Coordination Sequence:
#
# PCOD9345215 Si02
#       8
#     4   4   4   4   4   4   4   4
#     4  10  22  42  65  95 137 169 230 286 336 419
#     4  11  23  39  68  92 135 176 223 280 343 414
#     4  10  21  36  68 100 132 183 228 290 351 420
#     4  10  22  40  66 101 137 177 233 293 346 425
#     4  10  22  44  60  97 135 177 219 286 339 408
#     4  12  22  43  71  95 129 186 222 279 357 408
#     4  10  24  44  64  98 135 173 229 288 333 421
#     4  11  22  44  68  92 134 175 228 280 351 409
#
# _framework density 23.650077
#
# number of rings (size 3 to 8) (size 9 to 14) (size 15 to 20)
#    0.000    1.500    6.250    0.750    5.250    3.000 
#   11.250    1.250    0.000    0.000    0.000    0.000 
#    0.000    0.000    0.000    0.000    0.000    0.000 
#
# Total GULP energy -178521.235451 kJ/mol
# GULP energy per Si atom -5578.788608 kJ/mol
# Density = 2.359625 g / cm^3
# Si number density = 23.650077 Si / 1000 Ang^3
#
#
#
# Elastic Constant Matrix: (Units=GPa)
#
#
# Indices 1 2 3 4 5 6 
#
# 1 115.4399 22.7848 15.0419 0.0000 0.0000 0.0000
# 2 22.7848 110.3647 9.4610 0.0000 0.0000 0.0000
# 3 15.0419 9.4610 62.5370 0.0000 0.0000 0.0000
# 4 0.0000 0.0000 0.0000 12.5792 0.0000 0.0000
# 5 0.0000 0.0000 0.0000 0.0000 7.3968 0.0000
# 6 0.0000 0.0000 0.0000 0.0000 0.0000 30.1209
#
#
#
# Elastic Compliance Matrix: (Units=1/GPa)
#
#
# Indices 1 2 3 4 5 6 
#
# 1 0.009263 -0.001744 -0.001964 0.000000 0.000000 0.000000
# 2 -0.001744 0.009508 -0.001019 0.000000 0.000000 0.000000
# 3 -0.001964 -0.001019 0.016617 0.000000 0.000000 0.000000
# 4 0.000000 0.000000 0.000000 0.079496 0.000000 0.000000
# 5 0.000000 0.000000 0.000000 0.000000 0.135193 0.000000
# 6 0.000000 0.000000 0.000000 0.000000 0.000000 0.033200
#
#
# Mechanical properties :
#
#
# Convention : Reuss Voigt Hill
#
# Bulk Modulus (GPa) = 38.55944 42.54634 40.55289
# Shear Modulus (GPa) = 16.59062 26.08965 21.34014
#
# Velocity S-wave (km/s) = 2.65147 3.32498 3.00714
# Velocity P-wave (km/s) = 5.07082 5.72448 5.40753
#
# Compressibility (1/GPa) = 0.02593399
#
# Stress axis : x y z
#
# Youngs Moduli (GPa) = 107.96054 105.17181 60.17889
#
# Poissons Ratio (x) = 0.18341 0.11820
# Poissons Ratio (y) = 0.18827 0.06132
# Poissons Ratio (z) = 0.21204 0.10717
#
# Static dielectric constant tensor:
#      x y z
#    x 2.100700 0.000000 0.000000 
#    y 0.000000 1.900610 0.000000 
#    z 0.000000 0.000000 1.890370 
# 
# From -- ./inp_files/2864.got.cif
#   From: 2010.05.17/outbox.cif.g08.bks.cpg/sg33_2_cif.got.tgz:2864.got - 2010.06.03 17:15:25.
