data_PCOD9345107
_publ_section_title
;
Structure prediction by ZEFSAII (Michael W. Deem and Ramdas Pophale) SiO2 
 PCOD9345107
Probable space group: P N A 21
;
_chemical_formula_sum "Si O2"
_cell_formula_units_Z 28
_cell_length_a 8.703425
_cell_length_b 27.005683
_cell_length_c 4.891141
_cell_angle_alpha 90.000000
_cell_angle_beta 90.000000
_cell_angle_gamma 90.000000
_cell_volume 1149.623253
_symmetry_space_group_name_H-M "P N A 21"
_symmetry_group_IT_number 33
_symmetry_cell_setting 'orthorhombic'
loop_
_space_group_symop_operation_xyz
x,y,z
-x,-y,1/2+z
1/2-x,1/2+y,1/2+z
1/2+x,1/2-y,z
loop_
_atom_site_type_symbol
_atom_site_label
_atom_site_fract_x
_atom_site_fract_y
_atom_site_fract_z
Si Si1 0.884213 0.931490 0.705330
Si Si2 0.615517 0.327953 0.418671
Si Si3 0.782387 0.770216 0.440319
Si Si4 0.927120 0.614676 0.086304
Si Si5 0.079263 0.907025 0.168341
Si Si6 0.967172 0.680490 0.570969
Si Si7 0.432421 0.024326 0.255856
O O1 0.808609 0.879443 0.813899
O O2 0.984974 0.918311 0.441844
O O3 0.994033 0.056181 0.442765
O O4 0.746047 0.969593 0.678192
O O5 0.597449 0.296167 0.148191
O O6 0.467117 0.351897 0.560777
O O7 0.700330 0.295000 0.643855
O O8 0.827047 0.712947 0.449778
O O9 0.618878 0.785750 0.563210
O O10 0.760572 0.593778 0.169819
O O11 0.001443 0.636030 0.360556
O O12 0.014039 0.571665 0.927765
O O13 0.923186 0.659352 0.865390
O O14 0.529744 0.017802 0.979770
#
# Coordination Sequence:
#
# PCOD9345107 Si02
#       7
#     4   4   4   4   4   4   4
#     4  10  20  41  70 103 134 183 229 272 364 415
#     4  10  21  39  69  92 133 184 230 272 335 418
#     4  12  24  40  63  98 136 184 240 276 341 398
#     4  12  27  48  69 103 144 177 244 285 376 404
#     4  10  22  40  74  97 131 192 214 289 341 425
#     4  12  28  42  68 100 143 188 229 302 336 424
#     4  12  26  46  75 107 141 184 238 306 365 450
#
# _framework density 24.355806999999999
#
# number of rings (size 3 to 8) (size 9 to 14) (size 15 to 20)
#    0.857    0.000    1.429    6.000    4.000    0.000 
#    0.000    2.857    0.000    0.000    0.000    0.000 
#    0.000    0.000    0.000    0.000    0.000    0.000 
#
# Total GULP energy -156570.172777 kJ/mol
# GULP energy per Si atom -5591.791885 kJ/mol
# Density = 2.430037 g / cm^3
# Si number density = 24.355807 Si / 1000 Ang^3
#
#
#
# Elastic Constant Matrix: (Units=GPa)
#
#
# Indices 1 2 3 4 5 6 
#
# 1 99.1341 27.9457 20.7411 0.0000 0.0000 0.0000
# 2 27.9457 67.6978 18.0858 0.0000 0.0000 0.0000
# 3 20.7411 18.0858 153.1030 0.0000 0.0000 0.0000
# 4 0.0000 0.0000 0.0000 18.4601 0.0000 0.0000
# 5 0.0000 0.0000 0.0000 0.0000 22.5581 0.0000
# 6 0.0000 0.0000 0.0000 0.0000 0.0000 36.7868
#
#
#
# Elastic Compliance Matrix: (Units=1/GPa)
#
#
# Indices 1 2 3 4 5 6 
#
# 1 0.011573 -0.004500 -0.001036 0.000000 0.000000 0.000000
# 2 -0.004500 0.017003 -0.001399 0.000000 0.000000 0.000000
# 3 -0.001036 -0.001399 0.006837 0.000000 0.000000 0.000000
# 4 0.000000 0.000000 0.000000 0.054171 0.000000 0.000000
# 5 0.000000 0.000000 0.000000 0.000000 0.044330 0.000000
# 6 0.000000 0.000000 0.000000 0.000000 0.000000 0.027184
#
#
# Mechanical properties :
#
#
# Convention : Reuss Voigt Hill
#
# Bulk Modulus (GPa) = 46.42079 50.38670 48.40375
# Shear Modulus (GPa) = 27.45002 32.43848 29.94425
#
# Velocity S-wave (km/s) = 3.36079 3.65342 3.51016
# Velocity P-wave (km/s) = 5.84471 6.20720 6.02868
#
# Compressibility (1/GPa) = 0.02154207
#
# Stress axis : x y z
#
# Youngs Moduli (GPa) = 86.40955 58.81302 146.25944
#
# Poissons Ratio (x) = 0.26468 0.15155
# Poissons Ratio (y) = 0.38888 0.20460
# Poissons Ratio (z) = 0.08953 0.08227
#
# Static dielectric constant tensor:
#      x y z
#    x 1.974190 0.000000 0.000000 
#    y 0.000000 2.060700 0.000000 
#    z 0.000000 0.000000 1.895250 
# 
# From -- ./inp_files/471.got.cif
#   From: 2010.05.17/outbox.cif.g08.bks.cpg/sg33_1_cif.got.tgz:471.got - 2010.06.03 17:15:25.
