data_PCOD9345065
_publ_section_title
;
Structure prediction by ZEFSAII (Michael W. Deem and Ramdas Pophale) SiO2 
 PCOD9345065
Probable space group: P N A 21
;
_chemical_formula_sum "Si O2"
_cell_formula_units_Z 28
_cell_length_a 11.100314
_cell_length_b 9.588754
_cell_length_c 12.381425
_cell_angle_alpha 90.000000
_cell_angle_beta 90.000000
_cell_angle_gamma 90.000000
_cell_volume 1317.856346
_symmetry_space_group_name_H-M "P N A 21"
_symmetry_group_IT_number 33
_symmetry_cell_setting 'orthorhombic'
loop_
_space_group_symop_operation_xyz
x,y,z
-x,-y,1/2+z
1/2-x,1/2+y,1/2+z
1/2+x,1/2-y,z
loop_
_atom_site_type_symbol
_atom_site_label
_atom_site_fract_x
_atom_site_fract_y
_atom_site_fract_z
Si Si1 0.031550 0.430164 0.511160
Si Si2 0.881629 0.798311 0.690458
Si Si3 0.332545 0.011998 0.221183
Si Si4 0.285521 0.952073 0.809317
Si Si5 0.939306 0.231374 0.361651
Si Si6 0.767708 0.247002 0.853425
Si Si7 0.521476 0.242592 0.976443
O O1 0.084295 0.441690 0.630710
O O2 0.133072 0.433291 0.416800
O O3 0.958318 0.290986 0.481426
O O4 0.965404 0.575756 0.489274
O O5 0.832143 0.642510 0.710697
O O6 0.979986 0.803258 0.597125
O O7 0.941047 0.830153 0.806169
O O8 0.772608 0.899713 0.664268
O O9 0.270750 0.891626 0.291122
O O10 0.401317 0.128657 0.293325
O O11 0.160322 0.884089 0.844350
O O12 0.285622 0.114519 0.781340
O O13 0.648401 0.286577 0.923480
O O14 0.895077 0.228175 0.916370
#
# Coordination Sequence:
#
# PCOD9345065 Si02
#       7
#     4   4   4   4   4   4   4
#     4  10  20  41  63  89 130 173 215 272 335 398
#     4  10  21  39  69  90 125 178 223 268 335 415
#     4  11  22  42  65  95 133 176 225 276 340 400
#     4   9  22  40  60  95 131 167 217 273 333 401
#     4  10  20  40  65  92 126 176 223 269 336 404
#     4  11  25  42  66  99 137 170 223 290 335 392
#     4  11  22  42  68  96 128 178 224 272 336 408
#
# _framework density 21.246625000000002
#
# number of rings (size 3 to 8) (size 9 to 14) (size 15 to 20)
#    0.000    1.714    2.857    1.714    4.000    0.000 
#    5.143    1.429    0.000    0.000    0.000    0.000 
#    0.000    0.000    0.000    0.000    0.000    0.000 
#
# Total GULP energy -156175.709703 kJ/mol
# GULP energy per Si atom -5577.703918 kJ/mol
# Density = 2.119827 g / cm^3
# Si number density = 21.246625 Si / 1000 Ang^3
#
#
#
# Elastic Constant Matrix: (Units=GPa)
#
#
# Indices 1 2 3 4 5 6 
#
# 1 90.4031 22.5556 24.5359 0.0000 0.0000 0.0000
# 2 22.5556 61.5845 29.0538 0.0000 0.0000 0.0000
# 3 24.5359 29.0538 65.0188 0.0000 0.0000 0.0000
# 4 0.0000 0.0000 0.0000 15.1927 0.0000 0.0000
# 5 0.0000 0.0000 0.0000 0.0000 33.9063 0.0000
# 6 0.0000 0.0000 0.0000 0.0000 0.0000 27.9943
#
#
#
# Elastic Compliance Matrix: (Units=1/GPa)
#
#
# Indices 1 2 3 4 5 6 
#
# 1 0.012758 -0.003043 -0.003455 0.000000 0.000000 0.000000
# 2 -0.003043 0.021301 -0.008370 0.000000 0.000000 0.000000
# 3 -0.003455 -0.008370 0.020424 0.000000 0.000000 0.000000
# 4 0.000000 0.000000 0.000000 0.065821 0.000000 0.000000
# 5 0.000000 0.000000 0.000000 0.000000 0.029493 0.000000
# 6 0.000000 0.000000 0.000000 0.000000 0.000000 0.035722
#
#
# Mechanical properties :
#
#
# Convention : Reuss Voigt Hill
#
# Bulk Modulus (GPa) = 40.40762 41.03301 40.72032
# Shear Modulus (GPa) = 22.37092 24.80940 23.59016
#
# Velocity S-wave (km/s) = 3.24839 3.42085 3.33573
# Velocity P-wave (km/s) = 5.75578 5.91250 5.83466
#
# Compressibility (1/GPa) = 0.02474780
#
# Stress axis : x y z
#
# Youngs Moduli (GPa) = 78.37943 46.94588 48.96170
#
# Poissons Ratio (x) = 0.14285 0.16916
# Poissons Ratio (y) = 0.23850 0.40982
# Poissons Ratio (z) = 0.27079 0.39294
#
# Static dielectric constant tensor:
#      x y z
#    x 1.825950 0.000000 0.000000 
#    y 0.000000 1.774560 0.000000 
#    z 0.000000 0.000000 1.796660 
# 
# From -- ./inp_files/6333.got.cif
#   From: 2010.05.17/outbox.cif.g08.bks.cpg/sg33_4_cif.got.tgz:6333.got - 2010.06.03 17:15:25.
