data_PCOD9345533
_publ_section_title
;
Structure prediction by ZEFSAII (Michael W. Deem and Ramdas Pophale) SiO2 
 PCOD9345533
Probable space group: P N A 21
;
_chemical_formula_sum "Si O2"
_cell_formula_units_Z 32
_cell_length_a 9.749824
_cell_length_b 10.831758
_cell_length_c 13.002907
_cell_angle_alpha 90.000000
_cell_angle_beta 90.000000
_cell_angle_gamma 90.000000
_cell_volume 1373.207545
_symmetry_space_group_name_H-M "P N A 21"
_symmetry_group_IT_number 33
_symmetry_cell_setting 'orthorhombic'
loop_
_space_group_symop_operation_xyz
x,y,z
-x,-y,1/2+z
1/2-x,1/2+y,1/2+z
1/2+x,1/2-y,z
loop_
_atom_site_type_symbol
_atom_site_label
_atom_site_fract_x
_atom_site_fract_y
_atom_site_fract_z
Si Si1 0.488135 0.821094 0.357030
Si Si2 0.353685 0.508788 0.157015
Si Si3 0.404639 0.918455 0.561193
Si Si4 0.986121 0.323747 0.454133
Si Si5 0.801489 0.899951 0.363206
Si Si6 0.170816 0.026919 0.104674
Si Si7 0.104709 0.576548 0.748590
Si Si8 0.741747 0.229935 0.564084
O O1 0.444537 0.820146 0.476662
O O2 0.651595 0.837156 0.348918
O O3 0.422723 0.691812 0.324872
O O4 0.419224 0.939651 0.300639
O O5 0.255662 0.426146 0.084992
O O6 0.314111 0.493344 0.277102
O O7 0.512140 0.485154 0.133820
O O8 0.304151 0.647921 0.123972
O O9 0.460454 0.043762 0.507641
O O10 0.486153 0.906425 0.665411
O O11 0.925481 0.331924 0.342009
O O12 0.896363 0.237157 0.525689
O O13 0.141545 0.284599 0.467005
O O14 0.813069 0.939373 0.483206
O O15 0.255712 0.899036 0.121959
O O16 0.254270 0.106469 0.188561
#
# Coordination Sequence:
#
# PCOD9345533 Si02
#       8
#     4   4   4   4   4   4   4   4
#     4  11  25  44  68  96 137 178 227 276 341 408
#     4  11  26  40  72 100 129 174 229 277 337 396
#     4  10  21  43  66  91 130 173 216 274 333 397
#     4  10  22  38  67  94 125 165 222 267 329 393
#     4  12  27  43  67 104 134 181 227 279 336 410
#     4  12  25  45  66  98 142 169 225 284 333 403
#     4  11  21  44  67  91 127 182 216 268 345 392
#     4  11  21  43  65  98 128 168 214 283 320 395
#
# _framework density 23.303104000000001
#
# number of rings (size 3 to 8) (size 9 to 14) (size 15 to 20)
#    0.000    1.000    5.000    1.500    5.250    2.000 
#    2.250    0.000    0.000    0.000    0.000    0.000 
#    0.000    0.000    0.000    0.000    0.000    0.000 
#
# Total GULP energy -178723.497160 kJ/mol
# GULP energy per Si atom -5585.109286 kJ/mol
# Density = 2.325007 g / cm^3
# Si number density = 23.303104 Si / 1000 Ang^3
#
#
#
# Elastic Constant Matrix: (Units=GPa)
#
#
# Indices 1 2 3 4 5 6 
#
# 1 152.3491 -1.0486 27.3653 0.0000 0.0000 0.0000
# 2 -1.0486 15.4042 -3.2259 0.0000 0.0000 0.0000
# 3 27.3653 -3.2259 106.1955 0.0000 0.0000 0.0000
# 4 0.0000 0.0000 0.0000 17.9908 0.0000 0.0000
# 5 0.0000 0.0000 0.0000 0.0000 31.8753 0.0000
# 6 0.0000 0.0000 0.0000 0.0000 0.0000 13.7438
#
#
#
# Elastic Compliance Matrix: (Units=1/GPa)
#
#
# Indices 1 2 3 4 5 6 
#
# 1 0.006883 0.000098 -0.001771 0.000000 0.000000 0.000000
# 2 0.000098 0.065334 0.001959 0.000000 0.000000 0.000000
# 3 -0.001771 0.001959 0.009932 0.000000 0.000000 0.000000
# 4 0.000000 0.000000 0.000000 0.055584 0.000000 0.000000
# 5 0.000000 0.000000 0.000000 0.000000 0.031372 0.000000
# 6 0.000000 0.000000 0.000000 0.000000 0.000000 0.072760
#
#
# Mechanical properties :
#
#
# Convention : Reuss Voigt Hill
#
# Bulk Modulus (GPa) = 12.08860 35.57005 23.82932
# Shear Modulus (GPa) = 18.59658 29.44585 24.02122
#
# Velocity S-wave (km/s) = 2.82801 3.55857 3.21412
# Velocity P-wave (km/s) = 3.98275 5.67290 4.90123
#
# Compressibility (1/GPa) = 0.08272258
#
# Stress axis : x y z
#
# Youngs Moduli (GPa) = 145.29434 15.30587 100.68087
#
# Poissons Ratio (x) = -0.00150 0.17826
# Poissons Ratio (y) = -0.01420 -0.19728
# Poissons Ratio (z) = 0.25726 -0.02999
#
# Static dielectric constant tensor:
#      x y z
#    x 1.828740 0.000000 0.000000 
#    y 0.000000 2.077760 0.000000 
#    z 0.000000 0.000000 1.901450 
# 
# From -- ./inp_files/6010.got.cif
#   From: 2010.05.17/outbox.cif.g08.bks.cpg/sg33_4_cif.got.tgz:6010.got - 2010.06.03 17:15:25.
