data_PCOD9345794
_publ_section_title
;
Structure prediction by ZEFSAII (Michael W. Deem and Ramdas Pophale) SiO2 
 PCOD9345794
Probable space group: P N A 21
;
_chemical_formula_sum "Si O2"
_cell_formula_units_Z 28
_cell_length_a 8.024741
_cell_length_b 8.637279
_cell_length_c 16.311346
_cell_angle_alpha 90.000000
_cell_angle_beta 90.000000
_cell_angle_gamma 90.000000
_cell_volume 1130.570822
_symmetry_space_group_name_H-M "P N A 21"
_symmetry_group_IT_number 33
_symmetry_cell_setting 'orthorhombic'
loop_
_space_group_symop_operation_xyz
x,y,z
-x,-y,1/2+z
1/2-x,1/2+y,1/2+z
1/2+x,1/2-y,z
loop_
_atom_site_type_symbol
_atom_site_label
_atom_site_fract_x
_atom_site_fract_y
_atom_site_fract_z
Si Si1 0.867917 0.199569 0.657380
Si Si2 0.076971 0.992564 0.547516
Si Si3 0.162996 0.834755 0.339543
Si Si4 0.027997 0.488575 0.627672
Si Si5 0.729999 0.811182 0.509330
Si Si6 0.424148 0.080209 0.305978
Si Si7 0.393734 0.658472 0.880527
O O1 0.879359 0.237292 0.753141
O O2 0.694555 0.114192 0.644789
O O3 0.888036 0.361359 0.611330
O O4 0.011778 0.083177 0.626859
O O5 0.905243 0.899963 0.519708
O O6 0.214488 0.857514 0.553237
O O7 0.128672 0.113336 0.475668
O O8 0.179038 0.723353 0.416061
O O9 0.346619 0.916457 0.333630
O O10 0.043040 0.986403 0.351238
O O11 0.086233 0.591251 0.553079
O O12 0.004633 0.576921 0.714473
O O13 0.525137 0.174137 0.373745
O O14 0.253131 0.178393 0.313394
#
# Coordination Sequence:
#
# PCOD9345794 Si02
#       7
#     4   4   4   4   4   4   4
#     4  10  22  43  63  93 134 163 216 269 324 384
#     4  10  23  43  63  95 132 167 215 278 313 393
#     4   8  20  42  60  91 130 166 209 268 308 393
#     4  10  23  42  63  96 128 171 214 268 324 386
#     4  10  22  42  67  93 129 170 218 263 329 382
#     4   9  20  40  62  92 126 166 210 262 321 375
#     4   9  20  40  60  90 129 161 214 264 309 383
#
# _framework density 24.766248999999998
#
# number of rings (size 3 to 8) (size 9 to 14) (size 15 to 20)
#    0.857    1.714    0.000    0.000    2.000    8.000 
#   12.857    0.000    0.000    0.000    0.000    0.000 
#    0.000    0.000    0.000    0.000    0.000    0.000 
#
# Total GULP energy -156019.381199 kJ/mol
# GULP energy per Si atom -5572.120757 kJ/mol
# Density = 2.470988 g / cm^3
# Si number density = 24.766249 Si / 1000 Ang^3
#
#
#
# Elastic Constant Matrix: (Units=GPa)
#
#
# Indices 1 2 3 4 5 6 
#
# 1 48.5096 23.6190 7.2625 0.0000 0.0000 0.0000
# 2 23.6190 73.7372 62.0319 0.0000 0.0000 0.0000
# 3 7.2625 62.0319 124.0759 0.0000 0.0000 0.0000
# 4 0.0000 0.0000 0.0000 42.0605 0.0000 0.0000
# 5 0.0000 0.0000 0.0000 0.0000 18.2639 0.0000
# 6 0.0000 0.0000 0.0000 0.0000 0.0000 26.1424
#
#
#
# Elastic Compliance Matrix: (Units=1/GPa)
#
#
# Indices 1 2 3 4 5 6 
#
# 1 0.025818 -0.012079 0.004527 0.000000 0.000000 0.000000
# 2 -0.012079 0.029057 -0.013820 0.000000 0.000000 0.000000
# 3 0.004527 -0.013820 0.014704 0.000000 0.000000 0.000000
# 4 0.000000 0.000000 0.000000 0.023775 0.000000 0.000000
# 5 0.000000 0.000000 0.000000 0.000000 0.054753 0.000000
# 6 0.000000 0.000000 0.000000 0.000000 0.000000 0.038252
#
#
# Mechanical properties :
#
#
# Convention : Reuss Voigt Hill
#
# Bulk Modulus (GPa) = 37.26300 48.01660 42.63980
# Shear Modulus (GPa) = 21.00438 27.52066 24.26252
#
# Velocity S-wave (km/s) = 2.91538 3.33711 3.13335
# Velocity P-wave (km/s) = 5.13918 5.85477 5.50861
#
# Compressibility (1/GPa) = 0.02683627
#
# Stress axis : x y z
#
# Youngs Moduli (GPa) = 38.73324 34.41550 68.00929
#
# Poissons Ratio (x) = 0.41569 -0.30791
# Poissons Ratio (y) = 0.46784 0.93988
# Poissons Ratio (z) = -0.17536 0.47562
#
# Static dielectric constant tensor:
#      x y z
#    x 2.163840 0.000000 0.000000 
#    y 0.000000 2.105610 0.000000 
#    z 0.000000 0.000000 1.949940 
# 
# From -- ./inp_files/8468.got.cif
#   From: 2010.05.17/outbox.cif.g08.bks.cpg/sg33_5_cif.got.tgz:8468.got - 2010.06.03 17:15:25.
