data_PCOD9345219
_publ_section_title
;
Structure prediction by ZEFSAII (Michael W. Deem and Ramdas Pophale) SiO2 
 PCOD9345219
Probable space group: P N A 21
;
_chemical_formula_sum "Si O2"
_cell_formula_units_Z 28
_cell_length_a 8.095140
_cell_length_b 15.997343
_cell_length_c 9.071011
_cell_angle_alpha 90.000000
_cell_angle_beta 90.000000
_cell_angle_gamma 90.000000
_cell_volume 1174.702557
_symmetry_space_group_name_H-M "P N A 21"
_symmetry_group_IT_number 33
_symmetry_cell_setting 'orthorhombic'
loop_
_space_group_symop_operation_xyz
x,y,z
-x,-y,1/2+z
1/2-x,1/2+y,1/2+z
1/2+x,1/2-y,z
loop_
_atom_site_type_symbol
_atom_site_label
_atom_site_fract_x
_atom_site_fract_y
_atom_site_fract_z
Si Si1 0.461248 0.481120 0.275410
Si Si2 0.177389 0.296324 0.080208
Si Si3 0.834467 0.448130 0.617666
Si Si4 0.595453 0.776255 0.794436
Si Si5 0.847639 0.900549 0.506425
Si Si6 0.526503 0.067251 0.894534
Si Si7 0.101051 0.160323 0.460774
O O1 0.283574 0.483702 0.195563
O O2 0.461386 0.567878 0.368934
O O3 0.486682 0.414611 0.405893
O O4 0.590259 0.453851 0.148549
O O5 0.344036 0.294458 0.177209
O O6 0.039811 0.323475 0.200500
O O7 0.153418 0.199949 0.027760
O O8 0.145515 0.357841 0.945852
O O9 0.989254 0.432761 0.721895
O O10 0.711353 0.369618 0.596006
O O11 0.892953 0.483720 0.461237
O O12 0.760742 0.822448 0.836612
O O13 0.513998 0.740970 0.943829
O O14 0.657227 0.922213 0.465240
#
# Coordination Sequence:
#
# PCOD9345219 Si02
#       7
#     4   4   4   4   4   4   4
#     4  11  21  42  70  95 136 179 232 288 344 422
#     4  11  20  41  67 101 133 186 238 282 345 433
#     4  11  27  44  69 100 143 182 235 296 354 426
#     4  10  21  36  72  93 135 182 229 287 345 428
#     4  11  23  41  67 102 136 183 236 288 350 421
#     4  11  26  44  66 103 139 185 234 297 354 417
#     4  11  22  44  63 102 134 181 234 288 350 423
#
# _framework density 23.835820999999999
#
# number of rings (size 3 to 8) (size 9 to 14) (size 15 to 20)
#    0.000    1.143    5.714    0.857    4.000    0.000 
#    7.714    0.000    0.000    0.000    0.000    0.000 
#    0.000    0.000    0.000    0.000    0.000    0.000 
#
# Total GULP energy -156152.246535 kJ/mol
# GULP energy per Si atom -5576.865948 kJ/mol
# Density = 2.378157 g / cm^3
# Si number density = 23.835821 Si / 1000 Ang^3
#
#
#
# Elastic Constant Matrix: (Units=GPa)
#
#
# Indices 1 2 3 4 5 6 
#
# 1 71.9761 10.9208 1.2919 0.0000 0.0000 0.0000
# 2 10.9208 71.9694 32.3359 0.0000 0.0000 0.0000
# 3 1.2919 32.3359 85.9886 0.0000 0.0000 0.0000
# 4 0.0000 0.0000 0.0000 27.2652 0.0000 0.0000
# 5 0.0000 0.0000 0.0000 0.0000 54.8593 0.0000
# 6 0.0000 0.0000 0.0000 0.0000 0.0000 29.2780
#
#
#
# Elastic Compliance Matrix: (Units=1/GPa)
#
#
# Indices 1 2 3 4 5 6 
#
# 1 0.014258 -0.002488 0.000721 0.000000 0.000000 0.000000
# 2 -0.002488 0.017154 -0.006413 0.000000 0.000000 0.000000
# 3 0.000721 -0.006413 0.014030 0.000000 0.000000 0.000000
# 4 0.000000 0.000000 0.000000 0.036677 0.000000 0.000000
# 5 0.000000 0.000000 0.000000 0.000000 0.018228 0.000000
# 6 0.000000 0.000000 0.000000 0.000000 0.000000 0.034155
#
#
# Mechanical properties :
#
#
# Convention : Reuss Voigt Hill
#
# Bulk Modulus (GPa) = 34.38456 35.44792 34.91624
# Shear Modulus (GPa) = 31.14176 34.63955 32.89065
#
# Velocity S-wave (km/s) = 3.61849 3.81629 3.71871
# Velocity P-wave (km/s) = 5.64932 5.85857 5.75490
#
# Compressibility (1/GPa) = 0.02908282
#
# Stress axis : x y z
#
# Youngs Moduli (GPa) = 70.13608 58.29629 71.27427
#
# Poissons Ratio (x) = 0.14502 -0.05141
# Poissons Ratio (y) = 0.17447 0.45710
# Poissons Ratio (z) = -0.05059 0.37387
#
# Static dielectric constant tensor:
#      x y z
#    x 1.899950 0.000000 0.000000 
#    y 0.000000 1.987710 0.000000 
#    z 0.000000 0.000000 1.972090 
# 
# From -- ./inp_files/3309.got.cif
#   From: 2010.05.17/outbox.cif.g08.bks.cpg/sg33_2_cif.got.tgz:3309.got - 2010.06.03 17:15:25.
