data_PCOD9345565
_publ_section_title
;
Structure prediction by ZEFSAII (Michael W. Deem and Ramdas Pophale) SiO2 
 PCOD9345565
Probable space group: P N A 21
;
_chemical_formula_sum "Si O2"
_cell_formula_units_Z 28
_cell_length_a 7.594668
_cell_length_b 15.975443
_cell_length_c 8.712332
_cell_angle_alpha 90.000000
_cell_angle_beta 90.000000
_cell_angle_gamma 90.000000
_cell_volume 1057.051435
_symmetry_space_group_name_H-M "P N A 21"
_symmetry_group_IT_number 33
_symmetry_cell_setting 'orthorhombic'
loop_
_space_group_symop_operation_xyz
x,y,z
-x,-y,1/2+z
1/2-x,1/2+y,1/2+z
1/2+x,1/2-y,z
loop_
_atom_site_type_symbol
_atom_site_label
_atom_site_fract_x
_atom_site_fract_y
_atom_site_fract_z
Si Si1 0.930263 0.829699 0.795530
Si Si2 0.172543 0.822506 0.241614
Si Si3 0.630889 0.978953 0.134623
Si Si4 0.850861 0.417638 0.976955
Si Si5 0.462212 0.464376 0.523386
Si Si6 0.125341 0.230248 0.959061
Si Si7 0.891195 0.311171 0.486335
O O1 0.947577 0.789717 0.628232
O O2 0.729785 0.842198 0.845763
O O3 0.029372 0.912416 0.860829
O O4 0.980896 0.754546 0.910048
O O5 0.319905 0.816951 0.374481
O O6 0.991579 0.815722 0.333771
O O7 0.140643 0.903317 0.139533
O O8 0.193247 0.743289 0.126080
O O9 0.623921 0.962496 0.314425
O O10 0.541473 0.896007 0.060733
O O11 0.834495 0.979954 0.074561
O O12 0.509978 0.056023 0.085944
O O13 0.659458 0.454221 0.027657
O O14 0.814677 0.319207 0.962551
#
# Coordination Sequence:
#
# PCOD9345565 Si02
#       7
#     4   4   4   4   4   4   4
#     4  10  23  40  69 108 142 185 247 311 373 444
#     4  11  22  46  73 101 145 198 256 307 379 456
#     4  11  26  49  72 109 147 198 252 313 381 469
#     4  12  28  47  75 110 154 200 256 313 393 460
#     4  10  25  48  76 102 151 208 247 307 390 476
#     4  12  25  44  70 116 148 185 260 323 371 452
#     4  10  21  44  69  96 141 194 242 296 379 453
#
# _framework density 26.488779999999998
#
# number of rings (size 3 to 8) (size 9 to 14) (size 15 to 20)
#    0.000    1.143    2.857    2.571   12.000    0.000 
#    2.571    0.000    0.000    0.000    0.000    0.000 
#    0.000    0.000    0.000    0.000    0.000    0.000 
#
# Total GULP energy -156668.338504 kJ/mol
# GULP energy per Si atom -5595.297804 kJ/mol
# Density = 2.642849 g / cm^3
# Si number density = 26.488780 Si / 1000 Ang^3
#
#
#
# Elastic Constant Matrix: (Units=GPa)
#
#
# Indices 1 2 3 4 5 6 
#
# 1 80.8968 14.1141 39.7434 0.0000 0.0000 0.0000
# 2 14.1141 77.7146 21.3050 0.0000 0.0000 0.0000
# 3 39.7434 21.3050 163.9449 0.0000 0.0000 0.0000
# 4 0.0000 0.0000 0.0000 33.4625 0.0000 0.0000
# 5 0.0000 0.0000 0.0000 0.0000 49.2017 0.0000
# 6 0.0000 0.0000 0.0000 0.0000 0.0000 37.8592
#
#
#
# Elastic Compliance Matrix: (Units=1/GPa)
#
#
# Indices 1 2 3 4 5 6 
#
# 1 0.014246 -0.001701 -0.003233 0.000000 0.000000 0.000000
# 2 -0.001701 0.013546 -0.001348 0.000000 0.000000 0.000000
# 3 -0.003233 -0.001348 0.007058 0.000000 0.000000 0.000000
# 4 0.000000 0.000000 0.000000 0.029884 0.000000 0.000000
# 5 0.000000 0.000000 0.000000 0.000000 0.020325 0.000000
# 6 0.000000 0.000000 0.000000 0.000000 0.000000 0.026414
#
#
# Mechanical properties :
#
#
# Convention : Reuss Voigt Hill
#
# Bulk Modulus (GPa) = 44.86812 52.54240 48.70526
# Shear Modulus (GPa) = 38.03277 40.59760 39.31518
#
# Velocity S-wave (km/s) = 3.79331 3.91913 3.85674
# Velocity P-wave (km/s) = 6.01340 6.35282 6.18544
#
# Compressibility (1/GPa) = 0.02228754
#
# Stress axis : x y z
#
# Youngs Moduli (GPa) = 70.19357 73.82208 141.67511
#
# Poissons Ratio (x) = 0.12558 0.45797
# Poissons Ratio (y) = 0.11941 0.19097
# Poissons Ratio (z) = 0.22690 0.09951
#
# Static dielectric constant tensor:
#      x y z
#    x 2.140440 0.000000 0.000000 
#    y 0.000000 2.084660 0.000000 
#    z 0.000000 0.000000 2.075270 
# 
# From -- ./inp_files/3366.got.cif
#   From: 2010.05.17/outbox.cif.g08.bks.cpg/sg33_2_cif.got.tgz:3366.got - 2010.06.03 17:15:25.
