data_PCOD9345559
_publ_section_title
;
Structure prediction by ZEFSAII (Michael W. Deem and Ramdas Pophale) SiO2 
 PCOD9345559
Probable space group: P N A 21
;
_chemical_formula_sum "Si O2"
_cell_formula_units_Z 32
_cell_length_a 18.369302
_cell_length_b 6.882031
_cell_length_c 11.314259
_cell_angle_alpha 90.000000
_cell_angle_beta 90.000000
_cell_angle_gamma 90.000000
_cell_volume 1430.327191
_symmetry_space_group_name_H-M "P N A 21"
_symmetry_group_IT_number 33
_symmetry_cell_setting 'orthorhombic'
loop_
_space_group_symop_operation_xyz
x,y,z
-x,-y,1/2+z
1/2-x,1/2+y,1/2+z
1/2+x,1/2-y,z
loop_
_atom_site_type_symbol
_atom_site_label
_atom_site_fract_x
_atom_site_fract_y
_atom_site_fract_z
Si Si1 0.923664 0.456774 0.955890
Si Si2 0.205490 0.417961 0.616609
Si Si3 0.524080 0.668346 0.915435
Si Si4 0.643399 0.984671 0.872648
Si Si5 0.682929 0.323038 0.176364
Si Si6 0.554457 0.278064 0.025102
Si Si7 0.225604 0.985046 0.563934
Si Si8 0.610269 0.581553 0.366336
O O1 0.903199 0.311951 0.847504
O O2 0.969425 0.652899 0.939978
O O3 0.975833 0.319376 0.035517
O O4 0.850205 0.521056 0.016645
O O5 0.175197 0.486362 0.742785
O O6 0.282571 0.517566 0.588029
O O7 0.212294 0.190254 0.621538
O O8 0.595506 0.786409 0.874387
O O9 0.548958 0.511076 0.013894
O O10 0.468631 0.519958 0.848687
O O11 0.591423 0.166077 0.913160
O O12 0.709136 0.991259 0.967740
O O13 0.664247 0.451514 0.288870
O O14 0.744563 0.159698 0.164841
O O15 0.607861 0.232971 0.132364
O O16 0.151983 0.925648 0.493793
#
# Coordination Sequence:
#
# PCOD9345559 Si02
#       8
#     4   4   4   4   4   4   4   4
#     4  10  22  41  64  92 137 169 222 276 327 406
#     4  12  23  39  68  99 128 183 219 274 344 397
#     4  10  21  44  66  92 131 179 213 281 332 390
#     4  10  23  42  64  97 133 171 228 276 333 406
#     4  11  24  42  67  97 130 178 223 278 336 404
#     4   9  22  44  65  94 134 170 221 281 328 398
#     4  11  23  44  64  96 137 171 229 281 336 401
#     4  11  22  42  64  97 132 175 221 275 336 400
#
# _framework density 22.372503999999999
#
# number of rings (size 3 to 8) (size 9 to 14) (size 15 to 20)
#    0.000    1.500    3.750    0.750    1.750    2.000 
#   11.250    0.000    0.000    0.000    0.000    0.000 
#    0.000    0.000    0.000    0.000    0.000    0.000 
#
# Total GULP energy -178212.889278 kJ/mol
# GULP energy per Si atom -5569.152790 kJ/mol
# Density = 2.232158 g / cm^3
# Si number density = 22.372504 Si / 1000 Ang^3
#
#
#
# Elastic Constant Matrix: (Units=GPa)
#
#
# Indices 1 2 3 4 5 6 
#
# 1 90.7968 15.8463 13.4850 0.0000 0.0000 0.0000
# 2 15.8463 156.7235 29.7866 0.0000 0.0000 0.0000
# 3 13.4850 29.7866 15.3272 0.0000 0.0000 0.0000
# 4 0.0000 0.0000 0.0000 22.1921 0.0000 0.0000
# 5 0.0000 0.0000 0.0000 0.0000 -3.6043 0.0000
# 6 0.0000 0.0000 0.0000 0.0000 0.0000 7.1702
#
#
#
# Elastic Compliance Matrix: (Units=1/GPa)
#
#
# Indices 1 2 3 4 5 6 
#
# 1 0.012846 0.001347 -0.013919 0.000000 0.000000 0.000000
# 2 0.001347 0.010259 -0.021122 0.000000 0.000000 0.000000
# 3 -0.013919 -0.021122 0.118537 0.000000 0.000000 0.000000
# 4 0.000000 0.000000 0.000000 0.045061 0.000000 0.000000
# 5 0.000000 0.000000 0.000000 0.000000 -0.277444 0.000000
# 6 0.000000 0.000000 0.000000 0.000000 0.000000 0.139466
#
#
# Mechanical properties :
#
#
# Convention : Reuss Voigt Hill
#
# Bulk Modulus (GPa) = 13.46731 42.34261 27.90496
# Shear Modulus (GPa) = 35.49553 18.73356 27.11455
#
# Velocity S-wave (km/s) = 3.98750 2.89684 3.48510
# Velocity P-wave (km/s) = 5.21851 5.49146 5.35672
#
# Compressibility (1/GPa) = 0.07425387
#
# Stress axis : x y z
#
# Youngs Moduli (GPa) = 77.84654 97.47689 8.43621
#
# Poissons Ratio (x) = -0.13125 0.11742
# Poissons Ratio (y) = -0.10482 0.17819
# Poissons Ratio (z) = 1.08352 2.05886
#
# Static dielectric constant tensor:
#      x y z
#    x 1.911430 0.000000 0.000000 
#    y 0.000000 1.859550 0.000000 
#    z 0.000000 0.000000 1.851310 
# 
# From -- ./inp_files/7202.got.cif
#   From: 2010.05.17/outbox.cif.g08.bks.cpg/sg33_4_cif.got.tgz:7202.got - 2010.06.03 17:15:25.
