data_PCOD9345946
_publ_section_title
;
Structure prediction by ZEFSAII (Michael W. Deem and Ramdas Pophale) SiO2 
 PCOD9345946
Probable space group: P N A 21
;
_chemical_formula_sum "Si O2"
_cell_formula_units_Z 20
_cell_length_a 5.334005
_cell_length_b 26.311413
_cell_length_c 5.078718
_cell_angle_alpha 90.000000
_cell_angle_beta 90.000000
_cell_angle_gamma 90.000000
_cell_volume 712.773737
_symmetry_space_group_name_H-M "P N A 21"
_symmetry_group_IT_number 33
_symmetry_cell_setting 'orthorhombic'
loop_
_space_group_symop_operation_xyz
x,y,z
-x,-y,1/2+z
1/2-x,1/2+y,1/2+z
1/2+x,1/2-y,z
loop_
_atom_site_type_symbol
_atom_site_label
_atom_site_fract_x
_atom_site_fract_y
_atom_site_fract_z
Si Si1 0.832733 0.091323 0.966840
Si Si2 0.725817 0.764519 0.404679
Si Si3 0.157042 0.510674 0.885579
Si Si4 0.582325 0.176260 0.247879
Si Si5 0.824018 0.385710 0.650540
O O1 0.570164 0.096276 0.808812
O O2 0.063794 0.112416 0.803972
O O3 0.768985 0.128714 0.209389
O O4 0.858227 0.030590 0.991955
O O5 0.491695 0.737363 0.264954
O O6 0.631366 0.817107 0.522174
O O7 0.769102 0.727078 0.662445
O O8 0.217808 0.569721 0.929065
O O9 0.926099 0.498925 0.086701
O O10 0.419130 0.165182 0.503196
#
# Coordination Sequence:
#
# PCOD9345946 Si02
#       5
#     4   4   4   4   4
#     4  11  26  41  69 101 137 189 241 299 376 452
#     4   8  20  36  68  92 126 188 226 292 370 424
#     4  10  22  48  68 108 144 196 244 308 376 460
#     4  10  22  46  66  96 146 178 240 304 370 440
#     4  11  26  41  69 101 137 189 241 299 376 452
#
# _framework density 28.059398000000002
#
# number of rings (size 3 to 8) (size 9 to 14) (size 15 to 20)
#    1.200    0.800    2.000    0.000    5.600    6.400 
#    0.000    6.000    0.000    0.000    0.000    0.000 
#    0.000    0.000    0.000    0.000    0.000    0.000 
#
# Total GULP energy -111717.362416 kJ/mol
# GULP energy per Si atom -5585.868121 kJ/mol
# Density = 2.799553 g / cm^3
# Si number density = 28.059398 Si / 1000 Ang^3
#
#
#
# Elastic Constant Matrix: (Units=GPa)
#
#
# Indices 1 2 3 4 5 6 
#
# 1 186.4996 37.9895 29.9790 0.0000 0.0000 0.0000
# 2 37.9895 110.8334 1.3670 0.0000 0.0000 0.0000
# 3 29.9790 1.3670 81.4350 0.0000 0.0000 0.0000
# 4 0.0000 0.0000 0.0000 40.9980 0.0000 0.0000
# 5 0.0000 0.0000 0.0000 0.0000 32.9225 0.0000
# 6 0.0000 0.0000 0.0000 0.0000 0.0000 36.4331
#
#
#
# Elastic Compliance Matrix: (Units=1/GPa)
#
#
# Indices 1 2 3 4 5 6 
#
# 1 0.006143 -0.002078 -0.002227 0.000000 0.000000 0.000000
# 2 -0.002078 0.009727 0.000602 0.000000 0.000000 0.000000
# 3 -0.002227 0.000602 0.013089 0.000000 0.000000 0.000000
# 4 0.000000 0.000000 0.000000 0.024391 0.000000 0.000000
# 5 0.000000 0.000000 0.000000 0.000000 0.030374 0.000000
# 6 0.000000 0.000000 0.000000 0.000000 0.000000 0.027448
#
#
# Mechanical properties :
#
#
# Convention : Reuss Voigt Hill
#
# Bulk Modulus (GPa) = 46.39544 57.49324 51.94434
# Shear Modulus (GPa) = 39.75699 42.69956 41.22827
#
# Velocity S-wave (km/s) = 3.76824 3.90520 3.83733
# Velocity P-wave (km/s) = 5.95848 6.39284 6.17948
#
# Compressibility (1/GPa) = 0.02155384
#
# Stress axis : x y z
#
# Youngs Moduli (GPa) = 162.78207 102.80181 76.39817
#
# Poissons Ratio (x) = 0.21364 0.17011
# Poissons Ratio (y) = 0.33829 -0.04597
# Poissons Ratio (z) = 0.36245 -0.06186
#
# Static dielectric constant tensor:
#      x y z
#    x 2.144130 0.000000 0.000000 
#    y 0.000000 2.363790 0.000000 
#    z 0.000000 0.000000 2.220820 
# 
# From -- ./inp_files/202.got.cif
#   From: 2010.05.17/outbox.cif.g08.bks.cpg/sg33_1_cif.got.tgz:202.got - 2010.06.03 17:15:25.
