data_PCOD9345645
_publ_section_title
;
Structure prediction by ZEFSAII (Michael W. Deem and Ramdas Pophale) SiO2 
 PCOD9345645
Probable space group: P N A 21
;
_chemical_formula_sum "Si O2"
_cell_formula_units_Z 28
_cell_length_a 22.325800
_cell_length_b 9.416759
_cell_length_c 5.308982
_cell_angle_alpha 90.000000
_cell_angle_beta 90.000000
_cell_angle_gamma 90.000000
_cell_volume 1116.142740
_symmetry_space_group_name_H-M "P N A 21"
_symmetry_group_IT_number 33
_symmetry_cell_setting 'orthorhombic'
loop_
_space_group_symop_operation_xyz
x,y,z
-x,-y,1/2+z
1/2-x,1/2+y,1/2+z
1/2+x,1/2-y,z
loop_
_atom_site_type_symbol
_atom_site_label
_atom_site_fract_x
_atom_site_fract_y
_atom_site_fract_z
Si Si1 0.923558 0.049318 0.306650
Si Si2 0.875692 0.579508 0.340216
Si Si3 0.212369 0.713197 0.357027
Si Si4 0.475474 0.321854 0.809002
Si Si5 0.758433 0.949989 0.872779
Si Si6 0.331107 0.622375 0.525768
Si Si7 0.914582 0.447243 0.846325
O O1 0.856040 0.013127 0.385209
O O2 0.961751 0.903408 0.329516
O O3 0.949336 0.148001 0.530848
O O4 0.936411 0.109994 0.034279
O O5 0.813990 0.492082 0.332171
O O6 0.855698 0.737298 0.410482
O O7 0.911789 0.520813 0.577949
O O8 0.908168 0.555748 0.075681
O O9 0.257107 0.628515 0.557845
O O10 0.145240 0.654633 0.362479
O O11 0.221122 0.879647 0.400585
O O12 0.244592 0.660244 0.103687
O O13 0.471092 0.156031 0.861880
O O14 0.832490 0.895833 0.821807
#
# Coordination Sequence:
#
# PCOD9345645 Si02
#       7
#     4   4   4   4   4   4   4
#     4  10  23  40  66  98 120 161 212 271 318 383
#     4  10  24  38  58  89 126 162 209 260 304 394
#     4  10  23  36  61  90 125 169 215 256 322 393
#     4  10  22  43  66  92 126 158 215 266 321 383
#     4  10  22  39  58  88 128 168 211 262 320 383
#     4  11  23  38  62  87 126 164 211 262 325 372
#     4  11  21  42  59  88 125 166 205 257 316 374
#
# _framework density 25.086397000000002
#
# number of rings (size 3 to 8) (size 9 to 14) (size 15 to 20)
#    0.000    1.714    1.429    1.714    8.000    2.286 
#    0.000    1.429    0.000    0.000    0.000    0.000 
#    0.000    0.000    0.000    0.000    0.000    0.000 
#
# Total GULP energy -156159.069977 kJ/mol
# GULP energy per Si atom -5577.109642 kJ/mol
# Density = 2.502930 g / cm^3
# Si number density = 25.086397 Si / 1000 Ang^3
#
#
#
# Elastic Constant Matrix: (Units=GPa)
#
#
# Indices 1 2 3 4 5 6 
#
# 1 66.4817 53.1509 36.1745 0.0000 0.0000 0.0000
# 2 53.1509 87.2864 37.7932 0.0000 0.0000 0.0000
# 3 36.1745 37.7932 100.6784 0.0000 0.0000 0.0000
# 4 0.0000 0.0000 0.0000 15.8083 0.0000 0.0000
# 5 0.0000 0.0000 0.0000 0.0000 26.4381 0.0000
# 6 0.0000 0.0000 0.0000 0.0000 0.0000 47.2152
#
#
#
# Elastic Compliance Matrix: (Units=1/GPa)
#
#
# Indices 1 2 3 4 5 6 
#
# 1 0.031189 -0.016884 -0.004869 0.000000 0.000000 0.000000
# 2 -0.016884 0.022820 -0.002500 0.000000 0.000000 0.000000
# 3 -0.004869 -0.002500 0.012620 0.000000 0.000000 0.000000
# 4 0.000000 0.000000 0.000000 0.063258 0.000000 0.000000
# 5 0.000000 0.000000 0.000000 0.000000 0.037824 0.000000
# 6 0.000000 0.000000 0.000000 0.000000 0.000000 0.021180
#
#
# Mechanical properties :
#
#
# Convention : Reuss Voigt Hill
#
# Bulk Modulus (GPa) = 55.17240 56.52044 55.84642
# Shear Modulus (GPa) = 20.53914 26.38084 23.45999
#
# Velocity S-wave (km/s) = 2.86446 3.24636 3.06137
# Velocity P-wave (km/s) = 5.74290 6.05235 5.89966
#
# Compressibility (1/GPa) = 0.01812500
#
# Stress axis : x y z
#
# Youngs Moduli (GPa) = 32.06224 43.82125 79.23745
#
# Poissons Ratio (x) = 0.73988 0.38577
# Poissons Ratio (y) = 0.54134 0.19807
# Poissons Ratio (z) = 0.15610 0.10954
#
# Static dielectric constant tensor:
#      x y z
#    x 2.110710 0.000000 0.000000 
#    y 0.000000 1.957070 0.000000 
#    z 0.000000 0.000000 1.971730 
# 
# From -- ./inp_files/2250.got.cif
#   From: 2010.05.17/outbox.cif.g08.bks.cpg/sg33_2_cif.got.tgz:2250.got - 2010.06.03 17:15:25.
