data_PCOD9345155
_publ_section_title
;
Structure prediction by ZEFSAII (Michael W. Deem and Ramdas Pophale) SiO2 
 PCOD9345155
Probable space group: P N A 21
;
_chemical_formula_sum "Si O2"
_cell_formula_units_Z 20
_cell_length_a 6.150521
_cell_length_b 20.693229
_cell_length_c 6.574452
_cell_angle_alpha 90.000000
_cell_angle_beta 90.000000
_cell_angle_gamma 90.000000
_cell_volume 836.757721
_symmetry_space_group_name_H-M "P N A 21"
_symmetry_group_IT_number 33
_symmetry_cell_setting 'orthorhombic'
loop_
_space_group_symop_operation_xyz
x,y,z
-x,-y,1/2+z
1/2-x,1/2+y,1/2+z
1/2+x,1/2-y,z
loop_
_atom_site_type_symbol
_atom_site_label
_atom_site_fract_x
_atom_site_fract_y
_atom_site_fract_z
Si Si1 0.997102 0.240926 0.378610
Si Si2 0.253475 0.961597 0.958771
Si Si3 0.992540 0.647099 0.214944
Si Si4 0.140452 0.103703 0.469484
Si Si5 0.512830 0.912391 0.610524
O O1 0.749416 0.252695 0.288716
O O2 0.015131 0.287945 0.578777
O O3 0.991224 0.165537 0.430795
O O4 0.304412 0.935114 0.734794
O O5 0.995458 0.961544 0.980176
O O6 0.339172 0.908750 0.122049
O O7 0.386376 0.026336 0.994844
O O8 0.964388 0.645935 0.456667
O O9 0.233714 0.619678 0.174395
O O10 0.316391 0.102453 0.289634
#
# Coordination Sequence:
#
# PCOD9345155 Si02
#       5
#     4   4   4   4   4
#     4  10  20  43  71  94 135 185 232 288 351 411
#     4  11  22  41  63  95 139 174 222 288 349 422
#     4  10  22  43  65  93 132 181 229 284 350 410
#     4  10  24  40  66  95 133 180 227 287 351 416
#     4  11  24  39  65 103 133 178 232 285 353 431
#
# _framework density 23.901782000000001
#
# number of rings (size 3 to 8) (size 9 to 14) (size 15 to 20)
#    0.000    1.600    4.000    0.000    2.800    1.600 
#    0.000   12.000    0.000    0.000    0.000    0.000 
#    0.000    0.000    0.000    0.000    0.000    0.000 
#
# Total GULP energy -111465.203360 kJ/mol
# GULP energy per Si atom -5573.260168 kJ/mol
# Density = 2.384738 g / cm^3
# Si number density = 23.901782 Si / 1000 Ang^3
#
#
#
# Elastic Constant Matrix: (Units=GPa)
#
#
# Indices 1 2 3 4 5 6 
#
# 1 106.5951 19.0563 4.2107 0.0000 0.0000 0.0000
# 2 19.0563 70.3458 21.2629 0.0000 0.0000 0.0000
# 3 4.2107 21.2629 60.7898 0.0000 0.0000 0.0000
# 4 0.0000 0.0000 0.0000 38.1636 0.0000 0.0000
# 5 0.0000 0.0000 0.0000 0.0000 6.9002 0.0000
# 6 0.0000 0.0000 0.0000 0.0000 0.0000 48.6569
#
#
#
# Elastic Compliance Matrix: (Units=1/GPa)
#
#
# Indices 1 2 3 4 5 6 
#
# 1 0.009863 -0.002757 0.000281 0.000000 0.000000 0.000000
# 2 -0.002757 0.016667 -0.005639 0.000000 0.000000 0.000000
# 3 0.000281 -0.005639 0.018403 0.000000 0.000000 0.000000
# 4 0.000000 0.000000 0.000000 0.026203 0.000000 0.000000
# 5 0.000000 0.000000 0.000000 0.000000 0.144923 0.000000
# 6 0.000000 0.000000 0.000000 0.000000 0.000000 0.020552
#
#
# Mechanical properties :
#
#
# Convention : Reuss Voigt Hill
#
# Bulk Modulus (GPa) = 34.83851 36.31004 35.57428
# Shear Modulus (GPa) = 19.05432 31.62418 25.33925
#
# Velocity S-wave (km/s) = 2.82652 3.64138 3.25951
# Velocity P-wave (km/s) = 5.02590 5.73618 5.39275
#
# Compressibility (1/GPa) = 0.02870387
#
# Stress axis : x y z
#
# Youngs Moduli (GPa) = 101.38869 60.00006 54.33920
#
# Poissons Ratio (x) = 0.16541 -0.01527
# Poissons Ratio (y) = 0.27951 0.30640
# Poissons Ratio (z) = -0.02850 0.33832
#
# Static dielectric constant tensor:
#      x y z
#    x 2.003310 0.000000 0.000000 
#    y 0.000000 1.918840 0.000000 
#    z 0.000000 0.000000 1.911810 
# 
# From -- ./inp_files/148.got.cif
#   From: 2010.05.17/outbox.cif.g08.bks.cpg/sg33_1_cif.got.tgz:148.got - 2010.06.03 17:15:25.
