data_PCOD9345860
_publ_section_title
;
Structure prediction by ZEFSAII (Michael W. Deem and Ramdas Pophale) SiO2 
 PCOD9345860
Probable space group: P N A 21
;
_chemical_formula_sum "Si O2"
_cell_formula_units_Z 32
_cell_length_a 9.842440
_cell_length_b 28.341940
_cell_length_c 5.362145
_cell_angle_alpha 90.000000
_cell_angle_beta 90.000000
_cell_angle_gamma 90.000000
_cell_volume 1495.790959
_symmetry_space_group_name_H-M "P N A 21"
_symmetry_group_IT_number 33
_symmetry_cell_setting 'orthorhombic'
loop_
_space_group_symop_operation_xyz
x,y,z
-x,-y,1/2+z
1/2-x,1/2+y,1/2+z
1/2+x,1/2-y,z
loop_
_atom_site_type_symbol
_atom_site_label
_atom_site_fract_x
_atom_site_fract_y
_atom_site_fract_z
Si Si1 0.712544 0.852907 0.243780
Si Si2 0.534453 0.641972 0.204994
Si Si3 0.278939 0.205696 0.246787
Si Si4 0.820487 0.533928 0.837064
Si Si5 0.828417 0.966121 0.727593
Si Si6 0.045084 0.799982 0.714546
Si Si7 0.087750 0.558019 0.064912
Si Si8 0.093512 0.942549 0.492421
O O1 0.692966 0.824182 0.497085
O O2 0.629208 0.901393 0.254763
O O3 0.871693 0.864506 0.206173
O O4 0.678038 0.822266 0.997538
O O5 0.564272 0.674166 0.448468
O O6 0.600195 0.591196 0.255852
O O7 0.576619 0.665899 0.947853
O O8 0.360587 0.254303 0.231282
O O9 0.115096 0.212857 0.246753
O O10 0.898888 0.495299 0.666516
O O11 0.720199 0.564724 0.671641
O O12 0.733441 0.500620 0.019543
O O13 0.935335 0.563476 0.973320
O O14 0.948623 0.934207 0.622553
O O15 0.703966 0.939080 0.852768
O O16 0.897092 0.002057 0.924791
#
# Coordination Sequence:
#
# PCOD9345860 Si02
#       8
#     4   4   4   4   4   4   4   4
#     4  10  23  39  70  99 127 171 222 267 318 413
#     4  10  23  40  68  98 129 168 216 270 325 398
#     4  10  22  44  68  99 127 164 216 264 340 404
#     4  11  23  41  60  89 133 177 222 279 327 388
#     4  11  23  39  62  87 131 177 220 276 325 388
#     4  10  22  43  70  94 130 167 205 269 337 400
#     4  11  24  40  64  89 130 180 224 273 334 385
#     4  11  24  38  62  95 127 172 231 274 326 384
#
# _framework density 21.393362
#
# number of rings (size 3 to 8) (size 9 to 14) (size 15 to 20)
#    0.000    1.500    2.500    1.500   10.500    0.000 
#    2.250    0.000    0.000    0.000    0.000    0.000 
#    0.000    0.000    0.000    0.000    0.000    0.000 
#
# Total GULP energy -179052.749520 kJ/mol
# GULP energy per Si atom -5595.398422 kJ/mol
# Density = 2.134467 g / cm^3
# Si number density = 21.393362 Si / 1000 Ang^3
#
#
#
# Elastic Constant Matrix: (Units=GPa)
#
#
# Indices 1 2 3 4 5 6 
#
# 1 72.2379 35.5845 36.1443 0.0000 0.0000 0.0000
# 2 35.5845 83.1374 27.5912 0.0000 0.0000 0.0000
# 3 36.1443 27.5912 105.5427 0.0000 0.0000 0.0000
# 4 0.0000 0.0000 0.0000 29.3724 0.0000 0.0000
# 5 0.0000 0.0000 0.0000 0.0000 24.6502 0.0000
# 6 0.0000 0.0000 0.0000 0.0000 0.0000 29.8343
#
#
#
# Elastic Compliance Matrix: (Units=1/GPa)
#
#
# Indices 1 2 3 4 5 6 
#
# 1 0.019661 -0.006768 -0.004964 0.000000 0.000000 0.000000
# 2 -0.006768 0.015501 -0.001735 0.000000 0.000000 0.000000
# 3 -0.004964 -0.001735 0.011628 0.000000 0.000000 0.000000
# 4 0.000000 0.000000 0.000000 0.034046 0.000000 0.000000
# 5 0.000000 0.000000 0.000000 0.000000 0.040568 0.000000
# 6 0.000000 0.000000 0.000000 0.000000 0.000000 0.033518
#
#
# Mechanical properties :
#
#
# Convention : Reuss Voigt Hill
#
# Bulk Modulus (GPa) = 50.35922 51.06201 50.71062
# Shear Modulus (GPa) = 26.52911 27.54459 27.03685
#
# Velocity S-wave (km/s) = 3.52527 3.59211 3.55885
# Velocity P-wave (km/s) = 6.33726 6.41282 6.37515
#
# Compressibility (1/GPa) = 0.01985734
#
# Stress axis : x y z
#
# Youngs Moduli (GPa) = 50.86319 64.51336 85.99812
#
# Poissons Ratio (x) = 0.43661 0.42687
# Poissons Ratio (y) = 0.34423 0.14916
# Poissons Ratio (z) = 0.25247 0.11190
#
# Static dielectric constant tensor:
#      x y z
#    x 1.743470 0.000000 0.000000 
#    y 0.000000 1.756800 0.000000 
#    z 0.000000 0.000000 1.844190 
# 
# From -- ./inp_files/596.got.cif
#   From: 2010.05.17/outbox.cif.g08.bks.cpg/sg33_1_cif.got.tgz:596.got - 2010.06.03 17:15:25.
