data_PCOD9345482
_publ_section_title
;
Structure prediction by ZEFSAII (Michael W. Deem and Ramdas Pophale) SiO2 
 PCOD9345482
Probable space group: P N A 21
;
_chemical_formula_sum "Si O2"
_cell_formula_units_Z 24
_cell_length_a 9.319429
_cell_length_b 15.534258
_cell_length_c 6.940266
_cell_angle_alpha 90.000000
_cell_angle_beta 90.000000
_cell_angle_gamma 90.000000
_cell_volume 1004.745186
_symmetry_space_group_name_H-M "P N A 21"
_symmetry_group_IT_number 33
_symmetry_cell_setting 'orthorhombic'
loop_
_space_group_symop_operation_xyz
x,y,z
-x,-y,1/2+z
1/2-x,1/2+y,1/2+z
1/2+x,1/2-y,z
loop_
_atom_site_type_symbol
_atom_site_label
_atom_site_fract_x
_atom_site_fract_y
_atom_site_fract_z
Si Si1 0.562688 0.279575 0.347080
Si Si2 0.613983 0.136942 0.042266
Si Si3 0.651787 0.835309 0.046882
Si Si4 0.307380 0.568474 0.348864
Si Si5 0.077446 0.914392 0.619387
Si Si6 0.517571 0.006953 0.380264
O O1 0.562315 0.223732 0.147340
O O2 0.483137 0.226996 0.515420
O O3 0.724786 0.300983 0.403193
O O4 0.471878 0.365078 0.311096
O O5 0.785032 0.134494 0.034474
O O6 0.557336 0.064529 0.193912
O O7 0.553657 0.088130 0.853586
O O8 0.732121 0.849231 0.249989
O O9 0.593808 0.928230 0.980094
O O10 0.370512 0.509010 0.178139
O O11 0.439223 0.586702 0.485731
O O12 0.178924 0.515980 0.453908
#
# Coordination Sequence:
#
# PCOD9345482 Si02
#       6
#     4   4   4   4   4   4
#     4  11  24  43  70  92 145 180 225 293 353 402
#     4  10  22  42  65  99 131 183 222 281 345 405
#     4  11  23  46  65 100 133 185 230 280 349 409
#     4  11  25  43  73 103 134 183 234 282 345 422
#     4  11  23  43  66 106 136 176 229 286 348 408
#     4  10  21  41  69  96 131 175 230 270 338 418
#
# _framework density 23.886651000000001
#
# number of rings (size 3 to 8) (size 9 to 14) (size 15 to 20)
#    0.000    1.333    5.000    1.000    4.667    0.000 
#    6.000    0.000    0.000    0.000    0.000    0.000 
#    0.000    0.000    0.000    0.000    0.000    0.000 
#
# Total GULP energy -133884.688568 kJ/mol
# GULP energy per Si atom -5578.528690 kJ/mol
# Density = 2.383228 g / cm^3
# Si number density = 23.886651 Si / 1000 Ang^3
#
#
#
# Elastic Constant Matrix: (Units=GPa)
#
#
# Indices 1 2 3 4 5 6 
#
# 1 165.8777 42.1765 36.7427 0.0000 0.0000 0.0000
# 2 42.1765 53.3190 32.0482 0.0000 0.0000 0.0000
# 3 36.7427 32.0482 40.6574 0.0000 0.0000 0.0000
# 4 0.0000 0.0000 0.0000 40.6228 0.0000 0.0000
# 5 0.0000 0.0000 0.0000 0.0000 51.7169 0.0000
# 6 0.0000 0.0000 0.0000 0.0000 0.0000 31.9749
#
#
#
# Elastic Compliance Matrix: (Units=1/GPa)
#
#
# Indices 1 2 3 4 5 6 
#
# 1 0.007908 -0.003725 -0.004211 0.000000 0.000000 0.000000
# 2 -0.003725 0.037396 -0.026111 0.000000 0.000000 0.000000
# 3 -0.004211 -0.026111 0.048983 0.000000 0.000000 0.000000
# 4 0.000000 0.000000 0.000000 0.024617 0.000000 0.000000
# 5 0.000000 0.000000 0.000000 0.000000 0.019336 0.000000
# 6 0.000000 0.000000 0.000000 0.000000 0.000000 0.031275
#
#
# Mechanical properties :
#
#
# Convention : Reuss Voigt Hill
#
# Bulk Modulus (GPa) = 38.17674 53.53211 45.85443
# Shear Modulus (GPa) = 20.29717 34.78872 27.54294
#
# Velocity S-wave (km/s) = 2.91817 3.82043 3.39937
# Velocity P-wave (km/s) = 5.23177 6.47460 5.88608
#
# Compressibility (1/GPa) = 0.02619396
#
# Stress axis : x y z
#
# Youngs Moduli (GPa) = 126.44935 26.74097 20.41505
#
# Poissons Ratio (x) = 0.09960 0.08597
# Poissons Ratio (y) = 0.47097 0.53306
# Poissons Ratio (z) = 0.53247 0.69824
#
# Static dielectric constant tensor:
#      x y z
#    x 1.881630 0.000000 0.000000 
#    y 0.000000 1.940010 0.000000 
#    z 0.000000 0.000000 2.283180 
# 
# From -- ./inp_files/3138.got.cif
#   From: 2010.05.17/outbox.cif.g08.bks.cpg/sg33_2_cif.got.tgz:3138.got - 2010.06.03 17:15:25.
