data_PCOD9345408
_publ_section_title
;
Structure prediction by ZEFSAII (Michael W. Deem and Ramdas Pophale) SiO2 
 PCOD9345408
Probable space group: P N A 21
;
_chemical_formula_sum "Si O2"
_cell_formula_units_Z 32
_cell_length_a 10.325704
_cell_length_b 9.895204
_cell_length_c 12.706600
_cell_angle_alpha 90.000000
_cell_angle_beta 90.000000
_cell_angle_gamma 90.000000
_cell_volume 1298.296188
_symmetry_space_group_name_H-M "P N A 21"
_symmetry_group_IT_number 33
_symmetry_cell_setting 'orthorhombic'
loop_
_space_group_symop_operation_xyz
x,y,z
-x,-y,1/2+z
1/2-x,1/2+y,1/2+z
1/2+x,1/2-y,z
loop_
_atom_site_type_symbol
_atom_site_label
_atom_site_fract_x
_atom_site_fract_y
_atom_site_fract_z
Si Si1 0.551019 0.722265 0.144100
Si Si2 0.564676 0.524797 0.945565
Si Si3 0.020105 0.261737 0.030620
Si Si4 0.341624 0.981972 0.650168
Si Si5 0.853846 0.506658 0.993344
Si Si6 0.189887 0.371644 0.723013
Si Si7 0.087687 0.857905 0.742148
Si Si8 0.552026 0.916232 0.832339
O O1 0.529789 0.619992 0.045750
O O2 0.660501 0.663967 0.221364
O O3 0.415613 0.754563 0.201068
O O4 0.623702 0.865462 0.116063
O O5 0.545743 0.365899 0.959227
O O6 0.720376 0.538761 0.936969
O O7 0.507408 0.573414 0.835432
O O8 0.129016 0.372784 0.058929
O O9 0.900348 0.351903 0.990019
O O10 0.992375 0.189970 0.142169
O O11 0.201570 0.950593 0.697019
O O12 0.444159 0.949604 0.743125
O O13 0.831519 0.540246 0.115699
O O14 0.966877 0.591443 0.937091
O O15 0.146452 0.456555 0.823409
O O16 0.128842 0.717183 0.798709
#
# Coordination Sequence:
#
# PCOD9345408 Si02
#       8
#     4   4   4   4   4   4   4   4
#     4  10  22  40  67  98 137 175 231 283 346 411
#     4  11  25  41  69 102 133 180 244 293 343 437
#     4  11  24  42  68  98 139 181 231 293 360 418
#     4  10  21  42  64  93 136 180 218 282 358 408
#     4  11  20  44  67  92 139 180 232 282 363 418
#     4  10  21  41  65 100 134 182 219 291 347 417
#     4  11  22  42  68  96 135 182 228 288 352 427
#     4  10  21  40  68  91 129 184 223 280 357 424
#
# _framework density 24.647687000000001
#
# number of rings (size 3 to 8) (size 9 to 14) (size 15 to 20)
#    0.000    1.500    5.000    1.500    3.500    1.000 
#    2.250    0.000    5.500    0.000    0.000    0.000 
#    0.000    0.000    0.000    0.000    0.000    0.000 
#
# Total GULP energy -178845.772028 kJ/mol
# GULP energy per Si atom -5588.930376 kJ/mol
# Density = 2.459159 g / cm^3
# Si number density = 24.647687 Si / 1000 Ang^3
#
#
#
# Elastic Constant Matrix: (Units=GPa)
#
#
# Indices 1 2 3 4 5 6 
#
# 1 44.6263 16.1841 7.2793 0.0000 0.0000 0.0000
# 2 16.1841 125.2043 19.0779 0.0000 0.0000 0.0000
# 3 7.2793 19.0779 61.9392 0.0000 0.0000 0.0000
# 4 0.0000 0.0000 0.0000 28.6849 0.0000 0.0000
# 5 0.0000 0.0000 0.0000 0.0000 13.8425 0.0000
# 6 0.0000 0.0000 0.0000 0.0000 0.0000 31.6220
#
#
#
# Elastic Compliance Matrix: (Units=1/GPa)
#
#
# Indices 1 2 3 4 5 6 
#
# 1 0.023729 -0.002772 -0.001935 0.000000 0.000000 0.000000
# 2 -0.002772 0.008704 -0.002355 0.000000 0.000000 0.000000
# 3 -0.001935 -0.002355 0.017098 0.000000 0.000000 0.000000
# 4 0.000000 0.000000 0.000000 0.034862 0.000000 0.000000
# 5 0.000000 0.000000 0.000000 0.000000 0.072241 0.000000
# 6 0.000000 0.000000 0.000000 0.000000 0.000000 0.031624
#
#
# Mechanical properties :
#
#
# Convention : Reuss Voigt Hill
#
# Bulk Modulus (GPa) = 28.24351 35.20581 31.72466
# Shear Modulus (GPa) = 23.34434 27.44511 25.39473
#
# Velocity S-wave (km/s) = 3.08087 3.34053 3.21332
# Velocity P-wave (km/s) = 4.91319 5.40310 5.16396
#
# Compressibility (1/GPa) = 0.03540636
#
# Stress axis : x y z
#
# Youngs Moduli (GPa) = 42.14187 114.88729 58.48758
#
# Poissons Ratio (x) = 0.31852 0.11316
# Poissons Ratio (y) = 0.11684 0.13775
# Poissons Ratio (z) = 0.08154 0.27058
#
# Static dielectric constant tensor:
#      x y z
#    x 1.934300 0.000000 0.000000 
#    y 0.000000 2.031030 0.000000 
#    z 0.000000 0.000000 2.020320 
# 
# From -- ./inp_files/7953.got.cif
#   From: 2010.05.17/outbox.cif.g08.bks.cpg/sg33_4_cif.got.tgz:7953.got - 2010.06.03 17:15:25.
