data_PCOD9345996
_publ_section_title
;
Structure prediction by ZEFSAII (Michael W. Deem and Ramdas Pophale) SiO2 
 PCOD9345996
Probable space group: P N A 21
;
_chemical_formula_sum "Si O2"
_cell_formula_units_Z 24
_cell_length_a 8.991189
_cell_length_b 16.928063
_cell_length_c 6.709040
_cell_angle_alpha 90.000000
_cell_angle_beta 90.000000
_cell_angle_gamma 90.000000
_cell_volume 1021.138792
_symmetry_space_group_name_H-M "P N A 21"
_symmetry_group_IT_number 33
_symmetry_cell_setting 'orthorhombic'
loop_
_space_group_symop_operation_xyz
x,y,z
-x,-y,1/2+z
1/2-x,1/2+y,1/2+z
1/2+x,1/2-y,z
loop_
_atom_site_type_symbol
_atom_site_label
_atom_site_fract_x
_atom_site_fract_y
_atom_site_fract_z
Si Si1 0.445106 0.410038 0.350510
Si Si2 0.879958 0.808813 0.154631
Si Si3 0.326651 0.574740 0.502622
Si Si4 0.494283 0.003299 0.006203
Si Si5 0.127027 0.383065 0.189919
Si Si6 0.564086 0.824186 0.009135
O O1 0.502130 0.366546 0.547173
O O2 0.407366 0.501027 0.394688
O O3 0.576526 0.404466 0.193341
O O4 0.293955 0.372940 0.260502
O O5 0.966205 0.726533 0.162020
O O6 0.825603 0.850243 0.356248
O O7 0.733367 0.797982 0.019881
O O8 0.165973 0.542044 0.564303
O O9 0.605036 0.079665 0.972183
O O10 0.559092 0.916399 0.059433
O O11 0.437071 0.967435 0.781888
O O12 0.019030 0.319618 0.292376
#
# Coordination Sequence:
#
# PCOD9345996 Si02
#       6
#     4   4   4   4   4   4
#     4  11  22  39  66  98 130 174 225 273 329 395
#     4  12  24  45  64 102 137 179 219 280 347 397
#     4  11  23  39  69  97 132 173 230 281 323 407
#     4   9  20  39  63  98 123 174 225 269 326 397
#     4   9  20  39  64  95 129 174 221 270 326 395
#     4  10  23  39  68  88 141 174 212 283 337 399
#
# _framework density 23.503169
#
# number of rings (size 3 to 8) (size 9 to 14) (size 15 to 20)
#    1.000    0.667    1.667    4.000    0.000    0.000 
#    0.000    8.333    0.000    0.000    0.000    0.000 
#    0.000    0.000    0.000    0.000    0.000    0.000 
#
# Total GULP energy -133691.952635 kJ/mol
# GULP energy per Si atom -5570.498026 kJ/mol
# Density = 2.344967 g / cm^3
# Si number density = 23.503169 Si / 1000 Ang^3
#
#
#
# Elastic Constant Matrix: (Units=GPa)
#
#
# Indices 1 2 3 4 5 6 
#
# 1 129.7889 19.8563 12.0140 0.0000 0.0000 0.0000
# 2 19.8563 67.8256 5.3396 0.0000 0.0000 0.0000
# 3 12.0140 5.3396 28.1046 0.0000 0.0000 0.0000
# 4 0.0000 0.0000 0.0000 32.7549 0.0000 0.0000
# 5 0.0000 0.0000 0.0000 0.0000 29.1614 0.0000
# 6 0.0000 0.0000 0.0000 0.0000 0.0000 27.0563
#
#
#
# Elastic Compliance Matrix: (Units=1/GPa)
#
#
# Indices 1 2 3 4 5 6 
#
# 1 0.008331 -0.002191 -0.003145 0.000000 0.000000 0.000000
# 2 -0.002191 0.015544 -0.002016 0.000000 0.000000 0.000000
# 3 -0.003145 -0.002016 0.037309 0.000000 0.000000 0.000000
# 4 0.000000 0.000000 0.000000 0.030530 0.000000 0.000000
# 5 0.000000 0.000000 0.000000 0.000000 0.034292 0.000000
# 6 0.000000 0.000000 0.000000 0.000000 0.000000 0.036960
#
#
# Mechanical properties :
#
#
# Convention : Reuss Voigt Hill
#
# Bulk Modulus (GPa) = 21.51541 33.34878 27.43210
# Shear Modulus (GPa) = 25.88470 30.36179 28.12325
#
# Velocity S-wave (km/s) = 3.32223 3.59808 3.46290
# Velocity P-wave (km/s) = 4.88778 5.61084 5.26174
#
# Compressibility (1/GPa) = 0.04647831
#
# Stress axis : x y z
#
# Youngs Moduli (GPa) = 120.03068 64.33351 26.80327
#
# Poissons Ratio (x) = 0.14098 0.08430
# Poissons Ratio (y) = 0.26304 0.05405
# Poissons Ratio (z) = 0.37750 0.12972
#
# Static dielectric constant tensor:
#      x y z
#    x 1.898530 0.000000 0.000000 
#    y 0.000000 1.906690 0.000000 
#    z 0.000000 0.000000 2.536430 
# 
# From -- ./inp_files/3154.got.cif
#   From: 2010.05.17/outbox.cif.g08.bks.cpg/sg33_2_cif.got.tgz:3154.got - 2010.06.03 17:15:25.
