data_PCOD9345043
_publ_section_title
;
Structure prediction by ZEFSAII (Michael W. Deem and Ramdas Pophale) SiO2 
 PCOD9345043
Probable space group: P N A 21
;
_chemical_formula_sum "Si O2"
_cell_formula_units_Z 32
_cell_length_a 22.706134
_cell_length_b 8.249674
_cell_length_c 7.826023
_cell_angle_alpha 90.000000
_cell_angle_beta 90.000000
_cell_angle_gamma 90.000000
_cell_volume 1465.956567
_symmetry_space_group_name_H-M "P N A 21"
_symmetry_group_IT_number 33
_symmetry_cell_setting 'orthorhombic'
loop_
_space_group_symop_operation_xyz
x,y,z
-x,-y,1/2+z
1/2-x,1/2+y,1/2+z
1/2+x,1/2-y,z
loop_
_atom_site_type_symbol
_atom_site_label
_atom_site_fract_x
_atom_site_fract_y
_atom_site_fract_z
Si Si1 0.154475 0.236945 0.839960
Si Si2 0.349803 0.876212 0.838281
Si Si3 0.337713 0.542527 0.672945
Si Si4 0.477346 0.807474 0.385162
Si Si5 0.240556 0.308592 0.584899
Si Si6 0.486546 0.838017 0.797525
Si Si7 0.334600 0.075165 0.496414
Si Si8 0.941451 0.188386 0.583781
O O1 0.196761 0.191363 0.686985
O O2 0.084122 0.221926 0.834233
O O3 0.162493 0.430445 0.862805
O O4 0.177651 0.138501 0.000624
O O5 0.341540 0.683327 0.810710
O O6 0.420230 0.888387 0.855025
O O7 0.330019 0.978073 0.674646
O O8 0.305107 0.923294 0.986566
O O9 0.288385 0.405710 0.698390
O O10 0.401588 0.465938 0.631227
O O11 0.485671 0.799175 0.592769
O O12 0.526725 0.735314 0.260443
O O13 0.476983 0.997073 0.331610
O O14 0.282163 0.200142 0.465066
O O15 0.512176 0.699198 0.925060
O O16 0.392830 0.181044 0.523893
#
# Coordination Sequence:
#
# PCOD9345043 Si02
#       8
#     4   4   4   4   4   4   4   4
#     4  11  21  41  60  88 124 158 205 260 305 367
#     4  11  21  41  60  88 124 158 205 260 305 367
#     4  10  24  44  57  92 133 154 200 269 314 353
#     4  12  21  39  67  94 123 165 212 253 307 378
#     4  11  23  36  67  87 115 168 207 248 320 370
#     4  12  21  39  67  94 123 165 212 253 307 378
#     4  10  20  40  60  83 122 155 204 254 297 371
#     4  11  23  40  64  92 126 163 201 253 315 368
#
# _framework density 21.828751
#
# number of rings (size 3 to 8) (size 9 to 14) (size 15 to 20)
#    0.000    1.000    6.250    2.250    0.000    1.000 
#    2.250    0.000    5.500    0.000    0.000    0.000 
#    0.000    0.000    0.000    0.000    0.000    0.000 
#
# Total GULP energy -178379.799844 kJ/mol
# GULP energy per Si atom -5574.368745 kJ/mol
# Density = 2.177907 g / cm^3
# Si number density = 21.828751 Si / 1000 Ang^3
#
#
#
# Elastic Constant Matrix: (Units=GPa)
#
#
# Indices 1 2 3 4 5 6 
#
# 1 122.0943 7.0091 40.4587 0.0000 0.0000 0.0000
# 2 7.0091 36.0781 -6.5252 0.0000 0.0000 0.0000
# 3 40.4587 -6.5252 67.7725 0.0000 0.0000 0.0000
# 4 0.0000 0.0000 0.0000 11.9421 0.0000 0.0000
# 5 0.0000 0.0000 0.0000 0.0000 33.8684 0.0000
# 6 0.0000 0.0000 0.0000 0.0000 0.0000 13.7029
#
#
#
# Elastic Compliance Matrix: (Units=1/GPa)
#
#
# Indices 1 2 3 4 5 6 
#
# 1 0.010572 -0.003252 -0.006625 0.000000 0.000000 0.000000
# 2 -0.003252 0.029209 0.004754 0.000000 0.000000 0.000000
# 3 -0.006625 0.004754 0.019168 0.000000 0.000000 0.000000
# 4 0.000000 0.000000 0.000000 0.083738 0.000000 0.000000
# 5 0.000000 0.000000 0.000000 0.000000 0.029526 0.000000
# 6 0.000000 0.000000 0.000000 0.000000 0.000000 0.072977
#
#
# Mechanical properties :
#
#
# Convention : Reuss Voigt Hill
#
# Bulk Modulus (GPa) = 20.53246 34.20335 27.36791
# Shear Modulus (GPa) = 18.40469 24.23618 21.32043
#
# Velocity S-wave (km/s) = 2.90684 3.33571 3.12863
# Velocity P-wave (km/s) = 4.54894 5.52620 5.06121
#
# Compressibility (1/GPa) = 0.04870337
#
# Stress axis : x y z
#
# Youngs Moduli (GPa) = 94.58707 34.23576 52.17127
#
# Poissons Ratio (x) = 0.11134 0.34561
# Poissons Ratio (y) = 0.30760 -0.24801
# Poissons Ratio (z) = 0.62659 -0.16275
#
# Static dielectric constant tensor:
#      x y z
#    x 1.823160 0.000000 0.000000 
#    y 0.000000 1.826090 0.000000 
#    z 0.000000 0.000000 1.826120 
# 
# From -- ./inp_files/4981.got.cif
#   From: 2010.05.17/outbox.cif.g08.bks.cpg/sg33_3_cif.got.tgz:4981.got - 2010.06.03 17:15:25.
