data_PCOD9345831
_publ_section_title
;
Structure prediction by ZEFSAII (Michael W. Deem and Ramdas Pophale) SiO2 
 PCOD9345831
Probable space group: P N A 21
;
_chemical_formula_sum "Si O2"
_cell_formula_units_Z 20
_cell_length_a 12.078935
_cell_length_b 12.701352
_cell_length_c 5.442694
_cell_angle_alpha 90.000000
_cell_angle_beta 90.000000
_cell_angle_gamma 90.000000
_cell_volume 835.011611
_symmetry_space_group_name_H-M "P N A 21"
_symmetry_group_IT_number 33
_symmetry_cell_setting 'orthorhombic'
loop_
_space_group_symop_operation_xyz
x,y,z
-x,-y,1/2+z
1/2-x,1/2+y,1/2+z
1/2+x,1/2-y,z
loop_
_atom_site_type_symbol
_atom_site_label
_atom_site_fract_x
_atom_site_fract_y
_atom_site_fract_z
Si Si1 0.508633 0.436583 0.237070
Si Si2 0.056082 0.363394 0.613350
Si Si3 0.314389 0.669226 0.071055
Si Si4 0.657628 0.941679 0.396869
Si Si5 0.619403 0.765309 0.768437
O O1 0.473679 0.501821 0.482656
O O2 0.616475 0.376943 0.343318
O O3 0.417284 0.348115 0.182945
O O4 0.106970 0.253215 0.712227
O O5 0.147378 0.449535 0.541509
O O6 0.963235 0.421241 0.775008
O O7 0.988380 0.325640 0.373243
O O8 0.209719 0.737497 0.982681
O O9 0.257765 0.570735 0.207071
O O10 0.670605 0.839805 0.565519
#
# Coordination Sequence:
#
# PCOD9345831 Si02
#       5
#     4   4   4   4   4
#     4  11  28  49  72 104 149 192 234 299 362 421
#     4  10  22  43  66 101 136 178 234 296 349 426
#     4  10  26  42  69 105 138 181 243 291 356 430
#     4  11  22  44  72  99 136 189 232 294 362 419
#     4  10  24  44  67 101 139 186 235 290 353 426
#
# _framework density 23.951761999999999
#
# number of rings (size 3 to 8) (size 9 to 14) (size 15 to 20)
#    0.000    1.600    2.000    0.000   14.000    1.600 
#    0.000    0.000    0.000    0.000    0.000    0.000 
#    0.000    0.000    0.000    0.000    0.000    0.000 
#
# Total GULP energy -111740.123216 kJ/mol
# GULP energy per Si atom -5587.006161 kJ/mol
# Density = 2.389725 g / cm^3
# Si number density = 23.951762 Si / 1000 Ang^3
#
#
#
# Elastic Constant Matrix: (Units=GPa)
#
#
# Indices 1 2 3 4 5 6 
#
# 1 81.8345 42.3816 15.5149 0.0000 0.0000 0.0000
# 2 42.3816 116.0157 18.1401 0.0000 0.0000 0.0000
# 3 15.5149 18.1401 39.4173 0.0000 0.0000 0.0000
# 4 0.0000 0.0000 0.0000 27.5440 0.0000 0.0000
# 5 0.0000 0.0000 0.0000 0.0000 16.3404 0.0000
# 6 0.0000 0.0000 0.0000 0.0000 0.0000 32.9601
#
#
#
# Elastic Compliance Matrix: (Units=1/GPa)
#
#
# Indices 1 2 3 4 5 6 
#
# 1 0.015578 -0.005099 -0.003785 0.000000 0.000000 0.000000
# 2 -0.005099 0.010957 -0.003035 0.000000 0.000000 0.000000
# 3 -0.003785 -0.003035 0.028256 0.000000 0.000000 0.000000
# 4 0.000000 0.000000 0.000000 0.036306 0.000000 0.000000
# 5 0.000000 0.000000 0.000000 0.000000 0.061198 0.000000
# 6 0.000000 0.000000 0.000000 0.000000 0.000000 0.030340
#
#
# Mechanical properties :
#
#
# Convention : Reuss Voigt Hill
#
# Bulk Modulus (GPa) = 32.30773 43.26008 37.78390
# Shear Modulus (GPa) = 23.06367 26.11761 24.59064
#
# Velocity S-wave (km/s) = 3.10646 3.30574 3.20765
# Velocity P-wave (km/s) = 5.13661 5.71586 5.43396
#
# Compressibility (1/GPa) = 0.03095235
#
# Stress axis : x y z
#
# Youngs Moduli (GPa) = 64.19246 91.26704 35.39029
#
# Poissons Ratio (x) = 0.46537 0.13396
# Poissons Ratio (y) = 0.32732 0.10742
# Poissons Ratio (z) = 0.24297 0.27703
#
# Static dielectric constant tensor:
#      x y z
#    x 1.925170 0.000000 0.000000 
#    y 0.000000 1.906080 0.000000 
#    z 0.000000 0.000000 1.960060 
# 
# From -- ./inp_files/677.got.cif
#   From: 2010.05.17/outbox.cif.g08.bks.cpg/sg33_1_cif.got.tgz:677.got - 2010.06.03 17:15:25.
