data_PCOD9345477
_publ_section_title
;
Structure prediction by ZEFSAII (Michael W. Deem and Ramdas Pophale) SiO2 
 PCOD9345477
Probable space group: P N A 21
;
_chemical_formula_sum "Si O2"
_cell_formula_units_Z 24
_cell_length_a 14.065626
_cell_length_b 9.050905
_cell_length_c 7.504311
_cell_angle_alpha 90.000000
_cell_angle_beta 90.000000
_cell_angle_gamma 90.000000
_cell_volume 955.348654
_symmetry_space_group_name_H-M "P N A 21"
_symmetry_group_IT_number 33
_symmetry_cell_setting 'orthorhombic'
loop_
_space_group_symop_operation_xyz
x,y,z
-x,-y,1/2+z
1/2-x,1/2+y,1/2+z
1/2+x,1/2-y,z
loop_
_atom_site_type_symbol
_atom_site_label
_atom_site_fract_x
_atom_site_fract_y
_atom_site_fract_z
Si Si1 0.324427 0.765819 0.037330
Si Si2 0.340676 0.093420 0.110508
Si Si3 0.378936 0.380599 0.968443
Si Si4 0.864658 0.773158 0.653468
Si Si5 0.677624 0.980707 0.978438
Si Si6 0.434002 0.583802 0.299573
O O1 0.228054 0.667324 0.056792
O O2 0.390951 0.726831 0.202548
O O3 0.310294 0.939985 0.023563
O O4 0.384109 0.716979 0.863146
O O5 0.397406 0.205954 0.989419
O O6 0.247626 0.190795 0.151316
O O7 0.382562 0.062986 0.305626
O O8 0.272874 0.429168 0.912695
O O9 0.396138 0.455427 0.165410
O O10 0.453848 0.427762 0.819902
O O11 0.875247 0.600792 0.598005
O O12 0.904109 0.884961 0.504546
#
# Coordination Sequence:
#
# PCOD9345477 Si02
#       6
#     4   4   4   4   4   4
#     4  10  22  39  67  96 131 171 218 281 341 402
#     4  10  21  41  68 100 128 170 232 277 333 400
#     4  10  25  42  66  98 135 181 227 273 355 402
#     4  10  22  39  67  97 131 172 227 278 334 410
#     4   9  20  40  65  99 127 170 224 279 334 400
#     4  11  24  45  63  94 138 180 222 276 341 416
#
# _framework density 25.121718000000001
#
# number of rings (size 3 to 8) (size 9 to 14) (size 15 to 20)
#    0.000    2.000    1.667    0.000   16.333    0.000 
#    3.000    1.667    0.000    0.000    0.000    0.000 
#    0.000    0.000    0.000    0.000    0.000    0.000 
#
# Total GULP energy -133881.634050 kJ/mol
# GULP energy per Si atom -5578.401419 kJ/mol
# Density = 2.506454 g / cm^3
# Si number density = 25.121718 Si / 1000 Ang^3
#
#
#
# Elastic Constant Matrix: (Units=GPa)
#
#
# Indices 1 2 3 4 5 6 
#
# 1 32.8943 -5.0919 8.5633 0.0000 0.0000 0.0000
# 2 -5.0919 170.1859 14.0334 0.0000 0.0000 0.0000
# 3 8.5633 14.0334 117.6249 0.0000 0.0000 0.0000
# 4 0.0000 0.0000 0.0000 26.5071 0.0000 0.0000
# 5 0.0000 0.0000 0.0000 0.0000 34.9900 0.0000
# 6 0.0000 0.0000 0.0000 0.0000 0.0000 11.0402
#
#
#
# Elastic Compliance Matrix: (Units=1/GPa)
#
#
# Indices 1 2 3 4 5 6 
#
# 1 0.031202 0.001132 -0.002407 0.000000 0.000000 0.000000
# 2 0.001132 0.005975 -0.000795 0.000000 0.000000 0.000000
# 3 -0.002407 -0.000795 0.008772 0.000000 0.000000 0.000000
# 4 0.000000 0.000000 0.000000 0.037726 0.000000 0.000000
# 5 0.000000 0.000000 0.000000 0.000000 0.028580 0.000000
# 6 0.000000 0.000000 0.000000 0.000000 0.000000 0.090578
#
#
# Mechanical properties :
#
#
# Convention : Reuss Voigt Hill
#
# Bulk Modulus (GPa) = 23.91809 39.52385 31.72097
# Shear Modulus (GPa) = 22.63378 34.72082 28.67730
#
# Velocity S-wave (km/s) = 3.00486 3.72170 3.38233
# Velocity P-wave (km/s) = 4.64548 5.85108 5.28279
#
# Compressibility (1/GPa) = 0.04180936
#
# Stress axis : x y z
#
# Youngs Moduli (GPa) = 32.04909 167.35340 114.00311
#
# Poissons Ratio (x) = -0.18945 0.27436
# Poissons Ratio (y) = -0.03628 0.09067
# Poissons Ratio (z) = 0.07713 0.13310
#
# Static dielectric constant tensor:
#      x y z
#    x 2.034580 0.000000 0.000000 
#    y 0.000000 2.121050 0.000000 
#    z 0.000000 0.000000 2.068680 
# 
# From -- ./inp_files/4674.got.cif
#   From: 2010.05.17/outbox.cif.g08.bks.cpg/sg33_3_cif.got.tgz:4674.got - 2010.06.03 17:15:25.
