data_PCOD9345691
_publ_section_title
;
Structure prediction by ZEFSAII (Michael W. Deem and Ramdas Pophale) SiO2 
 PCOD9345691
Probable space group: P N A 21
;
_chemical_formula_sum "Si O2"
_cell_formula_units_Z 24
_cell_length_a 11.610533
_cell_length_b 4.841407
_cell_length_c 17.334920
_cell_angle_alpha 90.000000
_cell_angle_beta 90.000000
_cell_angle_gamma 90.000000
_cell_volume 974.418661
_symmetry_space_group_name_H-M "P N A 21"
_symmetry_group_IT_number 33
_symmetry_cell_setting 'orthorhombic'
loop_
_space_group_symop_operation_xyz
x,y,z
-x,-y,1/2+z
1/2-x,1/2+y,1/2+z
1/2+x,1/2-y,z
loop_
_atom_site_type_symbol
_atom_site_label
_atom_site_fract_x
_atom_site_fract_y
_atom_site_fract_z
Si Si1 0.941904 0.517856 0.195230
Si Si2 0.696720 0.758592 0.833386
Si Si3 0.115619 0.165897 0.093527
Si Si4 0.923548 0.750124 0.415761
Si Si5 0.260528 0.148982 0.654149
Si Si6 0.116267 0.820678 0.302088
O O1 0.870367 0.328765 0.254569
O O2 0.859882 0.701881 0.142586
O O3 0.023761 0.314325 0.148732
O O4 0.008377 0.741935 0.247961
O O5 0.656803 0.473469 0.871377
O O6 0.641153 0.968604 0.895850
O O7 0.826518 0.877949 0.816647
O O8 0.226947 0.354735 0.114770
O O9 0.146354 0.855175 0.115914
O O10 0.079308 0.190022 0.005825
O O11 0.054965 0.743904 0.382958
O O12 0.288794 0.163091 0.746916
#
# Coordination Sequence:
#
# PCOD9345691 Si02
#       6
#     4   4   4   4   4   4
#     4   9  21  41  68  96 128 173 222 273 327 390
#     4  10  22  40  64  93 126 165 215 268 319 382
#     4  11  23  40  61  94 133 171 213 264 330 399
#     4  11  23  40  61  93 131 168 210 261 326 392
#     4  10  22  40  65  95 129 169 221 275 325 386
#     4   9  21  41  67  93 123 166 217 269 323 383
#
# _framework density 24.630071000000001
#
# number of rings (size 3 to 8) (size 9 to 14) (size 15 to 20)
#    0.000    2.000    0.000    2.000    0.000   17.333 
#    0.000    5.000    0.000    0.000    0.000    0.000 
#    0.000    0.000    0.000    0.000    0.000    0.000 
#
# Total GULP energy -134064.949617 kJ/mol
# GULP energy per Si atom -5586.039567 kJ/mol
# Density = 2.457401 g / cm^3
# Si number density = 24.630071 Si / 1000 Ang^3
#
#
#
# Elastic Constant Matrix: (Units=GPa)
#
#
# Indices 1 2 3 4 5 6 
#
# 1 77.5704 -1.0633 14.4605 0.0000 0.0000 0.0000
# 2 -1.0633 75.7481 6.9562 0.0000 0.0000 0.0000
# 3 14.4605 6.9562 130.2516 0.0000 0.0000 0.0000
# 4 0.0000 0.0000 0.0000 28.2511 0.0000 0.0000
# 5 0.0000 0.0000 0.0000 0.0000 20.3458 0.0000
# 6 0.0000 0.0000 0.0000 0.0000 0.0000 34.2477
#
#
#
# Elastic Compliance Matrix: (Units=1/GPa)
#
#
# Indices 1 2 3 4 5 6 
#
# 1 0.013172 0.000321 -0.001479 0.000000 0.000000 0.000000
# 2 0.000321 0.013275 -0.000745 0.000000 0.000000 0.000000
# 3 -0.001479 -0.000745 0.007881 0.000000 0.000000 0.000000
# 4 0.000000 0.000000 0.000000 0.035397 0.000000 0.000000
# 5 0.000000 0.000000 0.000000 0.000000 0.049150 0.000000
# 6 0.000000 0.000000 0.000000 0.000000 0.000000 0.029199
#
#
# Mechanical properties :
#
#
# Convention : Reuss Voigt Hill
#
# Bulk Modulus (GPa) = 32.76411 36.03079 34.39745
# Shear Modulus (GPa) = 30.85391 34.11670 32.48530
#
# Velocity S-wave (km/s) = 3.54318 3.72582 3.63565
# Velocity P-wave (km/s) = 5.48363 5.75930 5.62315
#
# Compressibility (1/GPa) = 0.03052120
#
# Stress axis : x y z
#
# Youngs Moduli (GPa) = 75.92033 75.33226 126.87999
#
# Poissons Ratio (x) = -0.02416 0.18771
# Poissons Ratio (y) = -0.02435 0.09447
# Poissons Ratio (z) = 0.11232 0.05609
#
# Static dielectric constant tensor:
#      x y z
#    x 2.089020 0.000000 0.000000 
#    y 0.000000 2.012390 0.000000 
#    z 0.000000 0.000000 1.900020 
# 
# From -- ./inp_files/8607.got.cif
#   From: 2010.05.17/outbox.cif.g08.bks.cpg/sg33_5_cif.got.tgz:8607.got - 2010.06.03 17:15:25.
