data_PCOD9345434
_publ_section_title
;
Structure prediction by ZEFSAII (Michael W. Deem and Ramdas Pophale) SiO2 
 PCOD9345434
Probable space group: P N A 21
;
_chemical_formula_sum "Si O2"
_cell_formula_units_Z 32
_cell_length_a 20.699267
_cell_length_b 8.875048
_cell_length_c 9.309384
_cell_angle_alpha 90.000000
_cell_angle_beta 90.000000
_cell_angle_gamma 90.000000
_cell_volume 1710.198897
_symmetry_space_group_name_H-M "P N A 21"
_symmetry_group_IT_number 33
_symmetry_cell_setting 'orthorhombic'
loop_
_space_group_symop_operation_xyz
x,y,z
-x,-y,1/2+z
1/2-x,1/2+y,1/2+z
1/2+x,1/2-y,z
loop_
_atom_site_type_symbol
_atom_site_label
_atom_site_fract_x
_atom_site_fract_y
_atom_site_fract_z
Si Si1 0.549741 0.682795 0.815390
Si Si2 0.321446 0.329337 0.495034
Si Si3 0.937599 0.680300 0.001504
Si Si4 0.191018 0.140849 0.837081
Si Si5 0.546488 0.321396 0.811408
Si Si6 0.318275 0.330661 0.836533
Si Si7 0.565325 0.821022 0.501998
Si Si8 0.693315 0.357928 0.498023
O O1 0.611640 0.711654 0.917176
O O2 0.486552 0.761257 0.880478
O O3 0.538962 0.502482 0.808209
O O4 0.565406 0.747039 0.658986
O O5 0.301784 0.492594 0.433025
O O6 0.330611 0.335729 0.666205
O O7 0.262589 0.215490 0.464918
O O8 0.938632 0.500743 0.011795
O O9 0.864897 0.739854 0.975832
O O10 0.959839 0.754345 0.152008
O O11 0.119877 0.207913 0.862747
O O12 0.247985 0.258268 0.861583
O O13 0.192411 0.098957 0.667389
O O14 0.495326 0.245946 0.915730
O O15 0.371293 0.229311 0.915408
O O16 0.320080 0.496292 0.903363
#
# Coordination Sequence:
#
# PCOD9345434 Si02
#       8
#     4   4   4   4   4   4   4   4
#     4  11  23  40  63  88 121 161 200 248 303 359
#     4  10  22  39  61  89 119 154 198 247 297 357
#     4  11  23  40  61  88 121 156 201 252 300 355
#     4   9  21  40  59  85 117 152 195 245 297 354
#     4  10  21  41  62  86 120 157 202 247 300 361
#     4  11  22  38  62  89 120 158 198 244 300 361
#     4  12  24  39  61  89 122 159 201 250 302 356
#     4  10  22  39  61  86 118 157 197 243 299 359
#
# _framework density 18.711274
#
# number of rings (size 3 to 8) (size 9 to 14) (size 15 to 20)
#    0.000    1.500    0.000    6.000    0.000    9.000 
#    0.000    1.250    0.000    0.000    0.000    0.000 
#    0.000    0.000    0.000    0.000    0.000    0.000 
#
# Total GULP energy -178897.949949 kJ/mol
# GULP energy per Si atom -5590.560936 kJ/mol
# Density = 1.866869 g / cm^3
# Si number density = 18.711274 Si / 1000 Ang^3
#
#
#
# Elastic Constant Matrix: (Units=GPa)
#
#
# Indices 1 2 3 4 5 6 
#
# 1 86.3749 54.2820 52.0112 0.0000 0.0000 0.0000
# 2 54.2820 106.5943 53.6992 0.0000 0.0000 0.0000
# 3 52.0112 53.6992 69.6498 0.0000 0.0000 0.0000
# 4 0.0000 0.0000 0.0000 26.1147 0.0000 0.0000
# 5 0.0000 0.0000 0.0000 0.0000 -588.1463 0.0000
# 6 0.0000 0.0000 0.0000 0.0000 0.0000 26.5452
#
#
#
# Elastic Compliance Matrix: (Units=1/GPa)
#
#
# Indices 1 2 3 4 5 6 
#
# 1 0.022497 -0.004894 -0.013027 0.000000 0.000000 0.000000
# 2 -0.004894 0.016404 -0.008993 0.000000 0.000000 0.000000
# 3 -0.013027 -0.008993 0.031018 0.000000 0.000000 0.000000
# 4 0.000000 0.000000 0.000000 0.038293 0.000000 0.000000
# 5 0.000000 0.000000 0.000000 0.000000 -0.001700 0.000000
# 6 0.000000 0.000000 0.000000 0.000000 0.000000 0.037672
#
#
# Mechanical properties :
#
#
# Convention : Reuss Voigt Hill
#
# Bulk Modulus (GPa) = 62.13875 64.73376 63.43625
# Shear Modulus (GPa) = 24.58532 -100.25551 -37.83510
#
# Velocity S-wave (km/s) = 3.62875 -7.32780 -4.50160
# Velocity P-wave (km/s) = 7.13011 6.07653 2.63763
#
# Compressibility (1/GPa) = 0.01609302
#
# Stress axis : x y z
#
# Youngs Moduli (GPa) = 44.45026 60.96164 32.23909
#
# Poissons Ratio (x) = 0.29835 0.41996
# Poissons Ratio (y) = 0.21754 0.28991
# Poissons Ratio (z) = 0.57903 0.54820
#
# Static dielectric constant tensor:
#      x y z
#    x 1.748210 0.000000 0.000000 
#    y 0.000000 1.607660 0.000000 
#    z 0.000000 0.000000 1.631730 
# 
# From -- ./inp_files/4993.got.cif
#   From: 2010.05.17/outbox.cif.g08.bks.cpg/sg33_3_cif.got.tgz:4993.got - 2010.06.03 17:15:25.
