data_PCOD9345086
_publ_section_title
;
Structure prediction by ZEFSAII (Michael W. Deem and Ramdas Pophale) SiO2 
 PCOD9345086
Probable space group: P N A 21
;
_chemical_formula_sum "Si O2"
_cell_formula_units_Z 32
_cell_length_a 9.041583
_cell_length_b 23.674399
_cell_length_c 5.612947
_cell_angle_alpha 90.000000
_cell_angle_beta 90.000000
_cell_angle_gamma 90.000000
_cell_volume 1201.474001
_symmetry_space_group_name_H-M "P N A 21"
_symmetry_group_IT_number 33
_symmetry_cell_setting 'orthorhombic'
loop_
_space_group_symop_operation_xyz
x,y,z
-x,-y,1/2+z
1/2-x,1/2+y,1/2+z
1/2+x,1/2-y,z
loop_
_atom_site_type_symbol
_atom_site_label
_atom_site_fract_x
_atom_site_fract_y
_atom_site_fract_z
Si Si1 0.004351 0.915863 0.497500
Si Si2 0.951165 0.436802 0.082860
Si Si3 0.479084 0.725045 0.968738
Si Si4 0.304527 0.505501 0.797601
Si Si5 0.222941 0.316507 0.692180
Si Si6 0.257673 0.096123 0.693676
Si Si7 0.777134 0.623179 0.701204
Si Si8 0.319083 0.178067 0.313807
O O1 0.101596 0.887710 0.701789
O O2 0.909706 0.967983 0.596900
O O3 0.879939 0.883876 0.353030
O O4 0.133551 0.943623 0.338978
O O5 0.862684 0.486096 0.213499
O O6 0.878911 0.375302 0.163535
O O7 0.891413 0.436365 0.817462
O O8 0.120554 0.431072 0.149185
O O9 0.604678 0.695320 0.129970
O O10 0.375409 0.761366 0.145516
O O11 0.578244 0.767084 0.802494
O O12 0.355567 0.693213 0.806693
O O13 0.313560 0.550474 0.013438
O O14 0.201174 0.338426 0.962272
O O15 0.178121 0.354745 0.461456
O O16 0.327417 0.150981 0.576465
#
# Coordination Sequence:
#
# PCOD9345086 Si02
#       8
#     4   4   4   4   4   4   4   4
#     4  11  23  41  70 100 130 175 230 288 332 415
#     4  10  23  42  64  94 135 186 214 278 347 410
#     4  10  22  43  66  97 135 177 232 282 335 405
#     4  10  22  42  67  98 131 173 232 279 341 408
#     4  11  26  46  67 103 138 182 231 285 342 410
#     4  10  21  40  68  90 131 176 222 277 343 402
#     4  12  27  45  70 102 144 179 228 284 349 414
#     4  10  20  41  62  92 130 176 219 277 335 398
#
# _framework density 26.633952000000001
#
# number of rings (size 3 to 8) (size 9 to 14) (size 15 to 20)
#    0.000    1.500    2.500    1.500    8.750    1.000 
#   11.250    0.000    0.000    0.000    0.000    0.000 
#    0.000    0.000    0.000    0.000    0.000    0.000 
#
# Total GULP energy -178868.319035 kJ/mol
# GULP energy per Si atom -5589.634970 kJ/mol
# Density = 2.657333 g / cm^3
# Si number density = 26.633952 Si / 1000 Ang^3
#
#
#
# Elastic Constant Matrix: (Units=GPa)
#
#
# Indices 1 2 3 4 5 6 
#
# 1 181.4120 25.0651 24.8466 0.0000 0.0000 0.0000
# 2 25.0651 42.0236 26.1830 0.0000 0.0000 0.0000
# 3 24.8466 26.1830 56.1141 0.0000 0.0000 0.0000
# 4 0.0000 0.0000 0.0000 30.4649 0.0000 0.0000
# 5 0.0000 0.0000 0.0000 0.0000 25.1417 0.0000
# 6 0.0000 0.0000 0.0000 0.0000 0.0000 65.4700
#
#
#
# Elastic Compliance Matrix: (Units=1/GPa)
#
#
# Indices 1 2 3 4 5 6 
#
# 1 0.006086 -0.002751 -0.001411 0.000000 0.000000 0.000000
# 2 -0.002751 0.034793 -0.015017 0.000000 0.000000 0.000000
# 3 -0.001411 -0.015017 0.025452 0.000000 0.000000 0.000000
# 4 0.000000 0.000000 0.000000 0.032825 0.000000 0.000000
# 5 0.000000 0.000000 0.000000 0.000000 0.039775 0.000000
# 6 0.000000 0.000000 0.000000 0.000000 0.000000 0.015274
#
#
# Mechanical properties :
#
#
# Convention : Reuss Voigt Hill
#
# Bulk Modulus (GPa) = 35.74704 47.97101 41.85902
# Shear Modulus (GPa) = 24.76648 37.77898 31.27273
#
# Velocity S-wave (km/s) = 3.05271 3.77032 3.43033
# Velocity P-wave (km/s) = 5.08686 6.08310 5.60715
#
# Compressibility (1/GPa) = 0.02797434
#
# Stress axis : x y z
#
# Youngs Moduli (GPa) = 164.32150 28.74154 39.28888
#
# Poissons Ratio (x) = 0.07905 0.05545
# Poissons Ratio (y) = 0.45197 0.58998
# Poissons Ratio (z) = 0.23190 0.43160
#
# Static dielectric constant tensor:
#      x y z
#    x 2.098210 0.000000 0.000000 
#    y 0.000000 2.093560 0.000000 
#    z 0.000000 0.000000 2.164380 
# 
# From -- ./inp_files/598.got.cif
#   From: 2010.05.17/outbox.cif.g08.bks.cpg/sg33_1_cif.got.tgz:598.got - 2010.06.03 17:15:25.
