data_PCOD9345836
_publ_section_title
;
Structure prediction by ZEFSAII (Michael W. Deem and Ramdas Pophale) SiO2 
 PCOD9345836
Probable space group: P N A 21
;
_chemical_formula_sum "Si O2"
_cell_formula_units_Z 32
_cell_length_a 8.640365
_cell_length_b 4.888806
_cell_length_c 27.354002
_cell_angle_alpha 90.000000
_cell_angle_beta 90.000000
_cell_angle_gamma 90.000000
_cell_volume 1155.462266
_symmetry_space_group_name_H-M "P N A 21"
_symmetry_group_IT_number 33
_symmetry_cell_setting 'orthorhombic'
loop_
_space_group_symop_operation_xyz
x,y,z
-x,-y,1/2+z
1/2-x,1/2+y,1/2+z
1/2+x,1/2-y,z
loop_
_atom_site_type_symbol
_atom_site_label
_atom_site_fract_x
_atom_site_fract_y
_atom_site_fract_z
Si Si1 0.962197 0.222078 0.767710
Si Si2 0.966288 0.124065 0.420824
Si Si3 0.298597 0.973436 0.679833
Si Si4 0.533712 0.624065 0.614596
Si Si5 0.254602 0.489417 0.983933
Si Si6 0.754601 0.010583 0.551487
Si Si7 0.298598 0.973436 0.855587
Si Si8 0.276912 0.134907 0.267710
O O1 0.886453 0.321067 0.716156
O O2 0.886453 0.321068 0.819264
O O3 0.129173 0.354488 0.767710
O O4 0.910391 0.909159 0.767710
O O5 0.090738 0.956009 0.452020
O O6 0.076205 0.293089 0.383893
O O7 0.875263 0.349981 0.452969
O O8 0.834348 0.941989 0.394096
O O9 0.423795 0.793089 0.651527
O O10 0.165652 0.058010 0.641324
O O11 0.200026 0.792040 0.717932
O O12 0.624736 0.849981 0.582451
O O13 0.409262 0.456010 0.583400
O O14 0.207546 0.204653 0.007969
O O15 0.292454 0.704653 0.027451
O O16 0.200026 0.792039 0.817488
#
# Coordination Sequence:
#
# PCOD9345836 Si02
#       8
#     4   4   4   4   4   4   4   4
#     4  11  24  40  65  93 137 181 223 273 342 402
#     4  10  22  43  66  96 128 176 226 285 338 416
#     4  10  22  45  60  94 138 172 226 277 332 404
#     4  10  22  43  66  96 128 176 226 285 338 416
#     4  11  24  47  70  99 136 179 226 287 358 409
#     4  11  24  47  70  99 136 179 226 287 358 409
#     4  10  22  45  60  94 138 172 226 277 332 404
#     4  11  24  40  65  93 137 181 223 273 342 402
#
# _framework density 27.69454
#
# number of rings (size 3 to 8) (size 9 to 14) (size 15 to 20)
#    0.000    1.500    2.500    1.500    3.500    0.000 
#   27.000    0.000    0.000    0.000    0.000    0.000 
#    0.000    0.000    0.000    0.000    0.000    0.000 
#
# Total GULP energy -179438.026613 kJ/mol
# GULP energy per Si atom -5607.438332 kJ/mol
# Density = 2.763151 g / cm^3
# Si number density = 27.694540 Si / 1000 Ang^3
#
#
#
# Elastic Constant Matrix: (Units=GPa)
#
#
# Indices 1 2 3 4 5 6 
#
# 1 146.1037 3.5106 57.5922 0.0000 0.0000 0.0000
# 2 3.5106 66.5705 11.9802 0.0000 0.0000 0.0000
# 3 57.5922 11.9802 131.9631 0.0000 0.0000 0.0000
# 4 0.0000 0.0000 0.0000 8.7351 0.0000 0.0000
# 5 0.0000 0.0000 0.0000 0.0000 77.3037 0.0000
# 6 0.0000 0.0000 0.0000 0.0000 0.0000 35.7152
#
#
#
# Elastic Compliance Matrix: (Units=1/GPa)
#
#
# Indices 1 2 3 4 5 6 
#
# 1 0.008270 0.000217 -0.003629 0.000000 0.000000 0.000000
# 2 0.000217 0.015277 -0.001482 0.000000 0.000000 0.000000
# 3 -0.003629 -0.001482 0.009296 0.000000 0.000000 0.000000
# 4 0.000000 0.000000 0.000000 0.114480 0.000000 0.000000
# 5 0.000000 0.000000 0.000000 0.000000 0.012936 0.000000
# 6 0.000000 0.000000 0.000000 0.000000 0.000000 0.027999
#
#
# Mechanical properties :
#
#
# Convention : Reuss Voigt Hill
#
# Bulk Modulus (GPa) = 43.37313 54.53369 48.95341
# Shear Modulus (GPa) = 24.30364 42.45442 33.37903
#
# Velocity S-wave (km/s) = 2.96558 3.91954 3.47545
# Velocity P-wave (km/s) = 5.23655 6.34174 5.81546
#
# Compressibility (1/GPa) = 0.02305575
#
# Stress axis : x y z
#
# Youngs Moduli (GPa) = 120.92378 65.45850 107.57211
#
# Poissons Ratio (x) = -0.01420 0.39036
# Poissons Ratio (y) = -0.02623 0.15938
# Poissons Ratio (z) = 0.43881 0.09698
#
# Static dielectric constant tensor:
#      x y z
#    x 2.129620 0.000000 0.000000 
#    y 0.000000 2.094660 0.000000 
#    z 0.000000 0.000000 2.184030 
# 
# From -- ./inp_files/9389.got.cif
#   From: 2010.05.17/outbox.cif.g08.bks.cpg/sg33_5_cif.got.tgz:9389.got - 2010.06.03 17:15:25.
