data_PCOD9345908
_publ_section_title
;
Structure prediction by ZEFSAII (Michael W. Deem and Ramdas Pophale) SiO2 
 PCOD9345908
Probable space group: P N A 21
;
_chemical_formula_sum "Si O2"
_cell_formula_units_Z 32
_cell_length_a 11.235275
_cell_length_b 14.917741
_cell_length_c 8.931686
_cell_angle_alpha 90.000000
_cell_angle_beta 90.000000
_cell_angle_gamma 90.000000
_cell_volume 1496.994540
_symmetry_space_group_name_H-M "P N A 21"
_symmetry_group_IT_number 33
_symmetry_cell_setting 'orthorhombic'
loop_
_space_group_symop_operation_xyz
x,y,z
-x,-y,1/2+z
1/2-x,1/2+y,1/2+z
1/2+x,1/2-y,z
loop_
_atom_site_type_symbol
_atom_site_label
_atom_site_fract_x
_atom_site_fract_y
_atom_site_fract_z
Si Si1 0.920903 0.190094 0.697090
Si Si2 0.674432 0.059873 0.270636
Si Si3 0.081760 0.642121 0.766796
Si Si4 0.611154 0.663962 0.842320
Si Si5 0.254327 0.573083 0.018698
Si Si6 0.765266 0.917993 0.514322
Si Si7 0.327915 0.718724 0.263619
Si Si8 0.436082 0.511691 0.765700
O O1 0.910199 0.177661 0.518483
O O2 0.788856 0.217791 0.752743
O O3 0.955257 0.093799 0.765213
O O4 0.035457 0.252422 0.739917
O O5 0.538010 0.086227 0.266115
O O6 0.750931 0.149338 0.303010
O O7 0.708084 0.009048 0.118027
O O8 0.707716 0.990824 0.403164
O O9 0.059470 0.748375 0.763427
O O10 0.166094 0.615253 0.630089
O O11 0.151881 0.618687 0.919500
O O12 0.551406 0.572757 0.783959
O O13 0.306969 0.647950 0.128834
O O14 0.352576 0.538904 0.903475
O O15 0.814431 0.835655 0.417533
O O16 0.868799 0.962936 0.612609
#
# Coordination Sequence:
#
# PCOD9345908 Si02
#       8
#     4   4   4   4   4   4   4   4
#     4  12  26  46  74 104 138 187 235 289 352 417
#     4  11  24  43  68 100 140 181 231 286 355 418
#     4  11  25  43  71 101 143 177 233 292 351 418
#     4  12  26  41  71 103 134 187 234 287 344 421
#     4  10  22  44  71  98 133 184 228 282 351 417
#     4  10  24  46  69 105 136 181 230 291 349 415
#     4  11  25  46  72 101 142 176 233 293 346 414
#     4  11  24  45  72  98 138 183 238 276 342 428
#
# _framework density 21.376163999999999
#
# number of rings (size 3 to 8) (size 9 to 14) (size 15 to 20)
#    0.000    1.000    3.750    2.250    5.250    2.000 
#   11.250    0.000    0.000    0.000    0.000    0.000 
#    0.000    0.000    0.000    0.000    0.000    0.000 
#
# Total GULP energy -179046.138987 kJ/mol
# GULP energy per Si atom -5595.191843 kJ/mol
# Density = 2.132751 g / cm^3
# Si number density = 21.376164 Si / 1000 Ang^3
#
#
#
# Elastic Constant Matrix: (Units=GPa)
#
#
# Indices 1 2 3 4 5 6 
#
# 1 112.2907 24.3637 27.2565 0.0000 0.0000 0.0000
# 2 24.3637 61.3880 15.0569 0.0000 0.0000 0.0000
# 3 27.2565 15.0569 88.9587 0.0000 0.0000 0.0000
# 4 0.0000 0.0000 0.0000 13.1733 0.0000 0.0000
# 5 0.0000 0.0000 0.0000 0.0000 6.7307 0.0000
# 6 0.0000 0.0000 0.0000 0.0000 0.0000 38.3293
#
#
#
# Elastic Compliance Matrix: (Units=1/GPa)
#
#
# Indices 1 2 3 4 5 6 
#
# 1 0.010276 -0.003449 -0.002565 0.000000 0.000000 0.000000
# 2 -0.003449 0.018153 -0.002016 0.000000 0.000000 0.000000
# 3 -0.002565 -0.002016 0.012368 0.000000 0.000000 0.000000
# 4 0.000000 0.000000 0.000000 0.075911 0.000000 0.000000
# 5 0.000000 0.000000 0.000000 0.000000 0.148572 0.000000
# 6 0.000000 0.000000 0.000000 0.000000 0.000000 0.026090
#
#
# Mechanical properties :
#
#
# Convention : Reuss Voigt Hill
#
# Bulk Modulus (GPa) = 40.42362 43.99908 42.21135
# Shear Modulus (GPa) = 15.83899 24.71067 20.27483
#
# Velocity S-wave (km/s) = 2.72502 3.40368 3.08308
# Velocity P-wave (km/s) = 5.37147 6.00621 5.69769
#
# Compressibility (1/GPa) = 0.02473801
#
# Stress axis : x y z
#
# Youngs Moduli (GPa) = 97.30990 55.08658 80.85258
#
# Poissons Ratio (x) = 0.19002 0.20737
# Poissons Ratio (y) = 0.33566 0.16297
# Poissons Ratio (z) = 0.24958 0.11104
#
# Static dielectric constant tensor:
#      x y z
#    x 1.796830 0.000000 0.000000 
#    y 0.000000 1.771320 0.000000 
#    z 0.000000 0.000000 1.743790 
# 
# From -- ./inp_files/3956.got.cif
#   From: 2010.05.17/outbox.cif.g08.bks.cpg/sg33_2_cif.got.tgz:3956.got - 2010.06.03 17:15:25.
