data_PCOD9345495
_publ_section_title
;
Structure prediction by ZEFSAII (Michael W. Deem and Ramdas Pophale) SiO2 
 PCOD9345495
Probable space group: P N A 21
;
_chemical_formula_sum "Si O2"
_cell_formula_units_Z 32
_cell_length_a 12.259210
_cell_length_b 19.746614
_cell_length_c 6.128811
_cell_angle_alpha 90.000000
_cell_angle_beta 90.000000
_cell_angle_gamma 90.000000
_cell_volume 1483.649622
_symmetry_space_group_name_H-M "P N A 21"
_symmetry_group_IT_number 33
_symmetry_cell_setting 'orthorhombic'
loop_
_space_group_symop_operation_xyz
x,y,z
-x,-y,1/2+z
1/2-x,1/2+y,1/2+z
1/2+x,1/2-y,z
loop_
_atom_site_type_symbol
_atom_site_label
_atom_site_fract_x
_atom_site_fract_y
_atom_site_fract_z
Si Si1 0.668542 0.405835 0.211600
Si Si2 0.304221 0.343913 0.491232
Si Si3 0.007933 0.467710 0.919236
Si Si4 0.161625 0.651509 0.375813
Si Si5 0.818382 0.786224 0.029093
Si Si6 0.242785 0.453612 0.824942
Si Si7 0.944451 0.097442 0.103181
Si Si8 0.975827 0.223877 0.823738
O O1 0.637128 0.348029 0.385283
O O2 0.746782 0.466101 0.289809
O O3 0.555807 0.443025 0.143379
O O4 0.738294 0.365870 0.032454
O O5 0.226757 0.281906 0.413833
O O6 0.241990 0.404594 0.614531
O O7 0.377756 0.378930 0.311533
O O8 0.386597 0.307641 0.659319
O O9 0.913702 0.413945 0.869224
O O10 0.015598 0.503176 0.669807
O O11 0.130356 0.439042 0.948115
O O12 0.218239 0.677216 0.154329
O O13 0.080667 0.712526 0.439872
O O14 0.912837 0.761862 0.194701
O O15 0.353236 0.435530 0.952847
O O16 0.993630 0.164524 0.993540
#
# Coordination Sequence:
#
# PCOD9345495 Si02
#       8
#     4   4   4   4   4   4   4   4
#     4  12  24  43  69 104 137 187 241 297 374 454
#     4  10  23  43  64  98 139 182 236 301 369 438
#     4  12  27  51  72 105 148 192 252 308 374 453
#     4  11  24  43  74  96 140 190 237 308 371 441
#     4  11  22  42  70 101 139 181 243 305 373 453
#     4  11  27  44  68 102 142 190 243 301 376 447
#     4  11  24  42  67  99 141 182 232 302 373 449
#     4  10  21  42  64 101 134 180 238 296 368 443
#
# _framework density 21.568435999999998
#
# number of rings (size 3 to 8) (size 9 to 14) (size 15 to 20)
#    0.000    1.000    3.750    2.250    3.500    1.000 
#    2.250    0.000    0.000    0.000    0.000    0.000 
#    0.000    0.000    0.000    0.000    0.000    0.000 
#
# Total GULP energy -178296.658460 kJ/mol
# GULP energy per Si atom -5571.770577 kJ/mol
# Density = 2.151935 g / cm^3
# Si number density = 21.568436 Si / 1000 Ang^3
#
#
#
# Elastic Constant Matrix: (Units=GPa)
#
#
# Indices 1 2 3 4 5 6 
#
# 1 123.6239 17.6834 10.3909 0.0000 0.0000 0.0000
# 2 17.6834 68.5695 26.8609 0.0000 0.0000 0.0000
# 3 10.3909 26.8609 46.9690 0.0000 0.0000 0.0000
# 4 0.0000 0.0000 0.0000 -203.7028 0.0000 0.0000
# 5 0.0000 0.0000 0.0000 0.0000 38.2599 0.0000
# 6 0.0000 0.0000 0.0000 0.0000 0.0000 40.1598
#
#
#
# Elastic Compliance Matrix: (Units=1/GPa)
#
#
# Indices 1 2 3 4 5 6 
#
# 1 0.008422 -0.001858 -0.000800 0.000000 0.000000 0.000000
# 2 -0.001858 0.019204 -0.010571 0.000000 0.000000 0.000000
# 3 -0.000800 -0.010571 0.027513 0.000000 0.000000 0.000000
# 4 0.000000 0.000000 0.000000 -0.004909 0.000000 0.000000
# 5 0.000000 0.000000 0.000000 0.000000 0.026137 0.000000
# 6 0.000000 0.000000 0.000000 0.000000 0.000000 0.024901
#
#
# Mechanical properties :
#
#
# Convention : Reuss Voigt Hill
#
# Bulk Modulus (GPa) = 34.86856 38.78139 36.82497
# Shear Modulus (GPa) = 36.41965 -12.77482 11.82241
#
# Velocity S-wave (km/s) = 4.11367 -2.43635 2.34377
# Velocity P-wave (km/s) = 6.22612 3.17888 4.94317
#
# Compressibility (1/GPa) = 0.02867913
#
# Stress axis : x y z
#
# Youngs Moduli (GPa) = 118.73433 52.07195 36.34595
#
# Poissons Ratio (x) = 0.09677 0.02909
# Poissons Ratio (y) = 0.22066 0.38423
# Poissons Ratio (z) = 0.09504 0.55048
#
# Static dielectric constant tensor:
#      x y z
#    x 1.973590 0.000000 0.000000 
#    y 0.000000 1.795580 0.000000 
#    z 0.000000 0.000000 1.843820 
# 
# From -- ./inp_files/1034.got.cif
#   From: 2010.05.17/outbox.cif.g08.bks.cpg/sg33_1_cif.got.tgz:1034.got - 2010.06.03 17:15:25.
