data_PCOD9345874
_publ_section_title
;
Structure prediction by ZEFSAII (Michael W. Deem and Ramdas Pophale) SiO2 
 PCOD9345874
Probable space group: P N A 21
;
_chemical_formula_sum "Si O2"
_cell_formula_units_Z 28
_cell_length_a 18.659141
_cell_length_b 11.863022
_cell_length_c 5.245113
_cell_angle_alpha 90.000000
_cell_angle_beta 90.000000
_cell_angle_gamma 90.000000
_cell_volume 1161.025695
_symmetry_space_group_name_H-M "P N A 21"
_symmetry_group_IT_number 33
_symmetry_cell_setting 'orthorhombic'
loop_
_space_group_symop_operation_xyz
x,y,z
-x,-y,1/2+z
1/2-x,1/2+y,1/2+z
1/2+x,1/2-y,z
loop_
_atom_site_type_symbol
_atom_site_label
_atom_site_fract_x
_atom_site_fract_y
_atom_site_fract_z
Si Si1 0.975086 0.123762 0.826100
Si Si2 0.236358 0.647131 0.094982
Si Si3 0.919510 0.581999 0.080348
Si Si4 0.500941 0.154116 0.083641
Si Si5 0.276870 0.017309 0.115724
Si Si6 0.114001 0.050966 0.589609
Si Si7 0.652826 0.627483 0.979066
O O1 0.925376 0.155049 0.586386
O O2 0.965590 0.225729 0.024955
O O3 0.059351 0.109163 0.786232
O O4 0.942853 0.000997 0.892931
O O5 0.224245 0.609905 0.388404
O O6 0.321369 0.635962 0.039580
O O7 0.200529 0.762844 0.013842
O O8 0.201583 0.560116 0.894267
O O9 0.959320 0.646805 0.853172
O O10 0.945852 0.450917 0.070747
O O11 0.944295 0.630247 0.350943
O O12 0.834825 0.576301 0.040783
O O13 0.197514 0.965964 0.138520
O O14 0.148226 0.937237 0.711552
#
# Coordination Sequence:
#
# PCOD9345874 Si02
#       7
#     4   4   4   4   4   4   4
#     4  12  24  46  73 105 145 198 237 308 366 433
#     4  11  26  45  74 105 141 196 238 300 372 431
#     4  10  22  44  63 108 136 183 236 297 347 445
#     4  10  24  39  71  99 143 181 237 287 369 423
#     4  11  24  46  69 101 145 182 245 301 353 436
#     4  11  26  47  71 109 146 185 254 301 363 451
#     4  11  26  45  73 103 144 195 241 302 370 437
#
# _framework density 24.116607999999999
#
# number of rings (size 3 to 8) (size 9 to 14) (size 15 to 20)
#    0.000    1.143    2.857    1.714    8.000    1.143 
#    5.143    0.000    0.000    0.000    0.000    0.000 
#    0.000    0.000    0.000    0.000    0.000    0.000 
#
# Total GULP energy -156501.204829 kJ/mol
# GULP energy per Si atom -5589.328744 kJ/mol
# Density = 2.406172 g / cm^3
# Si number density = 24.116608 Si / 1000 Ang^3
#
#
#
# Elastic Constant Matrix: (Units=GPa)
#
#
# Indices 1 2 3 4 5 6 
#
# 1 106.2017 36.4049 19.6350 0.0000 0.0000 0.0000
# 2 36.4049 94.1358 11.0224 0.0000 0.0000 0.0000
# 3 19.6350 11.0224 80.8887 0.0000 0.0000 0.0000
# 4 0.0000 0.0000 0.0000 12.8625 0.0000 0.0000
# 5 0.0000 0.0000 0.0000 0.0000 28.3896 0.0000
# 6 0.0000 0.0000 0.0000 0.0000 0.0000 34.0101
#
#
#
# Elastic Compliance Matrix: (Units=1/GPa)
#
#
# Indices 1 2 3 4 5 6 
#
# 1 0.011217 -0.004084 -0.002166 0.000000 0.000000 0.000000
# 2 -0.004084 0.012282 -0.000682 0.000000 0.000000 0.000000
# 3 -0.002166 -0.000682 0.012981 0.000000 0.000000 0.000000
# 4 0.000000 0.000000 0.000000 0.077745 0.000000 0.000000
# 5 0.000000 0.000000 0.000000 0.000000 0.035224 0.000000
# 6 0.000000 0.000000 0.000000 0.000000 0.000000 0.029403
#
#
# Mechanical properties :
#
#
# Convention : Reuss Voigt Hill
#
# Bulk Modulus (GPa) = 44.21818 46.15008 45.18413
# Shear Modulus (GPa) = 24.96803 29.33004 27.14904
#
# Velocity S-wave (km/s) = 3.22111 3.49116 3.35885
# Velocity P-wave (km/s) = 5.67530 5.95220 5.81539
#
# Compressibility (1/GPa) = 0.02261513
#
# Stress axis : x y z
#
# Youngs Moduli (GPa) = 89.15413 81.41820 77.03294
#
# Poissons Ratio (x) = 0.33252 0.16687
# Poissons Ratio (y) = 0.36411 0.05256
# Poissons Ratio (z) = 0.19312 0.05555
#
# Static dielectric constant tensor:
#      x y z
#    x 1.933900 0.000000 0.000000 
#    y 0.000000 1.954130 0.000000 
#    z 0.000000 0.000000 1.990090 
# 
# From -- ./inp_files/1746.got.cif
#   From: 2010.05.17/outbox.cif.g08.bks.cpg/sg33_1_cif.got.tgz:1746.got - 2010.06.03 17:15:25.
