data_PCOD9345237
_publ_section_title
;
Structure prediction by ZEFSAII (Michael W. Deem and Ramdas Pophale) SiO2 
 PCOD9345237
Probable space group: P N A 21
;
_chemical_formula_sum "Si O2"
_cell_formula_units_Z 32
_cell_length_a 8.954345
_cell_length_b 19.170026
_cell_length_c 8.769190
_cell_angle_alpha 90.000000
_cell_angle_beta 90.000000
_cell_angle_gamma 90.000000
_cell_volume 1505.275542
_symmetry_space_group_name_H-M "P N A 21"
_symmetry_group_IT_number 33
_symmetry_cell_setting 'orthorhombic'
loop_
_space_group_symop_operation_xyz
x,y,z
-x,-y,1/2+z
1/2-x,1/2+y,1/2+z
1/2+x,1/2-y,z
loop_
_atom_site_type_symbol
_atom_site_label
_atom_site_fract_x
_atom_site_fract_y
_atom_site_fract_z
Si Si1 0.432573 0.824440 0.394310
Si Si2 0.913740 0.831533 0.110390
Si Si3 0.569204 0.442416 0.085914
Si Si4 0.679299 0.049847 0.484451
Si Si5 0.868335 0.968893 0.918216
Si Si6 0.560814 0.022336 0.813736
Si Si7 0.761764 0.697638 0.071458
Si Si8 0.716087 0.310212 0.946082
O O1 0.424385 0.907294 0.413578
O O2 0.360030 0.813885 0.225499
O O3 0.342327 0.766782 0.490039
O O4 0.607348 0.807939 0.415947
O O5 0.814111 0.774012 0.021079
O O6 0.857862 0.831327 0.284052
O O7 0.086326 0.807855 0.107107
O O8 0.892103 0.907178 0.037866
O O9 0.674672 0.506097 0.029057
O O10 0.540723 0.452467 0.264132
O O11 0.421670 0.457128 0.987274
O O12 0.656809 0.370706 0.056926
O O13 0.577674 0.040694 0.636287
O O14 0.705866 0.131721 0.464328
O O15 0.595152 0.013858 0.346700
O O16 0.697776 0.973761 0.863436
#
# Coordination Sequence:
#
# PCOD9345237 Si02
#       8
#     4   4   4   4   4   4   4   4
#     4  10  21  37  61  93 116 162 204 248 299 365
#     4  11  22  39  63  91 119 163 207 254 301 360
#     4  11  23  42  61  89 122 159 200 253 304 361
#     4  10  21  41  59  89 119 152 199 251 296 362
#     4  11  25  40  63  89 124 159 203 252 308 361
#     4  10  23  37  63  87 121 153 202 246 305 359
#     4  10  21  37  62  88 122 156 207 246 296 366
#     4  11  22  37  66  86 123 158 208 250 303 360
#
# _framework density 21.258566999999999
#
# number of rings (size 3 to 8) (size 9 to 14) (size 15 to 20)
#    0.000    1.500    2.500    3.750   10.500    1.000 
#    0.000    2.500    0.000    0.000    0.000    0.000 
#    0.000    0.000    0.000    0.000    0.000    0.000 
#
# Total GULP energy -178634.339628 kJ/mol
# GULP energy per Si atom -5582.323113 kJ/mol
# Density = 2.121018 g / cm^3
# Si number density = 21.258567 Si / 1000 Ang^3
#
#
#
# Elastic Constant Matrix: (Units=GPa)
#
#
# Indices 1 2 3 4 5 6 
#
# 1 76.0649 4.2719 1.7250 0.0000 0.0000 0.0000
# 2 4.2719 80.4794 -11.3139 0.0000 0.0000 0.0000
# 3 1.7250 -11.3139 24.3132 0.0000 0.0000 0.0000
# 4 0.0000 0.0000 0.0000 22.8580 0.0000 0.0000
# 5 0.0000 0.0000 0.0000 0.0000 20.0295 0.0000
# 6 0.0000 0.0000 0.0000 0.0000 0.0000 30.8757
#
#
#
# Elastic Compliance Matrix: (Units=1/GPa)
#
#
# Indices 1 2 3 4 5 6 
#
# 1 0.013227 -0.000892 -0.001354 0.000000 0.000000 0.000000
# 2 -0.000892 0.013356 0.006278 0.000000 0.000000 0.000000
# 3 -0.001354 0.006278 0.044148 0.000000 0.000000 0.000000
# 4 0.000000 0.000000 0.000000 0.043748 0.000000 0.000000
# 5 0.000000 0.000000 0.000000 0.000000 0.049926 0.000000
# 6 0.000000 0.000000 0.000000 0.000000 0.000000 0.032388
#
#
# Mechanical properties :
#
#
# Convention : Reuss Voigt Hill
#
# Bulk Modulus (GPa) = 12.69124 18.91370 15.80247
# Shear Modulus (GPa) = 23.25647 27.16428 25.21037
#
# Velocity S-wave (km/s) = 3.31113 3.57852 3.44741
# Velocity P-wave (km/s) = 4.53883 5.09810 4.82657
#
# Compressibility (1/GPa) = 0.07879453
#
# Stress axis : x y z
#
# Youngs Moduli (GPa) = 75.60011 74.87544 22.65133
#
# Poissons Ratio (x) = 0.06682 0.03066
# Poissons Ratio (y) = 0.06747 -0.14221
# Poissons Ratio (z) = 0.10234 -0.47008
#
# Static dielectric constant tensor:
#      x y z
#    x 1.771940 0.000000 0.000000 
#    y 0.000000 1.817900 0.000000 
#    z 0.000000 0.000000 1.766980 
# 
# From -- ./inp_files/3507.got.cif
#   From: 2010.05.17/outbox.cif.g08.bks.cpg/sg33_2_cif.got.tgz:3507.got - 2010.06.03 17:15:25.
