data_PCOD9345328
_publ_section_title
;
Structure prediction by ZEFSAII (Michael W. Deem and Ramdas Pophale) SiO2 
 PCOD9345328
Probable space group: P N A 21
;
_chemical_formula_sum "Si O2"
_cell_formula_units_Z 28
_cell_length_a 9.850397
_cell_length_b 18.185749
_cell_length_c 6.849471
_cell_angle_alpha 90.000000
_cell_angle_beta 90.000000
_cell_angle_gamma 90.000000
_cell_volume 1226.992641
_symmetry_space_group_name_H-M "P N A 21"
_symmetry_group_IT_number 33
_symmetry_cell_setting 'orthorhombic'
loop_
_space_group_symop_operation_xyz
x,y,z
-x,-y,1/2+z
1/2-x,1/2+y,1/2+z
1/2+x,1/2-y,z
loop_
_atom_site_type_symbol
_atom_site_label
_atom_site_fract_x
_atom_site_fract_y
_atom_site_fract_z
Si Si1 0.772754 0.374506 0.919690
Si Si2 0.999032 0.158336 0.118992
Si Si3 0.901792 0.228936 0.736014
Si Si4 0.784555 0.119056 0.416637
Si Si5 0.649703 0.928793 0.037089
Si Si6 0.483224 0.799654 0.892660
Si Si7 0.866000 0.500449 0.147570
O O1 0.825265 0.295539 0.845901
O O2 0.746802 0.415793 0.712740
O O3 0.648919 0.369447 0.069861
O O4 0.882816 0.423120 0.035177
O O5 0.900618 0.110563 0.255179
O O6 0.003769 0.235945 0.234786
O O7 0.940208 0.173591 0.906093
O O8 0.825779 0.182312 0.570665
O O9 0.027157 0.263118 0.610073
O O10 0.642647 0.149673 0.332264
O O11 0.746617 0.045752 0.530752
O O12 0.613797 0.851619 0.929776
O O13 0.506923 0.955377 0.132394
O O14 0.680109 0.985907 0.867558
#
# Coordination Sequence:
#
# PCOD9345328 Si02
#       7
#     4   4   4   4   4   4   4
#     4  11  23  39  65  97 128 176 224 280 342 408
#     4  11  22  39  62  95 131 174 221 258 341 412
#     4  10  21  39  63  95 126 171 223 277 336 400
#     4  10  23  40  61  93 135 174 214 277 338 410
#     4  10  21  39  66  96 130 163 226 290 339 391
#     4   9  20  38  63  93 131 163 216 282 332 398
#     4  11  22  42  64  95 129 171 226 286 346 395
#
# _framework density 22.820025000000001
#
# number of rings (size 3 to 8) (size 9 to 14) (size 15 to 20)
#    0.000    1.714    1.429    2.571    0.000    5.714 
#    5.143    0.000    0.000    0.000    0.000    0.000 
#    0.000    0.000    0.000    0.000    0.000    0.000 
#
# Total GULP energy -156347.220876 kJ/mol
# GULP energy per Si atom -5583.829317 kJ/mol
# Density = 2.276809 g / cm^3
# Si number density = 22.820025 Si / 1000 Ang^3
#
#
#
# Elastic Constant Matrix: (Units=GPa)
#
#
# Indices 1 2 3 4 5 6 
#
# 1 69.1334 14.1037 44.0707 0.0000 0.0000 0.0000
# 2 14.1037 57.0020 23.4905 0.0000 0.0000 0.0000
# 3 44.0707 23.4905 121.1431 0.0000 0.0000 0.0000
# 4 0.0000 0.0000 0.0000 38.1025 0.0000 0.0000
# 5 0.0000 0.0000 0.0000 0.0000 34.8440 0.0000
# 6 0.0000 0.0000 0.0000 0.0000 0.0000 7.0461
#
#
#
# Elastic Compliance Matrix: (Units=1/GPa)
#
#
# Indices 1 2 3 4 5 6 
#
# 1 0.019043 -0.002018 -0.006536 0.000000 0.000000 0.000000
# 2 -0.002018 0.019281 -0.003005 0.000000 0.000000 0.000000
# 3 -0.006536 -0.003005 0.011215 0.000000 0.000000 0.000000
# 4 0.000000 0.000000 0.000000 0.026245 0.000000 0.000000
# 5 0.000000 0.000000 0.000000 0.000000 0.028699 0.000000
# 6 0.000000 0.000000 0.000000 0.000000 0.000000 0.141923
#
#
# Mechanical properties :
#
#
# Convention : Reuss Voigt Hill
#
# Bulk Modulus (GPa) = 37.84853 45.62316 41.73585
# Shear Modulus (GPa) = 17.96418 27.03944 22.50181
#
# Velocity S-wave (km/s) = 2.80877 3.44597 3.14356
# Velocity P-wave (km/s) = 5.20966 5.98907 5.61291
#
# Compressibility (1/GPa) = 0.02642110
#
# Stress axis : x y z
#
# Youngs Moduli (GPa) = 52.51191 51.86526 89.16478
#
# Poissons Ratio (x) = 0.10467 0.58282
# Poissons Ratio (y) = 0.10597 0.26790
# Poissons Ratio (z) = 0.34324 0.15583
#
# Static dielectric constant tensor:
#      x y z
#    x 1.875290 0.000000 0.000000 
#    y 0.000000 1.890690 0.000000 
#    z 0.000000 0.000000 1.853070 
# 
# From -- ./inp_files/943.got.cif
#   From: 2010.05.17/outbox.cif.g08.bks.cpg/sg33_1_cif.got.tgz:943.got - 2010.06.03 17:15:25.
