data_PCOD9345511
_publ_section_title
;
Structure prediction by ZEFSAII (Michael W. Deem and Ramdas Pophale) SiO2 
 PCOD9345511
Probable space group: P N A 21
;
_chemical_formula_sum "Si O2"
_cell_formula_units_Z 32
_cell_length_a 11.065234
_cell_length_b 13.867676
_cell_length_c 8.975725
_cell_angle_alpha 90.000000
_cell_angle_beta 90.000000
_cell_angle_gamma 90.000000
_cell_volume 1377.316743
_symmetry_space_group_name_H-M "P N A 21"
_symmetry_group_IT_number 33
_symmetry_cell_setting 'orthorhombic'
loop_
_space_group_symop_operation_xyz
x,y,z
-x,-y,1/2+z
1/2-x,1/2+y,1/2+z
1/2+x,1/2-y,z
loop_
_atom_site_type_symbol
_atom_site_label
_atom_site_fract_x
_atom_site_fract_y
_atom_site_fract_z
Si Si1 0.480389 0.098274 0.982690
Si Si2 0.224445 0.631705 0.973671
Si Si3 0.558075 0.358153 0.245321
Si Si4 0.875980 0.508931 0.244502
Si Si5 0.160296 0.835660 0.918534
Si Si6 0.737234 0.065597 0.138670
Si Si7 0.553243 0.687436 0.474484
Si Si8 0.600325 0.570825 0.207194
O O1 0.417071 0.200987 0.985573
O O2 0.518175 0.073553 0.813857
O O3 0.401714 0.023724 0.077483
O O4 0.608525 0.097993 0.071484
O O5 0.333033 0.650558 0.857361
O O6 0.128651 0.579642 0.862749
O O7 0.197097 0.742062 0.015381
O O8 0.248467 0.549559 0.099235
O O9 0.445736 0.299761 0.309610
O O10 0.532358 0.472143 0.242485
O O11 0.567459 0.328900 0.073416
O O12 0.742690 0.555861 0.247769
O O13 0.249739 0.893639 0.807553
O O14 0.099200 0.908078 0.033767
O O15 0.843566 0.119584 0.046816
O O16 0.542447 0.653713 0.305929
#
# Coordination Sequence:
#
# PCOD9345511 Si02
#       8
#     4   4   4   4   4   4   4   4
#     4  11  23  41  70  94 129 184 222 279 346 412
#     4  10  21  45  66  96 143 169 234 294 340 422
#     4  10  21  42  68  91 132 183 219 282 341 422
#     4  10  23  43  64  93 133 172 220 280 338 411
#     4  11  24  38  70 100 127 188 231 280 360 413
#     4  10  22  44  66  95 142 176 234 292 343 423
#     4  11  21  41  67  95 131 178 224 279 344 410
#     4  11  23  44  59 100 139 162 228 292 334 413
#
# _framework density 23.23358
#
# number of rings (size 3 to 8) (size 9 to 14) (size 15 to 20)
#    0.000    1.500    3.750    3.000    3.500    3.000 
#    4.500    0.000    0.000    0.000    0.000    0.000 
#    0.000    0.000    0.000    0.000    0.000    0.000 
#
# Total GULP energy -178490.077444 kJ/mol
# GULP energy per Si atom -5577.814920 kJ/mol
# Density = 2.318070 g / cm^3
# Si number density = 23.233580 Si / 1000 Ang^3
#
#
#
# Elastic Constant Matrix: (Units=GPa)
#
#
# Indices 1 2 3 4 5 6 
#
# 1 35.5962 19.2624 -3.3132 0.0000 0.0000 0.0000
# 2 19.2624 100.5637 39.7822 0.0000 0.0000 0.0000
# 3 -3.3132 39.7822 76.8884 0.0000 0.0000 0.0000
# 4 0.0000 0.0000 0.0000 23.5462 0.0000 0.0000
# 5 0.0000 0.0000 0.0000 0.0000 27.3732 0.0000
# 6 0.0000 0.0000 0.0000 0.0000 0.0000 18.4079
#
#
#
# Elastic Compliance Matrix: (Units=1/GPa)
#
#
# Indices 1 2 3 4 5 6 
#
# 1 0.033387 -0.008756 0.005969 0.000000 0.000000 0.000000
# 2 -0.008756 0.014800 -0.008035 0.000000 0.000000 0.000000
# 3 0.005969 -0.008035 0.017420 0.000000 0.000000 0.000000
# 4 0.000000 0.000000 0.000000 0.042470 0.000000 0.000000
# 5 0.000000 0.000000 0.000000 0.000000 0.036532 0.000000
# 6 0.000000 0.000000 0.000000 0.000000 0.000000 0.054325
#
#
# Mechanical properties :
#
#
# Convention : Reuss Voigt Hill
#
# Bulk Modulus (GPa) = 22.74634 36.05677 29.40155
# Shear Modulus (GPa) = 21.25566 24.35323 22.80445
#
# Velocity S-wave (km/s) = 3.02796 3.24109 3.13634
# Velocity P-wave (km/s) = 4.69428 5.43683 5.07914
#
# Compressibility (1/GPa) = 0.04396313
#
# Stress axis : x y z
#
# Youngs Moduli (GPa) = 29.95181 67.56920 57.40449
#
# Poissons Ratio (x) = 0.59167 -0.34266
# Poissons Ratio (y) = 0.26227 0.46123
# Poissons Ratio (z) = -0.17879 0.54290
#
# Static dielectric constant tensor:
#      x y z
#    x 1.946020 0.000000 0.000000 
#    y 0.000000 1.905450 0.000000 
#    z 0.000000 0.000000 1.895900 
# 
# From -- ./inp_files/3915.got.cif
#   From: 2010.05.17/outbox.cif.g08.bks.cpg/sg33_2_cif.got.tgz:3915.got - 2010.06.03 17:15:25.
