data_PCOD9345518
_publ_section_title
;
Structure prediction by ZEFSAII (Michael W. Deem and Ramdas Pophale) SiO2 
 PCOD9345518
Probable space group: P N A 21
;
_chemical_formula_sum "Si O2"
_cell_formula_units_Z 28
_cell_length_a 9.142875
_cell_length_b 16.868188
_cell_length_c 8.333819
_cell_angle_alpha 90.000000
_cell_angle_beta 90.000000
_cell_angle_gamma 90.000000
_cell_volume 1285.272688
_symmetry_space_group_name_H-M "P N A 21"
_symmetry_group_IT_number 33
_symmetry_cell_setting 'orthorhombic'
loop_
_space_group_symop_operation_xyz
x,y,z
-x,-y,1/2+z
1/2-x,1/2+y,1/2+z
1/2+x,1/2-y,z
loop_
_atom_site_type_symbol
_atom_site_label
_atom_site_fract_x
_atom_site_fract_y
_atom_site_fract_z
Si Si1 0.895614 0.374657 0.445980
Si Si2 0.394781 0.850878 0.703800
Si Si3 0.827676 0.982980 0.803944
Si Si4 0.607240 0.576388 0.630774
Si Si5 0.103724 0.520265 0.532479
Si Si6 0.302853 0.157019 0.803187
Si Si7 0.963732 0.774557 0.460402
O O1 0.750296 0.399532 0.349360
O O2 0.849533 0.348606 0.620493
O O3 0.005264 0.318364 0.348150
O O4 0.997804 0.452762 0.466317
O O5 0.242815 0.894208 0.738253
O O6 0.499137 0.916594 0.621680
O O7 0.369001 0.781752 0.576423
O O8 0.719849 0.013639 0.662091
O O9 0.988396 0.973229 0.730067
O O10 0.834204 0.031195 0.970869
O O11 0.526807 0.653750 0.563153
O O12 0.179995 0.572375 0.393463
O O13 0.139807 0.188427 0.825880
O O14 0.411251 0.219148 0.888120
#
# Coordination Sequence:
#
# PCOD9345518 Si02
#       7
#     4   4   4   4   4   4   4
#     4  11  24  43  70 101 131 174 235 275 330 411
#     4  10  23  43  67  96 131 185 220 266 336 405
#     4  11  26  40  68 102 134 174 218 288 344 388
#     4  12  25  45  67 101 139 170 225 281 343 400
#     4  10  21  42  70  97 134 174 223 274 330 401
#     4  11  23  44  70  97 133 179 225 274 337 403
#     4  11  24  45  68  92 138 182 218 272 342 402
#
# _framework density 21.785260999999998
#
# number of rings (size 3 to 8) (size 9 to 14) (size 15 to 20)
#    0.000    1.143    4.286    1.714    6.000    0.000 
#    5.143    0.000    0.000    0.000    0.000    0.000 
#    0.000    0.000    0.000    0.000    0.000    0.000 
#
# Total GULP energy -156510.451611 kJ/mol
# GULP energy per Si atom -5589.658986 kJ/mol
# Density = 2.173568 g / cm^3
# Si number density = 21.785261 Si / 1000 Ang^3
#
#
#
# Elastic Constant Matrix: (Units=GPa)
#
#
# Indices 1 2 3 4 5 6 
#
# 1 104.3803 8.2614 24.5414 0.0000 0.0000 0.0000
# 2 8.2614 37.7499 -0.6759 0.0000 0.0000 0.0000
# 3 24.5414 -0.6759 89.9256 0.0000 0.0000 0.0000
# 4 0.0000 0.0000 0.0000 11.4876 0.0000 0.0000
# 5 0.0000 0.0000 0.0000 0.0000 53.3119 0.0000
# 6 0.0000 0.0000 0.0000 0.0000 0.0000 6.6063
#
#
#
# Elastic Compliance Matrix: (Units=1/GPa)
#
#
# Indices 1 2 3 4 5 6 
#
# 1 0.010439 -0.002336 -0.002866 0.000000 0.000000 0.000000
# 2 -0.002336 0.027016 0.000841 0.000000 0.000000 0.000000
# 3 -0.002866 0.000841 0.011909 0.000000 0.000000 0.000000
# 4 0.000000 0.000000 0.000000 0.087050 0.000000 0.000000
# 5 0.000000 0.000000 0.000000 0.000000 0.018758 0.000000
# 6 0.000000 0.000000 0.000000 0.000000 0.000000 0.151370
#
#
# Mechanical properties :
#
#
# Convention : Reuss Voigt Hill
#
# Bulk Modulus (GPa) = 24.60583 32.92329 28.76456
# Shear Modulus (GPa) = 15.20619 27.60975 21.40797
#
# Velocity S-wave (km/s) = 2.64484 3.56386 3.13818
# Velocity P-wave (km/s) = 4.54380 5.66394 5.13451
#
# Compressibility (1/GPa) = 0.04064077
#
# Stress axis : x y z
#
# Youngs Moduli (GPa) = 95.79285 37.01461 83.97071
#
# Poissons Ratio (x) = 0.08646 0.24070
# Poissons Ratio (y) = 0.22376 -0.07058
# Poissons Ratio (z) = 0.27459 -0.03111
#
# Static dielectric constant tensor:
#      x y z
#    x 1.781920 0.000000 0.000000 
#    y 0.000000 1.784570 0.000000 
#    z 0.000000 0.000000 1.835950 
# 
# From -- ./inp_files/3207.got.cif
#   From: 2010.05.17/outbox.cif.g08.bks.cpg/sg33_2_cif.got.tgz:3207.got - 2010.06.03 17:15:25.
