data_PCOD9345948
_publ_section_title
;
Structure prediction by ZEFSAII (Michael W. Deem and Ramdas Pophale) SiO2 
 PCOD9345948
Probable space group: P N A 21
;
_chemical_formula_sum "Si O2"
_cell_formula_units_Z 28
_cell_length_a 10.694764
_cell_length_b 11.523761
_cell_length_c 9.445634
_cell_angle_alpha 90.000000
_cell_angle_beta 90.000000
_cell_angle_gamma 90.000000
_cell_volume 1164.116813
_symmetry_space_group_name_H-M "P N A 21"
_symmetry_group_IT_number 33
_symmetry_cell_setting 'orthorhombic'
loop_
_space_group_symop_operation_xyz
x,y,z
-x,-y,1/2+z
1/2-x,1/2+y,1/2+z
1/2+x,1/2-y,z
loop_
_atom_site_type_symbol
_atom_site_label
_atom_site_fract_x
_atom_site_fract_y
_atom_site_fract_z
Si Si1 0.992478 0.700376 0.842260
Si Si2 0.080840 0.066047 0.449083
Si Si3 0.651577 0.827480 0.578190
Si Si4 0.608149 0.202983 0.950387
Si Si5 0.138288 0.561948 0.042790
Si Si6 0.543130 0.403256 0.762141
Si Si7 0.698475 0.008414 0.342800
O O1 0.104635 0.659441 0.738539
O O2 0.042831 0.657670 0.992108
O O3 0.860619 0.634600 0.826639
O O4 0.965741 0.834907 0.843388
O O5 0.221055 0.091418 0.498871
O O6 0.009061 0.074725 0.599308
O O7 0.067193 0.946067 0.365209
O O8 0.525544 0.768569 0.519260
O O9 0.774945 0.754953 0.538695
O O10 0.670324 0.947523 0.492008
O O11 0.597685 0.275987 0.803984
O O12 0.614658 0.063592 0.967901
O O13 0.130246 0.555497 0.212096
O O14 0.656973 0.489816 0.806979
#
# Coordination Sequence:
#
# PCOD9345948 Si02
#       7
#     4   4   4   4   4   4   4
#     4  12  25  41  71 101 138 180 231 288 353 418
#     4  11  28  44  69 105 143 179 234 291 354 423
#     4  11  25  40  72  98 139 183 232 285 347 417
#     4  11  23  45  72  98 137 186 235 285 349 416
#     4  11  25  44  70 100 139 179 234 289 349 417
#     4  10  26  46  69 100 141 184 232 291 348 420
#     4  10  22  46  67 100 135 185 234 283 342 423
#
# _framework density 24.052568999999998
#
# number of rings (size 3 to 8) (size 9 to 14) (size 15 to 20)
#    0.000    1.143    2.857    0.857   12.000    2.286 
#    2.571    0.000    0.000    0.000    0.000    0.000 
#    0.000    0.000    0.000    0.000    0.000    0.000 
#
# Total GULP energy -156339.465550 kJ/mol
# GULP energy per Si atom -5583.552341 kJ/mol
# Density = 2.399782 g / cm^3
# Si number density = 24.052569 Si / 1000 Ang^3
#
#
#
# Elastic Constant Matrix: (Units=GPa)
#
#
# Indices 1 2 3 4 5 6 
#
# 1 60.2811 9.4381 -13.1832 0.0000 0.0000 0.0000
# 2 9.4381 74.0893 4.4750 0.0000 0.0000 0.0000
# 3 -13.1832 4.4750 81.0264 0.0000 0.0000 0.0000
# 4 0.0000 0.0000 0.0000 23.9089 0.0000 0.0000
# 5 0.0000 0.0000 0.0000 0.0000 30.8913 0.0000
# 6 0.0000 0.0000 0.0000 0.0000 0.0000 31.7498
#
#
#
# Elastic Compliance Matrix: (Units=1/GPa)
#
#
# Indices 1 2 3 4 5 6 
#
# 1 0.017625 -0.002427 0.003002 0.000000 0.000000 0.000000
# 2 -0.002427 0.013876 -0.001161 0.000000 0.000000 0.000000
# 3 0.003002 -0.001161 0.012894 0.000000 0.000000 0.000000
# 4 0.000000 0.000000 0.000000 0.041825 0.000000 0.000000
# 5 0.000000 0.000000 0.000000 0.000000 0.032372 0.000000
# 6 0.000000 0.000000 0.000000 0.000000 0.000000 0.031496
#
#
# Mechanical properties :
#
#
# Convention : Reuss Voigt Hill
#
# Bulk Modulus (GPa) = 23.13535 24.09517 23.61526
# Shear Modulus (GPa) = 30.18061 31.62114 30.90087
#
# Velocity S-wave (km/s) = 3.54613 3.62977 3.58819
# Velocity P-wave (km/s) = 5.13870 5.25418 5.19676
#
# Compressibility (1/GPa) = 0.04322390
#
# Stress axis : x y z
#
# Youngs Moduli (GPa) = 56.73653 72.06446 77.55445
#
# Poissons Ratio (x) = 0.17487 -0.23280
# Poissons Ratio (y) = 0.13767 0.09005
# Poissons Ratio (z) = -0.17031 0.08368
#
# Static dielectric constant tensor:
#      x y z
#    x 1.932500 0.000000 0.000000 
#    y 0.000000 1.934330 0.000000 
#    z 0.000000 0.000000 2.085190 
# 
# From -- ./inp_files/3839.got.cif
#   From: 2010.05.17/outbox.cif.g08.bks.cpg/sg33_2_cif.got.tgz:3839.got - 2010.06.03 17:15:25.
