data_PCOD9345911
_publ_section_title
;
Structure prediction by ZEFSAII (Michael W. Deem and Ramdas Pophale) SiO2 
 PCOD9345911
Probable space group: P N A 21
;
_chemical_formula_sum "Si O2"
_cell_formula_units_Z 28
_cell_length_a 10.636271
_cell_length_b 12.965216
_cell_length_c 8.438780
_cell_angle_alpha 90.000000
_cell_angle_beta 90.000000
_cell_angle_gamma 90.000000
_cell_volume 1163.720850
_symmetry_space_group_name_H-M "P N A 21"
_symmetry_group_IT_number 33
_symmetry_cell_setting 'orthorhombic'
loop_
_space_group_symop_operation_xyz
x,y,z
-x,-y,1/2+z
1/2-x,1/2+y,1/2+z
1/2+x,1/2-y,z
loop_
_atom_site_type_symbol
_atom_site_label
_atom_site_fract_x
_atom_site_fract_y
_atom_site_fract_z
Si Si1 0.845960 0.484434 0.118950
Si Si2 0.999424 0.723948 0.632698
Si Si3 0.684994 0.146294 0.897376
Si Si4 0.831916 0.233813 0.627348
Si Si5 0.602299 0.513674 0.977533
Si Si6 0.640149 0.563467 0.627992
Si Si7 0.922025 0.684163 0.977413
O O1 0.857505 0.563107 0.266603
O O2 0.701458 0.452322 0.086208
O O3 0.884824 0.563210 0.978957
O O4 0.926353 0.383402 0.129886
O O5 0.915674 0.723612 0.473179
O O6 0.091539 0.820102 0.650365
O O7 0.925728 0.722527 0.798324
O O8 0.800178 0.207840 0.811161
O O9 0.728131 0.075972 0.043910
O O10 0.876399 0.128890 0.541512
O O11 0.690060 0.249655 0.561060
O O12 0.945208 0.307204 0.572788
O O13 0.459602 0.485458 0.008207
O O14 0.635530 0.505821 0.793899
#
# Coordination Sequence:
#
# PCOD9345911 Si02
#       7
#     4   4   4   4   4   4   4
#     4  10  24  46  71  99 149 175 238 290 363 420
#     4  12  25  43  71 104 135 191 233 296 350 437
#     4  10  24  43  66 106 140 178 241 293 351 430
#     4  10  22  45  68 101 144 185 243 290 357 426
#     4  10  22  46  66 101 136 190 228 296 348 425
#     4  12  25  43  72  97 142 182 245 284 357 421
#     4  10  22  44  72  98 144 189 234 293 358 429
#
# _framework density 24.060752000000001
#
# number of rings (size 3 to 8) (size 9 to 14) (size 15 to 20)
#    0.000    1.714    1.429    4.286    6.000    0.000 
#    5.143    0.000    0.000    0.000    0.000    0.000 
#    0.000    0.000    0.000    0.000    0.000    0.000 
#
# Total GULP energy -156484.398480 kJ/mol
# GULP energy per Si atom -5588.728517 kJ/mol
# Density = 2.400599 g / cm^3
# Si number density = 24.060752 Si / 1000 Ang^3
#
#
#
# Elastic Constant Matrix: (Units=GPa)
#
#
# Indices 1 2 3 4 5 6 
#
# 1 70.9597 5.6861 5.3892 0.0000 0.0000 0.0000
# 2 5.6861 30.2082 4.2834 0.0000 0.0000 0.0000
# 3 5.3892 4.2834 96.9339 0.0000 0.0000 0.0000
# 4 0.0000 0.0000 0.0000 20.1563 0.0000 0.0000
# 5 0.0000 0.0000 0.0000 0.0000 35.5509 0.0000
# 6 0.0000 0.0000 0.0000 0.0000 0.0000 29.4758
#
#
#
# Elastic Compliance Matrix: (Units=1/GPa)
#
#
# Indices 1 2 3 4 5 6 
#
# 1 0.014353 -0.002605 -0.000683 0.000000 0.000000 0.000000
# 2 -0.002605 0.033785 -0.001348 0.000000 0.000000 0.000000
# 3 -0.000683 -0.001348 0.010414 0.000000 0.000000 0.000000
# 4 0.000000 0.000000 0.000000 0.049612 0.000000 0.000000
# 5 0.000000 0.000000 0.000000 0.000000 0.028129 0.000000
# 6 0.000000 0.000000 0.000000 0.000000 0.000000 0.033926
#
#
# Mechanical properties :
#
#
# Convention : Reuss Voigt Hill
#
# Bulk Modulus (GPa) = 20.29205 25.42434 22.85820
# Shear Modulus (GPa) = 25.52095 29.21947 27.37021
#
# Velocity S-wave (km/s) = 3.26035 3.48861 3.37641
# Velocity P-wave (km/s) = 4.75659 5.17850 4.97202
#
# Compressibility (1/GPa) = 0.04928039
#
# Stress axis : x y z
#
# Youngs Moduli (GPa) = 69.67137 29.59886 96.02600
#
# Poissons Ratio (x) = 0.07710 0.06557
# Poissons Ratio (y) = 0.18148 0.12945
# Poissons Ratio (z) = 0.04758 0.03990
#
# Static dielectric constant tensor:
#      x y z
#    x 1.964460 0.000000 0.000000 
#    y 0.000000 1.907950 0.000000 
#    z 0.000000 0.000000 1.972860 
# 
# From -- ./inp_files/3899.got.cif
#   From: 2010.05.17/outbox.cif.g08.bks.cpg/sg33_2_cif.got.tgz:3899.got - 2010.06.03 17:15:25.
