data_PCOD9345335
_publ_section_title
;
Structure prediction by ZEFSAII (Michael W. Deem and Ramdas Pophale) SiO2 
 PCOD9345335
Probable space group: P N A 21
;
_chemical_formula_sum "Si O2"
_cell_formula_units_Z 28
_cell_length_a 9.431026
_cell_length_b 15.088175
_cell_length_c 10.576328
_cell_angle_alpha 90.000000
_cell_angle_beta 90.000000
_cell_angle_gamma 90.000000
_cell_volume 1504.979436
_symmetry_space_group_name_H-M "P N A 21"
_symmetry_group_IT_number 33
_symmetry_cell_setting 'orthorhombic'
loop_
_space_group_symop_operation_xyz
x,y,z
-x,-y,1/2+z
1/2-x,1/2+y,1/2+z
1/2+x,1/2-y,z
loop_
_atom_site_type_symbol
_atom_site_label
_atom_site_fract_x
_atom_site_fract_y
_atom_site_fract_z
Si Si1 0.149110 0.360453 0.366870
Si Si2 0.759350 0.926281 0.591556
Si Si3 0.740027 0.748932 0.337482
Si Si4 0.627312 0.770635 0.746167
Si Si5 0.016545 0.189956 0.999712
Si Si6 0.355984 0.897498 0.161771
Si Si7 0.868471 0.438592 0.828178
O O1 0.278905 0.295132 0.332092
O O2 0.119755 0.374277 0.515478
O O3 0.179836 0.459570 0.311952
O O4 0.005164 0.318864 0.311745
O O5 0.727025 0.847543 0.688299
O O6 0.907402 0.904341 0.522522
O O7 0.636291 0.925986 0.482217
O O8 0.752524 0.020324 0.658164
O O9 0.850439 0.750254 0.454474
O O10 0.596259 0.705467 0.389293
O O11 0.797445 0.689333 0.227077
O O12 0.720124 0.850498 0.292443
O O13 0.559486 0.718858 0.627629
O O14 0.488250 0.928618 0.247820
#
# Coordination Sequence:
#
# PCOD9345335 Si02
#       7
#     4   4   4   4   4   4   4
#     4  11  26  38  67  92 134 167 208 261 330 382
#     4  10  21  39  64  93 122 160 222 264 304 386
#     4  11  21  39  70  91 121 166 220 266 309 370
#     4  12  20  41  63  94 124 166 205 261 322 380
#     4  11  20  39  67  92 119 161 222 265 309 374
#     4  11  23  42  63  93 131 170 211 265 324 384
#     4  10  21  42  66  91 119 170 222 256 308 384
#
# _framework density 18.604904000000001
#
# number of rings (size 3 to 8) (size 9 to 14) (size 15 to 20)
#    0.000    1.143    7.143    0.000    2.000    0.000 
#    7.714    0.000    3.143    0.000    0.000    0.000 
#    0.000    0.000    0.000    0.000    0.000    0.000 
#
# Total GULP energy -155929.282912 kJ/mol
# GULP energy per Si atom -5568.902961 kJ/mol
# Density = 1.856256 g / cm^3
# Si number density = 18.604904 Si / 1000 Ang^3
#
#
#
# Elastic Constant Matrix: (Units=GPa)
#
#
# Indices 1 2 3 4 5 6 
#
# 1 46.1332 10.6242 8.4404 0.0000 0.0000 0.0000
# 2 10.6242 115.0339 35.3700 0.0000 0.0000 0.0000
# 3 8.4404 35.3700 54.8225 0.0000 0.0000 0.0000
# 4 0.0000 0.0000 0.0000 27.5014 0.0000 0.0000
# 5 0.0000 0.0000 0.0000 0.0000 21.8010 0.0000
# 6 0.0000 0.0000 0.0000 0.0000 0.0000 23.2427
#
#
#
# Elastic Compliance Matrix: (Units=1/GPa)
#
#
# Indices 1 2 3 4 5 6 
#
# 1 0.022450 -0.001261 -0.002643 0.000000 0.000000 0.000000
# 2 -0.001261 0.010915 -0.006848 0.000000 0.000000 0.000000
# 3 -0.002643 -0.006848 0.023066 0.000000 0.000000 0.000000
# 4 0.000000 0.000000 0.000000 0.036362 0.000000 0.000000
# 5 0.000000 0.000000 0.000000 0.000000 0.045870 0.000000
# 6 0.000000 0.000000 0.000000 0.000000 0.000000 0.043024
#
#
# Mechanical properties :
#
#
# Convention : Reuss Voigt Hill
#
# Bulk Modulus (GPa) = 28.63072 36.09542 32.36307
# Shear Modulus (GPa) = 23.27391 25.27935 24.27663
#
# Velocity S-wave (km/s) = 3.54072 3.69012 3.61619
# Velocity P-wave (km/s) = 5.66902 6.13181 5.90495
#
# Compressibility (1/GPa) = 0.03492752
#
# Stress axis : x y z
#
# Youngs Moduli (GPa) = 44.54290 91.61604 43.35434
#
# Poissons Ratio (x) = 0.11551 0.11459
# Poissons Ratio (y) = 0.05616 0.29689
# Poissons Ratio (z) = 0.11773 0.62739
#
# Static dielectric constant tensor:
#      x y z
#    x 1.671420 0.000000 0.000000 
#    y 0.000000 1.662140 0.000000 
#    z 0.000000 0.000000 1.662890 
# 
# From -- ./inp_files/5899.got.cif
#   From: 2010.05.17/outbox.cif.g08.bks.cpg/sg33_3_cif.got.tgz:5899.got - 2010.06.03 17:15:25.
