data_PCOD9345263
_publ_section_title
;
Structure prediction by ZEFSAII (Michael W. Deem and Ramdas Pophale) SiO2 
 PCOD9345263
Probable space group: P N A 21
;
_chemical_formula_sum "Si O2"
_cell_formula_units_Z 32
_cell_length_a 9.889639
_cell_length_b 11.677370
_cell_length_c 12.727578
_cell_angle_alpha 90.000000
_cell_angle_beta 90.000000
_cell_angle_gamma 90.000000
_cell_volume 1469.844011
_symmetry_space_group_name_H-M "P N A 21"
_symmetry_group_IT_number 33
_symmetry_cell_setting 'orthorhombic'
loop_
_space_group_symop_operation_xyz
x,y,z
-x,-y,1/2+z
1/2-x,1/2+y,1/2+z
1/2+x,1/2-y,z
loop_
_atom_site_type_symbol
_atom_site_label
_atom_site_fract_x
_atom_site_fract_y
_atom_site_fract_z
Si Si1 0.763088 0.658934 0.607930
Si Si2 0.512334 0.505614 0.345126
Si Si3 0.193451 0.529074 0.925003
Si Si4 0.239547 0.258632 0.524572
Si Si5 0.953964 0.382238 0.839736
Si Si6 0.234839 0.415499 0.337009
Si Si7 0.985466 0.192609 0.664259
Si Si8 0.513105 0.306110 0.016927
O O1 0.789663 0.555602 0.525505
O O2 0.810624 0.629731 0.724178
O O3 0.603821 0.681727 0.602466
O O4 0.846665 0.766129 0.564689
O O5 0.667126 0.469980 0.359430
O O6 0.397610 0.410662 0.339917
O O7 0.497737 0.587794 0.244520
O O8 0.478952 0.579346 0.449274
O O9 0.178072 0.656066 0.968965
O O10 0.073201 0.474581 0.857145
O O11 0.184431 0.343778 0.435880
O O12 0.115513 0.205205 0.589943
O O13 0.346639 0.320389 0.600307
O O14 0.815899 0.453523 0.842618
O O15 0.971613 0.308064 0.734531
O O16 0.964276 0.291290 0.934354
#
# Coordination Sequence:
#
# PCOD9345263 Si02
#       8
#     4   4   4   4   4   4   4   4
#     4  10  21  38  60  86 116 154 193 240 294 350
#     4  10  21  40  65  89 114 151 200 248 293 348
#     4  10  21  40  62  88 120 152 195 248 298 352
#     4  12  25  40  58  90 128 160 195 244 298 354
#     4  10  21  40  65  89 114 151 200 248 293 348
#     4  12  25  38  56  86 124 160 193 238 294 352
#     4  11  22  41  66  90 116 157 204 247 294 354
#     4   9  20  39  64  88 112 145 196 249 292 342
#
# _framework density 21.771018000000002
#
# number of rings (size 3 to 8) (size 9 to 14) (size 15 to 20)
#    0.000    1.500    0.000    5.250    0.000    9.000 
#    0.000    2.500    0.000    0.000    0.000    0.000 
#    0.000    0.000    0.000    0.000    0.000    0.000 
#
# Total GULP energy -179013.855377 kJ/mol
# GULP energy per Si atom -5594.182981 kJ/mol
# Density = 2.172147 g / cm^3
# Si number density = 21.771018 Si / 1000 Ang^3
#
#
#
# Elastic Constant Matrix: (Units=GPa)
#
#
# Indices 1 2 3 4 5 6 
#
# 1 66.4960 -16.5012 17.9029 0.0000 0.0000 0.0000
# 2 -16.5012 26.7004 0.7362 0.0000 0.0000 0.0000
# 3 17.9029 0.7362 89.5021 0.0000 0.0000 0.0000
# 4 0.0000 0.0000 0.0000 13.5026 0.0000 0.0000
# 5 0.0000 0.0000 0.0000 0.0000 17.4795 0.0000
# 6 0.0000 0.0000 0.0000 0.0000 0.0000 31.4622
#
#
#
# Elastic Compliance Matrix: (Units=1/GPa)
#
#
# Indices 1 2 3 4 5 6 
#
# 1 0.019036 0.011872 -0.003905 0.000000 0.000000 0.000000
# 2 0.011872 0.044865 -0.002744 0.000000 0.000000 0.000000
# 3 -0.003905 -0.002744 0.011977 0.000000 0.000000 0.000000
# 4 0.000000 0.000000 0.000000 0.074060 0.000000 0.000000
# 5 0.000000 0.000000 0.000000 0.000000 0.057210 0.000000
# 6 0.000000 0.000000 0.000000 0.000000 0.000000 0.031784
#
#
# Mechanical properties :
#
#
# Convention : Reuss Voigt Hill
#
# Bulk Modulus (GPa) = 11.58423 20.77492 16.17958
# Shear Modulus (GPa) = 19.43553 24.52623 21.98088
#
# Velocity S-wave (km/s) = 2.99109 3.36006 3.18093
# Velocity P-wave (km/s) = 4.15468 4.96150 4.57591
#
# Compressibility (1/GPa) = 0.08632425
#
# Stress axis : x y z
#
# Youngs Moduli (GPa) = 52.53180 22.28887 83.49562
#
# Poissons Ratio (x) = -0.26462 0.32608
# Poissons Ratio (y) = -0.62367 0.22910
# Poissons Ratio (z) = 0.20516 0.06116
#
# Static dielectric constant tensor:
#      x y z
#    x 1.765810 0.000000 0.000000 
#    y 0.000000 1.772220 0.000000 
#    z 0.000000 0.000000 1.779210 
# 
# From -- ./inp_files/6022.got.cif
#   From: 2010.05.17/outbox.cif.g08.bks.cpg/sg33_4_cif.got.tgz:6022.got - 2010.06.03 17:15:25.
