data_PCOD9345783
_publ_section_title
;
Structure prediction by ZEFSAII (Michael W. Deem and Ramdas Pophale) SiO2 
 PCOD9345783
Probable space group: P N A 21
;
_chemical_formula_sum "Si O2"
_cell_formula_units_Z 32
_cell_length_a 18.211530
_cell_length_b 4.909112
_cell_length_c 13.033227
_cell_angle_alpha 90.000000
_cell_angle_beta 90.000000
_cell_angle_gamma 90.000000
_cell_volume 1165.202301
_symmetry_space_group_name_H-M "P N A 21"
_symmetry_group_IT_number 33
_symmetry_cell_setting 'orthorhombic'
loop_
_space_group_symop_operation_xyz
x,y,z
-x,-y,1/2+z
1/2-x,1/2+y,1/2+z
1/2+x,1/2-y,z
loop_
_atom_site_type_symbol
_atom_site_label
_atom_site_fract_x
_atom_site_fract_y
_atom_site_fract_z
Si Si1 0.857140 0.160023 0.681690
Si Si2 0.593112 0.294689 0.359218
Si Si3 0.764080 0.506889 0.034926
Si Si4 0.220903 0.991868 0.648310
Si Si5 0.318002 0.235771 0.359934
Si Si6 0.448938 0.194296 0.989393
Si Si7 0.995075 0.525699 0.198194
Si Si8 0.406752 0.732865 0.377774
O O1 0.817566 0.996447 0.590382
O O2 0.803142 0.421721 0.684182
O O3 0.938221 0.275960 0.663000
O O4 0.854847 0.978310 0.785004
O O5 0.566432 0.507547 0.445087
O O6 0.602093 0.016095 0.425106
O O7 0.533517 0.191354 0.274758
O O8 0.789163 0.201996 0.050117
O O9 0.806849 0.716096 0.109543
O O10 0.748252 0.651317 0.928173
O O11 0.190662 0.825506 0.743199
O O12 0.387657 0.419638 0.392849
O O13 0.334216 0.921123 0.379249
O O14 0.534070 0.154099 0.956543
O O15 0.452354 0.128636 0.108690
O O16 0.942206 0.709292 0.267364
#
# Coordination Sequence:
#
# PCOD9345783 Si02
#       8
#     4   4   4   4   4   4   4   4
#     4  10  22  42  66  93 128 169 219 276 308 378
#     4  11  22  40  60  96 134 166 216 270 315 386
#     4  10  23  41  72  97 116 171 219 269 325 368
#     4  10  24  43  66  96 126 161 222 276 318 371
#     4  12  24  45  68  97 129 168 219 267 325 394
#     4  11  25  38  65  98 135 176 218 255 334 396
#     4  11  24  43  66  98 140 171 217 272 327 388
#     4  11  24  40  67  97 132 174 210 271 318 387
#
# _framework density 27.463042000000002
#
# number of rings (size 3 to 8) (size 9 to 14) (size 15 to 20)
#    0.750    0.500    2.500    4.500    5.250    0.000 
#    0.000    3.750    2.750    0.000    0.000    0.000 
#    0.000    0.000    0.000    0.000    0.000    0.000 
#
# Total GULP energy -179109.376380 kJ/mol
# GULP energy per Si atom -5597.168012 kJ/mol
# Density = 2.740053 g / cm^3
# Si number density = 27.463042 Si / 1000 Ang^3
#
#
#
# Elastic Constant Matrix: (Units=GPa)
#
#
# Indices 1 2 3 4 5 6 
#
# 1 60.7153 4.8515 2.2483 0.0000 0.0000 0.0000
# 2 4.8515 142.3643 6.9048 0.0000 0.0000 0.0000
# 3 2.2483 6.9048 109.6794 0.0000 0.0000 0.0000
# 4 0.0000 0.0000 0.0000 42.0028 0.0000 0.0000
# 5 0.0000 0.0000 0.0000 0.0000 34.2708 0.0000
# 6 0.0000 0.0000 0.0000 0.0000 0.0000 34.0200
#
#
#
# Elastic Compliance Matrix: (Units=1/GPa)
#
#
# Indices 1 2 3 4 5 6 
#
# 1 0.016525 -0.000548 -0.000304 0.000000 0.000000 0.000000
# 2 -0.000548 0.007064 -0.000433 0.000000 0.000000 0.000000
# 3 -0.000304 -0.000433 0.009151 0.000000 0.000000 0.000000
# 4 0.000000 0.000000 0.000000 0.023808 0.000000 0.000000
# 5 0.000000 0.000000 0.000000 0.000000 0.029179 0.000000
# 6 0.000000 0.000000 0.000000 0.000000 0.000000 0.029394
#
#
# Mechanical properties :
#
#
# Convention : Reuss Voigt Hill
#
# Bulk Modulus (GPa) = 33.14753 37.86313 35.50533
# Shear Modulus (GPa) = 39.13884 41.97569 40.55726
#
# Velocity S-wave (km/s) = 3.77921 3.91377 3.84708
# Velocity P-wave (km/s) = 5.58026 5.85153 5.71750
#
# Compressibility (1/GPa) = 0.03016816
#
# Stress axis : x y z
#
# Youngs Moduli (GPa) = 60.51294 141.56402 109.27757
#
# Poissons Ratio (x) = 0.07763 0.03325
# Poissons Ratio (y) = 0.03318 0.04737
# Poissons Ratio (z) = 0.01841 0.06136
#
# Static dielectric constant tensor:
#      x y z
#    x 2.280520 0.000000 0.000000 
#    y 0.000000 2.033060 0.000000 
#    z 0.000000 0.000000 2.131190 
# 
# From -- ./inp_files/8311.got.cif
#   From: 2010.05.17/outbox.cif.g08.bks.cpg/sg33_5_cif.got.tgz:8311.got - 2010.06.03 17:15:25.
