data_PCOD9345055
_publ_section_title
;
Structure prediction by ZEFSAII (Michael W. Deem and Ramdas Pophale) SiO2 
 PCOD9345055
Probable space group: P N A 21
;
_chemical_formula_sum "Si O2"
_cell_formula_units_Z 32
_cell_length_a 13.098449
_cell_length_b 20.875112
_cell_length_c 5.226266
_cell_angle_alpha 90.000000
_cell_angle_beta 90.000000
_cell_angle_gamma 90.000000
_cell_volume 1429.026222
_symmetry_space_group_name_H-M "P N A 21"
_symmetry_group_IT_number 33
_symmetry_cell_setting 'orthorhombic'
loop_
_space_group_symop_operation_xyz
x,y,z
-x,-y,1/2+z
1/2-x,1/2+y,1/2+z
1/2+x,1/2-y,z
loop_
_atom_site_type_symbol
_atom_site_label
_atom_site_fract_x
_atom_site_fract_y
_atom_site_fract_z
Si Si1 0.784248 0.896768 0.791100
Si Si2 0.952983 0.667450 0.414921
Si Si3 0.823057 0.029855 0.590818
Si Si4 0.486542 0.595080 0.138014
Si Si5 0.100815 0.797919 0.860539
Si Si6 0.091937 0.193629 0.022987
Si Si7 0.243541 0.893025 0.592715
Si Si8 0.415216 0.158643 0.429173
O O1 0.801985 0.829992 0.638679
O O2 0.678796 0.889826 0.939416
O O3 0.782727 0.957977 0.610050
O O4 0.883877 0.904887 0.970510
O O5 0.912620 0.740920 0.363903
O O6 0.856851 0.628249 0.519666
O O7 0.036874 0.660931 0.642770
O O8 0.001352 0.645247 0.147284
O O9 0.947624 0.031331 0.591473
O O10 0.772902 0.063829 0.345491
O O11 0.796186 0.065954 0.854382
O O12 0.451029 0.627970 0.399627
O O13 0.574054 0.646269 0.056620
O O14 0.178826 0.828519 0.658310
O O15 0.128802 0.730397 0.981148
O O16 0.989026 0.788667 0.739724
#
# Coordination Sequence:
#
# PCOD9345055 Si02
#       8
#     4   4   4   4   4   4   4   4
#     4  11  27  40  67 100 138 186 223 285 344 414
#     4  11  24  44  71  97 136 177 229 292 340 402
#     4  11  26  43  68  99 137 178 236 277 338 420
#     4  10  21  39  64  97 138 172 217 272 353 416
#     4   9  19  39  62  99 135 168 211 280 344 413
#     4  10  20  40  64 102 134 169 217 276 361 416
#     4  11  23  44  68  95 130 184 231 278 342 405
#     4  11  24  43  64 101 136 174 226 288 338 408
#
# _framework density 22.392873000000002
#
# number of rings (size 3 to 8) (size 9 to 14) (size 15 to 20)
#    0.000    1.500    2.500    1.500    5.250    0.000 
#    4.500    2.500    0.000    0.000    0.000    0.000 
#    0.000    0.000    0.000    0.000    0.000    0.000 
#
# Total GULP energy -178502.739416 kJ/mol
# GULP energy per Si atom -5578.210607 kJ/mol
# Density = 2.234191 g / cm^3
# Si number density = 22.392873 Si / 1000 Ang^3
#
#
#
# Elastic Constant Matrix: (Units=GPa)
#
#
# Indices 1 2 3 4 5 6 
#
# 1 91.9231 37.6979 17.1882 0.0000 0.0000 0.0000
# 2 37.6979 68.9892 21.7871 0.0000 0.0000 0.0000
# 3 17.1882 21.7871 82.8515 0.0000 0.0000 0.0000
# 4 0.0000 0.0000 0.0000 20.4276 0.0000 0.0000
# 5 0.0000 0.0000 0.0000 0.0000 35.2400 0.0000
# 6 0.0000 0.0000 0.0000 0.0000 0.0000 20.9141
#
#
#
# Elastic Compliance Matrix: (Units=1/GPa)
#
#
# Indices 1 2 3 4 5 6 
#
# 1 0.014093 -0.007391 -0.000980 0.000000 0.000000 0.000000
# 2 -0.007391 0.019684 -0.003643 0.000000 0.000000 0.000000
# 3 -0.000980 -0.003643 0.013231 0.000000 0.000000 0.000000
# 4 0.000000 0.000000 0.000000 0.048953 0.000000 0.000000
# 5 0.000000 0.000000 0.000000 0.000000 0.028377 0.000000
# 6 0.000000 0.000000 0.000000 0.000000 0.000000 0.047815
#
#
# Mechanical properties :
#
#
# Convention : Reuss Voigt Hill
#
# Bulk Modulus (GPa) = 43.51642 44.12335 43.81988
# Shear Modulus (GPa) = 24.52877 26.45571 25.49224
#
# Velocity S-wave (km/s) = 3.31325 3.44093 3.37769
# Velocity P-wave (km/s) = 5.84056 5.96101 5.90109
#
# Compressibility (1/GPa) = 0.02297983
#
# Stress axis : x y z
#
# Youngs Moduli (GPa) = 70.95643 50.80170 75.57977
#
# Poissons Ratio (x) = 0.37550 0.07407
# Poissons Ratio (y) = 0.52447 0.27533
# Poissons Ratio (z) = 0.06954 0.18507
#
# Static dielectric constant tensor:
#      x y z
#    x 1.827910 0.000000 0.000000 
#    y 0.000000 1.955520 0.000000 
#    z 0.000000 0.000000 1.871450 
# 
# From -- ./inp_files/1090.got.cif
#   From: 2010.05.17/outbox.cif.g08.bks.cpg/sg33_1_cif.got.tgz:1090.got - 2010.06.03 17:15:25.
