data_PCOD9345950
_publ_section_title
;
Structure prediction by ZEFSAII (Michael W. Deem and Ramdas Pophale) SiO2 
 PCOD9345950
Probable space group: P N A 21
;
_chemical_formula_sum "Si O2"
_cell_formula_units_Z 28
_cell_length_a 17.083713
_cell_length_b 7.260948
_cell_length_c 10.245849
_cell_angle_alpha 90.000000
_cell_angle_beta 90.000000
_cell_angle_gamma 90.000000
_cell_volume 1270.935599
_symmetry_space_group_name_H-M "P N A 21"
_symmetry_group_IT_number 33
_symmetry_cell_setting 'orthorhombic'
loop_
_space_group_symop_operation_xyz
x,y,z
-x,-y,1/2+z
1/2-x,1/2+y,1/2+z
1/2+x,1/2-y,z
loop_
_atom_site_type_symbol
_atom_site_label
_atom_site_fract_x
_atom_site_fract_y
_atom_site_fract_z
Si Si1 0.187651 0.021476 0.915160
Si Si2 0.705335 0.241481 0.546314
Si Si3 0.942715 0.274754 0.420358
Si Si4 0.610873 0.148767 0.806434
Si Si5 0.692514 0.017688 0.193669
Si Si6 0.104149 0.164077 0.292041
Si Si7 0.559126 0.751095 0.226064
O O1 0.167107 0.233576 0.900082
O O2 0.107393 0.910687 0.919791
O O3 0.232319 0.955907 0.784556
O O4 0.246388 0.946760 0.023564
O O5 0.646636 0.195944 0.664434
O O6 0.771294 0.394272 0.579346
O O7 0.658388 0.314344 0.420695
O O8 0.895000 0.439547 0.352753
O O9 0.957724 0.306609 0.574695
O O10 0.021228 0.246419 0.337827
O O11 0.520887 0.218840 0.804800
O O12 0.645812 0.208086 0.183895
O O13 0.629873 0.885003 0.267094
O O14 0.088912 0.957511 0.243527
#
# Coordination Sequence:
#
# PCOD9345950 Si02
#       7
#     4   4   4   4   4   4   4
#     4  10  23  45  67 102 137 181 233 290 357 413
#     4  10  22  46  70 100 142 182 240 290 354 430
#     4  12  24  45  69 103 142 182 235 293 354 428
#     4  11  24  44  73 101 141 183 237 295 351 426
#     4  10  23  45  67 102 137 181 233 290 357 413
#     4  11  24  44  73 101 141 183 237 295 351 426
#     4  12  24  45  69 103 142 182 235 293 354 428
#
# _framework density 22.031016000000001
#
# number of rings (size 3 to 8) (size 9 to 14) (size 15 to 20)
#    0.000    1.143    5.714    0.000    0.000    5.714 
#    5.143   10.000    0.000    0.000    0.000    0.000 
#    0.000    0.000    0.000    0.000    0.000    0.000 
#
# Total GULP energy -156387.860537 kJ/mol
# GULP energy per Si atom -5585.280733 kJ/mol
# Density = 2.198087 g / cm^3
# Si number density = 22.031016 Si / 1000 Ang^3
#
#
#
# Elastic Constant Matrix: (Units=GPa)
#
#
# Indices 1 2 3 4 5 6 
#
# 1 87.4300 -6.1568 13.9973 0.0000 0.0000 0.0000
# 2 -6.1568 73.8635 12.4192 0.0000 0.0000 0.0000
# 3 13.9973 12.4192 76.9251 0.0000 0.0000 0.0000
# 4 0.0000 0.0000 0.0000 29.7214 0.0000 0.0000
# 5 0.0000 0.0000 0.0000 0.0000 23.6474 0.0000
# 6 0.0000 0.0000 0.0000 0.0000 0.0000 27.5793
#
#
#
# Elastic Compliance Matrix: (Units=1/GPa)
#
#
# Indices 1 2 3 4 5 6 
#
# 1 0.011919 0.001396 -0.002394 0.000000 0.000000 0.000000
# 2 0.001396 0.014080 -0.002527 0.000000 0.000000 0.000000
# 3 -0.002394 -0.002527 0.013843 0.000000 0.000000 0.000000
# 4 0.000000 0.000000 0.000000 0.033646 0.000000 0.000000
# 5 0.000000 0.000000 0.000000 0.000000 0.042288 0.000000
# 6 0.000000 0.000000 0.000000 0.000000 0.000000 0.036259
#
#
# Mechanical properties :
#
#
# Convention : Reuss Voigt Hill
#
# Bulk Modulus (GPa) = 30.49541 30.97089 30.73315
# Shear Modulus (GPa) = 29.40892 30.72022 30.06457
#
# Velocity S-wave (km/s) = 3.65757 3.73823 3.69812
# Velocity P-wave (km/s) = 5.63109 5.72021 5.67583
#
# Compressibility (1/GPa) = 0.03279182
#
# Stress axis : x y z
#
# Youngs Moduli (GPa) = 83.89722 71.02398 72.23706
#
# Poissons Ratio (x) = -0.09916 0.17295
# Poissons Ratio (y) = -0.11713 0.18255
# Poissons Ratio (z) = 0.20087 0.17949
#
# Static dielectric constant tensor:
#      x y z
#    x 1.776750 0.000000 0.000000 
#    y 0.000000 1.799960 0.000000 
#    z 0.000000 0.000000 1.845010 
# 
# From -- ./inp_files/6978.got.cif
#   From: 2010.05.17/outbox.cif.g08.bks.cpg/sg33_4_cif.got.tgz:6978.got - 2010.06.03 17:15:25.
