data_PCOD9345288
_publ_section_title
;
Structure prediction by ZEFSAII (Michael W. Deem and Ramdas Pophale) SiO2 
 PCOD9345288
Probable space group: P N A 21
;
_chemical_formula_sum "Si O2"
_cell_formula_units_Z 32
_cell_length_a 14.193141
_cell_length_b 13.314469
_cell_length_c 7.987854
_cell_angle_alpha 90.000000
_cell_angle_beta 90.000000
_cell_angle_gamma 90.000000
_cell_volume 1509.497807
_symmetry_space_group_name_H-M "P N A 21"
_symmetry_group_IT_number 33
_symmetry_cell_setting 'orthorhombic'
loop_
_space_group_symop_operation_xyz
x,y,z
-x,-y,1/2+z
1/2-x,1/2+y,1/2+z
1/2+x,1/2-y,z
loop_
_atom_site_type_symbol
_atom_site_label
_atom_site_fract_x
_atom_site_fract_y
_atom_site_fract_z
Si Si1 0.933465 0.030201 0.885080
Si Si2 0.376427 0.495597 0.518077
Si Si3 0.080589 0.599794 0.915086
Si Si4 0.689086 0.013251 0.344435
Si Si5 0.462561 0.692786 0.571339
Si Si6 0.092604 0.281471 0.417274
Si Si7 0.015840 0.589733 0.528879
Si Si8 0.280326 0.615267 0.043860
O O1 0.910112 0.050452 0.693183
O O2 0.950086 0.125780 0.005363
O O3 0.850555 0.962723 0.955776
O O4 0.036906 0.977568 0.891579
O O5 0.273110 0.463814 0.473550
O O6 0.377101 0.617968 0.526875
O O7 0.053917 0.591113 0.719501
O O8 0.000569 0.669917 0.998348
O O9 0.186104 0.636768 0.937851
O O10 0.065797 0.491936 0.001160
O O11 0.603110 0.947595 0.417021
O O12 0.741048 0.944514 0.205361
O O13 0.645999 0.125610 0.323765
O O14 0.447379 0.712990 0.767077
O O15 0.475543 0.800809 0.488853
O O16 0.158087 0.217762 0.542357
#
# Coordination Sequence:
#
# PCOD9345288 Si02
#       8
#     4   4   4   4   4   4   4   4
#     4  10  21  38  64  93 132 164 219 280 336 392
#     4  10  21  42  60  97 133 168 214 287 331 394
#     4  10  22  41  68  91 134 175 220 286 328 409
#     4  11  25  41  64 100 139 176 230 280 337 417
#     4   9  21  41  66  93 129 175 215 273 337 405
#     4  10  23  44  66  97 136 182 227 273 354 409
#     4  10  21  44  62  94 131 176 222 270 342 398
#     4  12  22  41  66  99 128 180 227 275 341 406
#
# _framework density 21.199103999999998
#
# number of rings (size 3 to 8) (size 9 to 14) (size 15 to 20)
#    0.750    1.000    1.250    3.750    0.000    4.000 
#    9.000    0.000    0.000    0.000    0.000    0.000 
#    0.000    0.000    0.000    0.000    0.000    0.000 
#
# Total GULP energy -178257.299329 kJ/mol
# GULP energy per Si atom -5570.540604 kJ/mol
# Density = 2.115085 g / cm^3
# Si number density = 21.199104 Si / 1000 Ang^3
#
#
#
# Elastic Constant Matrix: (Units=GPa)
#
#
# Indices 1 2 3 4 5 6 
#
# 1 83.4667 59.8915 -0.6179 0.0000 0.0000 0.0000
# 2 59.8915 118.9644 28.8581 0.0000 0.0000 0.0000
# 3 -0.6179 28.8581 51.4393 0.0000 0.0000 0.0000
# 4 0.0000 0.0000 0.0000 25.6995 0.0000 0.0000
# 5 0.0000 0.0000 0.0000 0.0000 33.4238 0.0000
# 6 0.0000 0.0000 0.0000 0.0000 0.0000 -3.9238
#
#
#
# Elastic Compliance Matrix: (Units=1/GPa)
#
#
# Indices 1 2 3 4 5 6 
#
# 1 0.020767 -0.012172 0.007078 0.000000 0.000000 0.000000
# 2 -0.012172 0.016864 -0.009607 0.000000 0.000000 0.000000
# 3 0.007078 -0.009607 0.024915 0.000000 0.000000 0.000000
# 4 0.000000 0.000000 0.000000 0.038911 0.000000 0.000000
# 5 0.000000 0.000000 0.000000 0.000000 0.029919 0.000000
# 6 0.000000 0.000000 0.000000 0.000000 0.000000 -0.254857
#
#
# Mechanical properties :
#
#
# Convention : Reuss Voigt Hill
#
# Bulk Modulus (GPa) = 30.17098 47.79264 38.98181
# Shear Modulus (GPa) = -60.21950 22.08915 -19.06517
#
# Velocity S-wave (km/s) = -5.33557 3.23148 -3.00215
# Velocity P-wave (km/s) = 4.86771 6.04292 2.53202
#
# Compressibility (1/GPa) = 0.03314443
#
# Stress axis : x y z
#
# Youngs Moduli (GPa) = 48.15250 59.29660 40.13597
#
# Poissons Ratio (x) = 0.72177 -0.28409
# Poissons Ratio (y) = 0.58612 0.38560
# Poissons Ratio (z) = -0.34083 0.56968
#
# Static dielectric constant tensor:
#      x y z
#    x 1.758370 0.000000 0.000000 
#    y 0.000000 1.821280 0.000000 
#    z 0.000000 0.000000 1.823210 
# 
# From -- ./inp_files/4433.got.cif
#   From: 2010.05.17/outbox.cif.g08.bks.cpg/sg33_3_cif.got.tgz:4433.got - 2010.06.03 17:15:25.
