data_PCOD9345417
_publ_section_title
;
Structure prediction by ZEFSAII (Michael W. Deem and Ramdas Pophale) SiO2 
 PCOD9345417
Probable space group: P N A 21
;
_chemical_formula_sum "Si O2"
_cell_formula_units_Z 28
_cell_length_a 8.957655
_cell_length_b 16.334326
_cell_length_c 7.934410
_cell_angle_alpha 90.000000
_cell_angle_beta 90.000000
_cell_angle_gamma 90.000000
_cell_volume 1160.941107
_symmetry_space_group_name_H-M "P N A 21"
_symmetry_group_IT_number 33
_symmetry_cell_setting 'orthorhombic'
loop_
_space_group_symop_operation_xyz
x,y,z
-x,-y,1/2+z
1/2-x,1/2+y,1/2+z
1/2+x,1/2-y,z
loop_
_atom_site_type_symbol
_atom_site_label
_atom_site_fract_x
_atom_site_fract_y
_atom_site_fract_z
Si Si1 0.926311 0.748639 0.372460
Si Si2 0.561508 0.574136 0.936185
Si Si3 0.933234 0.085613 0.839910
Si Si4 0.230613 0.553532 0.897927
Si Si5 0.733463 0.213290 0.337683
Si Si6 0.164792 0.682005 0.156330
Si Si7 0.442936 0.168716 0.183249
O O1 0.032486 0.826527 0.412680
O O2 0.999221 0.703699 0.212296
O O3 0.957596 0.682628 0.518468
O O4 0.774850 0.792967 0.310364
O O5 0.566887 0.589192 0.136591
O O6 0.562271 0.477380 0.899506
O O7 0.394657 0.595880 0.871496
O O8 0.684323 0.626050 0.841631
O O9 0.780436 0.040803 0.896143
O O10 0.121052 0.582270 0.749040
O O11 0.178317 0.591573 0.075633
O O12 0.781791 0.259106 0.506790
O O13 0.558874 0.200441 0.323379
O O14 0.801395 0.270666 0.191333
#
# Coordination Sequence:
#
# PCOD9345417 Si02
#       7
#     4   4   4   4   4   4   4
#     4  12  23  39  66 101 129 165 225 284 314 383
#     4  10  21  40  69  91 127 169 218 267 326 393
#     4  10  22  40  69  93 128 169 222 261 330 392
#     4   9  21  42  65  94 129 177 212 272 330 398
#     4  11  21  40  65  93 126 183 209 263 332 394
#     4  11  20  39  64  94 125 171 217 260 327 391
#     4  11  24  38  66 100 136 166 227 275 321 389
#
# _framework density 24.118365000000001
#
# number of rings (size 3 to 8) (size 9 to 14) (size 15 to 20)
#    0.857    0.571    2.857    4.286    2.000    1.143 
#    0.000    0.000   12.571    0.000    0.000    0.000 
#    0.000    0.000    0.000    0.000    0.000    0.000 
#
# Total GULP energy -156253.298847 kJ/mol
# GULP energy per Si atom -5580.474959 kJ/mol
# Density = 2.406347 g / cm^3
# Si number density = 24.118365 Si / 1000 Ang^3
#
#
#
# Elastic Constant Matrix: (Units=GPa)
#
#
# Indices 1 2 3 4 5 6 
#
# 1 51.3990 3.8162 -1.7178 0.0000 0.0000 0.0000
# 2 3.8162 53.0545 0.2999 0.0000 0.0000 0.0000
# 3 -1.7178 0.2999 87.8634 0.0000 0.0000 0.0000
# 4 0.0000 0.0000 0.0000 27.4733 0.0000 0.0000
# 5 0.0000 0.0000 0.0000 0.0000 27.3732 0.0000
# 6 0.0000 0.0000 0.0000 0.0000 0.0000 34.3108
#
#
#
# Elastic Compliance Matrix: (Units=1/GPa)
#
#
# Indices 1 2 3 4 5 6 
#
# 1 0.019573 -0.001410 0.000387 0.000000 0.000000 0.000000
# 2 -0.001410 0.018950 -0.000092 0.000000 0.000000 0.000000
# 3 0.000387 -0.000092 0.011389 0.000000 0.000000 0.000000
# 4 0.000000 0.000000 0.000000 0.036399 0.000000 0.000000
# 5 0.000000 0.000000 0.000000 0.000000 0.036532 0.000000
# 6 0.000000 0.000000 0.000000 0.000000 0.000000 0.029145
#
#
# Mechanical properties :
#
#
# Convention : Reuss Voigt Hill
#
# Bulk Modulus (GPa) = 20.97174 21.90151 21.43662
# Shear Modulus (GPa) = 29.39213 30.49269 29.94241
#
# Velocity S-wave (km/s) = 3.49472 3.55955 3.52728
# Velocity P-wave (km/s) = 4.99983 5.09847 5.04939
#
# Compressibility (1/GPa) = 0.04768322
#
# Stress axis : x y z
#
# Youngs Moduli (GPa) = 51.09008 52.76909 87.80251
#
# Poissons Ratio (x) = 0.07441 -0.03402
# Poissons Ratio (y) = 0.07204 0.00810
# Poissons Ratio (z) = -0.01980 0.00487
#
# Static dielectric constant tensor:
#      x y z
#    x 1.933440 0.000000 0.000000 
#    y 0.000000 1.941910 0.000000 
#    z 0.000000 0.000000 2.012060 
# 
# From -- ./inp_files/3359.got.cif
#   From: 2010.05.17/outbox.cif.g08.bks.cpg/sg33_2_cif.got.tgz:3359.got - 2010.06.03 17:15:25.
