data_PCOD9345516
_publ_section_title
;
Structure prediction by ZEFSAII (Michael W. Deem and Ramdas Pophale) SiO2 
 PCOD9345516
Probable space group: P N A 21
;
_chemical_formula_sum "Si O2"
_cell_formula_units_Z 20
_cell_length_a 8.366983
_cell_length_b 9.212853
_cell_length_c 10.729742
_cell_angle_alpha 90.000000
_cell_angle_beta 90.000000
_cell_angle_gamma 90.000000
_cell_volume 827.089119
_symmetry_space_group_name_H-M "P N A 21"
_symmetry_group_IT_number 33
_symmetry_cell_setting 'orthorhombic'
loop_
_space_group_symop_operation_xyz
x,y,z
-x,-y,1/2+z
1/2-x,1/2+y,1/2+z
1/2+x,1/2-y,z
loop_
_atom_site_type_symbol
_atom_site_label
_atom_site_fract_x
_atom_site_fract_y
_atom_site_fract_z
Si Si1 0.472127 0.957974 0.318140
Si Si2 0.718470 0.087490 0.150040
Si Si3 0.576404 0.590560 0.891660
Si Si4 0.213337 0.210967 0.908912
Si Si5 0.242972 0.662017 0.979323
O O1 0.623471 0.871471 0.375521
O O2 0.337785 0.833458 0.308561
O O3 0.542738 0.044184 0.200863
O O4 0.400685 0.074401 0.413542
O O5 0.831035 0.128674 0.264721
O O6 0.718546 0.204498 0.040272
O O7 0.784546 0.933723 0.098616
O O8 0.584322 0.418916 0.912437
O O9 0.397816 0.648667 0.893170
O O10 0.679188 0.676490 0.995746
#
# Coordination Sequence:
#
# PCOD9345516 Si02
#       5
#     4   4   4   4   4
#     4  10  22  42  69 101 134 173 228 273 332 409
#     4  10  24  46  70  97 138 182 216 285 350 388
#     4  11  24  44  69 102 138 179 233 281 337 415
#     4  10  21  42  69  99 132 176 226 272 331 410
#     4  11  25  44  67 103 138 176 233 285 336 414
#
# _framework density 24.181191999999999
#
# number of rings (size 3 to 8) (size 9 to 14) (size 15 to 20)
#    0.000    1.600    0.000    4.800    0.000   12.800 
#    0.000   14.000    0.000    0.000    0.000    0.000 
#    0.000    0.000    0.000    0.000    0.000    0.000 
#
# Total GULP energy -111867.950739 kJ/mol
# GULP energy per Si atom -5593.397537 kJ/mol
# Density = 2.412615 g / cm^3
# Si number density = 24.181192 Si / 1000 Ang^3
#
#
#
# Elastic Constant Matrix: (Units=GPa)
#
#
# Indices 1 2 3 4 5 6 
#
# 1 98.3281 13.1108 30.3874 0.0000 0.0000 0.0000
# 2 13.1108 97.2550 21.0459 0.0000 0.0000 0.0000
# 3 30.3874 21.0459 64.7103 0.0000 0.0000 0.0000
# 4 0.0000 0.0000 0.0000 28.6318 0.0000 0.0000
# 5 0.0000 0.0000 0.0000 0.0000 28.4255 0.0000
# 6 0.0000 0.0000 0.0000 0.0000 0.0000 53.3503
#
#
#
# Elastic Compliance Matrix: (Units=1/GPa)
#
#
# Indices 1 2 3 4 5 6 
#
# 1 0.011913 -0.000425 -0.005456 0.000000 0.000000 0.000000
# 2 -0.000425 0.011076 -0.003403 0.000000 0.000000 0.000000
# 3 -0.005456 -0.003403 0.019122 0.000000 0.000000 0.000000
# 4 0.000000 0.000000 0.000000 0.034926 0.000000 0.000000
# 5 0.000000 0.000000 0.000000 0.000000 0.035180 0.000000
# 6 0.000000 0.000000 0.000000 0.000000 0.000000 0.018744
#
#
# Mechanical properties :
#
#
# Convention : Reuss Voigt Hill
#
# Bulk Modulus (GPa) = 42.47455 43.26460 42.86957
# Shear Modulus (GPa) = 31.77108 35.13147 33.45128
#
# Velocity S-wave (km/s) = 3.62867 3.81575 3.72339
# Velocity P-wave (km/s) = 5.92955 6.11097 6.02095
#
# Compressibility (1/GPa) = 0.02354351
#
# Stress axis : x y z
#
# Youngs Moduli (GPa) = 83.94320 90.28624 52.29549
#
# Poissons Ratio (x) = 0.03840 0.28532
# Poissons Ratio (y) = 0.03570 0.17794
# Poissons Ratio (z) = 0.45798 0.30720
#
# Static dielectric constant tensor:
#      x y z
#    x 1.949060 0.000000 0.000000 
#    y 0.000000 1.932240 0.000000 
#    z 0.000000 0.000000 1.977730 
# 
# From -- ./inp_files/5692.got.cif
#   From: 2010.05.17/outbox.cif.g08.bks.cpg/sg33_3_cif.got.tgz:5692.got - 2010.06.03 17:15:25.
