data_PCOD9345024
_publ_section_title
;
Structure prediction by ZEFSAII (Michael W. Deem and Ramdas Pophale) SiO2 
 PCOD9345024
Probable space group: P N A 21
;
_chemical_formula_sum "Si O2"
_cell_formula_units_Z 32
_cell_length_a 7.810046
_cell_length_b 5.809107
_cell_length_c 27.056537
_cell_angle_alpha 90.000000
_cell_angle_beta 90.000000
_cell_angle_gamma 90.000000
_cell_volume 1227.538657
_symmetry_space_group_name_H-M "P N A 21"
_symmetry_group_IT_number 33
_symmetry_cell_setting 'orthorhombic'
loop_
_space_group_symop_operation_xyz
x,y,z
-x,-y,1/2+z
1/2-x,1/2+y,1/2+z
1/2+x,1/2-y,z
loop_
_atom_site_type_symbol
_atom_site_label
_atom_site_fract_x
_atom_site_fract_y
_atom_site_fract_z
Si Si1 0.662434 0.964141 0.503640
Si Si2 0.126279 0.535094 0.680496
Si Si3 0.259884 0.001705 0.377807
Si Si4 0.493453 0.790518 0.091707
Si Si5 0.041053 0.146672 0.936437
Si Si6 0.954748 0.119205 0.318724
Si Si7 0.322708 0.866657 0.746518
Si Si8 0.175788 0.885786 0.592144
O O1 0.825953 0.995204 0.468985
O O2 0.516383 0.871085 0.467284
O O3 0.690673 0.759248 0.542657
O O4 0.605257 0.162529 0.540397
O O5 0.122139 0.327699 0.641296
O O6 0.257598 0.621237 0.722980
O O7 0.939227 0.517213 0.705404
O O8 0.153300 0.741084 0.641574
O O9 0.370524 0.772610 0.388840
O O10 0.128028 0.000512 0.424193
O O11 0.355317 0.241055 0.363004
O O12 0.117822 0.970897 0.334963
O O13 0.653841 0.957775 0.093465
O O14 0.507618 0.518648 0.090024
O O15 0.837045 0.018267 0.274765
O O16 0.047128 0.329549 0.291104
#
# Coordination Sequence:
#
# PCOD9345024 Si02
#       8
#     4   4   4   4   4   4   4   4
#     4  10  22  44  59  91 133 177 212 267 329 383
#     4  10  20  39  64  88 131 178 210 261 324 377
#     4  10  22  41  68  94 125 169 210 276 331 404
#     4  11  24  38  62  91 135 170 221 264 320 384
#     4  10  22  43  64  90 132 167 217 264 342 402
#     4   9  20  41  69  96 121 162 223 267 333 401
#     4   9  18  36  70  86 127 169 208 258 327 401
#     4  11  24  38  62  94 132 172 219 267 320 390
#
# _framework density 26.068424
#
# number of rings (size 3 to 8) (size 9 to 14) (size 15 to 20)
#    0.000    2.000    2.500    0.000    3.500    4.000 
#    9.000    0.000   41.250    0.000    0.000    0.000 
#    0.000    0.000    0.000    0.000    0.000    0.000 
#
# Total GULP energy -178410.381316 kJ/mol
# GULP energy per Si atom -5575.324416 kJ/mol
# Density = 2.600909 g / cm^3
# Si number density = 26.068424 Si / 1000 Ang^3
#
#
#
# Elastic Constant Matrix: (Units=GPa)
#
#
# Indices 1 2 3 4 5 6 
#
# 1 82.7417 24.4969 30.8134 0.0000 0.0000 0.0000
# 2 24.4969 49.0989 19.7833 0.0000 0.0000 0.0000
# 3 30.8134 19.7833 110.6394 0.0000 0.0000 0.0000
# 4 0.0000 0.0000 0.0000 -5.3642 0.0000 0.0000
# 5 0.0000 0.0000 0.0000 0.0000 55.4424 0.0000
# 6 0.0000 0.0000 0.0000 0.0000 0.0000 40.4740
#
#
#
# Elastic Compliance Matrix: (Units=1/GPa)
#
#
# Indices 1 2 3 4 5 6 
#
# 1 0.015095 -0.006291 -0.003079 0.000000 0.000000 0.000000
# 2 -0.006291 0.024570 -0.002641 0.000000 0.000000 0.000000
# 3 -0.003079 -0.002641 0.010368 0.000000 0.000000 0.000000
# 4 0.000000 0.000000 0.000000 -0.186419 0.000000 0.000000
# 5 0.000000 0.000000 0.000000 0.000000 0.018037 0.000000
# 6 0.000000 0.000000 0.000000 0.000000 0.000000 0.024707
#
#
# Mechanical properties :
#
#
# Convention : Reuss Voigt Hill
#
# Bulk Modulus (GPa) = 38.44561 43.62968 41.03765
# Shear Modulus (GPa) = -82.03480 29.26951 -26.38265
#
# Velocity S-wave (km/s) = -5.61581 3.35445 -3.18473
# Velocity P-wave (km/s) = 5.22205 5.63702 1.50104
#
# Compressibility (1/GPa) = 0.02601077
#
# Stress axis : x y z
#
# Youngs Moduli (GPa) = 66.24736 40.70014 96.44847
#
# Poissons Ratio (x) = 0.25603 0.29698
# Poissons Ratio (y) = 0.41674 0.25476
# Poissons Ratio (z) = 0.20399 0.10750
#
# Static dielectric constant tensor:
#      x y z
#    x 2.134040 0.000000 0.000000 
#    y 0.000000 2.131960 0.000000 
#    z 0.000000 0.000000 2.190540 
# 
# From -- ./inp_files/9384.got.cif
#   From: 2010.05.17/outbox.cif.g08.bks.cpg/sg33_5_cif.got.tgz:9384.got - 2010.06.03 17:15:25.
