data_PCOD9345223
_publ_section_title
;
Structure prediction by ZEFSAII (Michael W. Deem and Ramdas Pophale) SiO2 
 PCOD9345223
Probable space group: P N A 21
;
_chemical_formula_sum "Si O2"
_cell_formula_units_Z 32
_cell_length_a 25.055751
_cell_length_b 13.347024
_cell_length_c 5.015060
_cell_angle_alpha 90.000000
_cell_angle_beta 90.000000
_cell_angle_gamma 90.000000
_cell_volume 1677.134911
_symmetry_space_group_name_H-M "P N A 21"
_symmetry_group_IT_number 33
_symmetry_cell_setting 'orthorhombic'
loop_
_space_group_symop_operation_xyz
x,y,z
-x,-y,1/2+z
1/2-x,1/2+y,1/2+z
1/2+x,1/2-y,z
loop_
_atom_site_type_symbol
_atom_site_label
_atom_site_fract_x
_atom_site_fract_y
_atom_site_fract_z
Si Si1 0.318446 0.518570 0.543100
Si Si2 0.685745 0.920423 0.003583
Si Si3 0.231654 0.680296 0.514234
Si Si4 0.986384 0.866974 0.756705
Si Si5 0.567244 0.953509 0.191717
Si Si6 0.271911 0.417566 0.032108
Si Si7 0.567711 0.458672 0.763451
Si Si8 0.005620 0.634228 0.696706
O O1 0.286309 0.622142 0.589126
O O2 0.285715 0.451986 0.330693
O O3 0.373887 0.537581 0.392042
O O4 0.316651 0.458692 0.823089
O O5 0.718463 0.854284 0.215543
O O6 0.629833 0.940744 0.146727
O O7 0.717927 0.023371 0.955671
O O8 0.687450 0.861196 0.723757
O O9 0.234189 0.799193 0.522987
O O10 0.966040 0.889307 0.461216
O O11 0.995711 0.749211 0.767833
O O12 0.943936 0.912990 0.970247
O O13 0.040533 0.931699 0.787003
O O14 0.538402 0.890475 0.426571
O O15 0.548795 0.069249 0.208289
O O16 0.541684 0.912865 0.923505
#
# Coordination Sequence:
#
# PCOD9345223 Si02
#       8
#     4   4   4   4   4   4   4   4
#     4  10  21  37  57  82 112 145 185 231 277 332
#     4  10  21  37  56  81 112 144 185 231 277 334
#     4  10  21  37  56  82 113 146 186 233 282 335
#     4  10  21  37  56  81 112 145 183 228 274 328
#     4  10  21  37  56  82 112 144 184 228 274 331
#     4  10  21  37  56  81 111 143 183 229 277 330
#     4  10  21  37  56  81 111 143 184 228 274 329
#     4  10  21  37  57  82 113 146 184 228 275 329
#
# _framework density 19.080159999999999
#
# number of rings (size 3 to 8) (size 9 to 14) (size 15 to 20)
#    0.000    2.000    0.000    3.000    0.000    4.000 
#    0.000    3.750    0.000    0.000    0.000    0.000 
#    0.000    0.000    0.000    0.000    0.000    0.000 
#
# Total GULP energy -178432.106548 kJ/mol
# GULP energy per Si atom -5576.003330 kJ/mol
# Density = 1.903673 g / cm^3
# Si number density = 19.080160 Si / 1000 Ang^3
#
#
#
# Elastic Constant Matrix: (Units=GPa)
#
#
# Indices 1 2 3 4 5 6 
#
# 1 66.1702 9.9969 -14.3450 0.0000 0.0000 0.0000
# 2 9.9969 288.5224 65.7199 0.0000 0.0000 0.0000
# 3 -14.3450 65.7199 130.7089 0.0000 0.0000 0.0000
# 4 0.0000 0.0000 0.0000 17.8116 0.0000 0.0000
# 5 0.0000 0.0000 0.0000 0.0000 24.2939 0.0000
# 6 0.0000 0.0000 0.0000 0.0000 0.0000 5.4280
#
#
#
# Elastic Compliance Matrix: (Units=1/GPa)
#
#
# Indices 1 2 3 4 5 6 
#
# 1 0.015764 -0.001062 0.002264 0.000000 0.000000 0.000000
# 2 -0.001062 0.003986 -0.002121 0.000000 0.000000 0.000000
# 3 0.002264 -0.002121 0.008965 0.000000 0.000000 0.000000
# 4 0.000000 0.000000 0.000000 0.056143 0.000000 0.000000
# 5 0.000000 0.000000 0.000000 0.000000 0.041163 0.000000
# 6 0.000000 0.000000 0.000000 0.000000 0.000000 0.184232
#
#
# Mechanical properties :
#
#
# Convention : Reuss Voigt Hill
#
# Bulk Modulus (GPa) = 37.20543 67.57168 52.38855
# Shear Modulus (GPa) = 15.57398 37.77534 26.67466
#
# Velocity S-wave (km/s) = 2.86009 4.45435 3.74308
# Velocity P-wave (km/s) = 5.51803 7.87061 6.79688
#
# Compressibility (1/GPa) = 0.02687780
#
# Stress axis : x y z
#
# Youngs Moduli (GPa) = 63.43662 250.89380 111.54167
#
# Poissons Ratio (x) = 0.26642 -0.25252
# Poissons Ratio (y) = 0.06736 0.23653
# Poissons Ratio (z) = -0.14362 0.53203
#
# Static dielectric constant tensor:
#      x y z
#    x 1.707640 0.000000 0.000000 
#    y 0.000000 1.656400 0.000000 
#    z 0.000000 0.000000 1.641240 
# 
# From -- ./inp_files/2306.got.cif
#   From: 2010.05.17/outbox.cif.g08.bks.cpg/sg33_2_cif.got.tgz:2306.got - 2010.06.03 17:15:25.
