data_PCOD9345241
_publ_section_title
;
Structure prediction by ZEFSAII (Michael W. Deem and Ramdas Pophale) SiO2 
 PCOD9345241
Probable space group: P N A 21
;
_chemical_formula_sum "Si O2"
_cell_formula_units_Z 20
_cell_length_a 4.854118
_cell_length_b 27.571301
_cell_length_c 5.420976
_cell_angle_alpha 90.000000
_cell_angle_beta 90.000000
_cell_angle_gamma 90.000000
_cell_volume 725.512791
_symmetry_space_group_name_H-M "P N A 21"
_symmetry_group_IT_number 33
_symmetry_cell_setting 'orthorhombic'
loop_
_space_group_symop_operation_xyz
x,y,z
-x,-y,1/2+z
1/2-x,1/2+y,1/2+z
1/2+x,1/2-y,z
loop_
_atom_site_type_symbol
_atom_site_label
_atom_site_fract_x
_atom_site_fract_y
_atom_site_fract_z
Si Si1 0.524206 0.640122 0.843360
Si Si2 0.906809 0.715936 0.694452
Si Si3 0.249230 0.044005 0.340150
Si Si4 0.089212 0.837846 0.342679
Si Si5 0.900533 0.559877 0.339378
O O1 0.826852 0.664890 0.824118
O O2 0.498926 0.582432 0.844875
O O3 0.397744 0.658127 0.585065
O O4 0.418256 0.662872 0.095055
O O5 0.176192 0.744264 0.760054
O O6 0.811870 0.703224 0.411040
O O7 0.418147 0.054767 0.591354
O O8 0.194683 0.986538 0.340040
O O9 0.419136 0.054910 0.089022
O O10 0.246387 0.889219 0.335284
#
# Coordination Sequence:
#
# PCOD9345241 Si02
#       5
#     4   4   4   4   4
#     4  10  23  40  63  96 130 178 223 284 335 411
#     4  10  26  46  70 102 136 182 232 290 348 404
#     4  10  21  37  62  95 135 180 225 277 340 411
#     4  10  23  40  63  96 130 178 223 284 335 411
#     4  10  21  37  62  95 135 180 225 277 340 411
#
# _framework density 27.566711000000002
#
# number of rings (size 3 to 8) (size 9 to 14) (size 15 to 20)
#    1.200    0.800    0.000    2.400    2.800    3.200 
#    0.000    0.000    0.000    0.000    0.000    0.000 
#    0.000    0.000    0.000    0.000    0.000    0.000 
#
# Total GULP energy -111819.046512 kJ/mol
# GULP energy per Si atom -5590.952326 kJ/mol
# Density = 2.750397 g / cm^3
# Si number density = 27.566711 Si / 1000 Ang^3
#
#
#
# Elastic Constant Matrix: (Units=GPa)
#
#
# Indices 1 2 3 4 5 6 
#
# 1 80.0798 55.3773 29.1169 0.0000 0.0000 0.0000
# 2 55.3773 152.4813 11.2183 0.0000 0.0000 0.0000
# 3 29.1169 11.2183 210.8061 0.0000 0.0000 0.0000
# 4 0.0000 0.0000 0.0000 46.6748 0.0000 0.0000
# 5 0.0000 0.0000 0.0000 0.0000 30.3124 0.0000
# 6 0.0000 0.0000 0.0000 0.0000 0.0000 55.4022
#
#
#
# Elastic Compliance Matrix: (Units=1/GPa)
#
#
# Indices 1 2 3 4 5 6 
#
# 1 0.017550 -0.006220 -0.002093 0.000000 0.000000 0.000000
# 2 -0.006220 0.008788 0.000391 0.000000 0.000000 0.000000
# 3 -0.002093 0.000391 0.005012 0.000000 0.000000 0.000000
# 4 0.000000 0.000000 0.000000 0.021425 0.000000 0.000000
# 5 0.000000 0.000000 0.000000 0.000000 0.032990 0.000000
# 6 0.000000 0.000000 0.000000 0.000000 0.000000 0.018050
#
#
# Mechanical properties :
#
#
# Convention : Reuss Voigt Hill
#
# Bulk Modulus (GPa) = 64.48563 70.53249 67.50906
# Shear Modulus (GPa) = 40.05586 49.65483 44.85534
#
# Velocity S-wave (km/s) = 3.81603 4.24873 4.03818
# Velocity P-wave (km/s) = 6.54671 7.05057 6.80331
#
# Compressibility (1/GPa) = 0.01550733
#
# Stress axis : x y z
#
# Youngs Moduli (GPa) = 56.98149 113.78927 199.52291
#
# Poissons Ratio (x) = 0.70772 0.41760
# Poissons Ratio (y) = 0.35440 -0.07809
# Poissons Ratio (z) = 0.11926 -0.04454
#
# Static dielectric constant tensor:
#      x y z
#    x 2.178650 0.000000 0.000000 
#    y 0.000000 2.092840 0.000000 
#    z 0.000000 0.000000 2.310420 
# 
# From -- ./inp_files/178.got.cif
#   From: 2010.05.17/outbox.cif.g08.bks.cpg/sg33_1_cif.got.tgz:178.got - 2010.06.03 17:15:25.
