data_PCOD9345561
_publ_section_title
;
Structure prediction by ZEFSAII (Michael W. Deem and Ramdas Pophale) SiO2 
 PCOD9345561
Probable space group: P N A 21
;
_chemical_formula_sum "Si O2"
_cell_formula_units_Z 32
_cell_length_a 14.062654
_cell_length_b 9.215818
_cell_length_c 11.272358
_cell_angle_alpha 90.000000
_cell_angle_beta 90.000000
_cell_angle_gamma 90.000000
_cell_volume 1460.884745
_symmetry_space_group_name_H-M "P N A 21"
_symmetry_group_IT_number 33
_symmetry_cell_setting 'orthorhombic'
loop_
_space_group_symop_operation_xyz
x,y,z
-x,-y,1/2+z
1/2-x,1/2+y,1/2+z
1/2+x,1/2-y,z
loop_
_atom_site_type_symbol
_atom_site_label
_atom_site_fract_x
_atom_site_fract_y
_atom_site_fract_z
Si Si1 0.276984 0.626363 0.407940
Si Si2 0.926426 0.393513 0.979395
Si Si3 0.644207 0.737770 0.706953
Si Si4 0.944045 0.416388 0.605401
Si Si5 0.606611 0.659748 0.962908
Si Si6 0.041289 0.228417 0.800155
Si Si7 0.653638 0.223755 0.141061
Si Si8 0.502281 0.524953 0.639313
O O1 0.164538 0.611359 0.393686
O O2 0.315666 0.467424 0.445214
O O3 0.347018 0.690840 0.308487
O O4 0.295961 0.736973 0.516155
O O5 0.999478 0.274728 0.927366
O O6 0.889198 0.357773 0.112437
O O7 0.985627 0.539563 0.996873
O O8 0.593967 0.731351 0.834332
O O9 0.756746 0.739094 0.728308
O O10 0.607341 0.591605 0.642562
O O11 0.876128 0.288933 0.556569
O O12 0.890197 0.563688 0.639784
O O13 0.009018 0.353931 0.710716
O O14 0.520660 0.568792 0.022587
O O15 0.993468 0.083984 0.749517
O O16 0.572986 0.345382 0.156504
#
# Coordination Sequence:
#
# PCOD9345561 Si02
#       8
#     4   4   4   4   4   4   4   4
#     4  10  21  45  64  89 138 180 218 273 335 413
#     4  11  24  42  68  98 133 180 224 279 347 394
#     4  11  22  40  70  95 131 182 222 276 340 403
#     4  11  24  42  68 103 133 173 228 289 342 399
#     4  10  23  43  65  96 134 173 226 278 330 414
#     4  11  23  43  69  95 136 181 220 279 342 409
#     4  10  22  43  65  95 136 173 226 280 335 403
#     4  10  21  44  67  93 135 182 224 268 343 413
#
# _framework density 21.904534999999999
#
# number of rings (size 3 to 8) (size 9 to 14) (size 15 to 20)
#    0.000    1.500    3.750    0.750    3.500    0.000 
#   18.000    0.000    0.000    0.000    0.000    0.000 
#    0.000    0.000    0.000    0.000    0.000    0.000 
#
# Total GULP energy -178469.563657 kJ/mol
# GULP energy per Si atom -5577.173864 kJ/mol
# Density = 2.185468 g / cm^3
# Si number density = 21.904535 Si / 1000 Ang^3
#
#
#
# Elastic Constant Matrix: (Units=GPa)
#
#
# Indices 1 2 3 4 5 6 
#
# 1 91.8796 23.6633 20.0360 0.0000 0.0000 0.0000
# 2 23.6633 112.9105 26.8656 0.0000 0.0000 0.0000
# 3 20.0360 26.8656 77.8947 0.0000 0.0000 0.0000
# 4 0.0000 0.0000 0.0000 37.0431 0.0000 0.0000
# 5 0.0000 0.0000 0.0000 0.0000 20.7362 0.0000
# 6 0.0000 0.0000 0.0000 0.0000 0.0000 11.8881
#
#
#
# Elastic Compliance Matrix: (Units=1/GPa)
#
#
# Indices 1 2 3 4 5 6 
#
# 1 0.011902 -0.001924 -0.002398 0.000000 0.000000 0.000000
# 2 -0.001924 0.009959 -0.002940 0.000000 0.000000 0.000000
# 3 -0.002398 -0.002940 0.014469 0.000000 0.000000 0.000000
# 4 0.000000 0.000000 0.000000 0.026996 0.000000 0.000000
# 5 0.000000 0.000000 0.000000 0.000000 0.048225 0.000000
# 6 0.000000 0.000000 0.000000 0.000000 0.000000 0.084118
#
#
# Mechanical properties :
#
#
# Convention : Reuss Voigt Hill
#
# Bulk Modulus (GPa) = 45.85804 47.09053 46.47428
# Shear Modulus (GPa) = 22.99264 28.07481 25.53373
#
# Velocity S-wave (km/s) = 3.24338 3.58395 3.41791
# Velocity P-wave (km/s) = 5.91666 6.21860 6.06951
#
# Compressibility (1/GPa) = 0.02180643
#
# Stress axis : x y z
#
# Youngs Moduli (GPa) = 84.01803 100.40846 69.11483
#
# Poissons Ratio (x) = 0.19317 0.16573
# Poissons Ratio (y) = 0.16164 0.20320
# Poissons Ratio (z) = 0.20147 0.29521
#
# Static dielectric constant tensor:
#      x y z
#    x 1.832650 0.000000 0.000000 
#    y 0.000000 1.792290 0.000000 
#    z 0.000000 0.000000 1.871360 
# 
# From -- ./inp_files/6826.got.cif
#   From: 2010.05.17/outbox.cif.g08.bks.cpg/sg33_4_cif.got.tgz:6826.got - 2010.06.03 17:15:25.
