data_PCOD9345057
_publ_section_title
;
Structure prediction by ZEFSAII (Michael W. Deem and Ramdas Pophale) SiO2 
 PCOD9345057
Probable space group: P N A 21
;
_chemical_formula_sum "Si O2"
_cell_formula_units_Z 24
_cell_length_a 8.696984
_cell_length_b 8.875271
_cell_length_c 11.184352
_cell_angle_alpha 90.000000
_cell_angle_beta 90.000000
_cell_angle_gamma 90.000000
_cell_volume 863.298767
_symmetry_space_group_name_H-M "P N A 21"
_symmetry_group_IT_number 33
_symmetry_cell_setting 'orthorhombic'
loop_
_space_group_symop_operation_xyz
x,y,z
-x,-y,1/2+z
1/2-x,1/2+y,1/2+z
1/2+x,1/2-y,z
loop_
_atom_site_type_symbol
_atom_site_label
_atom_site_fract_x
_atom_site_fract_y
_atom_site_fract_z
Si Si1 0.842321 0.385239 0.038070
Si Si2 0.439598 0.683015 0.389997
Si Si3 0.740635 0.957455 0.110676
Si Si4 0.740387 0.576935 0.352843
Si Si5 0.959198 0.723438 0.029341
Si Si6 0.004758 0.356999 0.266562
O O1 0.918813 0.293495 0.148872
O O2 0.665870 0.379434 0.996747
O O3 0.877423 0.561922 0.056052
O O4 0.947401 0.317977 0.931879
O O5 0.559503 0.569926 0.330446
O O6 0.315094 0.766735 0.307826
O O7 0.652649 0.046478 0.217642
O O8 0.902234 0.872999 0.094323
O O9 0.629135 0.819874 0.071448
O O10 0.744858 0.072908 0.997830
O O11 0.857510 0.452877 0.310501
O O12 0.948624 0.736009 0.884105
#
# Coordination Sequence:
#
# PCOD9345057 Si02
#       6
#     4   4   4   4   4   4
#     4  10  21  39  62  92 125 171 218 274 334 407
#     4  10  20  40  64  84 130 166 214 276 322 400
#     4  10  22  41  61  93 136 173 223 286 339 409
#     4  10  21  39  62  92 125 171 218 274 334 407
#     4  10  22  41  61  93 136 173 223 286 339 409
#     4  10  20  42  64  94 130 176 218 266 354 398
#
# _framework density 27.800343000000002
#
# number of rings (size 3 to 8) (size 9 to 14) (size 15 to 20)
#    0.000    2.000    5.000    0.000    2.333    5.333 
#    0.000    1.667    0.000    0.000    0.000    0.000 
#    0.000    0.000    0.000    0.000    0.000    0.000 
#
# Total GULP energy -133917.992947 kJ/mol
# GULP energy per Si atom -5579.916373 kJ/mol
# Density = 2.773707 g / cm^3
# Si number density = 27.800343 Si / 1000 Ang^3
#
#
#
# Elastic Constant Matrix: (Units=GPa)
#
#
# Indices 1 2 3 4 5 6 
#
# 1 148.1426 35.2353 39.5253 0.0000 0.0000 0.0000
# 2 35.2353 61.8736 22.1590 0.0000 0.0000 0.0000
# 3 39.5253 22.1590 156.1219 0.0000 0.0000 0.0000
# 4 0.0000 0.0000 0.0000 11.1314 0.0000 0.0000
# 5 0.0000 0.0000 0.0000 0.0000 35.3572 0.0000
# 6 0.0000 0.0000 0.0000 0.0000 0.0000 53.6373
#
#
#
# Elastic Compliance Matrix: (Units=1/GPa)
#
#
# Indices 1 2 3 4 5 6 
#
# 1 0.008117 -0.004095 -0.001474 0.000000 0.000000 0.000000
# 2 -0.004095 0.019093 -0.001673 0.000000 0.000000 0.000000
# 3 -0.001474 -0.001673 0.007016 0.000000 0.000000 0.000000
# 4 0.000000 0.000000 0.000000 0.089836 0.000000 0.000000
# 5 0.000000 0.000000 0.000000 0.000000 0.028283 0.000000
# 6 0.000000 0.000000 0.000000 0.000000 0.000000 0.018644
#
#
# Mechanical properties :
#
#
# Convention : Reuss Voigt Hill
#
# Bulk Modulus (GPa) = 50.65218 62.21969 56.43593
# Shear Modulus (GPa) = 26.03437 37.97308 32.00372
#
# Velocity S-wave (km/s) = 3.06351 3.69985 3.39661
# Velocity P-wave (km/s) = 5.54734 6.37819 5.97722
#
# Compressibility (1/GPa) = 0.01974249
#
# Stress axis : x y z
#
# Youngs Moduli (GPa) = 123.19156 52.37483 142.53351
#
# Poissons Ratio (x) = 0.21447 0.21008
# Poissons Ratio (y) = 0.50445 0.23850
# Poissons Ratio (z) = 0.18157 0.08764
#
# Static dielectric constant tensor:
#      x y z
#    x 2.209170 0.000000 0.000000 
#    y 0.000000 2.218520 0.000000 
#    z 0.000000 0.000000 2.348090 
# 
# From -- ./inp_files/5825.got.cif
#   From: 2010.05.17/outbox.cif.g08.bks.cpg/sg33_3_cif.got.tgz:5825.got - 2010.06.03 17:15:25.
