data_PCOD9345816
_publ_section_title
;
Structure prediction by ZEFSAII (Michael W. Deem and Ramdas Pophale) SiO2 
 PCOD9345816
Probable space group: P N A 21
;
_chemical_formula_sum "Si O2"
_cell_formula_units_Z 28
_cell_length_a 23.078784
_cell_length_b 10.279378
_cell_length_c 4.987638
_cell_angle_alpha 90.000000
_cell_angle_beta 90.000000
_cell_angle_gamma 90.000000
_cell_volume 1183.245017
_symmetry_space_group_name_H-M "P N A 21"
_symmetry_group_IT_number 33
_symmetry_cell_setting 'orthorhombic'
loop_
_space_group_symop_operation_xyz
x,y,z
-x,-y,1/2+z
1/2-x,1/2+y,1/2+z
1/2+x,1/2-y,z
loop_
_atom_site_type_symbol
_atom_site_label
_atom_site_fract_x
_atom_site_fract_y
_atom_site_fract_z
Si Si1 0.515974 0.081525 0.482180
Si Si2 0.176414 0.867884 0.725125
Si Si3 0.803643 0.572345 0.735977
Si Si4 0.361283 0.825933 0.217845
Si Si5 0.850548 0.290405 0.757257
Si Si6 0.914450 0.937402 0.368551
Si Si7 0.537295 0.669331 0.181828
O O1 0.578044 0.109005 0.621929
O O2 0.484814 0.223433 0.463427
O O3 0.482866 0.987074 0.693280
O O4 0.235567 0.941958 0.789212
O O5 0.189167 0.791560 0.454642
O O6 0.123896 0.968272 0.681885
O O7 0.159455 0.764394 0.957389
O O8 0.822537 0.597480 0.430800
O O9 0.836068 0.438745 0.800439
O O10 0.826277 0.683406 0.939694
O O11 0.377608 0.693545 0.372240
O O12 0.916547 0.256357 0.841656
O O13 0.978179 0.886558 0.297555
O O14 0.927435 0.039869 0.602970
#
# Coordination Sequence:
#
# PCOD9345816 Si02
#       7
#     4   4   4   4   4   4   4
#     4  11  23  41  70 102 139 177 227 282 343 411
#     4  11  26  42  69  95 133 180 231 284 349 407
#     4  12  26  45  70  95 142 180 234 292 337 424
#     4  11  25  44  68 102 134 185 224 282 349 401
#     4  11  24  45  67 102 128 181 228 284 353 410
#     4  10  24  43  69 105 139 184 231 288 347 425
#     4  10  22  42  71  99 143 177 229 288 350 414
#
# _framework density 23.663739
#
# number of rings (size 3 to 8) (size 9 to 14) (size 15 to 20)
#    0.000    1.143    0.000    5.143    4.000   10.286 
#    0.000    0.000    0.000    0.000    0.000    0.000 
#    0.000    0.000    0.000    0.000    0.000    0.000 
#
# Total GULP energy -156273.588163 kJ/mol
# GULP energy per Si atom -5581.199577 kJ/mol
# Density = 2.360988 g / cm^3
# Si number density = 23.663739 Si / 1000 Ang^3
#
#
#
# Elastic Constant Matrix: (Units=GPa)
#
#
# Indices 1 2 3 4 5 6 
#
# 1 90.3551 13.1904 21.4767 0.0000 0.0000 0.0000
# 2 13.1904 74.1191 10.5965 0.0000 0.0000 0.0000
# 3 21.4767 10.5965 72.0676 0.0000 0.0000 0.0000
# 4 0.0000 0.0000 0.0000 22.9675 0.0000 0.0000
# 5 0.0000 0.0000 0.0000 0.0000 24.2802 0.0000
# 6 0.0000 0.0000 0.0000 0.0000 0.0000 24.3856
#
#
#
# Elastic Compliance Matrix: (Units=1/GPa)
#
#
# Indices 1 2 3 4 5 6 
#
# 1 0.012111 -0.001675 -0.003363 0.000000 0.000000 0.000000
# 2 -0.001675 0.014013 -0.001561 0.000000 0.000000 0.000000
# 3 -0.003363 -0.001561 0.015108 0.000000 0.000000 0.000000
# 4 0.000000 0.000000 0.000000 0.043540 0.000000 0.000000
# 5 0.000000 0.000000 0.000000 0.000000 0.041186 0.000000
# 6 0.000000 0.000000 0.000000 0.000000 0.000000 0.041008
#
#
# Mechanical properties :
#
#
# Convention : Reuss Voigt Hill
#
# Bulk Modulus (GPa) = 35.67096 36.34100 36.00598
# Shear Modulus (GPa) = 26.38413 27.07855 26.73134
#
# Velocity S-wave (km/s) = 3.34272 3.38643 3.36465
# Velocity P-wave (km/s) = 5.47770 5.53905 5.50846
#
# Compressibility (1/GPa) = 0.02803401
#
# Stress axis : x y z
#
# Youngs Moduli (GPa) = 82.56774 71.36210 66.19167
#
# Poissons Ratio (x) = 0.11950 0.22260
# Poissons Ratio (y) = 0.13826 0.10335
# Poissons Ratio (z) = 0.27768 0.11142
#
# Static dielectric constant tensor:
#      x y z
#    x 1.950690 0.000000 0.000000 
#    y 0.000000 1.910910 0.000000 
#    z 0.000000 0.000000 1.896370 
# 
# From -- ./inp_files/2213.got.cif
#   From: 2010.05.17/outbox.cif.g08.bks.cpg/sg33_2_cif.got.tgz:2213.got - 2010.06.03 17:15:25.
