data_PCOD9345848
_publ_section_title
;
Structure prediction by ZEFSAII (Michael W. Deem and Ramdas Pophale) SiO2 
 PCOD9345848
Probable space group: P N A 21
;
_chemical_formula_sum "Si O2"
_cell_formula_units_Z 28
_cell_length_a 12.060236
_cell_length_b 15.691026
_cell_length_c 5.540814
_cell_angle_alpha 90.000000
_cell_angle_beta 90.000000
_cell_angle_gamma 90.000000
_cell_volume 1048.529660
_symmetry_space_group_name_H-M "P N A 21"
_symmetry_group_IT_number 33
_symmetry_cell_setting 'orthorhombic'
loop_
_space_group_symop_operation_xyz
x,y,z
-x,-y,1/2+z
1/2-x,1/2+y,1/2+z
1/2+x,1/2-y,z
loop_
_atom_site_type_symbol
_atom_site_label
_atom_site_fract_x
_atom_site_fract_y
_atom_site_fract_z
Si Si1 0.669252 0.507438 0.798750
Si Si2 0.279471 0.652540 0.960944
Si Si3 0.428772 0.007895 0.811364
Si Si4 0.112593 0.656395 0.593590
Si Si5 0.789191 0.196109 0.802312
Si Si6 0.405659 0.766021 0.589349
Si Si7 0.474980 0.394952 0.943176
O O1 0.676740 0.425307 0.616427
O O2 0.800983 0.529849 0.839995
O O3 0.572819 0.464630 0.965930
O O4 0.604519 0.584144 0.669911
O O5 0.193873 0.610514 0.773342
O O6 0.366387 0.701592 0.794109
O O7 0.226506 0.733864 0.096722
O O8 0.496167 0.002615 0.557855
O O9 0.400120 0.107873 0.844728
O O10 0.166437 0.746188 0.526979
O O11 0.994184 0.671825 0.708971
O O12 0.873787 0.119966 0.748350
O O13 0.670087 0.175901 0.916755
O O14 0.463416 0.695994 0.416712
#
# Coordination Sequence:
#
# PCOD9345848 Si02
#       7
#     4   4   4   4   4   4   4
#     4  12  25  49  74 115 167 215 272 344 426 510
#     4  11  21  43  74 103 148 210 261 342 403 491
#     4  12  28  51  78 115 162 226 278 340 419 498
#     4  10  23  43  68 101 145 202 263 334 400 473
#     4  10  22  44  70 104 145 197 263 330 406 487
#     4  10  22  43  68 106 148 188 270 334 403 486
#     4  11  25  45  74 110 157 206 259 336 427 495
#
# _framework density 26.704062
#
# number of rings (size 3 to 8) (size 9 to 14) (size 15 to 20)
#    0.000    1.143    2.857    2.571    4.000    1.143 
#    2.571    0.000    0.000    0.000    0.000    0.000 
#    0.000    0.000    0.000    0.000    0.000    0.000 
#
# Total GULP energy -155872.069887 kJ/mol
# GULP energy per Si atom -5566.859639 kJ/mol
# Density = 2.664328 g / cm^3
# Si number density = 26.704062 Si / 1000 Ang^3
#
#
#
# Elastic Constant Matrix: (Units=GPa)
#
#
# Indices 1 2 3 4 5 6 
#
# 1 147.9775 13.2426 41.1187 0.0000 0.0000 0.0000
# 2 13.2426 56.7873 4.4843 0.0000 0.0000 0.0000
# 3 41.1187 4.4843 64.5591 0.0000 0.0000 0.0000
# 4 0.0000 0.0000 0.0000 43.4946 0.0000 0.0000
# 5 0.0000 0.0000 0.0000 0.0000 18.3140 0.0000
# 6 0.0000 0.0000 0.0000 0.0000 0.0000 30.0800
#
#
#
# Elastic Compliance Matrix: (Units=1/GPa)
#
#
# Indices 1 2 3 4 5 6 
#
# 1 0.008342 -0.001534 -0.005206 0.000000 0.000000 0.000000
# 2 -0.001534 0.017989 -0.000272 0.000000 0.000000 0.000000
# 3 -0.005206 -0.000272 0.018825 0.000000 0.000000 0.000000
# 4 0.000000 0.000000 0.000000 0.022991 0.000000 0.000000
# 5 0.000000 0.000000 0.000000 0.000000 0.054603 0.000000
# 6 0.000000 0.000000 0.000000 0.000000 0.000000 0.033245
#
#
# Mechanical properties :
#
#
# Convention : Reuss Voigt Hill
#
# Bulk Modulus (GPa) = 32.12405 43.00169 37.56287
# Shear Modulus (GPa) = 27.71668 32.40961 30.06315
#
# Velocity S-wave (km/s) = 3.22517 3.48754 3.35892
# Velocity P-wave (km/s) = 5.09163 5.68817 5.39815
#
# Compressibility (1/GPa) = 0.03112932
#
# Stress axis : x y z
#
# Youngs Moduli (GPa) = 119.87822 55.59006 53.12179
#
# Poissons Ratio (x) = 0.08528 0.27658
# Poissons Ratio (y) = 0.18391 0.01447
# Poissons Ratio (z) = 0.62414 0.01514
#
# Static dielectric constant tensor:
#      x y z
#    x 2.421130 0.000000 0.000000 
#    y 0.000000 2.134510 0.000000 
#    z 0.000000 0.000000 2.159980 
# 
# From -- ./inp_files/895.got.cif
#   From: 2010.05.17/outbox.cif.g08.bks.cpg/sg33_1_cif.got.tgz:895.got - 2010.06.03 17:15:25.
