data_PCOD9345598
_publ_section_title
;
Structure prediction by ZEFSAII (Michael W. Deem and Ramdas Pophale) SiO2 
 PCOD9345598
Probable space group: P N A 21
;
_chemical_formula_sum "Si O2"
_cell_formula_units_Z 16
_cell_length_a 15.472904
_cell_length_b 7.512830
_cell_length_c 5.312852
_cell_angle_alpha 90.000000
_cell_angle_beta 90.000000
_cell_angle_gamma 90.000000
_cell_volume 617.594061
_symmetry_space_group_name_H-M "P N A 21"
_symmetry_group_IT_number 33
_symmetry_cell_setting 'orthorhombic'
loop_
_space_group_symop_operation_xyz
x,y,z
-x,-y,1/2+z
1/2-x,1/2+y,1/2+z
1/2+x,1/2-y,z
loop_
_atom_site_type_symbol
_atom_site_label
_atom_site_fract_x
_atom_site_fract_y
_atom_site_fract_z
Si Si1 0.053152 0.946922 0.915000
Si Si2 0.230290 0.117367 0.120689
Si Si3 0.897931 0.463836 0.334669
Si Si4 0.639743 0.056725 0.338294
O O1 0.077883 0.742913 0.844639
O O2 0.143152 0.038607 0.003817
O O3 0.009186 0.028815 0.661350
O O4 0.303166 0.120078 0.898165
O O5 0.291619 0.010763 0.316965
O O6 0.204618 0.285983 0.284021
O O7 0.919545 0.549854 0.597483
O O8 0.917755 0.573692 0.085144
#
# Coordination Sequence:
#
# PCOD9345598 Si02
#       4
#     4   4   4   4
#     4  12  27  44  69 104 152 187 235 310 384 417
#     4  10  23  41  69 104 132 187 243 296 345 434
#     4  10  22  42  65 101 134 181 243 285 343 446
#     4  10  22  35  73  95 134 169 255 287 332 415
#
# _framework density 25.906986
#
# number of rings (size 3 to 8) (size 9 to 14) (size 15 to 20)
#    1.500    0.000    2.500    1.500   10.500    0.000 
#    0.000    5.000    0.000    0.000    0.000    0.000 
#    0.000    0.000    0.000    0.000    0.000    0.000 
#
# Total GULP energy -89146.359815 kJ/mol
# GULP energy per Si atom -5571.647488 kJ/mol
# Density = 2.584802 g / cm^3
# Si number density = 25.906986 Si / 1000 Ang^3
#
#
#
# Elastic Constant Matrix: (Units=GPa)
#
#
# Indices 1 2 3 4 5 6 
#
# 1 147.7655 20.4165 21.3652 0.0000 0.0000 0.0000
# 2 20.4165 66.8429 36.1374 0.0000 0.0000 0.0000
# 3 21.3652 36.1374 213.1477 0.0000 0.0000 0.0000
# 4 0.0000 0.0000 0.0000 61.0565 0.0000 0.0000
# 5 0.0000 0.0000 0.0000 0.0000 -426.4822 0.0000
# 6 0.0000 0.0000 0.0000 0.0000 0.0000 44.1956
#
#
#
# Elastic Compliance Matrix: (Units=1/GPa)
#
#
# Indices 1 2 3 4 5 6 
#
# 1 0.007093 -0.001962 -0.000378 0.000000 0.000000 0.000000
# 2 -0.001962 0.017013 -0.002688 0.000000 0.000000 0.000000
# 3 -0.000378 -0.002688 0.005185 0.000000 0.000000 0.000000
# 4 0.000000 0.000000 0.000000 0.016378 0.000000 0.000000
# 5 0.000000 0.000000 0.000000 0.000000 -0.002345 0.000000
# 6 0.000000 0.000000 0.000000 0.000000 0.000000 0.022627
#
#
# Mechanical properties :
#
#
# Convention : Reuss Voigt Hill
#
# Bulk Modulus (GPa) = 51.98833 64.84380 58.41607
# Shear Modulus (GPa) = 60.66540 -40.92355 9.87092
#
# Velocity S-wave (km/s) = 4.84432 -3.97877 1.95408
# Velocity P-wave (km/s) = 7.16944 1.99407 5.26199
#
# Compressibility (1/GPa) = 0.01923509
#
# Stress axis : x y z
#
# Youngs Moduli (GPa) = 140.97859 58.77927 192.85711
#
# Poissons Ratio (x) = 0.11533 0.07297
# Poissons Ratio (y) = 0.27660 0.51834
# Poissons Ratio (z) = 0.05334 0.15798
#
# Static dielectric constant tensor:
#      x y z
#    x 2.087240 0.000000 0.000000 
#    y 0.000000 1.994160 0.000000 
#    z 0.000000 0.000000 2.257600 
# 
# From -- ./inp_files/1591.got.cif
#   From: 2010.05.17/outbox.cif.g08.bks.cpg/sg33_1_cif.got.tgz:1591.got - 2010.06.03 17:15:25.
