data_PCOD9345355
_publ_section_title
;
Structure prediction by ZEFSAII (Michael W. Deem and Ramdas Pophale) SiO2 
 PCOD9345355
Probable space group: P N A 21
;
_chemical_formula_sum "Si O2"
_cell_formula_units_Z 24
_cell_length_a 15.369907
_cell_length_b 11.882050
_cell_length_c 5.575607
_cell_angle_alpha 90.000000
_cell_angle_beta 90.000000
_cell_angle_gamma 90.000000
_cell_volume 1018.250823
_symmetry_space_group_name_H-M "P N A 21"
_symmetry_group_IT_number 33
_symmetry_cell_setting 'orthorhombic'
loop_
_space_group_symop_operation_xyz
x,y,z
-x,-y,1/2+z
1/2-x,1/2+y,1/2+z
1/2+x,1/2-y,z
loop_
_atom_site_type_symbol
_atom_site_label
_atom_site_fract_x
_atom_site_fract_y
_atom_site_fract_z
Si Si1 0.370645 0.924927 0.141180
Si Si2 0.946393 0.986941 0.049182
Si Si3 0.815530 0.790114 0.033247
Si Si4 0.832519 0.198135 0.204982
Si Si5 0.322724 0.110004 0.834244
Si Si6 0.547687 0.878794 0.956172
O O1 0.336327 0.806099 0.232121
O O2 0.444423 0.881172 0.955655
O O3 0.414657 0.013220 0.318275
O O4 0.303334 0.005906 0.005307
O O5 0.899191 0.867890 0.989177
O O6 0.873617 0.079840 0.126497
O O7 0.004761 0.977838 0.297378
O O8 0.744828 0.880155 0.122011
O O9 0.760014 0.717073 0.840373
O O10 0.906595 0.265978 0.358503
O O11 0.821527 0.274619 0.973576
O O12 0.418857 0.104722 0.726338
#
# Coordination Sequence:
#
# PCOD9345355 Si02
#       6
#     4   4   4   4   4   4
#     4  11  21  39  68  98 134 175 240 297 366 430
#     4  12  30  51  77 113 160 205 257 321 393 462
#     4  11  26  43  74 103 146 201 248 304 382 452
#     4  10  25  46  72 100 148 192 256 305 378 460
#     4  10  23  42  66 101 142 181 244 303 368 442
#     4  10  21  39  67 103 130 182 231 310 363 432
#
# _framework density 23.569831000000001
#
# number of rings (size 3 to 8) (size 9 to 14) (size 15 to 20)
#    0.000    1.333    1.667    2.000    9.333    5.333 
#    0.000    0.000    0.000    0.000    0.000    0.000 
#    0.000    0.000    0.000    0.000    0.000    0.000 
#
# Total GULP energy -133705.644882 kJ/mol
# GULP energy per Si atom -5571.068537 kJ/mol
# Density = 2.351618 g / cm^3
# Si number density = 23.569831 Si / 1000 Ang^3
#
#
#
# Elastic Constant Matrix: (Units=GPa)
#
#
# Indices 1 2 3 4 5 6 
#
# 1 78.0147 52.5856 31.7710 0.0000 0.0000 0.0000
# 2 52.5856 162.5602 23.9793 0.0000 0.0000 0.0000
# 3 31.7710 23.9793 70.4423 0.0000 0.0000 0.0000
# 4 0.0000 0.0000 0.0000 21.7581 0.0000 0.0000
# 5 0.0000 0.0000 0.0000 0.0000 11.6780 0.0000
# 6 0.0000 0.0000 0.0000 0.0000 0.0000 16.4913
#
#
#
# Elastic Compliance Matrix: (Units=1/GPa)
#
#
# Indices 1 2 3 4 5 6 
#
# 1 0.019089 -0.005164 -0.006852 0.000000 0.000000 0.000000
# 2 -0.005164 0.007874 -0.000351 0.000000 0.000000 0.000000
# 3 -0.006852 -0.000351 0.017406 0.000000 0.000000 0.000000
# 4 0.000000 0.000000 0.000000 0.045960 0.000000 0.000000
# 5 0.000000 0.000000 0.000000 0.000000 0.085631 0.000000
# 6 0.000000 0.000000 0.000000 0.000000 0.000000 0.060638
#
#
# Mechanical properties :
#
#
# Convention : Reuss Voigt Hill
#
# Bulk Modulus (GPa) = 50.93024 58.63211 54.78118
# Shear Modulus (GPa) = 18.66524 23.49758 21.08141
#
# Velocity S-wave (km/s) = 2.81715 3.16085 2.99394
# Velocity P-wave (km/s) = 5.67775 6.18476 5.93667
#
# Compressibility (1/GPa) = 0.01963470
#
# Stress axis : x y z
#
# Youngs Moduli (GPa) = 52.38482 127.00073 57.45198
#
# Poissons Ratio (x) = 0.65589 0.39365
# Poissons Ratio (y) = 0.27054 0.02017
# Poissons Ratio (z) = 0.35893 0.04459
#
# Static dielectric constant tensor:
#      x y z
#    x 2.049750 0.000000 0.000000 
#    y 0.000000 1.961810 0.000000 
#    z 0.000000 0.000000 1.946170 
# 
# From -- ./inp_files/1318.got.cif
#   From: 2010.05.17/outbox.cif.g08.bks.cpg/sg33_1_cif.got.tgz:1318.got - 2010.06.03 17:15:25.
