data_PCOD9345071
_publ_section_title
;
Structure prediction by ZEFSAII (Michael W. Deem and Ramdas Pophale) SiO2 
 PCOD9345071
Probable space group: P N A 21
;
_chemical_formula_sum "Si O2"
_cell_formula_units_Z 24
_cell_length_a 9.185809
_cell_length_b 7.046948
_cell_length_c 17.119329
_cell_angle_alpha 90.000000
_cell_angle_beta 90.000000
_cell_angle_gamma 90.000000
_cell_volume 1108.167007
_symmetry_space_group_name_H-M "P N A 21"
_symmetry_group_IT_number 33
_symmetry_cell_setting 'orthorhombic'
loop_
_space_group_symop_operation_xyz
x,y,z
-x,-y,1/2+z
1/2-x,1/2+y,1/2+z
1/2+x,1/2-y,z
loop_
_atom_site_type_symbol
_atom_site_label
_atom_site_fract_x
_atom_site_fract_y
_atom_site_fract_z
Si Si1 0.844874 0.852577 0.712870
Si Si2 0.862334 0.483099 0.796519
Si Si3 0.445162 0.251352 0.493649
Si Si4 0.317257 0.662267 0.889468
Si Si5 0.689416 0.083717 0.598568
Si Si6 0.074651 0.164192 0.737801
O O1 0.882493 0.632674 0.724726
O O2 0.794497 0.912048 0.801445
O O3 0.728094 0.892751 0.645870
O O4 0.982419 0.989684 0.703134
O O5 0.868565 0.619829 0.871193
O O6 0.696998 0.414481 0.794619
O O7 0.970716 0.311974 0.782133
O O8 0.549795 0.396678 0.445308
O O9 0.332643 0.151833 0.434761
O O10 0.550942 0.111223 0.542269
O O11 0.334186 0.357835 0.551673
O O12 0.659051 0.232238 0.668121
#
# Coordination Sequence:
#
# PCOD9345071 Si02
#       6
#     4   4   4   4   4   4
#     4  10  23  39  67 106 129 181 240 287 327 414
#     4  10  25  37  70 103 135 178 231 298 337 404
#     4  10  20  40  66  95 141 191 213 276 377 398
#     4   9  22  39  66 102 132 184 227 285 346 412
#     4  11  21  38  66 100 132 187 227 276 342 421
#     4  12  21  41  65 106 135 171 230 296 339 397
#
# _framework density 21.657385999999999
#
# number of rings (size 3 to 8) (size 9 to 14) (size 15 to 20)
#    1.000    0.667    3.333    1.000    4.667    0.000 
#    0.000    0.000    0.000   36.000    0.000    0.000 
#    0.000    0.000    0.000    0.000    0.000    0.000 
#
# Total GULP energy -133761.552371 kJ/mol
# GULP energy per Si atom -5573.398015 kJ/mol
# Density = 2.160809 g / cm^3
# Si number density = 21.657386 Si / 1000 Ang^3
#
#
#
# Elastic Constant Matrix: (Units=GPa)
#
#
# Indices 1 2 3 4 5 6 
#
# 1 135.3832 23.9568 36.3715 0.0000 0.0000 0.0000
# 2 23.9568 75.4437 -8.8513 0.0000 0.0000 0.0000
# 3 36.3715 -8.8513 80.2017 0.0000 0.0000 0.0000
# 4 0.0000 0.0000 0.0000 25.7791 0.0000 0.0000
# 5 0.0000 0.0000 0.0000 0.0000 38.0061 0.0000
# 6 0.0000 0.0000 0.0000 0.0000 0.0000 12.0781
#
#
#
# Elastic Compliance Matrix: (Units=1/GPa)
#
#
# Indices 1 2 3 4 5 6 
#
# 1 0.009227 -0.003466 -0.004567 0.000000 0.000000 0.000000
# 2 -0.003466 0.014731 0.003197 0.000000 0.000000 0.000000
# 3 -0.004567 0.003197 0.014892 0.000000 0.000000 0.000000
# 4 0.000000 0.000000 0.000000 0.038791 0.000000 0.000000
# 5 0.000000 0.000000 0.000000 0.000000 0.026312 0.000000
# 6 0.000000 0.000000 0.000000 0.000000 0.000000 0.082795
#
#
# Mechanical properties :
#
#
# Convention : Reuss Voigt Hill
#
# Bulk Modulus (GPa) = 34.27057 43.77585 39.02321
# Shear Modulus (GPa) = 24.25495 31.14277 27.69886
#
# Velocity S-wave (km/s) = 3.35018 3.79618 3.58013
# Velocity P-wave (km/s) = 5.55187 6.28263 5.92852
#
# Compressibility (1/GPa) = 0.02917956
#
# Stress axis : x y z
#
# Youngs Moduli (GPa) = 108.38244 67.88622 67.14809
#
# Poissons Ratio (x) = 0.23527 0.30665
# Poissons Ratio (y) = 0.37561 -0.21470
# Poissons Ratio (z) = 0.49495 -0.21706
#
# Static dielectric constant tensor:
#      x y z
#    x 1.804980 0.000000 0.000000 
#    y 0.000000 1.799660 0.000000 
#    z 0.000000 0.000000 1.834320 
# 
# From -- ./inp_files/8911.got.cif
#   From: 2010.05.17/outbox.cif.g08.bks.cpg/sg33_5_cif.got.tgz:8911.got - 2010.06.03 17:15:25.
