data_PCOD9345983
_publ_section_title
;
Structure prediction by ZEFSAII (Michael W. Deem and Ramdas Pophale) SiO2 
 PCOD9345983
Probable space group: P N A 21
;
_chemical_formula_sum "Si O2"
_cell_formula_units_Z 32
_cell_length_a 8.558214
_cell_length_b 11.790737
_cell_length_c 13.083797
_cell_angle_alpha 90.000000
_cell_angle_beta 90.000000
_cell_angle_gamma 90.000000
_cell_volume 1320.255214
_symmetry_space_group_name_H-M "P N A 21"
_symmetry_group_IT_number 33
_symmetry_cell_setting 'orthorhombic'
loop_
_space_group_symop_operation_xyz
x,y,z
-x,-y,1/2+z
1/2-x,1/2+y,1/2+z
1/2+x,1/2-y,z
loop_
_atom_site_type_symbol
_atom_site_label
_atom_site_fract_x
_atom_site_fract_y
_atom_site_fract_z
Si Si1 0.337770 0.408136 0.303220
Si Si2 0.074113 0.284204 0.587098
Si Si3 0.622157 0.413352 0.987995
Si Si4 0.875538 0.414431 0.737147
Si Si5 0.169849 0.763145 0.419936
Si Si6 0.686182 0.024774 0.850689
Si Si7 0.137250 0.197439 0.368055
Si Si8 0.113642 0.907861 0.156180
O O1 0.350301 0.489276 0.403154
O O2 0.260954 0.494550 0.224109
O O3 0.224493 0.303132 0.320603
O O4 0.506293 0.352094 0.293160
O O5 0.057455 0.241065 0.472256
O O6 0.245476 0.336105 0.602616
O O7 0.951218 0.374729 0.631031
O O8 0.034663 0.175115 0.657034
O O9 0.776040 0.335672 0.996703
O O10 0.486995 0.329760 0.948242
O O11 0.582533 0.481938 0.088862
O O12 0.834532 0.306037 0.810990
O O13 0.016131 0.475955 0.800188
O O14 0.297753 0.864536 0.420806
O O15 0.813307 0.057499 0.763466
O O16 0.743719 0.905280 0.893517
#
# Coordination Sequence:
#
# PCOD9345983 Si02
#       8
#     4   4   4   4   4   4   4   4
#     4  11  23  39  66  95 133 173 222 275 342 408
#     4  11  21  40  64  97 133 173 229 281 332 408
#     4  11  22  41  62  94 128 168 223 274 331 401
#     4  10  23  38  64  96 131 170 228 278 333 406
#     4  11  20  38  65  90 125 172 220 269 333 403
#     4  11  22  39  66  95 134 175 218 275 344 408
#     4  12  22  41  67  98 137 180 221 279 349 415
#     4  11  23  40  62  97 135 171 221 287 334 405
#
# _framework density 24.237738
#
# number of rings (size 3 to 8) (size 9 to 14) (size 15 to 20)
#    0.000    1.000    6.250    0.750    0.000    1.000 
#    0.000    3.750    0.000    0.000    0.000    0.000 
#    0.000    0.000    0.000    0.000    0.000    0.000 
#
# Total GULP energy -179042.865855 kJ/mol
# GULP energy per Si atom -5595.089558 kJ/mol
# Density = 2.418257 g / cm^3
# Si number density = 24.237738 Si / 1000 Ang^3
#
#
#
# Elastic Constant Matrix: (Units=GPa)
#
#
# Indices 1 2 3 4 5 6 
#
# 1 97.8492 87.0325 24.9239 0.0000 0.0000 0.0000
# 2 87.0325 181.9423 28.8744 0.0000 0.0000 0.0000
# 3 24.9239 28.8744 34.0513 0.0000 0.0000 0.0000
# 4 0.0000 0.0000 0.0000 35.1527 0.0000 0.0000
# 5 0.0000 0.0000 0.0000 0.0000 21.5298 0.0000
# 6 0.0000 0.0000 0.0000 0.0000 0.0000 71.5305
#
#
#
# Elastic Compliance Matrix: (Units=1/GPa)
#
#
# Indices 1 2 3 4 5 6 
#
# 1 0.019221 -0.008044 -0.007248 0.000000 0.000000 0.000000
# 2 -0.008044 0.009717 -0.002352 0.000000 0.000000 0.000000
# 3 -0.007248 -0.002352 0.036667 0.000000 0.000000 0.000000
# 4 0.000000 0.000000 0.000000 0.028447 0.000000 0.000000
# 5 0.000000 0.000000 0.000000 0.000000 0.046447 0.000000
# 6 0.000000 0.000000 0.000000 0.000000 0.000000 0.013980
#
#
# Mechanical properties :
#
#
# Convention : Reuss Voigt Hill
#
# Bulk Modulus (GPa) = 32.98433 66.16714 49.57573
# Shear Modulus (GPa) = 25.01589 37.17674 31.09632
#
# Velocity S-wave (km/s) = 3.21612 3.92067 3.58574
# Velocity P-wave (km/s) = 5.23732 6.91766 6.13529
#
# Compressibility (1/GPa) = 0.03031743
#
# Stress axis : x y z
#
# Youngs Moduli (GPa) = 52.02715 102.90762 27.27260
#
# Poissons Ratio (x) = 0.82780 0.19766
# Poissons Ratio (y) = 0.41851 0.06415
# Poissons Ratio (z) = 0.37707 0.24206
#
# Static dielectric constant tensor:
#      x y z
#    x 2.024850 0.000000 0.000000 
#    y 0.000000 1.928990 0.000000 
#    z 0.000000 0.000000 1.918420 
# 
# From -- ./inp_files/7667.got.cif
#   From: 2010.05.17/outbox.cif.g08.bks.cpg/sg33_4_cif.got.tgz:7667.got - 2010.06.03 17:15:25.
