data_PCOD9345508
_publ_section_title
;
Structure prediction by ZEFSAII (Michael W. Deem and Ramdas Pophale) SiO2 
 PCOD9345508
Probable space group: P N A 21
;
_chemical_formula_sum "Si O2"
_cell_formula_units_Z 28
_cell_length_a 4.882341
_cell_length_b 17.495051
_cell_length_c 13.275094
_cell_angle_alpha 90.000000
_cell_angle_beta 90.000000
_cell_angle_gamma 90.000000
_cell_volume 1133.916113
_symmetry_space_group_name_H-M "P N A 21"
_symmetry_group_IT_number 33
_symmetry_cell_setting 'orthorhombic'
loop_
_space_group_symop_operation_xyz
x,y,z
-x,-y,1/2+z
1/2-x,1/2+y,1/2+z
1/2+x,1/2-y,z
loop_
_atom_site_type_symbol
_atom_site_label
_atom_site_fract_x
_atom_site_fract_y
_atom_site_fract_z
Si Si1 0.356618 0.800387 0.550380
Si Si2 0.894692 0.125652 0.878078
Si Si3 0.807843 0.450118 0.040113
Si Si4 0.475629 0.298160 0.683927
Si Si5 0.167366 0.017283 0.263152
Si Si6 0.650302 0.068901 0.369678
Si Si7 0.476874 0.698169 0.960010
O O1 0.572791 0.736570 0.584808
O O2 0.299355 0.811434 0.430316
O O3 0.470670 0.885109 0.572100
O O4 0.058881 0.158782 0.784243
O O5 0.730362 0.058016 0.822923
O O6 0.084823 0.092954 0.968302
O O7 0.690033 0.481723 0.144062
O O8 0.907029 0.520655 0.971534
O O9 0.654967 0.221249 0.684883
O O10 0.523088 0.333654 0.574663
O O11 0.367495 0.081487 0.310914
O O12 0.852085 0.022549 0.295184
O O13 0.851642 0.138486 0.395417
O O14 0.165318 0.725582 0.948138
#
# Coordination Sequence:
#
# PCOD9345508 Si02
#       7
#     4   4   4   4   4   4   4
#     4  12  24  41  68  97 137 184 227 283 351 410
#     4  11  23  43  66 101 133 182 221 296 347 410
#     4  11  26  46  69 102 142 184 234 286 356 419
#     4  10  22  35  61  96 128 165 214 270 347 410
#     4  11  26  42  70  97 133 178 241 275 344 425
#     4  11  24  45  69  99 132 182 227 292 343 415
#     4  10  21  42  67  96 131 173 224 288 348 403
#
# _framework density 24.693185
#
# number of rings (size 3 to 8) (size 9 to 14) (size 15 to 20)
#    0.000    1.143    2.857    2.571    4.000    0.000 
#    0.000    7.143    0.000    0.000    0.000    0.000 
#    0.000    0.000    0.000    0.000    0.000    0.000 
#
# Total GULP energy -156232.458404 kJ/mol
# GULP energy per Si atom -5579.730657 kJ/mol
# Density = 2.463698 g / cm^3
# Si number density = 24.693185 Si / 1000 Ang^3
#
#
#
# Elastic Constant Matrix: (Units=GPa)
#
#
# Indices 1 2 3 4 5 6 
#
# 1 113.6813 2.5278 17.3734 0.0000 0.0000 0.0000
# 2 2.5278 27.0643 5.6281 0.0000 0.0000 0.0000
# 3 17.3734 5.6281 69.7441 0.0000 0.0000 0.0000
# 4 0.0000 0.0000 0.0000 20.2951 0.0000 0.0000
# 5 0.0000 0.0000 0.0000 0.0000 22.0467 0.0000
# 6 0.0000 0.0000 0.0000 0.0000 0.0000 208.7767
#
#
#
# Elastic Compliance Matrix: (Units=1/GPa)
#
#
# Indices 1 2 3 4 5 6 
#
# 1 0.009149 -0.000387 -0.002248 0.000000 0.000000 0.000000
# 2 -0.000387 0.037596 -0.002937 0.000000 0.000000 0.000000
# 3 -0.002248 -0.002937 0.015135 0.000000 0.000000 0.000000
# 4 0.000000 0.000000 0.000000 0.049273 0.000000 0.000000
# 5 0.000000 0.000000 0.000000 0.000000 0.045358 0.000000
# 6 0.000000 0.000000 0.000000 0.000000 0.000000 0.004790
#
#
# Mechanical properties :
#
#
# Convention : Reuss Voigt Hill
#
# Bulk Modulus (GPa) = 19.71014 29.06091 24.38553
# Shear Modulus (GPa) = 26.40515 62.55440 44.47978
#
# Velocity S-wave (km/s) = 3.27361 5.03862 4.24877
# Velocity P-wave (km/s) = 4.72102 6.75608 5.82806
#
# Compressibility (1/GPa) = 0.05073531
#
# Stress axis : x y z
#
# Youngs Moduli (GPa) = 109.30593 26.59860 66.07171
#
# Poissons Ratio (x) = 0.01030 0.14851
# Poissons Ratio (y) = 0.04231 0.19408
# Poissons Ratio (z) = 0.24569 0.07813
#
# Static dielectric constant tensor:
#      x y z
#    x 1.977000 0.000000 0.000000 
#    y 0.000000 2.093160 0.000000 
#    z 0.000000 0.000000 1.941910 
# 
# From -- ./inp_files/5485.got.cif
#   From: 2010.05.17/outbox.cif.g08.bks.cpg/sg33_3_cif.got.tgz:5485.got - 2010.06.03 17:15:25.
