data_PCOD9345573
_publ_section_title
;
Structure prediction by ZEFSAII (Michael W. Deem and Ramdas Pophale) SiO2 
 PCOD9345573
Probable space group: P N A 21
;
_chemical_formula_sum "Si O2"
_cell_formula_units_Z 32
_cell_length_a 13.614369
_cell_length_b 11.632112
_cell_length_c 9.250882
_cell_angle_alpha 90.000000
_cell_angle_beta 90.000000
_cell_angle_gamma 90.000000
_cell_volume 1465.005428
_symmetry_space_group_name_H-M "P N A 21"
_symmetry_group_IT_number 33
_symmetry_cell_setting 'orthorhombic'
loop_
_space_group_symop_operation_xyz
x,y,z
-x,-y,1/2+z
1/2-x,1/2+y,1/2+z
1/2+x,1/2-y,z
loop_
_atom_site_type_symbol
_atom_site_label
_atom_site_fract_x
_atom_site_fract_y
_atom_site_fract_z
Si Si1 0.745294 0.169829 0.237520
Si Si2 0.441080 0.242388 0.334944
Si Si3 0.978217 0.988759 0.746077
Si Si4 0.822439 0.430206 0.860267
Si Si5 0.512713 0.139678 0.035289
Si Si6 0.645840 0.916232 0.041309
Si Si7 0.861353 0.843506 0.540190
Si Si8 0.144138 0.990613 0.523849
O O1 0.825557 0.230898 0.333703
O O2 0.674707 0.264809 0.173254
O O3 0.697886 0.064363 0.323695
O O4 0.807974 0.119928 0.101962
O O5 0.490170 0.366525 0.319451
O O6 0.473942 0.170309 0.195487
O O7 0.440808 0.160588 0.472180
O O8 0.907573 0.955821 0.612665
O O9 0.917446 0.041399 0.880050
O O10 0.073479 0.036773 0.656922
O O11 0.837591 0.374869 0.703898
O O12 0.728146 0.378164 0.939837
O O13 0.919958 0.408252 0.950105
O O14 0.557660 0.258390 0.971465
O O15 0.597898 0.044149 0.039004
O O16 0.759204 0.933450 0.985593
#
# Coordination Sequence:
#
# PCOD9345573 Si02
#       8
#     4   4   4   4   4   4   4   4
#     4  10  21  45  66  91 142 170 220 284 335 408
#     4  10  22  43  67  94 131 183 220 271 342 405
#     4  10  24  40  68  95 126 179 223 270 331 411
#     4  11  24  42  69 100 130 184 224 285 341 407
#     4  11  22  42  72  96 132 181 229 274 350 408
#     4  11  23  43  65  98 139 167 224 292 327 402
#     4  11  22  43  69  94 132 180 224 274 352 402
#     4  10  22  42  66  92 130 172 216 276 334 389
#
# _framework density 21.842922000000002
#
# number of rings (size 3 to 8) (size 9 to 14) (size 15 to 20)
#    0.000    1.500    3.750    1.500    7.000    0.000 
#    6.750    1.250    0.000    0.000    0.000    0.000 
#    0.000    0.000    0.000    0.000    0.000    0.000 
#
# Total GULP energy -178364.483070 kJ/mol
# GULP energy per Si atom -5573.890096 kJ/mol
# Density = 2.179321 g / cm^3
# Si number density = 21.842922 Si / 1000 Ang^3
#
#
#
# Elastic Constant Matrix: (Units=GPa)
#
#
# Indices 1 2 3 4 5 6 
#
# 1 138.2873 29.9123 55.9562 0.0000 0.0000 0.0000
# 2 29.9123 34.9299 17.5781 0.0000 0.0000 0.0000
# 3 55.9562 17.5781 61.7919 0.0000 0.0000 0.0000
# 4 0.0000 0.0000 0.0000 27.0726 0.0000 0.0000
# 5 0.0000 0.0000 0.0000 0.0000 10.4364 0.0000
# 6 0.0000 0.0000 0.0000 0.0000 0.0000 18.1299
#
#
#
# Elastic Compliance Matrix: (Units=1/GPa)
#
#
# Indices 1 2 3 4 5 6 
#
# 1 0.012335 -0.005767 -0.009529 0.000000 0.000000 0.000000
# 2 -0.005767 0.036109 -0.005049 0.000000 0.000000 0.000000
# 3 -0.009529 -0.005049 0.026249 0.000000 0.000000 0.000000
# 4 0.000000 0.000000 0.000000 0.036938 0.000000 0.000000
# 5 0.000000 0.000000 0.000000 0.000000 0.095818 0.000000
# 6 0.000000 0.000000 0.000000 0.000000 0.000000 0.055157
#
#
# Mechanical properties :
#
#
# Convention : Reuss Voigt Hill
#
# Bulk Modulus (GPa) = 29.41111 49.10027 39.25569
# Shear Modulus (GPa) = 15.89166 19.89863 17.89514
#
# Velocity S-wave (km/s) = 2.70023 3.02153 2.86539
# Velocity P-wave (km/s) = 4.81827 5.89071 5.38127
#
# Compressibility (1/GPa) = 0.03400076
#
# Stress axis : x y z
#
# Youngs Moduli (GPa) = 81.07233 27.69417 38.09694
#
# Poissons Ratio (x) = 0.15972 0.36303
# Poissons Ratio (y) = 0.46758 0.19236
# Poissons Ratio (z) = 0.77254 0.13983
#
# Static dielectric constant tensor:
#      x y z
#    x 1.872740 0.000000 0.000000 
#    y 0.000000 1.842680 0.000000 
#    z 0.000000 0.000000 1.823280 
# 
# From -- ./inp_files/4396.got.cif
#   From: 2010.05.17/outbox.cif.g08.bks.cpg/sg33_3_cif.got.tgz:4396.got - 2010.06.03 17:15:25.
