data_PCOD9345902
_publ_section_title
;
Structure prediction by ZEFSAII (Michael W. Deem and Ramdas Pophale) SiO2 
 PCOD9345902
Probable space group: P N A 21
;
_chemical_formula_sum "Si O2"
_cell_formula_units_Z 32
_cell_length_a 11.991895
_cell_length_b 6.581223
_cell_length_c 18.241864
_cell_angle_alpha 90.000000
_cell_angle_beta 90.000000
_cell_angle_gamma 90.000000
_cell_volume 1439.672263
_symmetry_space_group_name_H-M "P N A 21"
_symmetry_group_IT_number 33
_symmetry_cell_setting 'orthorhombic'
loop_
_space_group_symop_operation_xyz
x,y,z
-x,-y,1/2+z
1/2-x,1/2+y,1/2+z
1/2+x,1/2-y,z
loop_
_atom_site_type_symbol
_atom_site_label
_atom_site_fract_x
_atom_site_fract_y
_atom_site_fract_z
Si Si1 0.076650 0.120050 0.002650
Si Si2 0.031760 0.536660 0.407340
Si Si3 0.189948 0.382857 0.703062
Si Si4 0.293583 0.764000 0.636307
Si Si5 0.310396 0.008883 0.769765
Si Si6 0.116986 0.083481 0.596989
Si Si7 0.225946 0.311762 0.473326
Si Si8 0.333340 0.180062 0.339595
O O1 0.134493 0.266594 0.062979
O O2 0.984124 0.991596 0.047063
O O3 0.026158 0.261571 0.938758
O O4 0.170353 0.964927 0.974210
O O5 0.106664 0.563443 0.334994
O O6 0.115737 0.448757 0.467644
O O7 0.943810 0.362492 0.385733
O O8 0.255527 0.534920 0.650219
O O9 0.095893 0.256736 0.658432
O O10 0.160397 0.515134 0.774597
O O11 0.273822 0.210867 0.729917
O O12 0.355739 0.852690 0.708123
O O13 0.178670 0.889750 0.631310
O O14 0.201056 0.893757 0.802978
O O15 0.211774 0.177706 0.544492
O O16 0.236572 0.167136 0.401678
#
# Coordination Sequence:
#
# PCOD9345902 Si02
#       8
#     4   4   4   4   4   4   4   4
#     4  12  25  41  76 102 139 189 236 296 363 423
#     4  11  25  43  70 105 136 186 233 288 357 435
#     4  10  22  44  69  98 144 184 234 298 351 419
#     4  10  22  45  66 102 141 183 232 295 349 418
#     4   9  23  43  68  98 143 182 234 291 353 420
#     4  11  24  43  71  99 135 184 235 288 355 424
#     4  11  24  47  66 100 144 174 236 295 354 427
#     4  10  23  42  70  96 136 184 232 285 354 426
#
# _framework density 22.227281999999999
#
# number of rings (size 3 to 8) (size 9 to 14) (size 15 to 20)
#    0.000    1.500    1.250    2.250    5.250    4.000 
#    2.250    0.000    0.000    0.000    0.000    0.000 
#    0.000    0.000    0.000    0.000    0.000    0.000 
#
# Total GULP energy -178668.182715 kJ/mol
# GULP energy per Si atom -5583.380710 kJ/mol
# Density = 2.217669 g / cm^3
# Si number density = 22.227282 Si / 1000 Ang^3
#
#
#
# Elastic Constant Matrix: (Units=GPa)
#
#
# Indices 1 2 3 4 5 6 
#
# 1 80.9474 50.4499 24.1764 0.0000 0.0000 0.0000
# 2 50.4499 102.8950 37.8709 0.0000 0.0000 0.0000
# 3 24.1764 37.8709 89.3436 0.0000 0.0000 0.0000
# 4 0.0000 0.0000 0.0000 34.8186 0.0000 0.0000
# 5 0.0000 0.0000 0.0000 0.0000 33.0536 0.0000
# 6 0.0000 0.0000 0.0000 0.0000 0.0000 22.3588
#
#
#
# Elastic Compliance Matrix: (Units=1/GPa)
#
#
# Indices 1 2 3 4 5 6 
#
# 1 0.017923 -0.008297 -0.001333 0.000000 0.000000 0.000000
# 2 -0.008297 0.015356 -0.004264 0.000000 0.000000 0.000000
# 3 -0.001333 -0.004264 0.013361 0.000000 0.000000 0.000000
# 4 0.000000 0.000000 0.000000 0.028720 0.000000 0.000000
# 5 0.000000 0.000000 0.000000 0.000000 0.030254 0.000000
# 6 0.000000 0.000000 0.000000 0.000000 0.000000 0.044725
#
#
# Mechanical properties :
#
#
# Convention : Reuss Voigt Hill
#
# Bulk Modulus (GPa) = 53.04519 55.35337 54.19928
# Shear Modulus (GPa) = 27.11335 28.75880 27.93608
#
# Velocity S-wave (km/s) = 3.49639 3.60092 3.54904
# Velocity P-wave (km/s) = 6.34163 6.49971 6.42116
#
# Compressibility (1/GPa) = 0.01885185
#
# Stress axis : x y z
#
# Youngs Moduli (GPa) = 55.79450 65.12069 74.84561
#
# Poissons Ratio (x) = 0.54031 0.09977
# Poissons Ratio (y) = 0.46293 0.31914
# Poissons Ratio (z) = 0.07437 0.27767
#
# Static dielectric constant tensor:
#      x y z
#    x 1.819660 0.000000 0.000000 
#    y 0.000000 1.811830 0.000000 
#    z 0.000000 0.000000 1.905280 
# 
# From -- ./inp_files/9117.got.cif
#   From: 2010.05.17/outbox.cif.g08.bks.cpg/sg33_5_cif.got.tgz:9117.got - 2010.06.03 17:15:25.
