data_PCOD9345025
_publ_section_title
;
Structure prediction by ZEFSAII (Michael W. Deem and Ramdas Pophale) SiO2 
 PCOD9345025
Probable space group: P N A 21
;
_chemical_formula_sum "Si O2"
_cell_formula_units_Z 32
_cell_length_a 10.156776
_cell_length_b 15.855210
_cell_length_c 8.036129
_cell_angle_alpha 90.000000
_cell_angle_beta 90.000000
_cell_angle_gamma 90.000000
_cell_volume 1294.120666
_symmetry_space_group_name_H-M "P N A 21"
_symmetry_group_IT_number 33
_symmetry_cell_setting 'orthorhombic'
loop_
_space_group_symop_operation_xyz
x,y,z
-x,-y,1/2+z
1/2-x,1/2+y,1/2+z
1/2+x,1/2-y,z
loop_
_atom_site_type_symbol
_atom_site_label
_atom_site_fract_x
_atom_site_fract_y
_atom_site_fract_z
Si Si1 0.669857 0.674400 0.925540
Si Si2 0.692115 0.494621 0.511831
Si Si3 0.791899 0.674272 0.555430
Si Si4 0.037428 0.601186 0.728088
Si Si5 0.572013 0.501480 0.879036
Si Si6 0.919260 0.418995 0.710712
Si Si7 0.440583 0.790097 0.031870
Si Si8 0.734859 0.364801 0.007625
O O1 0.711013 0.682167 0.731563
O O2 0.660887 0.575055 0.959918
O O3 0.529675 0.713103 0.973312
O O4 0.785077 0.721164 0.026894
O O5 0.736598 0.589991 0.470560
O O6 0.616546 0.494017 0.689297
O O7 0.579122 0.470348 0.384782
O O8 0.818127 0.437891 0.556815
O O9 0.942390 0.650261 0.597879
O O10 0.781037 0.765692 0.474762
O O11 0.008679 0.502033 0.720558
O O12 0.975031 0.637783 0.896138
O O13 0.187205 0.621881 0.680751
O O14 0.599461 0.414885 0.977583
O O15 0.003114 0.334113 0.694542
O O16 0.829674 0.408964 0.872675
#
# Coordination Sequence:
#
# PCOD9345025 Si02
#       8
#     4   4   4   4   4   4   4   4
#     4  10  22  40  62  92 120 163 212 257 301 369
#     4   9  21  40  60  86 124 162 201 256 303 370
#     4   9  20  38  60  90 115 156 210 253 296 367
#     4  10  20  39  65  84 115 160 213 245 299 376
#     4  10  22  39  62  87 128 159 208 254 313 361
#     4  10  22  40  58  89 129 159 195 258 321 356
#     4  11  22  40  65  88 126 161 208 257 305 372
#     4  11  21  38  62  90 119 160 199 260 304 363
#
# _framework density 24.727212999999999
#
# number of rings (size 3 to 8) (size 9 to 14) (size 15 to 20)
#    0.000    2.000    1.250    3.750    3.500    2.000 
#    4.500    1.250    0.000    0.000    0.000    0.000 
#    0.000    0.000    0.000    0.000    0.000    0.000 
#
# Total GULP energy -178935.964659 kJ/mol
# GULP energy per Si atom -5591.748896 kJ/mol
# Density = 2.467093 g / cm^3
# Si number density = 24.727213 Si / 1000 Ang^3
#
#
#
# Elastic Constant Matrix: (Units=GPa)
#
#
# Indices 1 2 3 4 5 6 
#
# 1 83.2235 26.4950 -0.9021 0.0000 0.0000 0.0000
# 2 26.4950 117.7311 3.8454 0.0000 0.0000 0.0000
# 3 -0.9021 3.8454 25.2198 0.0000 0.0000 0.0000
# 4 0.0000 0.0000 0.0000 26.0442 0.0000 0.0000
# 5 0.0000 0.0000 0.0000 0.0000 35.4798 0.0000
# 6 0.0000 0.0000 0.0000 0.0000 0.0000 21.5509
#
#
#
# Elastic Compliance Matrix: (Units=1/GPa)
#
#
# Indices 1 2 3 4 5 6 
#
# 1 0.012964 -0.002947 0.000913 0.000000 0.000000 0.000000
# 2 -0.002947 0.009207 -0.001509 0.000000 0.000000 0.000000
# 3 0.000913 -0.001509 0.039914 0.000000 0.000000 0.000000
# 4 0.000000 0.000000 0.000000 0.038396 0.000000 0.000000
# 5 0.000000 0.000000 0.000000 0.000000 0.028185 0.000000
# 6 0.000000 0.000000 0.000000 0.000000 0.000000 0.046402
#
#
# Mechanical properties :
#
#
# Convention : Reuss Voigt Hill
#
# Bulk Modulus (GPa) = 18.18251 31.67233 24.92742
# Shear Modulus (GPa) = 24.93922 29.73071 27.33497
#
# Velocity S-wave (km/s) = 3.17925 3.47125 3.32845
# Velocity P-wave (km/s) = 4.56575 5.37611 4.98742
#
# Compressibility (1/GPa) = 0.05499790
#
# Stress axis : x y z
#
# Youngs Moduli (GPa) = 77.13641 108.61868 25.05374
#
# Poissons Ratio (x) = 0.32014 -0.02288
# Poissons Ratio (y) = 0.22735 0.03781
# Poissons Ratio (z) = -0.07043 0.16393
#
# Static dielectric constant tensor:
#      x y z
#    x 1.982210 0.000000 0.000000 
#    y 0.000000 1.897540 0.000000 
#    z 0.000000 0.000000 2.045300 
# 
# From -- ./inp_files/3929.got.cif
#   From: 2010.05.17/outbox.cif.g08.bks.cpg/sg33_2_cif.got.tgz:3929.got - 2010.06.03 17:15:25.
