data_PCOD9345319
_publ_section_title
;
Structure prediction by ZEFSAII (Michael W. Deem and Ramdas Pophale) SiO2 
 PCOD9345319
Probable space group: P N A 21
;
_chemical_formula_sum "Si O2"
_cell_formula_units_Z 32
_cell_length_a 16.544986
_cell_length_b 9.268008
_cell_length_c 8.990866
_cell_angle_alpha 90.000000
_cell_angle_beta 90.000000
_cell_angle_gamma 90.000000
_cell_volume 1378.650964
_symmetry_space_group_name_H-M "P N A 21"
_symmetry_group_IT_number 33
_symmetry_cell_setting 'orthorhombic'
loop_
_space_group_symop_operation_xyz
x,y,z
-x,-y,1/2+z
1/2-x,1/2+y,1/2+z
1/2+x,1/2-y,z
loop_
_atom_site_type_symbol
_atom_site_label
_atom_site_fract_x
_atom_site_fract_y
_atom_site_fract_z
Si Si1 0.795687 0.909897 0.406520
Si Si2 0.678527 0.068564 0.877701
Si Si3 0.356759 0.783383 0.773882
Si Si4 0.795811 0.082465 0.118702
Si Si5 0.469387 0.934474 0.550076
Si Si6 0.453266 0.358264 0.947374
Si Si7 0.148074 0.455168 0.544401
Si Si8 0.581184 0.510315 0.137449
O O1 0.819682 0.741876 0.410987
O O2 0.701124 0.935098 0.443173
O O3 0.844123 0.012064 0.522164
O O4 0.816460 0.967446 0.243944
O O5 0.688233 0.048472 0.704785
O O6 0.750053 0.010441 0.979638
O O7 0.595891 0.998788 0.937545
O O8 0.268893 0.811272 0.699810
O O9 0.417907 0.901517 0.699331
O O10 0.396841 0.634177 0.729872
O O11 0.349163 0.810310 0.947719
O O12 0.873654 0.155304 0.048300
O O13 0.494152 0.783437 0.474260
O O14 0.553776 0.012769 0.569896
O O15 0.434441 0.379087 0.772280
O O16 0.505142 0.485382 0.027364
#
# Coordination Sequence:
#
# PCOD9345319 Si02
#       8
#     4   4   4   4   4   4   4   4
#     4  11  22  41  61  91 123 162 208 256 313 365
#     4  11  22  43  62  92 128 161 202 263 314 359
#     4   9  21  40  58  89 126 161 202 261 305 362
#     4  10  21  39  62  87 123 163 205 256 309 368
#     4  10  21  40  62  89 128 162 201 256 306 365
#     4  11  22  36  64  90 123 169 202 254 311 369
#     4  11  23  37  68  91 118 167 210 246 313 384
#     4  11  22  40  61  91 129 161 206 258 313 366
#
# _framework density 23.211096000000001
#
# number of rings (size 3 to 8) (size 9 to 14) (size 15 to 20)
#    0.000    1.500    3.750    3.000    1.750    0.000 
#    0.000    0.000    0.000    3.000    0.000    0.000 
#    0.000    0.000    0.000    0.000    0.000    0.000 
#
# Total GULP energy -178745.918387 kJ/mol
# GULP energy per Si atom -5585.809950 kJ/mol
# Density = 2.315827 g / cm^3
# Si number density = 23.211096 Si / 1000 Ang^3
#
#
#
# Elastic Constant Matrix: (Units=GPa)
#
#
# Indices 1 2 3 4 5 6 
#
# 1 117.6045 -0.2650 8.0497 0.0000 0.0000 0.0000
# 2 -0.2650 14.7397 9.8325 0.0000 0.0000 0.0000
# 3 8.0497 9.8325 146.8840 0.0000 0.0000 0.0000
# 4 0.0000 0.0000 0.0000 21.7931 0.0000 0.0000
# 5 0.0000 0.0000 0.0000 0.0000 31.9546 0.0000
# 6 0.0000 0.0000 0.0000 0.0000 0.0000 15.1516
#
#
#
# Elastic Compliance Matrix: (Units=1/GPa)
#
#
# Indices 1 2 3 4 5 6 
#
# 1 0.008538 0.000487 -0.000501 0.000000 0.000000 0.000000
# 2 0.000487 0.071043 -0.004782 0.000000 0.000000 0.000000
# 3 -0.000501 -0.004782 0.007156 0.000000 0.000000 0.000000
# 4 0.000000 0.000000 0.000000 0.045886 0.000000 0.000000
# 5 0.000000 0.000000 0.000000 0.000000 0.031294 0.000000
# 6 0.000000 0.000000 0.000000 0.000000 0.000000 0.066000
#
#
# Mechanical properties :
#
#
# Convention : Reuss Voigt Hill
#
# Bulk Modulus (GPa) = 12.96245 34.94029 23.95137
# Shear Modulus (GPa) = 18.85203 31.22059 25.03631
#
# Velocity S-wave (km/s) = 2.85300 3.67150 3.28782
# Velocity P-wave (km/s) = 4.05580 5.74971 4.97538
#
# Compressibility (1/GPa) = 0.07714590
#
# Stress axis : x y z
#
# Youngs Moduli (GPa) = 117.11742 14.07602 139.74941
#
# Poissons Ratio (x) = -0.00686 0.06995
# Poissons Ratio (y) = -0.05709 0.66834
# Poissons Ratio (z) = 0.05862 0.06732
#
# Static dielectric constant tensor:
#      x y z
#    x 1.889710 0.000000 0.000000 
#    y 0.000000 1.927890 0.000000 
#    z 0.000000 0.000000 1.867700 
# 
# From -- ./inp_files/4840.got.cif
#   From: 2010.05.17/outbox.cif.g08.bks.cpg/sg33_3_cif.got.tgz:4840.got - 2010.06.03 17:15:25.
