data_PCOD9345866
_publ_section_title
;
Structure prediction by ZEFSAII (Michael W. Deem and Ramdas Pophale) SiO2 
 PCOD9345866
Probable space group: P N A 21
;
_chemical_formula_sum "Si O2"
_cell_formula_units_Z 32
_cell_length_a 28.842069
_cell_length_b 9.157747
_cell_length_c 5.095172
_cell_angle_alpha 90.000000
_cell_angle_beta 90.000000
_cell_angle_gamma 90.000000
_cell_volume 1345.779480
_symmetry_space_group_name_H-M "P N A 21"
_symmetry_group_IT_number 33
_symmetry_cell_setting 'orthorhombic'
loop_
_space_group_symop_operation_xyz
x,y,z
-x,-y,1/2+z
1/2-x,1/2+y,1/2+z
1/2+x,1/2-y,z
loop_
_atom_site_type_symbol
_atom_site_label
_atom_site_fract_x
_atom_site_fract_y
_atom_site_fract_z
Si Si1 0.627245 0.002805 0.871040
Si Si2 0.244528 0.216393 0.162775
Si Si3 0.055355 0.673459 0.615812
Si Si4 0.545362 0.047824 0.234163
Si Si5 0.092270 0.177773 0.395575
Si Si6 0.283553 0.061371 0.681386
Si Si7 0.480297 0.480498 0.135386
Si Si8 0.150717 0.186070 0.871820
O O1 0.654113 0.145176 0.770055
O O2 0.606736 0.877835 0.691222
O O3 0.662866 0.947681 0.090346
O O4 0.578348 0.061139 0.985763
O O5 0.281441 0.155319 0.949838
O O6 0.235950 0.392304 0.196851
O O7 0.198983 0.153266 0.012115
O O8 0.255928 0.144772 0.445188
O O9 0.049567 0.620971 0.316092
O O10 0.049818 0.839219 0.689394
O O11 0.007697 0.597168 0.724450
O O12 0.573151 0.156373 0.430674
O O13 0.128251 0.118043 0.613189
O O14 0.045932 0.085590 0.427872
O O15 0.115755 0.168261 0.114073
O O16 0.483427 0.568589 0.406989
#
# Coordination Sequence:
#
# PCOD9345866 Si02
#       8
#     4   4   4   4   4   4   4   4
#     4  10  24  41  66 103 128 175 225 294 325 395
#     4  11  24  47  74 104 139 182 225 287 356 432
#     4  12  24  41  65  95 133 177 230 277 332 392
#     4  11  23  39  69  94 128 175 235 272 323 390
#     4  11  22  43  64  97 128 176 221 277 323 400
#     4  11  25  47  75 106 143 181 232 288 363 426
#     4  12  28  43  61  91 140 180 216 272 340 396
#     4  10  22  43  72  94 129 170 230 267 338 407
#
# _framework density 23.778041000000002
#
# number of rings (size 3 to 8) (size 9 to 14) (size 15 to 20)
#    0.000    1.000    3.750    2.250    7.000    2.000 
#    6.750    0.000    0.000    0.000    0.000    0.000 
#    0.000    0.000    0.000    0.000    0.000    0.000 
#
# Total GULP energy -178152.627164 kJ/mol
# GULP energy per Si atom -5567.269599 kJ/mol
# Density = 2.372392 g / cm^3
# Si number density = 23.778041 Si / 1000 Ang^3
#
#
#
# Elastic Constant Matrix: (Units=GPa)
#
#
# Indices 1 2 3 4 5 6 
#
# 1 68.6086 13.0116 -3.6887 0.0000 0.0000 0.0000
# 2 13.0116 71.8040 10.5913 0.0000 0.0000 0.0000
# 3 -3.6887 10.5913 102.2453 0.0000 0.0000 0.0000
# 4 0.0000 0.0000 0.0000 19.7678 0.0000 0.0000
# 5 0.0000 0.0000 0.0000 0.0000 38.8630 0.0000
# 6 0.0000 0.0000 0.0000 0.0000 0.0000 27.8854
#
#
#
# Elastic Compliance Matrix: (Units=1/GPa)
#
#
# Indices 1 2 3 4 5 6 
#
# 1 0.015166 -0.002873 0.000845 0.000000 0.000000 0.000000
# 2 -0.002873 0.014687 -0.001625 0.000000 0.000000 0.000000
# 3 0.000845 -0.001625 0.009979 0.000000 0.000000 0.000000
# 4 0.000000 0.000000 0.000000 0.050587 0.000000 0.000000
# 5 0.000000 0.000000 0.000000 0.000000 0.025731 0.000000
# 6 0.000000 0.000000 0.000000 0.000000 0.000000 0.035861
#
#
# Mechanical properties :
#
#
# Convention : Reuss Voigt Hill
#
# Bulk Modulus (GPa) = 30.74485 31.38736 31.06611
# Shear Modulus (GPa) = 29.38415 32.15283 30.76849
#
# Velocity S-wave (km/s) = 3.51916 3.68123 3.60111
# Velocity P-wave (km/s) = 5.42869 5.59440 5.51217
#
# Compressibility (1/GPa) = 0.03252577
#
# Stress axis : x y z
#
# Youngs Moduli (GPa) = 65.93835 68.08711 100.20833
#
# Poissons Ratio (x) = 0.19560 -0.08465
# Poissons Ratio (y) = 0.18943 0.16284
# Poissons Ratio (z) = -0.05570 0.11064
#
# Static dielectric constant tensor:
#      x y z
#    x 2.139030 0.000000 0.000000 
#    y 0.000000 1.977300 0.000000 
#    z 0.000000 0.000000 1.873570 
# 
# From -- ./inp_files/2540.got.cif
#   From: 2010.05.17/outbox.cif.g08.bks.cpg/sg33_2_cif.got.tgz:2540.got - 2010.06.03 17:15:25.
