data_PCOD9345804
_publ_section_title
;
Structure prediction by ZEFSAII (Michael W. Deem and Ramdas Pophale) SiO2 
 PCOD9345804
Probable space group: P N A 21
;
_chemical_formula_sum "Si O2"
_cell_formula_units_Z 28
_cell_length_a 22.369463
_cell_length_b 6.779180
_cell_length_c 7.899278
_cell_angle_alpha 90.000000
_cell_angle_beta 90.000000
_cell_angle_gamma 90.000000
_cell_volume 1197.898779
_symmetry_space_group_name_H-M "P N A 21"
_symmetry_group_IT_number 33
_symmetry_cell_setting 'orthorhombic'
loop_
_space_group_symop_operation_xyz
x,y,z
-x,-y,1/2+z
1/2-x,1/2+y,1/2+z
1/2+x,1/2-y,z
loop_
_atom_site_type_symbol
_atom_site_label
_atom_site_fract_x
_atom_site_fract_y
_atom_site_fract_z
Si Si1 0.873169 0.630183 0.379420
Si Si2 0.276318 0.536746 0.393493
Si Si3 0.610493 0.583449 0.434346
Si Si4 0.306196 0.178482 0.179738
Si Si5 0.569228 0.156149 0.397124
Si Si6 0.342089 0.127097 0.708249
Si Si7 0.003939 0.330450 0.041787
O O1 0.834725 0.828855 0.379313
O O2 0.853566 0.490560 0.226091
O O3 0.855060 0.489099 0.537496
O O4 0.941911 0.679823 0.408654
O O5 0.286559 0.309663 0.341389
O O6 0.247936 0.577978 0.577961
O O7 0.226649 0.616035 0.260776
O O8 0.662441 0.664569 0.555582
O O9 0.601471 0.353079 0.452740
O O10 0.629848 0.657285 0.245458
O O11 0.548066 0.680725 0.491185
O O12 0.620258 0.002431 0.343306
O O13 0.524375 0.048718 0.524924
O O14 0.530906 0.202584 0.227263
#
# Coordination Sequence:
#
# PCOD9345804 Si02
#       7
#     4   4   4   4   4   4   4
#     4  11  24  42  67  97 141 172 227 294 342 419
#     4  11  24  44  65 101 137 182 225 286 353 424
#     4  10  23  43  70  97 135 183 229 278 356 417
#     4  11  26  42  70 104 134 183 237 281 358 428
#     4  10  22  42  69  90 142 174 223 288 337 408
#     4   9  22  43  62  99 130 180 226 276 344 408
#     4  10  23  42  65 104 133 178 227 287 346 408
#
# _framework density 23.374261000000001
#
# number of rings (size 3 to 8) (size 9 to 14) (size 15 to 20)
#    0.000    1.714    1.429    0.857    2.000   14.857 
#    0.000    0.000    0.000    0.000    0.000    0.000 
#    0.000    0.000    0.000    0.000    0.000    0.000 
#
# Total GULP energy -156689.471184 kJ/mol
# GULP energy per Si atom -5596.052542 kJ/mol
# Density = 2.332106 g / cm^3
# Si number density = 23.374261 Si / 1000 Ang^3
#
#
#
# Elastic Constant Matrix: (Units=GPa)
#
#
# Indices 1 2 3 4 5 6 
#
# 1 97.1024 28.1541 8.2881 0.0000 0.0000 0.0000
# 2 28.1541 71.5720 8.9832 0.0000 0.0000 0.0000
# 3 8.2881 8.9832 65.9415 0.0000 0.0000 0.0000
# 4 0.0000 0.0000 0.0000 30.6000 0.0000 0.0000
# 5 0.0000 0.0000 0.0000 0.0000 32.0282 0.0000
# 6 0.0000 0.0000 0.0000 0.0000 0.0000 35.5961
#
#
#
# Elastic Compliance Matrix: (Units=1/GPa)
#
#
# Indices 1 2 3 4 5 6 
#
# 1 0.011672 -0.004484 -0.000856 0.000000 0.000000 0.000000
# 2 -0.004484 0.015937 -0.001608 0.000000 0.000000 0.000000
# 3 -0.000856 -0.001608 0.015492 0.000000 0.000000 0.000000
# 4 0.000000 0.000000 0.000000 0.032680 0.000000 0.000000
# 5 0.000000 0.000000 0.000000 0.000000 0.031223 0.000000
# 6 0.000000 0.000000 0.000000 0.000000 0.000000 0.028093
#
#
# Mechanical properties :
#
#
# Convention : Reuss Voigt Hill
#
# Bulk Modulus (GPa) = 34.24005 36.16295 35.20150
# Shear Modulus (GPa) = 31.50085 32.25757 31.87921
#
# Velocity S-wave (km/s) = 3.67505 3.71893 3.69705
# Velocity P-wave (km/s) = 5.71738 5.82627 5.77208
#
# Compressibility (1/GPa) = 0.02920556
#
# Stress axis : x y z
#
# Youngs Moduli (GPa) = 85.67872 62.74523 64.55127
#
# Poissons Ratio (x) = 0.28133 0.05527
# Poissons Ratio (y) = 0.38416 0.10377
# Poissons Ratio (z) = 0.07335 0.10087
#
# Static dielectric constant tensor:
#      x y z
#    x 1.828530 0.000000 0.000000 
#    y 0.000000 1.850040 0.000000 
#    z 0.000000 0.000000 1.971090 
# 
# From -- ./inp_files/5138.got.cif
#   From: 2010.05.17/outbox.cif.g08.bks.cpg/sg33_3_cif.got.tgz:5138.got - 2010.06.03 17:15:25.
