data_PCOD9345353
_publ_section_title
;
Structure prediction by ZEFSAII (Michael W. Deem and Ramdas Pophale) SiO2 
 PCOD9345353
Probable space group: P N A 21
;
_chemical_formula_sum "Si O2"
_cell_formula_units_Z 24
_cell_length_a 4.927598
_cell_length_b 25.322264
_cell_length_c 8.182810
_cell_angle_alpha 90.000000
_cell_angle_beta 90.000000
_cell_angle_gamma 90.000000
_cell_volume 1021.034154
_symmetry_space_group_name_H-M "P N A 21"
_symmetry_group_IT_number 33
_symmetry_cell_setting 'orthorhombic'
loop_
_space_group_symop_operation_xyz
x,y,z
-x,-y,1/2+z
1/2-x,1/2+y,1/2+z
1/2+x,1/2-y,z
loop_
_atom_site_type_symbol
_atom_site_label
_atom_site_fract_x
_atom_site_fract_y
_atom_site_fract_z
Si Si1 0.590559 0.601027 0.099860
Si Si2 0.120650 0.432212 0.933874
Si Si3 0.919628 0.445388 0.433812
Si Si4 0.018777 0.783648 0.607784
Si Si5 0.358502 0.603106 0.624050
Si Si6 0.457236 0.715761 0.215983
O O1 0.743423 0.580296 0.260983
O O2 0.534128 0.662712 0.123405
O O3 0.307394 0.571567 0.066414
O O4 0.804535 0.586914 0.958648
O O5 0.025425 0.492543 0.942725
O O6 0.363511 0.421852 0.060825
O O7 0.864386 0.395654 0.978220
O O8 0.782156 0.431205 0.262681
O O9 0.819219 0.735335 0.647201
O O10 0.923554 0.838104 0.685454
O O11 0.996230 0.793246 0.411390
O O12 0.656462 0.764508 0.178649
#
# Coordination Sequence:
#
# PCOD9345353 Si02
#       6
#     4   4   4   4   4   4
#     4  12  25  44  67  99 131 173 218 271 328 387
#     4  12  24  43  70  94 128 179 229 259 314 392
#     4  12  26  43  64  98 140 170 211 274 333 386
#     4  10  21  39  66  97 124 165 220 273 315 381
#     4  12  25  44  67  99 131 174 218 270 328 387
#     4  10  21  39  66  97 124 165 220 273 316 381
#
# _framework density 23.505583000000001
#
# number of rings (size 3 to 8) (size 9 to 14) (size 15 to 20)
#    0.000    0.667    1.667    7.000    4.667    0.000 
#    0.000    5.000    0.000    0.000    0.000    0.000 
#    0.000    0.000    0.000    0.000    0.000    0.000 
#
# Total GULP energy -134559.463640 kJ/mol
# GULP energy per Si atom -5606.644318 kJ/mol
# Density = 2.345208 g / cm^3
# Si number density = 23.505583 Si / 1000 Ang^3
#
#
#
# Elastic Constant Matrix: (Units=GPa)
#
#
# Indices 1 2 3 4 5 6 
#
# 1 96.4735 7.9409 4.2646 0.0000 0.0000 0.0000
# 2 7.9409 87.2285 3.4534 0.0000 0.0000 0.0000
# 3 4.2646 3.4534 37.7268 0.0000 0.0000 0.0000
# 4 0.0000 0.0000 0.0000 -9.1069 0.0000 0.0000
# 5 0.0000 0.0000 0.0000 0.0000 19.8395 0.0000
# 6 0.0000 0.0000 0.0000 0.0000 0.0000 34.0126
#
#
#
# Elastic Compliance Matrix: (Units=1/GPa)
#
#
# Indices 1 2 3 4 5 6 
#
# 1 0.010489 -0.000911 -0.001102 0.000000 0.000000 0.000000
# 2 -0.000911 0.011585 -0.000957 0.000000 0.000000 0.000000
# 3 -0.001102 -0.000957 0.026719 0.000000 0.000000 0.000000
# 4 0.000000 0.000000 0.000000 -0.109807 0.000000 0.000000
# 5 0.000000 0.000000 0.000000 0.000000 0.050404 0.000000
# 6 0.000000 0.000000 0.000000 0.000000 0.000000 0.029401
#
#
# Mechanical properties :
#
#
# Convention : Reuss Voigt Hill
#
# Bulk Modulus (GPa) = 23.33672 28.08296 25.70984
# Shear Modulus (GPa) = 128.14902 22.66705 75.40803
#
# Velocity S-wave (km/s) = 7.39168 3.10873 5.67015
# Velocity P-wave (km/s) = 9.09939 4.98587 7.33682
#
# Compressibility (1/GPa) = 0.04285092
#
# Stress axis : x y z
#
# Youngs Moduli (GPa) = 95.33553 86.31851 37.42707
#
# Poissons Ratio (x) = 0.07866 0.04126
# Poissons Ratio (y) = 0.08688 0.03583
# Poissons Ratio (z) = 0.10509 0.08265
#
# Static dielectric constant tensor:
#      x y z
#    x 1.827910 0.000000 0.000000 
#    y 0.000000 1.819240 0.000000 
#    z 0.000000 0.000000 1.965280 
# 
# From -- ./inp_files/2696.got.cif
#   From: 2010.05.17/outbox.cif.g08.bks.cpg/sg33_2_cif.got.tgz:2696.got - 2010.06.03 17:15:25.
