data_PCOD9345254
_publ_section_title
;
Structure prediction by ZEFSAII (Michael W. Deem and Ramdas Pophale) SiO2 
 PCOD9345254
Probable space group: P N A 21
;
_chemical_formula_sum "Si O2"
_cell_formula_units_Z 32
_cell_length_a 13.454859
_cell_length_b 10.691731
_cell_length_c 8.942996
_cell_angle_alpha 90.000000
_cell_angle_beta 90.000000
_cell_angle_gamma 90.000000
_cell_volume 1286.501245
_symmetry_space_group_name_H-M "P N A 21"
_symmetry_group_IT_number 33
_symmetry_cell_setting 'orthorhombic'
loop_
_space_group_symop_operation_xyz
x,y,z
-x,-y,1/2+z
1/2-x,1/2+y,1/2+z
1/2+x,1/2-y,z
loop_
_atom_site_type_symbol
_atom_site_label
_atom_site_fract_x
_atom_site_fract_y
_atom_site_fract_z
Si Si1 0.652180 0.578787 0.613010
Si Si2 0.896929 0.201002 0.840884
Si Si3 0.890337 0.441971 0.315443
Si Si4 0.196973 0.173382 0.428726
Si Si5 0.711449 0.460257 0.901109
Si Si6 0.303295 0.788970 0.222645
Si Si7 0.426242 0.553293 0.686493
Si Si8 0.556909 0.933936 0.482080
O O1 0.672051 0.685032 0.490775
O O2 0.684470 0.452912 0.528246
O O3 0.696563 0.568039 0.777071
O O4 0.533797 0.586925 0.628154
O O5 0.816441 0.229231 0.714661
O O6 0.969737 0.312188 0.880651
O O7 0.940868 0.069480 0.790240
O O8 0.808128 0.341778 0.364759
O O9 0.833093 0.575041 0.284517
O O10 0.975130 0.464649 0.437940
O O11 0.941615 0.409087 0.158200
O O12 0.165546 0.276351 0.549613
O O13 0.123007 0.159075 0.289586
O O14 0.670569 0.331920 0.823510
O O15 0.828592 0.456081 0.935294
O O16 0.648406 0.476854 0.051303
#
# Coordination Sequence:
#
# PCOD9345254 Si02
#       8
#     4   4   4   4   4   4   4   4
#     4  10  21  37  70  99 131 173 217 291 346 400
#     4  10  22  44  64  97 133 178 225 278 346 401
#     4  12  25  49  67  97 142 183 236 280 340 421
#     4  10  22  43  68 101 134 175 226 283 349 403
#     4  10  21  41  66 107 135 173 230 282 355 402
#     4  10  22  42  74  93 134 186 217 287 343 408
#     4  11  20  41  68 101 137 164 225 298 341 407
#     4  11  27  43  67  95 138 188 226 277 340 430
#
# _framework density 24.873663000000001
#
# number of rings (size 3 to 8) (size 9 to 14) (size 15 to 20)
#    0.000    1.500    3.750    1.500   10.500    0.000 
#    6.750    0.000    0.000    0.000    0.000    0.000 
#    0.000    0.000    0.000    0.000    0.000    0.000 
#
# Total GULP energy -178923.629723 kJ/mol
# GULP energy per Si atom -5591.363429 kJ/mol
# Density = 2.481705 g / cm^3
# Si number density = 24.873663 Si / 1000 Ang^3
#
#
#
# Elastic Constant Matrix: (Units=GPa)
#
#
# Indices 1 2 3 4 5 6 
#
# 1 92.5300 7.4880 30.7949 0.0000 0.0000 0.0000
# 2 7.4880 88.1907 13.9966 0.0000 0.0000 0.0000
# 3 30.7949 13.9966 133.3156 0.0000 0.0000 0.0000
# 4 0.0000 0.0000 0.0000 29.6532 0.0000 0.0000
# 5 0.0000 0.0000 0.0000 0.0000 38.6631 0.0000
# 6 0.0000 0.0000 0.0000 0.0000 0.0000 21.4026
#
#
#
# Elastic Compliance Matrix: (Units=1/GPa)
#
#
# Indices 1 2 3 4 5 6 
#
# 1 0.011736 -0.000576 -0.002650 0.000000 0.000000 0.000000
# 2 -0.000576 0.011559 -0.001081 0.000000 0.000000 0.000000
# 3 -0.002650 -0.001081 0.008227 0.000000 0.000000 0.000000
# 4 0.000000 0.000000 0.000000 0.033723 0.000000 0.000000
# 5 0.000000 0.000000 0.000000 0.000000 0.025864 0.000000
# 6 0.000000 0.000000 0.000000 0.000000 0.000000 0.046723
#
#
# Mechanical properties :
#
#
# Convention : Reuss Voigt Hill
#
# Bulk Modulus (GPa) = 43.65217 46.51059 45.08138
# Shear Modulus (GPa) = 32.45005 35.39423 33.92214
#
# Velocity S-wave (km/s) = 3.61584 3.77631 3.69694
# Velocity P-wave (km/s) = 5.91777 6.14437 6.03214
#
# Compressibility (1/GPa) = 0.02290837
#
# Stress axis : x y z
#
# Youngs Moduli (GPa) = 85.20778 86.50924 121.55555
#
# Poissons Ratio (x) = 0.04981 0.32218
# Poissons Ratio (y) = 0.04906 0.13135
# Poissons Ratio (z) = 0.22584 0.09348
#
# Static dielectric constant tensor:
#      x y z
#    x 1.923850 0.000000 0.000000 
#    y 0.000000 2.047210 0.000000 
#    z 0.000000 0.000000 1.970100 
# 
# From -- ./inp_files/4388.got.cif
#   From: 2010.05.17/outbox.cif.g08.bks.cpg/sg33_3_cif.got.tgz:4388.got - 2010.06.03 17:15:25.
