data_PCOD9345448
_publ_section_title
;
Structure prediction by ZEFSAII (Michael W. Deem and Ramdas Pophale) SiO2 
 PCOD9345448
Probable space group: P N A 21
;
_chemical_formula_sum "Si O2"
_cell_formula_units_Z 28
_cell_length_a 14.123380
_cell_length_b 8.802384
_cell_length_c 11.144002
_cell_angle_alpha 90.000000
_cell_angle_beta 90.000000
_cell_angle_gamma 90.000000
_cell_volume 1385.415800
_symmetry_space_group_name_H-M "P N A 21"
_symmetry_group_IT_number 33
_symmetry_cell_setting 'orthorhombic'
loop_
_space_group_symop_operation_xyz
x,y,z
-x,-y,1/2+z
1/2-x,1/2+y,1/2+z
1/2+x,1/2-y,z
loop_
_atom_site_type_symbol
_atom_site_label
_atom_site_fract_x
_atom_site_fract_y
_atom_site_fract_z
Si Si1 0.653573 0.370521 0.085150
Si Si2 0.654923 0.366383 0.808403
Si Si3 0.023855 0.078044 0.275776
Si Si4 0.175092 0.396456 0.615089
Si Si5 0.211781 0.140163 0.423340
Si Si6 0.747507 0.585916 0.640411
Si Si7 0.383994 0.176863 0.231213
O O1 0.556055 0.431963 0.136822
O O2 0.730591 0.499915 0.114411
O O3 0.668654 0.206770 0.147654
O O4 0.666012 0.333912 0.946885
O O5 0.552543 0.447093 0.797981
O O6 0.667728 0.222595 0.723567
O O7 0.731769 0.486292 0.758798
O O8 0.119484 0.075284 0.354365
O O9 0.971139 0.239164 0.293609
O O10 0.180083 0.294095 0.494642
O O11 0.098457 0.524984 0.654133
O O12 0.300099 0.157963 0.331101
O O13 0.245609 0.024027 0.526972
O O14 0.657110 0.698339 0.638112
#
# Coordination Sequence:
#
# PCOD9345448 Si02
#       7
#     4   4   4   4   4   4   4
#     4  11  22  40  67  90 127 171 206 262 323 362
#     4  10  23  39  64  97 126 161 219 259 304 392
#     4  11  24  40  64  90 130 169 212 254 326 366
#     4  10  21  41  64  91 129 162 213 259 314 370
#     4  11  21  42  66  89 126 173 205 262 320 367
#     4   9  20  39  65  88 125 164 209 254 318 369
#     4  10  21  43  60  97 129 156 216 264 299 384
#
# _framework density 20.210536999999999
#
# number of rings (size 3 to 8) (size 9 to 14) (size 15 to 20)
#    0.000    1.714    2.857    2.571    6.000    0.000 
#    5.143    1.429    0.000    0.000    0.000    0.000 
#    0.000    0.000    0.000    0.000    0.000    0.000 
#
# Total GULP energy -155933.493986 kJ/mol
# GULP energy per Si atom -5569.053357 kJ/mol
# Density = 2.016454 g / cm^3
# Si number density = 20.210537 Si / 1000 Ang^3
#
#
#
# Elastic Constant Matrix: (Units=GPa)
#
#
# Indices 1 2 3 4 5 6 
#
# 1 58.6388 -12.9498 5.6607 0.0000 0.0000 0.0000
# 2 -12.9498 51.9467 -15.1019 0.0000 0.0000 0.0000
# 3 5.6607 -15.1019 70.5069 0.0000 0.0000 0.0000
# 4 0.0000 0.0000 0.0000 30.6803 0.0000 0.0000
# 5 0.0000 0.0000 0.0000 0.0000 21.0059 0.0000
# 6 0.0000 0.0000 0.0000 0.0000 0.0000 12.5681
#
#
#
# Elastic Compliance Matrix: (Units=1/GPa)
#
#
# Indices 1 2 3 4 5 6 
#
# 1 0.018065 0.004353 -0.000518 0.000000 0.000000 0.000000
# 2 0.004353 0.021578 0.004272 0.000000 0.000000 0.000000
# 3 -0.000518 0.004272 0.015140 0.000000 0.000000 0.000000
# 4 0.000000 0.000000 0.000000 0.032594 0.000000 0.000000
# 5 0.000000 0.000000 0.000000 0.000000 0.047606 0.000000
# 6 0.000000 0.000000 0.000000 0.000000 0.000000 0.079567
#
#
# Mechanical properties :
#
#
# Convention : Reuss Voigt Hill
#
# Bulk Modulus (GPa) = 14.08530 15.14563 14.61546
# Shear Modulus (GPa) = 22.52253 26.41643 24.46948
#
# Velocity S-wave (km/s) = 3.34188 3.61925 3.48333
# Velocity P-wave (km/s) = 4.67710 4.99755 4.83998
#
# Compressibility (1/GPa) = 0.07099603
#
# Stress axis : x y z
#
# Youngs Moduli (GPa) = 55.35624 46.34432 66.05165
#
# Poissons Ratio (x) = -0.20173 0.03422
# Poissons Ratio (y) = -0.24095 -0.28219
# Poissons Ratio (z) = 0.02868 -0.19799
#
# Static dielectric constant tensor:
#      x y z
#    x 1.736180 0.000000 0.000000 
#    y 0.000000 1.743770 0.000000 
#    z 0.000000 0.000000 1.747340 
# 
# From -- ./inp_files/6742.got.cif
#   From: 2010.05.17/outbox.cif.g08.bks.cpg/sg33_4_cif.got.tgz:6742.got - 2010.06.03 17:15:25.
