data_PCOD9345539
_publ_section_title
;
Structure prediction by ZEFSAII (Michael W. Deem and Ramdas Pophale) SiO2 
 PCOD9345539
Probable space group: P N A 21
;
_chemical_formula_sum "Si O2"
_cell_formula_units_Z 28
_cell_length_a 18.753828
_cell_length_b 5.155910
_cell_length_c 11.525677
_cell_angle_alpha 90.000000
_cell_angle_beta 90.000000
_cell_angle_gamma 90.000000
_cell_volume 1114.452855
_symmetry_space_group_name_H-M "P N A 21"
_symmetry_group_IT_number 33
_symmetry_cell_setting 'orthorhombic'
loop_
_space_group_symop_operation_xyz
x,y,z
-x,-y,1/2+z
1/2-x,1/2+y,1/2+z
1/2+x,1/2-y,z
loop_
_atom_site_type_symbol
_atom_site_label
_atom_site_fract_x
_atom_site_fract_y
_atom_site_fract_z
Si Si1 0.030599 0.182146 0.320590
Si Si2 0.348758 0.407664 0.675783
Si Si3 0.411229 0.636326 0.450203
Si Si4 0.228977 0.405777 0.262374
Si Si5 0.033636 0.770039 0.603784
Si Si6 0.868571 0.834906 0.207303
Si Si7 0.146168 0.467275 0.481062
O O1 0.088022 0.318550 0.402134
O O2 0.989274 0.359852 0.225908
O O3 0.078371 0.975005 0.246546
O O4 0.968466 0.064600 0.397831
O O5 0.361369 0.491179 0.542670
O O6 0.295025 0.616493 0.732662
O O7 0.319691 0.117635 0.693357
O O8 0.464925 0.802200 0.528137
O O9 0.377641 0.771824 0.337936
O O10 0.310805 0.440692 0.229780
O O11 0.212866 0.482632 0.395967
O O12 0.101611 0.713546 0.523528
O O13 0.058230 0.050082 0.654400
O O14 0.837600 0.665264 0.103574
#
# Coordination Sequence:
#
# PCOD9345539 Si02
#       7
#     4   4   4   4   4   4   4
#     4   9  20  41  67 101 134 174 229 285 355 408
#     4  10  24  48  69 102 137 191 229 299 344 421
#     4  10  21  43  68 103 137 180 236 294 358 424
#     4  11  27  46  71  97 144 184 247 279 357 414
#     4  10  22  41  68  99 136 171 233 286 358 413
#     4  11  26  43  67 102 134 192 230 295 349 432
#     4  11  24  42  70 100 138 192 226 300 349 428
#
# _framework density 25.124438000000001
#
# number of rings (size 3 to 8) (size 9 to 14) (size 15 to 20)
#    0.000    1.714    1.429    0.857    8.000    3.429 
#    2.571    0.000    0.000    0.000    0.000    0.000 
#    0.000    0.000    0.000    0.000    0.000    0.000 
#
# Total GULP energy -156231.812330 kJ/mol
# GULP energy per Si atom -5579.707583 kJ/mol
# Density = 2.506725 g / cm^3
# Si number density = 25.124438 Si / 1000 Ang^3
#
#
#
# Elastic Constant Matrix: (Units=GPa)
#
#
# Indices 1 2 3 4 5 6 
#
# 1 67.7136 0.1314 20.6258 0.0000 0.0000 0.0000
# 2 0.1314 30.1887 4.7488 0.0000 0.0000 0.0000
# 3 20.6258 4.7488 167.6862 0.0000 0.0000 0.0000
# 4 0.0000 0.0000 0.0000 29.1759 0.0000 0.0000
# 5 0.0000 0.0000 0.0000 0.0000 38.6050 0.0000
# 6 0.0000 0.0000 0.0000 0.0000 0.0000 -8.6156
#
#
#
# Elastic Compliance Matrix: (Units=1/GPa)
#
#
# Indices 1 2 3 4 5 6 
#
# 1 0.015345 0.000231 -0.001894 0.000000 0.000000 0.000000
# 2 0.000231 0.033277 -0.000971 0.000000 0.000000 0.000000
# 3 -0.001894 -0.000971 0.006224 0.000000 0.000000 0.000000
# 4 0.000000 0.000000 0.000000 0.034275 0.000000 0.000000
# 5 0.000000 0.000000 0.000000 0.000000 0.025903 0.000000
# 6 0.000000 0.000000 0.000000 0.000000 0.000000 -0.116069
#
#
# Mechanical properties :
#
#
# Convention : Reuss Voigt Hill
#
# Bulk Modulus (GPa) = 20.17026 35.17784 27.67405
# Shear Modulus (GPa) = 240.98747 27.83856 134.41302
#
# Velocity S-wave (km/s) = 9.80438 3.33232 7.32223
# Velocity P-wave (km/s) = 11.67104 5.37007 9.08435
#
# Compressibility (1/GPa) = 0.04957794
#
# Stress axis : x y z
#
# Youngs Moduli (GPa) = 65.16971 30.05105 160.66903
#
# Poissons Ratio (x) = -0.00695 0.30430
# Poissons Ratio (y) = -0.01506 0.15598
# Poissons Ratio (z) = 0.12343 0.02917
#
# Static dielectric constant tensor:
#      x y z
#    x 2.048160 0.000000 0.000000 
#    y 0.000000 2.050950 0.000000 
#    z 0.000000 0.000000 2.035020 
# 
# From -- ./inp_files/7163.got.cif
#   From: 2010.05.17/outbox.cif.g08.bks.cpg/sg33_4_cif.got.tgz:7163.got - 2010.06.03 17:15:25.
