data_PCOD9345020
_publ_section_title
;
Structure prediction by ZEFSAII (Michael W. Deem and Ramdas Pophale) SiO2 
 PCOD9345020
Probable space group: P N A 21
;
_chemical_formula_sum "Si O2"
_cell_formula_units_Z 28
_cell_length_a 13.030735
_cell_length_b 12.290322
_cell_length_c 6.911983
_cell_angle_alpha 90.000000
_cell_angle_beta 90.000000
_cell_angle_gamma 90.000000
_cell_volume 1106.967411
_symmetry_space_group_name_H-M "P N A 21"
_symmetry_group_IT_number 33
_symmetry_cell_setting 'orthorhombic'
loop_
_space_group_symop_operation_xyz
x,y,z
-x,-y,1/2+z
1/2-x,1/2+y,1/2+z
1/2+x,1/2-y,z
loop_
_atom_site_type_symbol
_atom_site_label
_atom_site_fract_x
_atom_site_fract_y
_atom_site_fract_z
Si Si1 0.862799 0.974935 0.575270
Si Si2 0.391938 0.912076 0.253513
Si Si3 0.911844 0.019917 0.982011
Si Si4 0.922527 0.408601 0.530738
Si Si5 0.786271 0.750693 0.503428
Si Si6 0.773222 0.560099 0.774107
Si Si7 0.079467 0.733305 0.345550
O O1 0.857424 0.854406 0.487369
O O2 0.975386 0.023970 0.532227
O O3 0.860021 0.958062 0.804866
O O4 0.765545 0.041117 0.491917
O O5 0.453027 0.911504 0.051404
O O6 0.299938 0.836609 0.328562
O O7 0.481676 0.844398 0.376470
O O8 0.388767 0.034286 0.334591
O O9 0.929978 0.141857 0.902661
O O10 0.831772 0.025333 0.157321
O O11 0.863546 0.485607 0.687515
O O12 0.895904 0.290053 0.617053
O O13 0.794841 0.681729 0.699708
O O14 0.674060 0.800984 0.477663
#
# Coordination Sequence:
#
# PCOD9345020 Si02
#       7
#     4   4   4   4   4   4   4
#     4  12  20  41  65  91 127 168 208 259 321 373
#     4   9  18  35  63  83 116 161 198 250 314 359
#     4  11  23  37  65  91 124 168 207 254 318 388
#     4   9  18  38  60  87 116 159 204 254 307 370
#     4  10  20  39  63  87 126 167 205 261 316 372
#     4  10  22  42  60  92 126 162 217 257 313 382
#     4   9  19  38  56  87 123 163 197 259 313 358
#
# _framework density 25.294331
#
# number of rings (size 3 to 8) (size 9 to 14) (size 15 to 20)
#    0.857    1.143    4.286    0.000    0.000    0.000 
#   18.000    4.286    0.000    0.000    0.000    0.000 
#    0.000    0.000    0.000    0.000    0.000    0.000 
#
# Total GULP energy -156070.460665 kJ/mol
# GULP energy per Si atom -5573.945024 kJ/mol
# Density = 2.523676 g / cm^3
# Si number density = 25.294331 Si / 1000 Ang^3
#
#
#
# Elastic Constant Matrix: (Units=GPa)
#
#
# Indices 1 2 3 4 5 6 
#
# 1 83.7814 1.5964 -27.6991 0.0000 0.0000 0.0000
# 2 1.5964 60.4418 11.5666 0.0000 0.0000 0.0000
# 3 -27.6991 11.5666 51.8919 0.0000 0.0000 0.0000
# 4 0.0000 0.0000 0.0000 33.7879 0.0000 0.0000
# 5 0.0000 0.0000 0.0000 0.0000 24.2523 0.0000
# 6 0.0000 0.0000 0.0000 0.0000 0.0000 27.6725
#
#
#
# Elastic Compliance Matrix: (Units=1/GPa)
#
#
# Indices 1 2 3 4 5 6 
#
# 1 0.014716 -0.001976 0.008296 0.000000 0.000000 0.000000
# 2 -0.001976 0.017547 -0.004966 0.000000 0.000000 0.000000
# 3 0.008296 -0.004966 0.024806 0.000000 0.000000 0.000000
# 4 0.000000 0.000000 0.000000 0.029596 0.000000 0.000000
# 5 0.000000 0.000000 0.000000 0.000000 0.041233 0.000000
# 6 0.000000 0.000000 0.000000 0.000000 0.000000 0.036137
#
#
# Mechanical properties :
#
#
# Convention : Reuss Voigt Hill
#
# Bulk Modulus (GPa) = 16.72907 18.56034 17.64470
# Shear Modulus (GPa) = 27.58547 31.18594 29.38571
#
# Velocity S-wave (km/s) = 3.30597 3.51511 3.41214
# Velocity P-wave (km/s) = 4.60443 4.88143 4.74495
#
# Compressibility (1/GPa) = 0.05977619
#
# Stress axis : x y z
#
# Youngs Moduli (GPa) = 67.95250 56.98851 40.31293
#
# Poissons Ratio (x) = 0.11262 -0.33443
# Poissons Ratio (y) = 0.13429 0.20020
# Poissons Ratio (z) = -0.56372 0.28302
#
# Static dielectric constant tensor:
#      x y z
#    x 2.099770 0.000000 0.000000 
#    y 0.000000 1.945560 0.000000 
#    z 0.000000 0.000000 2.129140 
# 
# From -- ./inp_files/4479.got.cif
#   From: 2010.05.17/outbox.cif.g08.bks.cpg/sg33_3_cif.got.tgz:4479.got - 2010.06.03 17:15:25.
