data_PCOD9345188
_publ_section_title
;
Structure prediction by ZEFSAII (Michael W. Deem and Ramdas Pophale) SiO2 
 PCOD9345188
Probable space group: P N A 21
;
_chemical_formula_sum "Si O2"
_cell_formula_units_Z 32
_cell_length_a 9.242677
_cell_length_b 8.728495
_cell_length_c 18.871311
_cell_angle_alpha 90.000000
_cell_angle_beta 90.000000
_cell_angle_gamma 90.000000
_cell_volume 1522.436598
_symmetry_space_group_name_H-M "P N A 21"
_symmetry_group_IT_number 33
_symmetry_cell_setting 'orthorhombic'
loop_
_space_group_symop_operation_xyz
x,y,z
-x,-y,1/2+z
1/2-x,1/2+y,1/2+z
1/2+x,1/2-y,z
loop_
_atom_site_type_symbol
_atom_site_label
_atom_site_fract_x
_atom_site_fract_y
_atom_site_fract_z
Si Si1 0.046166 0.209757 0.812020
Si Si2 0.460460 0.849931 0.121161
Si Si3 0.180395 0.495936 0.493570
Si Si4 0.785361 0.277557 0.715228
Si Si5 0.171280 0.532889 0.853562
Si Si6 0.134765 0.835884 0.448821
Si Si7 0.084889 0.241206 0.391437
Si Si8 0.005617 0.943964 0.031934
O O1 0.180107 0.133240 0.770419
O O2 0.098068 0.388564 0.813601
O O3 0.903404 0.193733 0.764378
O O4 0.993981 0.158256 0.889546
O O5 0.319197 0.836348 0.171165
O O6 0.610648 0.873773 0.162869
O O7 0.466113 0.676319 0.091196
O O8 0.440763 0.956459 0.052465
O O9 0.167697 0.658298 0.456522
O O10 0.181268 0.365525 0.433585
O O11 0.328405 0.484944 0.535922
O O12 0.230017 0.437564 0.922299
O O13 0.316361 0.636057 0.840089
O O14 0.045791 0.658521 0.861064
O O15 0.085479 0.902458 0.523870
O O16 0.024915 0.138022 0.456166
#
# Coordination Sequence:
#
# PCOD9345188 Si02
#       8
#     4   4   4   4   4   4   4   4
#     4  11  21  39  65  96 126 160 211 274 314 381
#     4  10  21  41  64  90 116 172 222 256 306 375
#     4  11  20  35  60  95 130 158 200 268 325 382
#     4  10  22  40  63  89 119 172 224 257 293 387
#     4  11  21  39  56  94 130 170 207 248 326 393
#     4  11  23  35  63 103 132 155 202 261 355 381
#     4  10  21  35  58  86 137 162 200 248 322 404
#     4  10  21  36  59  93 126 161 200 264 319 387
#
# _framework density 21.018939
#
# number of rings (size 3 to 8) (size 9 to 14) (size 15 to 20)
#    0.000    1.500    5.000    0.750    0.000    0.000 
#    0.000    0.000    0.000    6.000    0.000    0.000 
#    0.000    0.000    0.000    0.000    0.000    0.000 
#
# Total GULP energy -178179.485294 kJ/mol
# GULP energy per Si atom -5568.108915 kJ/mol
# Density = 2.097110 g / cm^3
# Si number density = 21.018939 Si / 1000 Ang^3
#
#
#
# Elastic Constant Matrix: (Units=GPa)
#
#
# Indices 1 2 3 4 5 6 
#
# 1 116.9619 23.1656 28.9492 0.0000 0.0000 0.0000
# 2 23.1656 88.7645 17.6475 0.0000 0.0000 0.0000
# 3 28.9492 17.6475 51.9533 0.0000 0.0000 0.0000
# 4 0.0000 0.0000 0.0000 4.8820 0.0000 0.0000
# 5 0.0000 0.0000 0.0000 0.0000 38.8838 0.0000
# 6 0.0000 0.0000 0.0000 0.0000 0.0000 21.4594
#
#
#
# Elastic Compliance Matrix: (Units=1/GPa)
#
#
# Indices 1 2 3 4 5 6 
#
# 1 0.010133 -0.001632 -0.005092 0.000000 0.000000 0.000000
# 2 -0.001632 0.012345 -0.003284 0.000000 0.000000 0.000000
# 3 -0.005092 -0.003284 0.023201 0.000000 0.000000 0.000000
# 4 0.000000 0.000000 0.000000 0.204835 0.000000 0.000000
# 5 0.000000 0.000000 0.000000 0.000000 0.025718 0.000000
# 6 0.000000 0.000000 0.000000 0.000000 0.000000 0.046600
#
#
# Mechanical properties :
#
#
# Convention : Reuss Voigt Hill
#
# Bulk Modulus (GPa) = 38.96684 44.13382 41.55033
# Shear Modulus (GPa) = 14.22874 25.57286 19.90080
#
# Velocity S-wave (km/s) = 2.60465 3.49185 3.08036
# Velocity P-wave (km/s) = 5.25592 6.10738 5.69758
#
# Compressibility (1/GPa) = 0.02566284
#
# Stress axis : x y z
#
# Youngs Moduli (GPa) = 98.68344 81.00721 43.10185
#
# Poissons Ratio (x) = 0.13222 0.21948
# Poissons Ratio (y) = 0.16107 0.14153
# Poissons Ratio (z) = 0.50250 0.26600
#
# Static dielectric constant tensor:
#      x y z
#    x 1.835360 0.000000 0.000000 
#    y 0.000000 1.770040 0.000000 
#    z 0.000000 0.000000 1.827150 
# 
# From -- ./inp_files/8933.got.cif
#   From: 2010.05.17/outbox.cif.g08.bks.cpg/sg33_5_cif.got.tgz:8933.got - 2010.06.03 17:15:25.
