data_PCOD9345010
_publ_section_title
;
Structure prediction by ZEFSAII (Michael W. Deem and Ramdas Pophale) SiO2 
 PCOD9345010
Probable space group: P N A 21
;
_chemical_formula_sum "Si O2"
_cell_formula_units_Z 32
_cell_length_a 14.016312
_cell_length_b 5.818381
_cell_length_c 16.169239
_cell_angle_alpha 90.000000
_cell_angle_beta 90.000000
_cell_angle_gamma 90.000000
_cell_volume 1318.637715
_symmetry_space_group_name_H-M "P N A 21"
_symmetry_group_IT_number 33
_symmetry_cell_setting 'orthorhombic'
loop_
_space_group_symop_operation_xyz
x,y,z
-x,-y,1/2+z
1/2-x,1/2+y,1/2+z
1/2+x,1/2-y,z
loop_
_atom_site_type_symbol
_atom_site_label
_atom_site_fract_x
_atom_site_fract_y
_atom_site_fract_z
Si Si1 0.843159 0.481809 0.503060
Si Si2 0.300843 0.459651 0.686260
Si Si3 0.175387 0.271404 0.563972
Si Si4 0.514294 0.683426 0.119236
Si Si5 0.424066 0.260354 0.349272
Si Si6 0.392967 0.975515 0.896006
Si Si7 0.258769 0.456870 0.258260
Si Si8 0.011582 0.139744 0.975785
O O1 0.741624 0.451820 0.546664
O O2 0.919897 0.347859 0.561657
O O3 0.850107 0.373112 0.410644
O O4 0.890284 0.725973 0.491611
O O5 0.254512 0.454187 0.594369
O O6 0.413771 0.403809 0.688545
O O7 0.283836 0.717115 0.720087
O O8 0.255955 0.213805 0.719724
O O9 0.128030 0.317068 0.475191
O O10 0.088713 0.294060 0.629734
O O11 0.485421 0.467036 0.063134
O O12 0.517291 0.100998 0.338126
O O13 0.367570 0.378651 0.275058
O O14 0.465201 0.457365 0.406699
O O15 0.298161 0.989060 0.843637
O O16 0.428930 0.204768 0.939452
#
# Coordination Sequence:
#
# PCOD9345010 Si02
#       8
#     4   4   4   4   4   4   4   4
#     4   9  19  37  63 107 138 162 230 301 357 408
#     4  11  31  47  70 104 151 201 236 290 364 449
#     4  11  21  45  72 106 134 190 241 300 364 426
#     4  10  22  43  67 101 143 179 240 298 357 425
#     4  10  22  41  68 106 138 177 239 300 354 426
#     4  11  24  42  76 109 138 183 251 308 367 414
#     4  12  29  51  70 102 153 199 234 295 369 442
#     4  10  20  38  72 107 135 173 235 316 352 412
#
# _framework density 24.267468000000001
#
# number of rings (size 3 to 8) (size 9 to 14) (size 15 to 20)
#    0.000    1.500    5.000    0.000    8.750    4.000 
#    0.000    0.000    0.000    0.000    0.000    0.000 
#    0.000    0.000    0.000    0.000    0.000    0.000 
#
# Total GULP energy -178394.964557 kJ/mol
# GULP energy per Si atom -5574.842642 kJ/mol
# Density = 2.421223 g / cm^3
# Si number density = 24.267468 Si / 1000 Ang^3
#
#
#
# Elastic Constant Matrix: (Units=GPa)
#
#
# Indices 1 2 3 4 5 6 
#
# 1 110.4077 4.0168 11.0298 0.0000 0.0000 0.0000
# 2 4.0168 89.5617 13.8563 0.0000 0.0000 0.0000
# 3 11.0298 13.8563 29.2285 0.0000 0.0000 0.0000
# 4 0.0000 0.0000 0.0000 25.3190 0.0000 0.0000
# 5 0.0000 0.0000 0.0000 0.0000 34.5172 0.0000
# 6 0.0000 0.0000 0.0000 0.0000 0.0000 20.6202
#
#
#
# Elastic Compliance Matrix: (Units=1/GPa)
#
#
# Indices 1 2 3 4 5 6 
#
# 1 0.009414 0.000137 -0.003618 0.000000 0.000000 0.000000
# 2 0.000137 0.012051 -0.005765 0.000000 0.000000 0.000000
# 3 -0.003618 -0.005765 0.038311 0.000000 0.000000 0.000000
# 4 0.000000 0.000000 0.000000 0.039496 0.000000 0.000000
# 5 0.000000 0.000000 0.000000 0.000000 0.028971 0.000000
# 6 0.000000 0.000000 0.000000 0.000000 0.000000 0.048496
#
#
# Mechanical properties :
#
#
# Convention : Reuss Voigt Hill
#
# Bulk Modulus (GPa) = 24.22122 31.88931 28.05527
# Shear Modulus (GPa) = 23.92439 29.44428 26.68433
#
# Velocity S-wave (km/s) = 3.14325 3.48706 3.31961
# Velocity P-wave (km/s) = 4.81414 5.42052 5.12631
#
# Compressibility (1/GPa) = 0.04128611
#
# Stress axis : x y z
#
# Youngs Moduli (GPa) = 106.22773 82.97906 26.10193
#
# Poissons Ratio (x) = -0.01141 0.09443
# Poissons Ratio (y) = -0.01460 0.15048
# Poissons Ratio (z) = 0.38429 0.47837
#
# Static dielectric constant tensor:
#      x y z
#    x 1.966710 0.000000 0.000000 
#    y 0.000000 2.041060 0.000000 
#    z 0.000000 0.000000 2.007850 
# 
# From -- ./inp_files/8777.got.cif
#   From: 2010.05.17/outbox.cif.g08.bks.cpg/sg33_5_cif.got.tgz:8777.got - 2010.06.03 17:15:25.
