data_PCOD9345869
_publ_section_title
;
Structure prediction by ZEFSAII (Michael W. Deem and Ramdas Pophale) SiO2 
 PCOD9345869
Probable space group: P N A 21
;
_chemical_formula_sum "Si O2"
_cell_formula_units_Z 20
_cell_length_a 8.950958
_cell_length_b 12.504863
_cell_length_c 7.178050
_cell_angle_alpha 90.000000
_cell_angle_beta 90.000000
_cell_angle_gamma 90.000000
_cell_volume 803.442751
_symmetry_space_group_name_H-M "P N A 21"
_symmetry_group_IT_number 33
_symmetry_cell_setting 'orthorhombic'
loop_
_space_group_symop_operation_xyz
x,y,z
-x,-y,1/2+z
1/2-x,1/2+y,1/2+z
1/2+x,1/2-y,z
loop_
_atom_site_type_symbol
_atom_site_label
_atom_site_fract_x
_atom_site_fract_y
_atom_site_fract_z
Si Si1 0.275351 0.987928 0.376230
Si Si2 0.456398 0.318997 0.896229
Si Si3 0.275441 0.128956 0.865351
Si Si4 0.610735 0.318116 0.516195
Si Si5 0.404876 0.924110 0.974764
O O1 0.154731 0.085039 0.382339
O O2 0.427379 0.031276 0.466191
O O3 0.181213 0.890440 0.462267
O O4 0.334605 0.946121 0.177461
O O5 0.414229 0.196744 0.941533
O O6 0.619370 0.350696 0.970058
O O7 0.480978 0.339083 0.671146
O O8 0.246008 0.182701 0.665810
O O9 0.307493 0.004429 0.849807
O O10 0.595295 0.201198 0.430128
#
# Coordination Sequence:
#
# PCOD9345869 Si02
#       5
#     4   4   4   4   4
#     4  12  25  45  77 102 148 197 238 307 359 451
#     4  10  22  43  74 100 141 194 234 300 368 414
#     4  10  22  43  75 100 147 189 240 304 364 438
#     4  10  24  44  74 100 148 189 236 308 359 429
#     4  12  25  47  72 110 144 195 246 297 380 426
#
# _framework density 24.892875
#
# number of rings (size 3 to 8) (size 9 to 14) (size 15 to 20)
#    1.200    0.000    2.000    4.800    2.800    0.000 
#   10.800    0.000    0.000    0.000    0.000    0.000 
#    0.000    0.000    0.000    0.000    0.000    0.000 
#
# Total GULP energy -111541.747289 kJ/mol
# GULP energy per Si atom -5577.087364 kJ/mol
# Density = 2.483622 g / cm^3
# Si number density = 24.892875 Si / 1000 Ang^3
#
#
#
# Elastic Constant Matrix: (Units=GPa)
#
#
# Indices 1 2 3 4 5 6 
#
# 1 92.9720 24.8579 -1.8778 0.0000 0.0000 0.0000
# 2 24.8579 153.1351 -0.6840 0.0000 0.0000 0.0000
# 3 -1.8778 -0.6840 30.1975 0.0000 0.0000 0.0000
# 4 0.0000 0.0000 0.0000 29.6840 0.0000 0.0000
# 5 0.0000 0.0000 0.0000 0.0000 19.4161 0.0000
# 6 0.0000 0.0000 0.0000 0.0000 0.0000 62.8484
#
#
#
# Elastic Compliance Matrix: (Units=1/GPa)
#
#
# Indices 1 2 3 4 5 6 
#
# 1 0.011257 -0.001824 0.000659 0.000000 0.000000 0.000000
# 2 -0.001824 0.006827 0.000041 0.000000 0.000000 0.000000
# 3 0.000659 0.000041 0.033157 0.000000 0.000000 0.000000
# 4 0.000000 0.000000 0.000000 0.033688 0.000000 0.000000
# 5 0.000000 0.000000 0.000000 0.000000 0.051504 0.000000
# 6 0.000000 0.000000 0.000000 0.000000 0.000000 0.015911
#
#
# Mechanical properties :
#
#
# Convention : Reuss Voigt Hill
#
# Bulk Modulus (GPa) = 20.41158 35.65519 28.03338
# Shear Modulus (GPa) = 29.25284 39.32359 34.28821
#
# Velocity S-wave (km/s) = 3.43176 3.97887 3.71540
# Velocity P-wave (km/s) = 4.89083 5.95509 5.44901
#
# Compressibility (1/GPa) = 0.04899179
#
# Stress axis : x y z
#
# Youngs Moduli (GPa) = 88.83351 146.48778 30.15931
#
# Poissons Ratio (x) = 0.26725 -0.01987
# Poissons Ratio (y) = 0.16207 -0.00124
# Poissons Ratio (z) = -0.05851 -0.00603
#
# Static dielectric constant tensor:
#      x y z
#    x 1.979670 0.000000 0.000000 
#    y 0.000000 1.964860 0.000000 
#    z 0.000000 0.000000 2.084040 
# 
# From -- ./inp_files/2999.got.cif
#   From: 2010.05.17/outbox.cif.g08.bks.cpg/sg33_2_cif.got.tgz:2999.got - 2010.06.03 17:15:25.
