data_PCOD9345438
_publ_section_title
;
Structure prediction by ZEFSAII (Michael W. Deem and Ramdas Pophale) SiO2 
 PCOD9345438
Probable space group: P N A 21
;
_chemical_formula_sum "Si O2"
_cell_formula_units_Z 24
_cell_length_a 8.049193
_cell_length_b 9.052920
_cell_length_c 15.884437
_cell_angle_alpha 90.000000
_cell_angle_beta 90.000000
_cell_angle_gamma 90.000000
_cell_volume 1157.478279
_symmetry_space_group_name_H-M "P N A 21"
_symmetry_group_IT_number 33
_symmetry_cell_setting 'orthorhombic'
loop_
_space_group_symop_operation_xyz
x,y,z
-x,-y,1/2+z
1/2-x,1/2+y,1/2+z
1/2+x,1/2-y,z
loop_
_atom_site_type_symbol
_atom_site_label
_atom_site_fract_x
_atom_site_fract_y
_atom_site_fract_z
Si Si1 0.922152 0.817851 0.380470
Si Si2 0.819686 0.552428 0.962367
Si Si3 0.240185 0.094133 0.127921
Si Si4 0.721420 0.544042 0.305634
Si Si5 0.885448 0.117139 0.053721
Si Si6 0.307697 0.129165 0.454094
O O1 0.842835 0.665376 0.348770
O O2 0.042086 0.878163 0.307621
O O3 0.033672 0.811935 0.467015
O O4 0.778660 0.935201 0.404875
O O5 0.712289 0.700031 0.973729
O O6 0.002211 0.594239 0.933086
O O7 0.841377 0.486546 0.055035
O O8 0.283360 0.265207 0.109062
O O9 0.046310 0.070222 0.106374
O O10 0.276734 0.022689 0.217471
O O11 0.705766 0.408603 0.370164
O O12 0.770760 0.981770 0.023207
#
# Coordination Sequence:
#
# PCOD9345438 Si02
#       6
#     4   4   4   4   4   4
#     4  10  21  41  63  85 120 162 202 241 298 365
#     4  11  22  40  64  89 119 159 202 243 295 364
#     4  11  23  39  61  90 120 157 201 250 301 349
#     4  11  23  39  61  90 120 157 201 250 301 349
#     4  10  21  41  63  85 120 162 202 241 298 365
#     4  11  22  40  64  89 119 159 202 243 295 364
#
# _framework density 20.734731
#
# number of rings (size 3 to 8) (size 9 to 14) (size 15 to 20)
#    0.000    1.333    0.000   10.000    0.000    5.333 
#    0.000    3.333    0.000    0.000    0.000    0.000 
#    0.000    0.000    0.000    0.000    0.000    0.000 
#
# Total GULP energy -134001.002926 kJ/mol
# GULP energy per Si atom -5583.375122 kJ/mol
# Density = 2.068754 g / cm^3
# Si number density = 20.734731 Si / 1000 Ang^3
#
#
#
# Elastic Constant Matrix: (Units=GPa)
#
#
# Indices 1 2 3 4 5 6 
#
# 1 78.9355 18.2123 -10.5425 0.0000 0.0000 0.0000
# 2 18.2123 110.6911 39.8880 0.0000 0.0000 0.0000
# 3 -10.5425 39.8880 54.4366 0.0000 0.0000 0.0000
# 4 0.0000 0.0000 0.0000 25.3419 0.0000 0.0000
# 5 0.0000 0.0000 0.0000 0.0000 14.1007 0.0000
# 6 0.0000 0.0000 0.0000 0.0000 0.0000 30.7466
#
#
#
# Elastic Compliance Matrix: (Units=1/GPa)
#
#
# Indices 1 2 3 4 5 6 
#
# 1 0.014570 -0.004639 0.006221 0.000000 0.000000 0.000000
# 2 -0.004639 0.013752 -0.010975 0.000000 0.000000 0.000000
# 3 0.006221 -0.010975 0.027617 0.000000 0.000000 0.000000
# 4 0.000000 0.000000 0.000000 0.039460 0.000000 0.000000
# 5 0.000000 0.000000 0.000000 0.000000 0.070918 0.000000
# 6 0.000000 0.000000 0.000000 0.000000 0.000000 0.032524
#
#
# Mechanical properties :
#
#
# Convention : Reuss Voigt Hill
#
# Bulk Modulus (GPa) = 26.91646 37.68655 32.30151
# Shear Modulus (GPa) = 21.73796 27.13822 24.43809
#
# Velocity S-wave (km/s) = 3.24139 3.62170 3.43681
# Velocity P-wave (km/s) = 5.19791 5.97528 5.60010
#
# Compressibility (1/GPa) = 0.03715198
#
# Stress axis : x y z
#
# Youngs Moduli (GPa) = 68.63563 72.71448 36.20975
#
# Poissons Ratio (x) = 0.33731 -0.22525
# Poissons Ratio (y) = 0.31839 0.39742
# Poissons Ratio (z) = -0.42696 0.79807
#
# Static dielectric constant tensor:
#      x y z
#    x 1.790560 0.000000 0.000000 
#    y 0.000000 1.777030 0.000000 
#    z 0.000000 0.000000 1.730470 
# 
# From -- ./inp_files/7550.got.cif
#   From: 2010.05.17/outbox.cif.g08.bks.cpg/sg33_4_cif.got.tgz:7550.got - 2010.06.03 17:15:25.
