data_PCOD9345744
_publ_section_title
;
Structure prediction by ZEFSAII (Michael W. Deem and Ramdas Pophale) SiO2 
 PCOD9345744
Probable space group: P N A 21
;
_chemical_formula_sum "Si O2"
_cell_formula_units_Z 32
_cell_length_a 9.511811
_cell_length_b 10.322922
_cell_length_c 15.230314
_cell_angle_alpha 90.000000
_cell_angle_beta 90.000000
_cell_angle_gamma 90.000000
_cell_volume 1495.459704
_symmetry_space_group_name_H-M "P N A 21"
_symmetry_group_IT_number 33
_symmetry_cell_setting 'orthorhombic'
loop_
_space_group_symop_operation_xyz
x,y,z
-x,-y,1/2+z
1/2-x,1/2+y,1/2+z
1/2+x,1/2-y,z
loop_
_atom_site_type_symbol
_atom_site_label
_atom_site_fract_x
_atom_site_fract_y
_atom_site_fract_z
Si Si1 0.788097 0.144631 0.621550
Si Si2 0.461146 0.729896 0.021471
Si Si3 0.849555 0.474009 0.509973
Si Si4 0.948259 0.721809 0.427458
Si Si5 0.671055 0.703438 0.316132
Si Si6 0.842921 0.905698 0.855630
Si Si7 0.104641 0.861034 0.577598
Si Si8 0.196534 0.144839 0.162935
O O1 0.690836 0.225626 0.555573
O O2 0.785820 0.215201 0.715488
O O3 0.944543 0.134988 0.580706
O O4 0.742473 0.996933 0.639199
O O5 0.549248 0.861029 0.037948
O O6 0.445414 0.671050 0.923083
O O7 0.793014 0.431478 0.414905
O O8 0.710352 0.517184 0.563872
O O9 0.938914 0.602837 0.493607
O O10 0.045565 0.702410 0.342951
O O11 0.026751 0.831716 0.484420
O O12 0.794425 0.736575 0.385509
O O13 0.618071 0.552896 0.325460
O O14 0.801087 0.831588 0.767352
O O15 0.213299 0.749113 0.608874
O O16 0.970239 0.859474 0.641039
#
# Coordination Sequence:
#
# PCOD9345744 Si02
#       8
#     4   4   4   4   4   4   4   4
#     4  11  25  42  67  96 130 172 223 274 328 395
#     4  12  24  44  69  92 134 180 218 262 342 397
#     4  11  23  41  67  96 131 173 215 268 322 403
#     4  11  19  39  67  91 132 167 209 265 332 378
#     4  10  22  41  66  97 130 168 216 278 324 388
#     4  10  23  45  64  92 139 172 216 274 329 391
#     4  12  22  43  67  99 128 170 222 274 327 395
#     4  11  26  41  69  99 132 170 225 279 326 387
#
# _framework density 21.398101
#
# number of rings (size 3 to 8) (size 9 to 14) (size 15 to 20)
#    0.000    1.000    5.000    2.250    1.750    0.000 
#    0.000    1.250    0.000    0.000    0.000    0.000 
#    0.000    0.000    0.000    0.000    0.000    0.000 
#
# Total GULP energy -178347.145987 kJ/mol
# GULP energy per Si atom -5573.348312 kJ/mol
# Density = 2.134940 g / cm^3
# Si number density = 21.398101 Si / 1000 Ang^3
#
#
#
# Elastic Constant Matrix: (Units=GPa)
#
#
# Indices 1 2 3 4 5 6 
#
# 1 106.2211 30.4550 15.1145 0.0000 0.0000 0.0000
# 2 30.4550 38.1806 8.9777 0.0000 0.0000 0.0000
# 3 15.1145 8.9777 90.7976 0.0000 0.0000 0.0000
# 4 0.0000 0.0000 0.0000 14.9493 0.0000 0.0000
# 5 0.0000 0.0000 0.0000 0.0000 25.9323 0.0000
# 6 0.0000 0.0000 0.0000 0.0000 0.0000 31.8591
#
#
#
# Elastic Compliance Matrix: (Units=1/GPa)
#
#
# Indices 1 2 3 4 5 6 
#
# 1 0.012313 -0.009562 -0.001104 0.000000 0.000000 0.000000
# 2 -0.009562 0.034240 -0.001794 0.000000 0.000000 0.000000
# 3 -0.001104 -0.001794 0.011375 0.000000 0.000000 0.000000
# 4 0.000000 0.000000 0.000000 0.066893 0.000000 0.000000
# 5 0.000000 0.000000 0.000000 0.000000 0.038562 0.000000
# 6 0.000000 0.000000 0.000000 0.000000 0.000000 0.031388
#
#
# Mechanical properties :
#
#
# Convention : Reuss Voigt Hill
#
# Bulk Modulus (GPa) = 30.29569 38.25485 34.27527
# Shear Modulus (GPa) = 21.67382 26.59162 24.13272
#
# Velocity S-wave (km/s) = 3.18604 3.52903 3.36191
# Velocity P-wave (km/s) = 5.26529 5.87554 5.57877
#
# Compressibility (1/GPa) = 0.03300799
#
# Stress axis : x y z
#
# Youngs Moduli (GPa) = 81.21518 29.20546 87.91451
#
# Poissons Ratio (x) = 0.27926 0.09708
# Poissons Ratio (y) = 0.77657 0.15770
# Poissons Ratio (z) = 0.08968 0.05239
#
# Static dielectric constant tensor:
#      x y z
#    x 1.790360 0.000000 0.000000 
#    y 0.000000 1.889580 0.000000 
#    z 0.000000 0.000000 1.815670 
# 
# From -- ./inp_files/7669.got.cif
#   From: 2010.05.17/outbox.cif.g08.bks.cpg/sg33_4_cif.got.tgz:7669.got - 2010.06.03 17:15:25.
