data_PCOD9345662
_publ_section_title
;
Structure prediction by ZEFSAII (Michael W. Deem and Ramdas Pophale) SiO2 
 PCOD9345662
Probable space group: P N A 21
;
_chemical_formula_sum "Si O2"
_cell_formula_units_Z 28
_cell_length_a 5.655889
_cell_length_b 22.182024
_cell_length_c 8.577315
_cell_angle_alpha 90.000000
_cell_angle_beta 90.000000
_cell_angle_gamma 90.000000
_cell_volume 1076.101925
_symmetry_space_group_name_H-M "P N A 21"
_symmetry_group_IT_number 33
_symmetry_cell_setting 'orthorhombic'
loop_
_space_group_symop_operation_xyz
x,y,z
-x,-y,1/2+z
1/2-x,1/2+y,1/2+z
1/2+x,1/2-y,z
loop_
_atom_site_type_symbol
_atom_site_label
_atom_site_fract_x
_atom_site_fract_y
_atom_site_fract_z
Si Si1 0.804445 0.150250 0.673790
Si Si2 0.035546 0.269554 0.241536
Si Si3 0.307905 0.426393 0.123099
Si Si4 0.455280 0.885546 0.891146
Si Si5 0.330863 0.552463 0.089444
Si Si6 0.440108 0.088435 0.884423
Si Si7 0.442708 0.685988 0.454158
O O1 0.613654 0.157444 0.537650
O O2 0.675858 0.103446 0.788134
O O3 0.013265 0.112334 0.596383
O O4 0.914429 0.198576 0.793106
O O5 0.302953 0.263520 0.309520
O O6 0.958502 0.338611 0.260336
O O7 0.078539 0.242402 0.068891
O O8 0.264680 0.416947 0.305853
O O9 0.447668 0.486759 0.076043
O O10 0.422072 0.365637 0.055621
O O11 0.047836 0.436350 0.044382
O O12 0.639662 0.933404 0.955864
O O13 0.211717 0.550492 0.262032
O O14 0.296666 0.150787 0.909312
#
# Coordination Sequence:
#
# PCOD9345662 Si02
#       7
#     4   4   4   4   4   4   4
#     4   9  22  42  64  99 142 186 239 305 375 452
#     4  12  27  48  76 109 146 196 253 318 379 454
#     4  11  21  38  66 105 141 191 247 308 380 458
#     4  11  24  42  70 107 150 191 252 313 387 454
#     4  10  22  39  67 101 148 192 235 313 383 461
#     4   9  20  40  63  91 134 186 240 295 368 448
#     4  10  22  43  70  96 141 192 250 306 376 457
#
# _framework density 26.019839999999999
#
# number of rings (size 3 to 8) (size 9 to 14) (size 15 to 20)
#    0.000    1.714    1.429    1.714    4.000    6.857 
#    0.000    1.429    0.000    0.000    0.000    0.000 
#    0.000    0.000    0.000    0.000    0.000    0.000 
#
# Total GULP energy -156248.099240 kJ/mol
# GULP energy per Si atom -5580.289259 kJ/mol
# Density = 2.596062 g / cm^3
# Si number density = 26.019840 Si / 1000 Ang^3
#
#
#
# Elastic Constant Matrix: (Units=GPa)
#
#
# Indices 1 2 3 4 5 6 
#
# 1 59.2136 -22.3440 -11.1657 0.0000 0.0000 0.0000
# 2 -22.3440 99.5318 17.3426 0.0000 0.0000 0.0000
# 3 -11.1657 17.3426 71.2275 0.0000 0.0000 0.0000
# 4 0.0000 0.0000 0.0000 33.9058 0.0000 0.0000
# 5 0.0000 0.0000 0.0000 0.0000 34.9595 0.0000
# 6 0.0000 0.0000 0.0000 0.0000 0.0000 16.1248
#
#
#
# Elastic Compliance Matrix: (Units=1/GPa)
#
#
# Indices 1 2 3 4 5 6 
#
# 1 0.018719 0.003854 0.001996 0.000000 0.000000 0.000000
# 2 0.003854 0.011286 -0.002144 0.000000 0.000000 0.000000
# 3 0.001996 -0.002144 0.014874 0.000000 0.000000 0.000000
# 4 0.000000 0.000000 0.000000 0.029493 0.000000 0.000000
# 5 0.000000 0.000000 0.000000 0.000000 0.028605 0.000000
# 6 0.000000 0.000000 0.000000 0.000000 0.000000 0.062016
#
#
# Mechanical properties :
#
#
# Convention : Reuss Voigt Hill
#
# Bulk Modulus (GPa) = 19.12325 21.95985 20.54155
# Shear Modulus (GPa) = 28.56969 33.40737 30.98853
#
# Velocity S-wave (km/s) = 3.31720 3.58707 3.45477
# Velocity P-wave (km/s) = 4.69438 5.06103 4.88115
#
# Compressibility (1/GPa) = 0.05229236
#
# Stress axis : x y z
#
# Youngs Moduli (GPa) = 53.42218 88.60658 67.22985
#
# Poissons Ratio (x) = -0.34153 -0.13418
# Poissons Ratio (y) = -0.20591 0.14412
# Poissons Ratio (z) = -0.10663 0.18994
#
# Static dielectric constant tensor:
#      x y z
#    x 2.131190 0.000000 0.000000 
#    y 0.000000 2.041660 0.000000 
#    z 0.000000 0.000000 2.109210 
# 
# From -- ./inp_files/2725.got.cif
#   From: 2010.05.17/outbox.cif.g08.bks.cpg/sg33_2_cif.got.tgz:2725.got - 2010.06.03 17:15:25.
