data_PCOD9345194
_publ_section_title
;
Structure prediction by ZEFSAII (Michael W. Deem and Ramdas Pophale) SiO2 
 PCOD9345194
Probable space group: P N A 21
;
_chemical_formula_sum "Si O2"
_cell_formula_units_Z 32
_cell_length_a 9.367760
_cell_length_b 7.932711
_cell_length_c 18.758678
_cell_angle_alpha 90.000000
_cell_angle_beta 90.000000
_cell_angle_gamma 90.000000
_cell_volume 1393.989867
_symmetry_space_group_name_H-M "P N A 21"
_symmetry_group_IT_number 33
_symmetry_cell_setting 'orthorhombic'
loop_
_space_group_symop_operation_xyz
x,y,z
-x,-y,1/2+z
1/2-x,1/2+y,1/2+z
1/2+x,1/2-y,z
loop_
_atom_site_type_symbol
_atom_site_label
_atom_site_fract_x
_atom_site_fract_y
_atom_site_fract_z
Si Si1 0.703912 0.568783 0.282640
Si Si2 0.587157 0.733098 0.148917
Si Si3 0.507682 0.352764 0.006200
Si Si4 0.814066 0.904273 0.071413
Si Si5 0.772643 0.283390 0.093135
Si Si6 0.037303 0.256330 0.851597
Si Si7 0.875429 0.522354 0.768162
Si Si8 0.866408 0.258980 0.252221
O O1 0.662266 0.598085 0.200600
O O2 0.559731 0.603092 0.324688
O O3 0.781952 0.395769 0.298981
O O4 0.821415 0.706811 0.306523
O O5 0.683375 0.775975 0.079599
O O6 0.432283 0.669732 0.125606
O O7 0.585269 0.895532 0.202661
O O8 0.570599 0.285606 0.932960
O O9 0.410084 0.523195 0.005576
O O10 0.632647 0.373712 0.064299
O O11 0.401074 0.208633 0.036333
O O12 0.744131 0.081882 0.094288
O O13 0.833029 0.311765 0.170980
O O14 0.935117 0.419180 0.836256
O O15 0.711467 0.582133 0.766172
O O16 0.968359 0.694766 0.761397
#
# Coordination Sequence:
#
# PCOD9345194 Si02
#       8
#     4   4   4   4   4   4   4   4
#     4  10  22  34  65  88 126 164 201 274 311 386
#     4  11  20  41  58 102 130 158 217 253 354 368
#     4  10  21  39  62  88 124 168 223 248 314 385
#     4  10  23  36  64  94 128 170 199 274 309 393
#     4  10  21  35  61  96 121 165 201 268 317 380
#     4  10  21  40  59  89 119 174 218 252 312 384
#     4  10  22  35  62  91 129 163 200 276 310 391
#     4  11  20  36  57  96 125 154 207 261 335 365
#
# _framework density 22.955690000000001
#
# number of rings (size 3 to 8) (size 9 to 14) (size 15 to 20)
#    0.750    1.000    1.250    4.500    1.750    2.000 
#    0.000    0.000    2.750    1.500    0.000    0.000 
#    0.000    0.000    0.000    0.000    0.000    0.000 
#
# Total GULP energy -178250.801288 kJ/mol
# GULP energy per Si atom -5570.337540 kJ/mol
# Density = 2.290344 g / cm^3
# Si number density = 22.955690 Si / 1000 Ang^3
#
#
#
# Elastic Constant Matrix: (Units=GPa)
#
#
# Indices 1 2 3 4 5 6 
#
# 1 85.6081 9.6879 5.6858 0.0000 0.0000 0.0000
# 2 9.6879 60.2176 1.8946 0.0000 0.0000 0.0000
# 3 5.6858 1.8946 57.5121 0.0000 0.0000 0.0000
# 4 0.0000 0.0000 0.0000 15.6532 0.0000 0.0000
# 5 0.0000 0.0000 0.0000 0.0000 17.6535 0.0000
# 6 0.0000 0.0000 0.0000 0.0000 0.0000 41.6122
#
#
#
# Elastic Compliance Matrix: (Units=1/GPa)
#
#
# Indices 1 2 3 4 5 6 
#
# 1 0.011970 -0.001890 -0.001121 0.000000 0.000000 0.000000
# 2 -0.001890 0.016922 -0.000371 0.000000 0.000000 0.000000
# 3 -0.001121 -0.000371 0.017511 0.000000 0.000000 0.000000
# 4 0.000000 0.000000 0.000000 0.063885 0.000000 0.000000
# 5 0.000000 0.000000 0.000000 0.000000 0.056646 0.000000
# 6 0.000000 0.000000 0.000000 0.000000 0.000000 0.024031
#
#
# Mechanical properties :
#
#
# Convention : Reuss Voigt Hill
#
# Bulk Modulus (GPa) = 25.22808 26.43048 25.82928
# Shear Modulus (GPa) = 23.70330 27.38844 25.54587
#
# Velocity S-wave (km/s) = 3.21685 3.45788 3.33954
# Velocity P-wave (km/s) = 4.98109 5.24225 5.11334
#
# Compressibility (1/GPa) = 0.03963837
#
# Stress axis : x y z
#
# Youngs Moduli (GPa) = 83.54545 59.09391 57.10798
#
# Poissons Ratio (x) = 0.11171 0.06402
# Poissons Ratio (y) = 0.15794 0.02116
# Poissons Ratio (z) = 0.09366 0.02190
#
# Static dielectric constant tensor:
#      x y z
#    x 1.871210 0.000000 0.000000 
#    y 0.000000 1.941070 0.000000 
#    z 0.000000 0.000000 1.892560 
# 
# From -- ./inp_files/8986.got.cif
#   From: 2010.05.17/outbox.cif.g08.bks.cpg/sg33_5_cif.got.tgz:8986.got - 2010.06.03 17:15:25.
