data_PCOD9345211
_publ_section_title
;
Structure prediction by ZEFSAII (Michael W. Deem and Ramdas Pophale) SiO2 
 PCOD9345211
Probable space group: P N A 21
;
_chemical_formula_sum "Si O2"
_cell_formula_units_Z 32
_cell_length_a 15.013993
_cell_length_b 15.554546
_cell_length_c 6.532626
_cell_angle_alpha 90.000000
_cell_angle_beta 90.000000
_cell_angle_gamma 90.000000
_cell_volume 1525.602331
_symmetry_space_group_name_H-M "P N A 21"
_symmetry_group_IT_number 33
_symmetry_cell_setting 'orthorhombic'
loop_
_space_group_symop_operation_xyz
x,y,z
-x,-y,1/2+z
1/2-x,1/2+y,1/2+z
1/2+x,1/2-y,z
loop_
_atom_site_type_symbol
_atom_site_label
_atom_site_fract_x
_atom_site_fract_y
_atom_site_fract_z
Si Si1 0.613385 0.495949 0.760900
Si Si2 0.694214 0.971384 0.349304
Si Si3 0.539363 0.622074 0.099935
Si Si4 0.126214 0.840485 0.495470
Si Si5 0.314629 0.847515 0.608557
Si Si6 0.990319 0.745346 0.775728
Si Si7 0.382759 0.950566 0.244895
Si Si8 0.557575 0.901378 0.036253
O O1 0.703863 0.445903 0.811792
O O2 0.530296 0.434470 0.726906
O O3 0.625971 0.558766 0.564670
O O4 0.592519 0.560405 0.946405
O O5 0.687906 0.067506 0.251129
O O6 0.668274 0.988381 0.584474
O O7 0.628238 0.909577 0.221168
O O8 0.609310 0.665515 0.254154
O O9 0.482627 0.687775 0.962497
O O10 0.217489 0.804524 0.593871
O O11 0.042458 0.794404 0.598034
O O12 0.398205 0.792682 0.688556
O O13 0.326664 0.884422 0.378625
O O14 0.056545 0.673430 0.869523
O O15 0.459079 0.899468 0.127942
O O16 0.431541 0.010851 0.409813
#
# Coordination Sequence:
#
# PCOD9345211 Si02
#       8
#     4   4   4   4   4   4   4   4
#     4  10  21  41  66  92 119 158 223 265 313 377
#     4  10  21  36  64  95 122 167 210 260 308 372
#     4  11  22  42  68  89 122 166 211 273 323 368
#     4  10  23  42  64  91 123 168 212 261 321 376
#     4  10  22  40  62  91 128 167 212 255 313 389
#     4  11  25  39  62  94 132 170 202 259 327 385
#     4  11  19  36  64  87 122 170 208 247 309 366
#     4  11  21  36  58  93 128 160 204 250 310 381
#
# _framework density 20.975322999999999
#
# number of rings (size 3 to 8) (size 9 to 14) (size 15 to 20)
#    0.000    1.500    3.750    1.500    1.750    1.000 
#    0.000    2.500    0.000    0.000    0.000    0.000 
#    0.000    0.000    0.000    0.000    0.000    0.000 
#
# Total GULP energy -178613.472779 kJ/mol
# GULP energy per Si atom -5581.671024 kJ/mol
# Density = 2.092758 g / cm^3
# Si number density = 20.975323 Si / 1000 Ang^3
#
#
#
# Elastic Constant Matrix: (Units=GPa)
#
#
# Indices 1 2 3 4 5 6 
#
# 1 93.5832 6.7904 22.7400 0.0000 0.0000 0.0000
# 2 6.7904 29.5570 5.8763 0.0000 0.0000 0.0000
# 3 22.7400 5.8763 90.9484 0.0000 0.0000 0.0000
# 4 0.0000 0.0000 0.0000 17.4638 0.0000 0.0000
# 5 0.0000 0.0000 0.0000 0.0000 19.0836 0.0000
# 6 0.0000 0.0000 0.0000 0.0000 0.0000 23.1532
#
#
#
# Elastic Compliance Matrix: (Units=1/GPa)
#
#
# Indices 1 2 3 4 5 6 
#
# 1 0.011504 -0.002098 -0.002741 0.000000 0.000000 0.000000
# 2 -0.002098 0.034656 -0.001715 0.000000 0.000000 0.000000
# 3 -0.002741 -0.001715 0.011791 0.000000 0.000000 0.000000
# 4 0.000000 0.000000 0.000000 0.057261 0.000000 0.000000
# 5 0.000000 0.000000 0.000000 0.000000 0.052401 0.000000
# 6 0.000000 0.000000 0.000000 0.000000 0.000000 0.043191
#
#
# Mechanical properties :
#
#
# Convention : Reuss Voigt Hill
#
# Bulk Modulus (GPa) = 22.29941 31.65579 26.97760
# Shear Modulus (GPa) = 20.93289 23.85226 22.39257
#
# Velocity S-wave (km/s) = 3.16250 3.37584 3.27091
# Velocity P-wave (km/s) = 4.89792 5.50633 5.21101
#
# Compressibility (1/GPa) = 0.04484423
#
# Stress axis : x y z
#
# Youngs Moduli (GPa) = 86.92698 28.85521 84.80816
#
# Poissons Ratio (x) = 0.06054 0.23244
# Poissons Ratio (y) = 0.18237 0.14541
# Poissons Ratio (z) = 0.23825 0.04947
#
# Static dielectric constant tensor:
#      x y z
#    x 1.759500 0.000000 0.000000 
#    y 0.000000 1.764200 0.000000 
#    z 0.000000 0.000000 1.788690 
# 
# From -- ./inp_files/1473.got.cif
#   From: 2010.05.17/outbox.cif.g08.bks.cpg/sg33_1_cif.got.tgz:1473.got - 2010.06.03 17:15:25.
