data_PCOD9345331
_publ_section_title
;
Structure prediction by ZEFSAII (Michael W. Deem and Ramdas Pophale) SiO2 
 PCOD9345331
Probable space group: P N A 21
;
_chemical_formula_sum "Si O2"
_cell_formula_units_Z 20
_cell_length_a 21.177605
_cell_length_b 8.116154
_cell_length_c 5.155735
_cell_angle_alpha 90.000000
_cell_angle_beta 90.000000
_cell_angle_gamma 90.000000
_cell_volume 886.171359
_symmetry_space_group_name_H-M "P N A 21"
_symmetry_group_IT_number 33
_symmetry_cell_setting 'orthorhombic'
loop_
_space_group_symop_operation_xyz
x,y,z
-x,-y,1/2+z
1/2-x,1/2+y,1/2+z
1/2+x,1/2-y,z
loop_
_atom_site_type_symbol
_atom_site_label
_atom_site_fract_x
_atom_site_fract_y
_atom_site_fract_z
Si Si1 0.503448 0.890707 0.455620
Si Si2 0.249827 0.184588 0.904909
Si Si3 0.122540 0.767792 0.174074
Si Si4 0.207051 0.517560 0.920652
Si Si5 0.460304 0.545485 0.453966
O O1 0.567184 0.802434 0.353968
O O2 0.453436 0.741706 0.472502
O O3 0.511250 0.977266 0.731746
O O4 0.314213 0.287265 0.841599
O O5 0.197094 0.323805 0.887964
O O6 0.251074 0.049842 0.678404
O O7 0.258537 0.097316 0.176444
O O8 0.098559 0.931094 0.031125
O O9 0.144199 0.623690 0.976049
O O10 0.486442 0.501169 0.169549
#
# Coordination Sequence:
#
# PCOD9345331 Si02
#       5
#     4   4   4   4   4
#     4  11  23  40  60  94 125 155 209 263 298 365
#     4  10  22  41  65  87 124 159 205 254 306 365
#     4   9  24  39  68  83 130 163 204 247 325 360
#     4  10  22  41  65  89 123 160 208 255 305 365
#     4  10  21  39  64  85 122 163 202 243 310 375
#
# _framework density 22.568999999999999
#
# number of rings (size 3 to 8) (size 9 to 14) (size 15 to 20)
#    1.200    0.800    0.000    3.600    8.400    0.000 
#    3.600    0.000    0.000    0.000    0.000    0.000 
#    0.000    0.000    0.000    0.000    0.000    0.000 
#
# Total GULP energy -111659.264532 kJ/mol
# GULP energy per Si atom -5582.963227 kJ/mol
# Density = 2.251763 g / cm^3
# Si number density = 22.569000 Si / 1000 Ang^3
#
#
#
# Elastic Constant Matrix: (Units=GPa)
#
#
# Indices 1 2 3 4 5 6 
#
# 1 53.4992 19.4163 5.4634 0.0000 0.0000 0.0000
# 2 19.4163 48.7903 -21.3680 0.0000 0.0000 0.0000
# 3 5.4634 -21.3680 62.6884 0.0000 0.0000 0.0000
# 4 0.0000 0.0000 0.0000 48.0760 0.0000 0.0000
# 5 0.0000 0.0000 0.0000 0.0000 -13.1967 0.0000
# 6 0.0000 0.0000 0.0000 0.0000 0.0000 37.8069
#
#
#
# Elastic Compliance Matrix: (Units=1/GPa)
#
#
# Indices 1 2 3 4 5 6 
#
# 1 0.023745 -0.012173 -0.006219 0.000000 0.000000 0.000000
# 2 -0.012173 0.030333 0.011400 0.000000 0.000000 0.000000
# 3 -0.006219 0.011400 0.020380 0.000000 0.000000 0.000000
# 4 0.000000 0.000000 0.000000 0.020800 0.000000 0.000000
# 5 0.000000 0.000000 0.000000 0.000000 -0.075777 0.000000
# 6 0.000000 0.000000 0.000000 0.000000 0.000000 0.026450
#
#
# Mechanical properties :
#
#
# Convention : Reuss Voigt Hill
#
# Bulk Modulus (GPa) = 16.53583 19.11127 17.82355
# Shear Modulus (GPa) = 62.44375 25.30166 43.87270
#
# Velocity S-wave (km/s) = 5.26574 3.35189 4.41379
# Velocity P-wave (km/s) = 6.65683 4.84422 5.82151
#
# Compressibility (1/GPa) = 0.06047475
#
# Stress axis : x y z
#
# Youngs Moduli (GPa) = 42.11460 32.96759 49.06838
#
# Poissons Ratio (x) = 0.40131 0.30514
# Poissons Ratio (y) = 0.51265 -0.55939
# Poissons Ratio (z) = 0.26189 -0.37584
#
# Static dielectric constant tensor:
#      x y z
#    x 1.916280 0.000000 0.000000 
#    y 0.000000 1.853280 0.000000 
#    z 0.000000 0.000000 1.776210 
# 
# From -- ./inp_files/2164.got.cif
#   From: 2010.05.17/outbox.cif.g08.bks.cpg/sg33_2_cif.got.tgz:2164.got - 2010.06.03 17:15:25.
