data_PCOD9345575
_publ_section_title
;
Structure prediction by ZEFSAII (Michael W. Deem and Ramdas Pophale) SiO2 
 PCOD9345575
Probable space group: P N A 21
;
_chemical_formula_sum "Si O2"
_cell_formula_units_Z 24
_cell_length_a 8.162528
_cell_length_b 9.434471
_cell_length_c 15.123359
_cell_angle_alpha 90.000000
_cell_angle_beta 90.000000
_cell_angle_gamma 90.000000
_cell_volume 1164.636775
_symmetry_space_group_name_H-M "P N A 21"
_symmetry_group_IT_number 33
_symmetry_cell_setting 'orthorhombic'
loop_
_space_group_symop_operation_xyz
x,y,z
-x,-y,1/2+z
1/2-x,1/2+y,1/2+z
1/2+x,1/2-y,z
loop_
_atom_site_type_symbol
_atom_site_label
_atom_site_fract_x
_atom_site_fract_y
_atom_site_fract_z
Si Si1 0.906776 0.839808 0.601860
Si Si2 0.483683 0.137643 0.701727
Si Si3 0.079093 0.552899 0.861732
Si Si4 0.579093 0.947101 0.541722
Si Si5 0.406775 0.660192 0.801593
Si Si6 0.393427 0.549871 0.201727
O O1 0.767777 0.898188 0.537654
O O2 0.831464 0.825796 0.701727
O O3 0.978880 0.690295 0.574187
O O4 0.051837 0.953019 0.618622
O O5 0.503080 0.305974 0.701727
O O6 0.294877 0.090515 0.701727
O O7 0.565970 0.069033 0.787960
O O8 0.565970 0.069031 0.615495
O O9 0.267776 0.601813 0.865799
O O10 0.978878 0.690294 0.829266
O O11 1.000000 0.500001 0.951727
O O12 0.551835 0.546981 0.784832
#
# Coordination Sequence:
#
# PCOD9345575 Si02
#       6
#     4   4   4   4   4   4
#     4  10  21  45  67  94 132 186 222 274 348 404
#     4  12  21  44  61 102 132 180 230 290 337 400
#     4  12  25  41  72 100 136 180 235 281 340 411
#     4  12  25  41  72 100 136 180 235 281 340 411
#     4  10  21  45  67  94 132 186 222 274 348 404
#     4  10  23  38  75  88 134 186 226 276 349 406
#
# _framework density 20.607282000000001
#
# number of rings (size 3 to 8) (size 9 to 14) (size 15 to 20)
#    1.000    0.000    3.333    4.000    0.000    5.333 
#    0.000    5.000    0.000    0.000    0.000    0.000 
#    0.000    0.000    0.000    0.000    0.000    0.000 
#
# Total GULP energy -134155.575817 kJ/mol
# GULP energy per Si atom -5589.815659 kJ/mol
# Density = 2.056038 g / cm^3
# Si number density = 20.607282 Si / 1000 Ang^3
#
#
#
# Elastic Constant Matrix: (Units=GPa)
#
#
# Indices 1 2 3 4 5 6 
#
# 1 47.5347 -5.9938 -24.3569 0.0000 0.0000 0.0000
# 2 -5.9938 127.8984 30.1956 0.0000 0.0000 0.0000
# 3 -24.3569 30.1956 47.5149 0.0000 0.0000 0.0000
# 4 0.0000 0.0000 0.0000 26.6705 0.0000 0.0000
# 5 0.0000 0.0000 0.0000 0.0000 15.4336 0.0000
# 6 0.0000 0.0000 0.0000 0.0000 0.0000 40.1586
#
#
#
# Elastic Compliance Matrix: (Units=1/GPa)
#
#
# Indices 1 2 3 4 5 6 
#
# 1 0.029221 -0.002550 0.016600 0.000000 0.000000 0.000000
# 2 -0.002550 0.009421 -0.007294 0.000000 0.000000 0.000000
# 3 0.016600 -0.007294 0.034191 0.000000 0.000000 0.000000
# 4 0.000000 0.000000 0.000000 0.037495 0.000000 0.000000
# 5 0.000000 0.000000 0.000000 0.000000 0.064794 0.000000
# 6 0.000000 0.000000 0.000000 0.000000 0.000000 0.024901
#
#
# Mechanical properties :
#
#
# Convention : Reuss Voigt Hill
#
# Bulk Modulus (GPa) = 11.58141 24.73754 18.15948
# Shear Modulus (GPa) = 23.22417 31.32608 27.27513
#
# Velocity S-wave (km/s) = 3.36071 3.90314 3.64203
# Velocity P-wave (km/s) = 4.54878 5.68709 5.14948
#
# Compressibility (1/GPa) = 0.08634524
#
# Stress axis : x y z
#
# Youngs Moduli (GPa) = 34.22143 106.14235 29.24770
#
# Poissons Ratio (x) = 0.27062 -0.48550
# Poissons Ratio (y) = 0.08725 0.21334
# Poissons Ratio (z) = -0.56806 0.77422
#
# Static dielectric constant tensor:
#      x y z
#    x 1.762310 0.000000 0.000000 
#    y 0.000000 1.706150 0.000000 
#    z 0.000000 0.000000 1.734270 
# 
# From -- ./inp_files/8444.got.cif
#   From: 2010.05.17/outbox.cif.g08.bks.cpg/sg33_5_cif.got.tgz:8444.got - 2010.06.03 17:15:25.
