data_PCOD9345304
_publ_section_title
;
Structure prediction by ZEFSAII (Michael W. Deem and Ramdas Pophale) SiO2 
 PCOD9345304
Probable space group: P N A 21
;
_chemical_formula_sum "Si O2"
_cell_formula_units_Z 28
_cell_length_a 14.770687
_cell_length_b 8.911228
_cell_length_c 11.278613
_cell_angle_alpha 90.000000
_cell_angle_beta 90.000000
_cell_angle_gamma 90.000000
_cell_volume 1484.546980
_symmetry_space_group_name_H-M "P N A 21"
_symmetry_group_IT_number 33
_symmetry_cell_setting 'orthorhombic'
loop_
_space_group_symop_operation_xyz
x,y,z
-x,-y,1/2+z
1/2-x,1/2+y,1/2+z
1/2+x,1/2-y,z
loop_
_atom_site_type_symbol
_atom_site_label
_atom_site_fract_x
_atom_site_fract_y
_atom_site_fract_z
Si Si1 0.350415 0.402698 0.248050
Si Si2 0.325414 0.085071 0.833552
Si Si3 0.325293 0.105177 0.114368
Si Si4 0.223084 0.816013 0.147547
Si Si5 0.922093 0.803931 0.150121
Si Si6 0.927438 0.281617 0.462750
Si Si7 0.526715 0.030580 0.787439
O O1 0.263526 0.488474 0.302382
O O2 0.313932 0.272556 0.162283
O O3 0.413194 0.522304 0.180997
O O4 0.408814 0.324982 0.350898
O O5 0.309664 0.246224 0.771484
O O6 0.418428 0.014571 0.782900
O O7 0.335850 0.098902 0.973880
O O8 0.242103 0.993770 0.147847
O O9 0.415589 0.044188 0.180933
O O10 0.321556 0.749700 0.119841
O O11 0.156113 0.749836 0.049771
O O12 0.952603 0.706530 0.265422
O O13 0.986885 0.763575 0.041714
O O14 0.938615 0.447859 0.406550
#
# Coordination Sequence:
#
# PCOD9345304 Si02
#       7
#     4   4   4   4   4   4   4
#     4  10  24  43  64  98 129 175 228 276 340 395
#     4  11  21  41  65  94 132 173 223 278 328 407
#     4  10  22  44  61  95 133 167 227 275 333 409
#     4  10  21  41  64  90 129 177 218 273 338 394
#     4  10  22  43  60  99 133 165 230 269 327 409
#     4  11  21  42  65  94 136 175 218 282 329 394
#     4  10  21  38  67  92 128 176 214 271 337 390
#
# _framework density 18.860972
#
# number of rings (size 3 to 8) (size 9 to 14) (size 15 to 20)
#    0.000    1.714    2.857    1.714    0.000    1.143 
#   25.714    0.000    0.000    0.000    0.000    0.000 
#    0.000    0.000    0.000    0.000    0.000    0.000 
#
# Total GULP energy -156123.624545 kJ/mol
# GULP energy per Si atom -5575.843734 kJ/mol
# Density = 1.881804 g / cm^3
# Si number density = 18.860972 Si / 1000 Ang^3
#
#
#
# Elastic Constant Matrix: (Units=GPa)
#
#
# Indices 1 2 3 4 5 6 
#
# 1 93.3727 21.2587 46.8528 0.0000 0.0000 0.0000
# 2 21.2587 120.1259 57.9226 0.0000 0.0000 0.0000
# 3 46.8528 57.9226 117.9196 0.0000 0.0000 0.0000
# 4 0.0000 0.0000 0.0000 27.1382 0.0000 0.0000
# 5 0.0000 0.0000 0.0000 0.0000 32.8308 0.0000
# 6 0.0000 0.0000 0.0000 0.0000 0.0000 14.8131
#
#
#
# Elastic Compliance Matrix: (Units=1/GPa)
#
#
# Indices 1 2 3 4 5 6 
#
# 1 0.013383 0.000256 -0.005443 0.000000 0.000000 0.000000
# 2 0.000256 0.010913 -0.005462 0.000000 0.000000 0.000000
# 3 -0.005443 -0.005462 0.013326 0.000000 0.000000 0.000000
# 4 0.000000 0.000000 0.000000 0.036848 0.000000 0.000000
# 5 0.000000 0.000000 0.000000 0.000000 0.030459 0.000000
# 6 0.000000 0.000000 0.000000 0.000000 0.000000 0.067508
#
#
# Mechanical properties :
#
#
# Convention : Reuss Voigt Hill
#
# Bulk Modulus (GPa) = 61.26165 64.83181 63.04673
# Shear Modulus (GPa) = 25.10326 28.64870 26.87598
#
# Velocity S-wave (km/s) = 3.65219 3.90159 3.77895
# Velocity P-wave (km/s) = 7.09478 7.39896 7.24847
#
# Compressibility (1/GPa) = 0.01632343
#
# Stress axis : x y z
#
# Youngs Moduli (GPa) = 74.72319 91.63289 75.03986
#
# Poissons Ratio (x) = -0.02348 0.40846
# Poissons Ratio (y) = -0.01915 0.40990
# Poissons Ratio (z) = 0.40673 0.50054
#
# Static dielectric constant tensor:
#      x y z
#    x 1.654980 0.000000 0.000000 
#    y 0.000000 1.706660 0.000000 
#    z 0.000000 0.000000 1.647190 
# 
# From -- ./inp_files/6728.got.cif
#   From: 2010.05.17/outbox.cif.g08.bks.cpg/sg33_4_cif.got.tgz:6728.got - 2010.06.03 17:15:25.
