data_PCOD9345966
_publ_section_title
;
Structure prediction by ZEFSAII (Michael W. Deem and Ramdas Pophale) SiO2 
 PCOD9345966
Probable space group: P N A 21
;
_chemical_formula_sum "Si O2"
_cell_formula_units_Z 20
_cell_length_a 9.259278
_cell_length_b 9.527887
_cell_length_c 7.925646
_cell_angle_alpha 90.000000
_cell_angle_beta 90.000000
_cell_angle_gamma 90.000000
_cell_volume 699.211225
_symmetry_space_group_name_H-M "P N A 21"
_symmetry_group_IT_number 33
_symmetry_cell_setting 'orthorhombic'
loop_
_space_group_symop_operation_xyz
x,y,z
-x,-y,1/2+z
1/2-x,1/2+y,1/2+z
1/2+x,1/2-y,z
loop_
_atom_site_type_symbol
_atom_site_label
_atom_site_fract_x
_atom_site_fract_y
_atom_site_fract_z
Si Si1 0.461356 0.323354 0.333100
Si Si2 0.038644 0.176647 0.780633
Si Si3 0.809234 0.063951 0.046619
Si Si4 1.000000 0.436312 0.556866
Si Si5 0.309232 0.563952 0.567112
O O1 0.340284 0.679544 0.424868
O O2 0.340286 0.320457 0.188864
O O3 0.505431 0.173611 0.402632
O O4 0.598909 0.385145 0.228869
O O5 0.994569 0.326390 0.711101
O O6 0.881549 0.077938 0.475940
O O7 0.118450 0.077940 0.637792
O O8 0.644272 0.023585 0.032272
O O9 0.901092 0.114855 0.884864
O O10 0.144271 0.523586 0.581460
#
# Coordination Sequence:
#
# PCOD9345966 Si02
#       5
#     4   4   4   4   4
#     4  10  22  47  74 106 153 189 237 315 367 432
#     4  10  22  47  74 106 153 189 237 315 367 432
#     4  10  23  47  73 108 153 189 245 311 359 439
#     4  12  24  48  82 106 142 204 244 296 382 430
#     4  10  23  47  73 108 153 189 245 311 359 439
#
# _framework density 28.603660000000001
#
# number of rings (size 3 to 8) (size 9 to 14) (size 15 to 20)
#    0.000    1.600    0.000    6.000    0.000    0.000 
#    0.000   76.000    0.000    0.000    0.000    0.000 
#    0.000    0.000    0.000    0.000    0.000    0.000 
#
# Total GULP energy -111989.681223 kJ/mol
# GULP energy per Si atom -5599.484061 kJ/mol
# Density = 2.853856 g / cm^3
# Si number density = 28.603660 Si / 1000 Ang^3
#
#
#
# Elastic Constant Matrix: (Units=GPa)
#
#
# Indices 1 2 3 4 5 6 
#
# 1 327.7926 118.4938 120.9416 0.0000 0.0000 0.0000
# 2 118.4938 180.4291 85.6831 0.0000 0.0000 0.0000
# 3 120.9416 85.6831 155.9282 0.0000 0.0000 0.0000
# 4 0.0000 0.0000 0.0000 62.3620 0.0000 0.0000
# 5 0.0000 0.0000 0.0000 0.0000 29.7956 0.0000
# 6 0.0000 0.0000 0.0000 0.0000 0.0000 61.1972
#
#
#
# Elastic Compliance Matrix: (Units=1/GPa)
#
#
# Indices 1 2 3 4 5 6 
#
# 1 0.004680 -0.001826 -0.002626 0.000000 0.000000 0.000000
# 2 -0.001826 0.008212 -0.003096 0.000000 0.000000 0.000000
# 3 -0.002626 -0.003096 0.010152 0.000000 0.000000 0.000000
# 4 0.000000 0.000000 0.000000 0.016035 0.000000 0.000000
# 5 0.000000 0.000000 0.000000 0.000000 0.033562 0.000000
# 6 0.000000 0.000000 0.000000 0.000000 0.000000 0.016341
#
#
# Mechanical properties :
#
#
# Convention : Reuss Voigt Hill
#
# Bulk Modulus (GPa) = 125.84616 146.04299 135.94457
# Shear Modulus (GPa) = 46.84841 53.27305 50.06073
#
# Velocity S-wave (km/s) = 4.05142 4.32030 4.18802
# Velocity P-wave (km/s) = 8.12265 8.72095 8.42711
#
# Compressibility (1/GPa) = 0.00794621
#
# Stress axis : x y z
#
# Youngs Moduli (GPa) = 213.68123 121.77374 98.50761
#
# Poissons Ratio (x) = 0.22239 0.25871
# Poissons Ratio (y) = 0.39023 0.30498
# Poissons Ratio (z) = 0.56119 0.37701
#
# Static dielectric constant tensor:
#      x y z
#    x 2.187050 0.000000 0.000000 
#    y 0.000000 2.373700 0.000000 
#    z 0.000000 0.000000 2.396860 
# 
# From -- ./inp_files/5777.got.cif
#   From: 2010.05.17/outbox.cif.g08.bks.cpg/sg33_3_cif.got.tgz:5777.got - 2010.06.03 17:15:25.
