data_PCOD9345611
_publ_section_title
;
Structure prediction by ZEFSAII (Michael W. Deem and Ramdas Pophale) SiO2 
 PCOD9345611
Probable space group: P N A 21
;
_chemical_formula_sum "Si O2"
_cell_formula_units_Z 24
_cell_length_a 15.966677
_cell_length_b 8.911448
_cell_length_c 7.330984
_cell_angle_alpha 90.000000
_cell_angle_beta 90.000000
_cell_angle_gamma 90.000000
_cell_volume 1043.097942
_symmetry_space_group_name_H-M "P N A 21"
_symmetry_group_IT_number 33
_symmetry_cell_setting 'orthorhombic'
loop_
_space_group_symop_operation_xyz
x,y,z
-x,-y,1/2+z
1/2-x,1/2+y,1/2+z
1/2+x,1/2-y,z
loop_
_atom_site_type_symbol
_atom_site_label
_atom_site_fract_x
_atom_site_fract_y
_atom_site_fract_z
Si Si1 0.541713 0.611658 0.196590
Si Si2 0.553511 0.942672 0.161707
Si Si3 0.230169 0.564476 0.236092
Si Si4 0.615791 0.911353 0.743347
Si Si5 0.221643 0.924008 0.333600
Si Si6 0.110909 0.916384 0.801445
O O1 0.530012 0.783915 0.253936
O O2 0.624220 0.540663 0.289824
O O3 0.455909 0.522421 0.206737
O O4 0.564924 0.623411 0.986652
O O5 0.636652 0.998946 0.266639
O O6 0.468979 0.034968 0.148846
O O7 0.590375 0.925529 0.957683
O O8 0.227122 0.744215 0.279582
O O9 0.303912 0.497402 0.355586
O O10 0.260276 0.499731 0.035090
O O11 0.630261 0.737504 0.698075
O O12 0.701673 0.001825 0.720116
#
# Coordination Sequence:
#
# PCOD9345611 Si02
#       6
#     4   4   4   4   4   4
#     4  10  22  39  59  86 123 163 206 259 321 391
#     4   9  21  40  58  83 118 157 201 254 315 381
#     4  10  22  40  63  90 124 169 216 268 330 397
#     4  10  22  37  59  88 119 156 203 257 318 384
#     4  10  22  42  63  88 126 169 214 270 330 395
#     4  11  23  38  60  91 122 162 210 262 324 392
#
# _framework density 23.008386999999999
#
# number of rings (size 3 to 8) (size 9 to 14) (size 15 to 20)
#    0.000    2.000    0.000    3.000    0.000   12.000 
#    0.000    3.333    0.000    0.000    0.000    0.000 
#    0.000    0.000    0.000    0.000    0.000    0.000 
#
# Total GULP energy -133747.019881 kJ/mol
# GULP energy per Si atom -5572.792495 kJ/mol
# Density = 2.295602 g / cm^3
# Si number density = 23.008387 Si / 1000 Ang^3
#
#
#
# Elastic Constant Matrix: (Units=GPa)
#
#
# Indices 1 2 3 4 5 6 
#
# 1 152.6788 70.7799 14.5800 0.0000 0.0000 0.0000
# 2 70.7799 98.7131 15.9101 0.0000 0.0000 0.0000
# 3 14.5800 15.9101 44.5995 0.0000 0.0000 0.0000
# 4 0.0000 0.0000 0.0000 23.3204 0.0000 0.0000
# 5 0.0000 0.0000 0.0000 0.0000 43.5528 0.0000
# 6 0.0000 0.0000 0.0000 0.0000 0.0000 29.1697
#
#
#
# Elastic Compliance Matrix: (Units=1/GPa)
#
#
# Indices 1 2 3 4 5 6 
#
# 1 0.009834 -0.006932 -0.000742 0.000000 0.000000 0.000000
# 2 -0.006932 0.015634 -0.003311 0.000000 0.000000 0.000000
# 3 -0.000742 -0.003311 0.023846 0.000000 0.000000 0.000000
# 4 0.000000 0.000000 0.000000 0.042881 0.000000 0.000000
# 5 0.000000 0.000000 0.000000 0.000000 0.022961 0.000000
# 6 0.000000 0.000000 0.000000 0.000000 0.000000 0.034282
#
#
# Mechanical properties :
#
#
# Convention : Reuss Voigt Hill
#
# Bulk Modulus (GPa) = 36.57118 55.39237 45.98178
# Shear Modulus (GPa) = 27.69744 32.18998 29.94371
#
# Velocity S-wave (km/s) = 3.47334 3.74445 3.61144
# Velocity P-wave (km/s) = 5.65815 6.54383 6.11704
#
# Compressibility (1/GPa) = 0.02734393
#
# Stress axis : x y z
#
# Youngs Moduli (GPa) = 101.68838 63.96232 41.93643
#
# Poissons Ratio (x) = 0.44336 0.03112
# Poissons Ratio (y) = 0.70486 0.13886
# Poissons Ratio (z) = 0.07546 0.21179
#
# Static dielectric constant tensor:
#      x y z
#    x 1.897920 0.000000 0.000000 
#    y 0.000000 2.063040 0.000000 
#    z 0.000000 0.000000 2.001620 
# 
# From -- ./inp_files/4197.got.cif
#   From: 2010.05.17/outbox.cif.g08.bks.cpg/sg33_3_cif.got.tgz:4197.got - 2010.06.03 17:15:25.
