data_PCOD9345187
_publ_section_title
;
Structure prediction by ZEFSAII (Michael W. Deem and Ramdas Pophale) SiO2 
 PCOD9345187
Probable space group: P N A 21
;
_chemical_formula_sum "Si O2"
_cell_formula_units_Z 32
_cell_length_a 32.948777
_cell_length_b 5.353432
_cell_length_c 8.237472
_cell_angle_alpha 90.000000
_cell_angle_beta 90.000000
_cell_angle_gamma 90.000000
_cell_volume 1452.999755
_symmetry_space_group_name_H-M "P N A 21"
_symmetry_group_IT_number 33
_symmetry_cell_setting 'orthorhombic'
loop_
_space_group_symop_operation_xyz
x,y,z
-x,-y,1/2+z
1/2-x,1/2+y,1/2+z
1/2+x,1/2-y,z
loop_
_atom_site_type_symbol
_atom_site_label
_atom_site_fract_x
_atom_site_fract_y
_atom_site_fract_z
Si Si1 0.489973 0.546754 0.605490
Si Si2 0.364434 0.447464 0.332852
Si Si3 0.877297 0.549685 0.539677
Si Si4 0.274236 0.426375 0.415409
Si Si5 0.976483 0.663956 0.303035
Si Si6 0.213152 0.423599 0.125316
Si Si7 0.575416 0.837665 0.626086
Si Si8 0.058772 0.369770 0.317847
O O1 0.508566 0.278325 0.633130
O O2 0.470548 0.619003 0.434823
O O3 0.457768 0.598789 0.751992
O O4 0.531846 0.703245 0.607798
O O5 0.374783 0.710559 0.418215
O O6 0.315899 0.441877 0.309676
O O7 0.373182 0.220400 0.456660
O O8 0.390742 0.364490 0.175096
O O9 0.835528 0.580510 0.642756
O O10 0.915352 0.548979 0.661186
O O11 0.274609 0.670719 0.529722
O O12 0.275955 0.171110 0.520065
O O13 0.236463 0.430104 0.294771
O O14 0.935974 0.511244 0.279187
O O15 0.015260 0.498677 0.339563
O O16 0.582899 0.026349 0.475305
#
# Coordination Sequence:
#
# PCOD9345187 Si02
#       8
#     4   4   4   4   4   4   4   4
#     4  10  21  35  58  82 115 160 205 260 310 369
#     4  10  23  41  62  90 124 164 204 247 309 369
#     4  10  23  41  62  91 123 165 202 249 307 371
#     4  10  21  40  66  96 128 163 207 250 307 373
#     4  10  21  37  57  83 116 157 207 256 314 365
#     4  10  21  40  66  96 128 163 207 250 307 373
#     4  10  22  38  56  85 119 154 210 257 309 364
#     4  10  22  38  55  87 117 156 208 259 307 366
#
# _framework density 22.023402000000001
#
# number of rings (size 3 to 8) (size 9 to 14) (size 15 to 20)
#    0.000    2.000    0.000    2.250    5.250    3.000 
#    0.000    0.000    0.000    0.000    0.000    0.000 
#    0.000    0.000    0.000    0.000    0.000    0.000 
#
# Total GULP energy -178358.350010 kJ/mol
# GULP energy per Si atom -5573.698438 kJ/mol
# Density = 2.197328 g / cm^3
# Si number density = 22.023402 Si / 1000 Ang^3
#
#
#
# Elastic Constant Matrix: (Units=GPa)
#
#
# Indices 1 2 3 4 5 6 
#
# 1 36.6418 4.6561 4.4183 0.0000 0.0000 0.0000
# 2 4.6561 103.2394 17.9740 0.0000 0.0000 0.0000
# 3 4.4183 17.9740 55.0152 0.0000 0.0000 0.0000
# 4 0.0000 0.0000 0.0000 29.2446 0.0000 0.0000
# 5 0.0000 0.0000 0.0000 0.0000 41.4716 0.0000
# 6 0.0000 0.0000 0.0000 0.0000 0.0000 24.1860
#
#
#
# Elastic Compliance Matrix: (Units=1/GPa)
#
#
# Indices 1 2 3 4 5 6 
#
# 1 0.027639 -0.000912 -0.001922 0.000000 0.000000 0.000000
# 2 -0.000912 0.010300 -0.003292 0.000000 0.000000 0.000000
# 3 -0.001922 -0.003292 0.019407 0.000000 0.000000 0.000000
# 4 0.000000 0.000000 0.000000 0.034194 0.000000 0.000000
# 5 0.000000 0.000000 0.000000 0.000000 0.024113 0.000000
# 6 0.000000 0.000000 0.000000 0.000000 0.000000 0.041346
#
#
# Mechanical properties :
#
#
# Convention : Reuss Voigt Hill
#
# Bulk Modulus (GPa) = 22.17562 27.66590 24.92076
# Shear Modulus (GPa) = 27.13227 30.17031 28.65129
#
# Velocity S-wave (km/s) = 3.51376 3.70526 3.61078
# Velocity P-wave (km/s) = 5.15296 5.55829 5.35946
#
# Compressibility (1/GPa) = 0.04509457
#
# Stress axis : x y z
#
# Youngs Moduli (GPa) = 36.18101 97.08268 51.52863
#
# Poissons Ratio (x) = 0.08853 0.09902
# Poissons Ratio (y) = 0.03299 0.16963
# Poissons Ratio (z) = 0.06953 0.31960
#
# Static dielectric constant tensor:
#      x y z
#    x 1.809610 0.000000 0.000000 
#    y 0.000000 1.880840 0.000000 
#    z 0.000000 0.000000 1.882540 
# 
# From -- ./inp_files/5335.got.cif
#   From: 2010.05.17/outbox.cif.g08.bks.cpg/sg33_3_cif.got.tgz:5335.got - 2010.06.03 17:15:25.
