data_PCOD9345780
_publ_section_title
;
Structure prediction by ZEFSAII (Michael W. Deem and Ramdas Pophale) SiO2 
 PCOD9345780
Probable space group: P N A 21
;
_chemical_formula_sum "Si O2"
_cell_formula_units_Z 20
_cell_length_a 7.486396
_cell_length_b 16.156988
_cell_length_c 7.289443
_cell_angle_alpha 90.000000
_cell_angle_beta 90.000000
_cell_angle_gamma 90.000000
_cell_volume 881.713606
_symmetry_space_group_name_H-M "P N A 21"
_symmetry_group_IT_number 33
_symmetry_cell_setting 'orthorhombic'
loop_
_space_group_symop_operation_xyz
x,y,z
-x,-y,1/2+z
1/2-x,1/2+y,1/2+z
1/2+x,1/2-y,z
loop_
_atom_site_type_symbol
_atom_site_label
_atom_site_fract_x
_atom_site_fract_y
_atom_site_fract_z
Si Si1 0.576011 0.050274 0.701330
Si Si2 0.686043 0.093064 0.111385
Si Si3 0.947928 0.980839 0.718796
Si Si4 0.449514 0.631778 0.057584
Si Si5 0.844953 0.689619 0.955019
O O1 0.529645 0.125654 0.565460
O O2 0.418629 0.983827 0.705073
O O3 0.754495 0.001032 0.631725
O O4 0.625077 0.089185 0.899858
O O5 0.635536 0.172844 0.236966
O O6 0.898184 0.076857 0.132453
O O7 0.895102 0.934438 0.904021
O O8 0.038277 0.072548 0.734619
O O9 0.650182 0.658281 0.009685
O O10 0.352312 0.717878 0.030787
#
# Coordination Sequence:
#
# PCOD9345780 Si02
#       5
#     4   4   4   4   4
#     4  11  22  40  67  96 130 172 217 269 333 397
#     4  11  22  40  67  96 130 172 217 269 333 397
#     4  10  22  42  66  86 132 176 212 262 330 396
#     4  10  22  42  66  91 129 172 218 272 325 387
#     4  10  24  40  62 101 123 174 222 268 333 383
#
# _framework density 22.6831
#
# number of rings (size 3 to 8) (size 9 to 14) (size 15 to 20)
#    0.000    1.600    4.000    0.000    5.600    0.000 
#    3.600    0.000    0.000    0.000    0.000    0.000 
#    0.000    0.000    0.000    0.000    0.000    0.000 
#
# Total GULP energy -111419.546062 kJ/mol
# GULP energy per Si atom -5570.977303 kJ/mol
# Density = 2.263147 g / cm^3
# Si number density = 22.683100 Si / 1000 Ang^3
#
#
#
# Elastic Constant Matrix: (Units=GPa)
#
#
# Indices 1 2 3 4 5 6 
#
# 1 64.1326 4.8197 5.8120 0.0000 0.0000 0.0000
# 2 4.8197 113.1505 18.9392 0.0000 0.0000 0.0000
# 3 5.8120 18.9392 98.0560 0.0000 0.0000 0.0000
# 4 0.0000 0.0000 0.0000 26.7698 0.0000 0.0000
# 5 0.0000 0.0000 0.0000 0.0000 25.3571 0.0000
# 6 0.0000 0.0000 0.0000 0.0000 0.0000 -10.0110
#
#
#
# Elastic Compliance Matrix: (Units=1/GPa)
#
#
# Indices 1 2 3 4 5 6 
#
# 1 0.015708 -0.000530 -0.000829 0.000000 0.000000 0.000000
# 2 -0.000530 0.009151 -0.001736 0.000000 0.000000 0.000000
# 3 -0.000829 -0.001736 0.010583 0.000000 0.000000 0.000000
# 4 0.000000 0.000000 0.000000 0.037356 0.000000 0.000000
# 5 0.000000 0.000000 0.000000 0.000000 0.039437 0.000000
# 6 0.000000 0.000000 0.000000 0.000000 0.000000 -0.099890
#
#
# Mechanical properties :
#
#
# Convention : Reuss Voigt Hill
#
# Bulk Modulus (GPa) = 34.18655 37.16453 35.67554
# Shear Modulus (GPa) = 176.78075 24.80772 100.79424
#
# Velocity S-wave (km/s) = 8.83766 3.31065 6.67325
# Velocity P-wave (km/s) = 10.91985 5.57079 8.66824
#
# Compressibility (1/GPa) = 0.02925127
#
# Stress axis : x y z
#
# Youngs Moduli (GPa) = 63.66326 109.27812 94.49403
#
# Poissons Ratio (x) = 0.05796 0.07830
# Poissons Ratio (y) = 0.03377 0.16405
# Poissons Ratio (z) = 0.05275 0.18971
#
# Static dielectric constant tensor:
#      x y z
#    x 1.915210 0.000000 0.000000 
#    y 0.000000 1.910250 0.000000 
#    z 0.000000 0.000000 2.015050 
# 
# From -- ./inp_files/2990.got.cif
#   From: 2010.05.17/outbox.cif.g08.bks.cpg/sg33_2_cif.got.tgz:2990.got - 2010.06.03 17:15:25.
