data_PCOD9345504
_publ_section_title
;
Structure prediction by ZEFSAII (Michael W. Deem and Ramdas Pophale) SiO2 
 PCOD9345504
Probable space group: P N A 21
;
_chemical_formula_sum "Si O2"
_cell_formula_units_Z 32
_cell_length_a 20.312694
_cell_length_b 7.697191
_cell_length_c 8.661094
_cell_angle_alpha 90.000000
_cell_angle_beta 90.000000
_cell_angle_gamma 90.000000
_cell_volume 1354.167984
_symmetry_space_group_name_H-M "P N A 21"
_symmetry_group_IT_number 33
_symmetry_cell_setting 'orthorhombic'
loop_
_space_group_symop_operation_xyz
x,y,z
-x,-y,1/2+z
1/2-x,1/2+y,1/2+z
1/2+x,1/2-y,z
loop_
_atom_site_type_symbol
_atom_site_label
_atom_site_fract_x
_atom_site_fract_y
_atom_site_fract_z
Si Si1 0.842608 0.318576 0.926170
Si Si2 0.537149 0.899905 0.264448
Si Si3 0.629232 0.323196 0.636266
Si Si4 0.103584 0.771064 0.973356
Si Si5 0.194972 0.073178 0.968854
Si Si6 0.859328 0.941075 0.796375
Si Si7 0.407598 0.066715 0.200639
Si Si8 0.489777 0.538907 0.294206
O O1 0.895900 0.448164 0.849378
O O2 0.838005 0.143103 0.826701
O O3 0.772022 0.396870 0.956017
O O4 0.878528 0.286279 0.089812
O O5 0.485992 0.048819 0.223530
O O6 0.502151 0.738201 0.355465
O O7 0.563451 0.806215 0.113310
O O8 0.656744 0.361116 0.465167
O O9 0.615695 0.119309 0.645615
O O10 0.558689 0.422073 0.649961
O O11 0.666139 0.367564 0.799816
O O12 0.119606 0.608689 0.867100
O O13 0.053877 0.910461 0.896750
O O14 0.170525 0.876313 0.990568
O O15 0.170235 0.143085 0.138901
O O16 0.938483 0.956070 0.770011
#
# Coordination Sequence:
#
# PCOD9345504 Si02
#       8
#     4   4   4   4   4   4   4   4
#     4  11  24  45  72 102 144 187 248 313 369 454
#     4  10  21  42  67 106 141 184 241 309 370 438
#     4  10  24  44  69 106 142 188 241 301 368 444
#     4  11  21  43  70 103 150 188 236 303 374 447
#     4  11  25  47  71 105 141 199 251 299 376 457
#     4  11  23  47  74 102 140 192 248 302 368 438
#     4  11  24  43  69 105 147 184 242 307 371 440
#     4   9  18  37  74 101 135 182 237 296 360 430
#
# _framework density 23.630745999999998
#
# number of rings (size 3 to 8) (size 9 to 14) (size 15 to 20)
#    0.000    1.500    2.500    3.750    3.500    1.000 
#   13.500    0.000    0.000    0.000    0.000    0.000 
#    0.000    0.000    0.000    0.000    0.000    0.000 
#
# Total GULP energy -178401.006955 kJ/mol
# GULP energy per Si atom -5575.031467 kJ/mol
# Density = 2.357696 g / cm^3
# Si number density = 23.630746 Si / 1000 Ang^3
#
#
#
# Elastic Constant Matrix: (Units=GPa)
#
#
# Indices 1 2 3 4 5 6 
#
# 1 143.0783 29.8126 39.0115 0.0000 0.0000 0.0000
# 2 29.8126 55.8277 45.7970 0.0000 0.0000 0.0000
# 3 39.0115 45.7970 150.4328 0.0000 0.0000 0.0000
# 4 0.0000 0.0000 0.0000 27.9398 0.0000 0.0000
# 5 0.0000 0.0000 0.0000 0.0000 25.0628 0.0000
# 6 0.0000 0.0000 0.0000 0.0000 0.0000 4.9573
#
#
#
# Elastic Compliance Matrix: (Units=1/GPa)
#
#
# Indices 1 2 3 4 5 6 
#
# 1 0.007982 -0.003418 -0.001029 0.000000 0.000000 0.000000
# 2 -0.003418 0.025338 -0.006827 0.000000 0.000000 0.000000
# 3 -0.001029 -0.006827 0.008993 0.000000 0.000000 0.000000
# 4 0.000000 0.000000 0.000000 0.035791 0.000000 0.000000
# 5 0.000000 0.000000 0.000000 0.000000 0.039900 0.000000
# 6 0.000000 0.000000 0.000000 0.000000 0.000000 0.201725
#
#
# Mechanical properties :
#
#
# Convention : Reuss Voigt Hill
#
# Bulk Modulus (GPa) = 50.59844 64.28680 57.44262
# Shear Modulus (GPa) = 14.33212 27.23982 20.78597
#
# Velocity S-wave (km/s) = 2.46540 3.39887 2.96905
# Velocity P-wave (km/s) = 5.43717 6.53199 6.00956
#
# Compressibility (1/GPa) = 0.01976345
#
# Stress axis : x y z
#
# Youngs Moduli (GPa) = 125.28092 39.46595 111.19814
#
# Poissons Ratio (x) = 0.13490 0.11447
# Poissons Ratio (y) = 0.42822 0.75920
# Poissons Ratio (z) = 0.12896 0.26945
#
# Static dielectric constant tensor:
#      x y z
#    x 1.914450 0.000000 0.000000 
#    y 0.000000 1.905390 0.000000 
#    z 0.000000 0.000000 2.088930 
# 
# From -- ./inp_files/4982.got.cif
#   From: 2010.05.17/outbox.cif.g08.bks.cpg/sg33_3_cif.got.tgz:4982.got - 2010.06.03 17:15:25.
