data_PCOD9345130
_publ_section_title
;
Structure prediction by ZEFSAII (Michael W. Deem and Ramdas Pophale) SiO2 
 PCOD9345130
Probable space group: P N A 21
;
_chemical_formula_sum "Si O2"
_cell_formula_units_Z 28
_cell_length_a 13.858108
_cell_length_b 11.396674
_cell_length_c 8.155443
_cell_angle_alpha 90.000000
_cell_angle_beta 90.000000
_cell_angle_gamma 90.000000
_cell_volume 1288.040811
_symmetry_space_group_name_H-M "P N A 21"
_symmetry_group_IT_number 33
_symmetry_cell_setting 'orthorhombic'
loop_
_space_group_symop_operation_xyz
x,y,z
-x,-y,1/2+z
1/2-x,1/2+y,1/2+z
1/2+x,1/2-y,z
loop_
_atom_site_type_symbol
_atom_site_label
_atom_site_fract_x
_atom_site_fract_y
_atom_site_fract_z
Si Si1 0.088070 0.597785 0.011790
Si Si2 0.810255 0.602371 0.372562
Si Si3 0.620455 0.687864 0.221828
Si Si4 0.117942 0.518071 0.536227
Si Si5 0.589012 0.739659 0.689819
Si Si6 0.063027 0.170044 0.936194
Si Si7 0.693888 0.556185 0.892923
O O1 0.105846 0.677199 0.170104
O O2 0.992252 0.519212 0.014498
O O3 0.177455 0.510039 0.988454
O O4 0.072332 0.685329 0.856819
O O5 0.704210 0.653339 0.347837
O O6 0.846560 0.547679 0.200613
O O7 0.881121 0.707764 0.417766
O O8 0.518792 0.651331 0.298058
O O9 0.655117 0.624578 0.055022
O O10 0.123669 0.657553 0.566435
O O11 0.192384 0.468873 0.402934
O O12 0.495319 0.679367 0.608092
O O13 0.663136 0.638096 0.741763
O O14 0.138887 0.066759 0.909420
#
# Coordination Sequence:
#
# PCOD9345130 Si02
#       7
#     4   4   4   4   4   4   4
#     4  10  20  43  68  92 127 172 216 277 329 390
#     4  10  22  39  65  98 119 170 219 271 325 390
#     4  10  23  44  63  90 135 169 219 271 336 399
#     4  10  20  42  68  91 128 168 225 269 318 398
#     4  10  23  40  63  95 131 168 218 269 333 385
#     4  12  22  40  63  95 133 167 219 271 331 392
#     4  10  24  42  62  93 131 176 214 270 336 394
#
# _framework density 21.738440000000001
#
# number of rings (size 3 to 8) (size 9 to 14) (size 15 to 20)
#    0.000    1.714    2.857    0.857    2.000    1.143 
#    5.143    4.286    0.000    0.000    0.000    0.000 
#    0.000    0.000    0.000    0.000    0.000    0.000 
#
# Total GULP energy -156440.135862 kJ/mol
# GULP energy per Si atom -5587.147709 kJ/mol
# Density = 2.168896 g / cm^3
# Si number density = 21.738440 Si / 1000 Ang^3
#
#
#
# Elastic Constant Matrix: (Units=GPa)
#
#
# Indices 1 2 3 4 5 6 
#
# 1 67.9184 43.5059 -0.1812 0.0000 0.0000 0.0000
# 2 43.5059 124.5951 25.5724 0.0000 0.0000 0.0000
# 3 -0.1812 25.5724 54.2719 0.0000 0.0000 0.0000
# 4 0.0000 0.0000 0.0000 34.6257 0.0000 0.0000
# 5 0.0000 0.0000 0.0000 0.0000 27.8154 0.0000
# 6 0.0000 0.0000 0.0000 0.0000 0.0000 36.4698
#
#
#
# Elastic Compliance Matrix: (Units=1/GPa)
#
#
# Indices 1 2 3 4 5 6 
#
# 1 0.019595 -0.007589 0.003642 0.000000 0.000000 0.000000
# 2 -0.007589 0.011825 -0.005597 0.000000 0.000000 0.000000
# 3 0.003642 -0.005597 0.021075 0.000000 0.000000 0.000000
# 4 0.000000 0.000000 0.000000 0.028880 0.000000 0.000000
# 5 0.000000 0.000000 0.000000 0.000000 0.035951 0.000000
# 6 0.000000 0.000000 0.000000 0.000000 0.000000 0.027420
#
#
# Mechanical properties :
#
#
# Convention : Reuss Voigt Hill
#
# Bulk Modulus (GPa) = 29.93590 42.73107 36.33349
# Shear Modulus (GPa) = 28.57610 31.64141 30.10875
#
# Velocity S-wave (km/s) = 3.62960 3.81931 3.72566
# Velocity P-wave (km/s) = 5.60055 6.25692 5.93781
#
# Compressibility (1/GPa) = 0.03340471
#
# Stress axis : x y z
#
# Youngs Moduli (GPa) = 51.03394 84.56761 47.44912
#
# Poissons Ratio (x) = 0.64182 -0.17279
# Poissons Ratio (y) = 0.38732 0.26558
# Poissons Ratio (z) = -0.18584 0.47333
#
# Static dielectric constant tensor:
#      x y z
#    x 1.758110 0.000000 0.000000 
#    y 0.000000 1.771440 0.000000 
#    z 0.000000 0.000000 1.860660 
# 
# From -- ./inp_files/3850.got.cif
#   From: 2010.05.17/outbox.cif.g08.bks.cpg/sg33_2_cif.got.tgz:3850.got - 2010.06.03 17:15:25.
