data_PCOD9345802
_publ_section_title
;
Structure prediction by ZEFSAII (Michael W. Deem and Ramdas Pophale) SiO2 
 PCOD9345802
Probable space group: P N A 21
;
_chemical_formula_sum "Si O2"
_cell_formula_units_Z 24
_cell_length_a 10.788168
_cell_length_b 9.977682
_cell_length_c 8.169700
_cell_angle_alpha 90.000000
_cell_angle_beta 90.000000
_cell_angle_gamma 90.000000
_cell_volume 879.393940
_symmetry_space_group_name_H-M "P N A 21"
_symmetry_group_IT_number 33
_symmetry_cell_setting 'orthorhombic'
loop_
_space_group_symop_operation_xyz
x,y,z
-x,-y,1/2+z
1/2-x,1/2+y,1/2+z
1/2+x,1/2-y,z
loop_
_atom_site_type_symbol
_atom_site_label
_atom_site_fract_x
_atom_site_fract_y
_atom_site_fract_z
Si Si1 0.033042 0.032987 0.312870
Si Si2 0.330995 0.748519 0.607371
Si Si3 0.334609 0.255259 0.427494
Si Si4 0.348147 0.606179 0.124633
Si Si5 0.340016 0.099228 0.881847
Si Si6 0.016678 0.524530 0.095205
O O1 0.082361 0.122176 0.160723
O O2 0.930740 0.123953 0.407696
O O3 0.971753 0.901568 0.234695
O O4 0.132727 0.021801 0.457734
O O5 0.236969 0.750504 0.758432
O O6 0.243275 0.718976 0.451997
O O7 0.419036 0.877499 0.597506
O O8 0.120974 0.509202 0.534504
O O9 0.419978 0.125804 0.465911
O O10 0.251265 0.538040 0.246723
O O11 0.274801 0.738122 0.063856
O O12 0.462999 0.100505 0.768170
#
# Coordination Sequence:
#
# PCOD9345802 Si02
#       6
#     4   4   4   4   4   4
#     4  11  22  44  70 100 142 181 223 279 340 405
#     4  11  23  41  69 100 137 181 223 278 346 408
#     4  10  22  42  68  99 134 178 223 276 340 402
#     4  10  24  42  68 101 136 178 225 276 337 404
#     4  11  23  42  67  98 132 177 226 276 340 402
#     4  11  24  43  68  98 137 177 228 285 337 405
#
# _framework density 27.291520999999999
#
# number of rings (size 3 to 8) (size 9 to 14) (size 15 to 20)
#    0.000    1.333    0.000    6.000    0.000    4.000 
#    0.000   25.000    0.000    0.000    0.000    0.000 
#    0.000    0.000    0.000    0.000    0.000    0.000 
#
# Total GULP energy -133996.269134 kJ/mol
# GULP energy per Si atom -5583.177881 kJ/mol
# Density = 2.722940 g / cm^3
# Si number density = 27.291521 Si / 1000 Ang^3
#
#
#
# Elastic Constant Matrix: (Units=GPa)
#
#
# Indices 1 2 3 4 5 6 
#
# 1 66.8676 49.3584 52.1445 0.0000 0.0000 0.0000
# 2 49.3584 136.3591 39.6550 0.0000 0.0000 0.0000
# 3 52.1445 39.6550 148.6202 0.0000 0.0000 0.0000
# 4 0.0000 0.0000 0.0000 18.9937 0.0000 0.0000
# 5 0.0000 0.0000 0.0000 0.0000 87.2826 0.0000
# 6 0.0000 0.0000 0.0000 0.0000 0.0000 -182.4535
#
#
#
# Elastic Compliance Matrix: (Units=1/GPa)
#
#
# Indices 1 2 3 4 5 6 
#
# 1 0.025918 -0.007304 -0.007145 0.000000 0.000000 0.000000
# 2 -0.007304 0.010009 -0.000108 0.000000 0.000000 0.000000
# 3 -0.007145 -0.000108 0.009264 0.000000 0.000000 0.000000
# 4 0.000000 0.000000 0.000000 0.052649 0.000000 0.000000
# 5 0.000000 0.000000 0.000000 0.000000 0.011457 0.000000
# 6 0.000000 0.000000 0.000000 0.000000 0.000000 -0.005481
#
#
# Mechanical properties :
#
#
# Convention : Reuss Voigt Hill
#
# Bulk Modulus (GPa) = 62.19733 70.46252 66.32993
# Shear Modulus (GPa) = 36.15648 -1.18950 17.48349
#
# Velocity S-wave (km/s) = 3.64376 -0.66091 2.53379
# Velocity P-wave (km/s) = 6.36727 5.02913 5.73735
#
# Compressibility (1/GPa) = 0.01607786
#
# Stress axis : x y z
#
# Youngs Moduli (GPa) = 38.58362 99.91254 107.94353
#
# Poissons Ratio (x) = 0.72974 0.77121
# Poissons Ratio (y) = 0.28181 0.01165
# Poissons Ratio (z) = 0.27567 0.01079
#
# Static dielectric constant tensor:
#      x y z
#    x 2.411660 0.000000 0.000000 
#    y 0.000000 2.122860 0.000000 
#    z 0.000000 0.000000 2.169560 
# 
# From -- ./inp_files/4675.got.cif
#   From: 2010.05.17/outbox.cif.g08.bks.cpg/sg33_3_cif.got.tgz:4675.got - 2010.06.03 17:15:25.
