data_PCOD9345729
_publ_section_title
;
Structure prediction by ZEFSAII (Michael W. Deem and Ramdas Pophale) SiO2 
 PCOD9345729
Probable space group: P N A 21
;
_chemical_formula_sum "Si O2"
_cell_formula_units_Z 32
_cell_length_a 28.083562
_cell_length_b 8.879129
_cell_length_c 5.059985
_cell_angle_alpha 90.000000
_cell_angle_beta 90.000000
_cell_angle_gamma 90.000000
_cell_volume 1261.745563
_symmetry_space_group_name_H-M "P N A 21"
_symmetry_group_IT_number 33
_symmetry_cell_setting 'orthorhombic'
loop_
_space_group_symop_operation_xyz
x,y,z
-x,-y,1/2+z
1/2-x,1/2+y,1/2+z
1/2+x,1/2-y,z
loop_
_atom_site_type_symbol
_atom_site_label
_atom_site_fract_x
_atom_site_fract_y
_atom_site_fract_z
Si Si1 0.809065 0.201585 0.354880
Si Si2 0.870868 0.573172 0.838600
Si Si3 0.997328 0.395951 0.084066
Si Si4 0.092657 0.258975 0.856439
Si Si5 0.368052 0.505126 0.702603
Si Si6 0.101051 0.738704 0.517501
Si Si7 0.279051 0.862612 0.142934
Si Si8 0.779917 0.914413 0.016451
O O1 0.851611 0.278264 0.198901
O O2 0.758209 0.255838 0.478743
O O3 0.835750 0.132159 0.601570
O O4 0.789397 0.066749 0.183160
O O5 0.898322 0.678351 0.058917
O O6 0.890630 0.403341 0.825328
O O7 0.816544 0.570349 0.940388
O O8 0.875830 0.633669 0.544872
O O9 0.949512 0.302370 0.144947
O O10 0.011433 0.479906 0.354052
O O11 0.039195 0.294812 0.958137
O O12 0.105963 0.092177 0.964572
O O13 0.329625 0.608377 0.850339
O O14 0.401123 0.407906 0.900561
O O15 0.256650 0.994459 0.304211
O O16 0.295083 0.709001 0.276010
#
# Coordination Sequence:
#
# PCOD9345729 Si02
#       8
#     4   4   4   4   4   4   4   4
#     4  10  24  42  66  98 149 187 245 302 379 437
#     4  12  26  43  79 102 150 189 257 293 381 436
#     4  12  25  49  77 109 147 187 251 321 380 456
#     4  12  25  49  73 108 139 201 239 315 369 451
#     4  10  24  44  70  97 149 188 241 300 380 440
#     4  11  25  46  73 109 142 195 241 320 374 456
#     4  11  23  40  68 103 140 201 252 302 368 448
#     4  10  22  41  62  98 142 190 244 309 355 446
#
# _framework density 25.361688000000001
#
# number of rings (size 3 to 8) (size 9 to 14) (size 15 to 20)
#    0.000    1.000    3.750    1.500    7.000    5.000 
#    2.250    0.000    0.000    0.000    0.000    0.000 
#    0.000    0.000    0.000    0.000    0.000    0.000 
#
# Total GULP energy -178316.019778 kJ/mol
# GULP energy per Si atom -5572.375618 kJ/mol
# Density = 2.530396 g / cm^3
# Si number density = 25.361688 Si / 1000 Ang^3
#
#
#
# Elastic Constant Matrix: (Units=GPa)
#
#
# Indices 1 2 3 4 5 6 
#
# 1 143.5557 53.7919 15.9969 0.0000 0.0000 0.0000
# 2 53.7919 112.3083 31.6808 0.0000 0.0000 0.0000
# 3 15.9969 31.6808 76.7481 0.0000 0.0000 0.0000
# 4 0.0000 0.0000 0.0000 41.7384 0.0000 0.0000
# 5 0.0000 0.0000 0.0000 0.0000 34.2400 0.0000
# 6 0.0000 0.0000 0.0000 0.0000 0.0000 38.2698
#
#
#
# Elastic Compliance Matrix: (Units=1/GPa)
#
#
# Indices 1 2 3 4 5 6 
#
# 1 0.008490 -0.004038 -0.000103 0.000000 0.000000 0.000000
# 2 -0.004038 0.011998 -0.004111 0.000000 0.000000 0.000000
# 3 -0.000103 -0.004111 0.014748 0.000000 0.000000 0.000000
# 4 0.000000 0.000000 0.000000 0.023959 0.000000 0.000000
# 5 0.000000 0.000000 0.000000 0.000000 0.029206 0.000000
# 6 0.000000 0.000000 0.000000 0.000000 0.000000 0.026130
#
#
# Mechanical properties :
#
#
# Convention : Reuss Voigt Hill
#
# Bulk Modulus (GPa) = 53.38166 59.50568 56.44367
# Shear Modulus (GPa) = 36.42251 38.25913 37.34082
#
# Velocity S-wave (km/s) = 3.79373 3.88821 3.84126
# Velocity P-wave (km/s) = 6.34695 6.60843 6.47901
#
# Compressibility (1/GPa) = 0.01873302
#
# Stress axis : x y z
#
# Youngs Moduli (GPa) = 117.78120 83.35049 67.80557
#
# Poissons Ratio (x) = 0.33653 0.00699
# Poissons Ratio (y) = 0.47554 0.27874
# Poissons Ratio (z) = 0.01213 0.34265
#
# Static dielectric constant tensor:
#      x y z
#    x 2.315040 0.000000 0.000000 
#    y 0.000000 2.034730 0.000000 
#    z 0.000000 0.000000 2.141820 
# 
# From -- ./inp_files/2519.got.cif
#   From: 2010.05.17/outbox.cif.g08.bks.cpg/sg33_2_cif.got.tgz:2519.got - 2010.06.03 17:15:25.
