data_PCOD9345590
_publ_section_title
;
Structure prediction by ZEFSAII (Michael W. Deem and Ramdas Pophale) SiO2 
 PCOD9345590
Probable space group: P N A 21
;
_chemical_formula_sum "Si O2"
_cell_formula_units_Z 32
_cell_length_a 10.777666
_cell_length_b 15.606002
_cell_length_c 8.593192
_cell_angle_alpha 90.000000
_cell_angle_beta 90.000000
_cell_angle_gamma 90.000000
_cell_volume 1445.342903
_symmetry_space_group_name_H-M "P N A 21"
_symmetry_group_IT_number 33
_symmetry_cell_setting 'orthorhombic'
loop_
_space_group_symop_operation_xyz
x,y,z
-x,-y,1/2+z
1/2-x,1/2+y,1/2+z
1/2+x,1/2-y,z
loop_
_atom_site_type_symbol
_atom_site_label
_atom_site_fract_x
_atom_site_fract_y
_atom_site_fract_z
Si Si1 0.228221 0.865015 0.369180
Si Si2 0.887058 0.070925 0.550498
Si Si3 0.389180 0.017902 0.313851
Si Si4 0.988196 0.887008 0.544464
Si Si5 0.147621 0.503146 0.446455
Si Si6 0.978992 0.791838 0.860939
Si Si7 0.271641 0.669724 0.325738
Si Si8 0.781355 0.316683 0.459377
O O1 0.168350 0.879361 0.197850
O O2 0.249977 0.764804 0.390440
O O3 0.127863 0.898345 0.490197
O O4 0.348427 0.924872 0.377259
O O5 0.993111 0.122875 0.463057
O O6 0.933692 0.977391 0.602260
O O7 0.772617 0.052660 0.433557
O O8 0.378783 0.012109 0.129245
O O9 0.297552 0.090313 0.380003
O O10 0.529069 0.036299 0.363967
O O11 0.904737 0.859276 0.395403
O O12 0.985635 0.817338 0.680631
O O13 0.176881 0.597881 0.385190
O O14 0.088952 0.729950 0.918711
O O15 0.837387 0.765934 0.892912
O O16 0.249533 0.673957 0.141352
#
# Coordination Sequence:
#
# PCOD9345590 Si02
#       8
#     4   4   4   4   4   4   4   4
#     4  11  24  42  70  99 134 190 227 292 351 434
#     4  10  21  47  68  99 139 187 236 286 360 426
#     4  11  25  44  72 102 151 184 247 289 371 424
#     4  11  25  42  73  99 143 176 245 291 361 426
#     4  10  24  43  72 104 143 189 236 298 351 439
#     4  12  27  44  73 105 144 185 242 300 361 429
#     4  11  25  44  71 102 140 187 241 293 364 429
#     4  12  27  46  71 104 146 190 242 301 365 435
#
# _framework density 22.140073999999998
#
# number of rings (size 3 to 8) (size 9 to 14) (size 15 to 20)
#    0.000    1.000    1.250    5.250    7.000    4.000 
#    0.000    0.000    0.000    0.000    0.000    0.000 
#    0.000    0.000    0.000    0.000    0.000    0.000 
#
# Total GULP energy -179001.819275 kJ/mol
# GULP energy per Si atom -5593.806852 kJ/mol
# Density = 2.208968 g / cm^3
# Si number density = 22.140074 Si / 1000 Ang^3
#
#
#
# Elastic Constant Matrix: (Units=GPa)
#
#
# Indices 1 2 3 4 5 6 
#
# 1 86.1110 18.3655 2.1034 0.0000 0.0000 0.0000
# 2 18.3655 71.4560 1.2090 0.0000 0.0000 0.0000
# 3 2.1034 1.2090 47.5883 0.0000 0.0000 0.0000
# 4 0.0000 0.0000 0.0000 13.4902 0.0000 0.0000
# 5 0.0000 0.0000 0.0000 0.0000 25.9028 0.0000
# 6 0.0000 0.0000 0.0000 0.0000 0.0000 28.5040
#
#
#
# Elastic Compliance Matrix: (Units=1/GPa)
#
#
# Indices 1 2 3 4 5 6 
#
# 1 0.012297 -0.003153 -0.000463 0.000000 0.000000 0.000000
# 2 -0.003153 0.014809 -0.000237 0.000000 0.000000 0.000000
# 3 -0.000463 -0.000237 0.021040 0.000000 0.000000 0.000000
# 4 0.000000 0.000000 0.000000 0.074128 0.000000 0.000000
# 5 0.000000 0.000000 0.000000 0.000000 0.038606 0.000000
# 6 0.000000 0.000000 0.000000 0.000000 0.000000 0.035083
#
#
# Mechanical properties :
#
#
# Convention : Reuss Voigt Hill
#
# Bulk Modulus (GPa) = 24.72815 27.61237 26.17026
# Shear Modulus (GPa) = 23.02577 25.81122 24.41849
#
# Velocity S-wave (km/s) = 3.22841 3.41811 3.32461
# Velocity P-wave (km/s) = 5.00899 5.29874 5.15590
#
# Compressibility (1/GPa) = 0.04043974
#
# Stress axis : x y z
#
# Youngs Moduli (GPa) = 81.32314 67.52684 47.52838
#
# Poissons Ratio (x) = 0.21289 0.02203
# Poissons Ratio (y) = 0.25638 0.01126
# Poissons Ratio (z) = 0.03769 0.01600
#
# Static dielectric constant tensor:
#      x y z
#    x 1.814600 0.000000 0.000000 
#    y 0.000000 1.802420 0.000000 
#    z 0.000000 0.000000 1.797370 
# 
# From -- ./inp_files/3977.got.cif
#   From: 2010.05.17/outbox.cif.g08.bks.cpg/sg33_2_cif.got.tgz:3977.got - 2010.06.03 17:15:25.
