data_PCOD9345049
_publ_section_title
;
Structure prediction by ZEFSAII (Michael W. Deem and Ramdas Pophale) SiO2 
 PCOD9345049
Probable space group: P N A 21
;
_chemical_formula_sum "Si O2"
_cell_formula_units_Z 32
_cell_length_a 11.101311
_cell_length_b 6.839977
_cell_length_c 17.585615
_cell_angle_alpha 90.000000
_cell_angle_beta 90.000000
_cell_angle_gamma 90.000000
_cell_volume 1335.323438
_symmetry_space_group_name_H-M "P N A 21"
_symmetry_group_IT_number 33
_symmetry_cell_setting 'orthorhombic'
loop_
_space_group_symop_operation_xyz
x,y,z
-x,-y,1/2+z
1/2-x,1/2+y,1/2+z
1/2+x,1/2-y,z
loop_
_atom_site_type_symbol
_atom_site_label
_atom_site_fract_x
_atom_site_fract_y
_atom_site_fract_z
Si Si1 0.872000 0.150468 0.371640
Si Si2 0.277723 0.047680 0.265279
Si Si3 0.121567 0.961144 0.126139
Si Si4 0.766923 0.810982 0.021242
Si Si5 0.050582 0.416024 0.435673
Si Si6 0.888277 0.642428 0.550251
Si Si7 0.279672 0.160178 0.830080
Si Si8 0.971793 0.395938 0.695214
O O1 0.795185 0.248623 0.305199
O O2 0.814952 0.225987 0.451287
O O3 0.996848 0.266684 0.373360
O O4 0.854533 0.926086 0.348744
O O5 0.185105 0.064552 0.196862
O O6 0.230815 0.892388 0.327212
O O7 0.405168 0.963733 0.234922
O O8 0.217150 0.806266 0.093117
O O9 0.016942 0.823287 0.159447
O O10 0.101965 0.127318 0.063340
O O11 0.742295 0.039498 0.036499
O O12 0.896395 0.732967 0.998287
O O13 0.146412 0.557572 0.396871
O O14 0.961252 0.561638 0.478561
O O15 0.942860 0.541906 0.625897
O O16 0.358192 0.113485 0.753794
#
# Coordination Sequence:
#
# PCOD9345049 Si02
#       8
#     4   4   4   4   4   4   4   4
#     4  10  21  39  62  89 128 169 217 261 330 392
#     4  11  22  40  63  94 128 175 218 273 329 401
#     4  10  22  41  65  96 127 171 229 270 330 400
#     4   9  21  40  59  91 132 164 210 283 320 390
#     4  10  20  40  62  94 131 172 217 270 330 396
#     4  10  21  40  68  91 127 172 222 271 329 394
#     4  10  22  41  60  90 133 168 213 277 321 390
#     4  10  21  41  63  91 132 167 218 271 333 385
#
# _framework density 23.964233
#
# number of rings (size 3 to 8) (size 9 to 14) (size 15 to 20)
#    0.000    2.000    1.250    1.500    0.000    5.000 
#    9.000   18.750    0.000    0.000    0.000    0.000 
#    0.000    0.000    0.000    0.000    0.000    0.000 
#
# Total GULP energy -178642.508717 kJ/mol
# GULP energy per Si atom -5582.578397 kJ/mol
# Density = 2.390969 g / cm^3
# Si number density = 23.964233 Si / 1000 Ang^3
#
#
#
# Elastic Constant Matrix: (Units=GPa)
#
#
# Indices 1 2 3 4 5 6 
#
# 1 33.7113 16.6528 0.2105 0.0000 0.0000 0.0000
# 2 16.6528 91.9982 10.3213 0.0000 0.0000 0.0000
# 3 0.2105 10.3213 61.2130 0.0000 0.0000 0.0000
# 4 0.0000 0.0000 0.0000 44.1126 0.0000 0.0000
# 5 0.0000 0.0000 0.0000 0.0000 30.1090 0.0000
# 6 0.0000 0.0000 0.0000 0.0000 0.0000 17.7504
#
#
#
# Elastic Compliance Matrix: (Units=1/GPa)
#
#
# Indices 1 2 3 4 5 6 
#
# 1 0.032625 -0.006007 0.000901 0.000000 0.000000 0.000000
# 2 -0.006007 0.012185 -0.002034 0.000000 0.000000 0.000000
# 3 0.000901 -0.002034 0.016676 0.000000 0.000000 0.000000
# 4 0.000000 0.000000 0.000000 0.022669 0.000000 0.000000
# 5 0.000000 0.000000 0.000000 0.000000 0.033213 0.000000
# 6 0.000000 0.000000 0.000000 0.000000 0.000000 0.056337
#
#
# Mechanical properties :
#
#
# Convention : Reuss Voigt Hill
#
# Bulk Modulus (GPa) = 21.18339 26.81019 23.99679
# Shear Modulus (GPa) = 24.54340 29.04359 26.79350
#
# Velocity S-wave (km/s) = 3.20373 3.48509 3.34737
# Velocity P-wave (km/s) = 4.74805 5.23511 4.99752
#
# Compressibility (1/GPa) = 0.04720681
#
# Stress axis : x y z
#
# Youngs Moduli (GPa) = 30.65117 82.06647 59.96549
#
# Poissons Ratio (x) = 0.49294 -0.05401
# Poissons Ratio (y) = 0.18411 0.12197
# Poissons Ratio (z) = -0.02760 0.16692
#
# Static dielectric constant tensor:
#      x y z
#    x 2.066820 0.000000 0.000000 
#    y 0.000000 1.874530 0.000000 
#    z 0.000000 0.000000 1.902310 
# 
# From -- ./inp_files/9159.got.cif
#   From: 2010.05.17/outbox.cif.g08.bks.cpg/sg33_5_cif.got.tgz:9159.got - 2010.06.03 17:15:25.
