data_PCOD9345652
_publ_section_title
;
Structure prediction by ZEFSAII (Michael W. Deem and Ramdas Pophale) SiO2 
 PCOD9345652
Probable space group: P N A 21
;
_chemical_formula_sum "Si O2"
_cell_formula_units_Z 24
_cell_length_a 23.344324
_cell_length_b 4.216329
_cell_length_c 7.851840
_cell_angle_alpha 90.000000
_cell_angle_beta 90.000000
_cell_angle_gamma 90.000000
_cell_volume 772.835806
_symmetry_space_group_name_H-M "P N A 21"
_symmetry_group_IT_number 33
_symmetry_cell_setting 'orthorhombic'
loop_
_space_group_symop_operation_xyz
x,y,z
-x,-y,1/2+z
1/2-x,1/2+y,1/2+z
1/2+x,1/2-y,z
loop_
_atom_site_type_symbol
_atom_site_label
_atom_site_fract_x
_atom_site_fract_y
_atom_site_fract_z
Si Si1 0.588499 0.549054 0.996530
Si Si2 0.501168 0.570597 0.251634
Si Si3 0.833768 0.492138 0.736274
Si Si4 0.421717 0.998005 0.003879
Si Si5 0.252671 0.942265 0.457456
Si Si6 0.668790 0.601032 0.724970
O O1 0.539516 0.657040 0.862383
O O2 0.632439 0.399487 0.861339
O O3 0.546622 0.386928 0.132817
O O4 0.625338 0.787720 0.110768
O O5 0.538159 0.780974 0.384203
O O6 0.460328 0.777957 0.126285
O O7 0.876707 0.657822 0.868890
O O8 0.788051 0.285960 0.846070
O O9 0.796243 0.695157 0.602235
O O10 0.377628 0.201606 0.118491
O O11 0.289637 0.175903 0.339783
O O12 0.206770 0.091862 0.590277
#
# Coordination Sequence:
#
# PCOD9345652 Si02
#       6
#     4   4   4   4   4   4
#     4  10  22  39  62  89 122 158 202 246 301 360
#     4  11  22  41  64  88 122 159 198 251 300 358
#     4   9  22  43  62  90 122 161 204 245 298 360
#     4  10  22  39  62  89 122 158 202 246 301 360
#     4  10  22  40  62  86 124 158 200 252 296 350
#     4  10  22  40  60  92 124 158 202 248 300 358
#
# _framework density 31.054462999999998
#
# number of rings (size 3 to 8) (size 9 to 14) (size 15 to 20)
#    0.000    2.000    0.000    2.000    0.000    9.333 
#    0.000    3.333    0.000    0.000    0.000    0.000 
#    0.000    0.000    0.000    0.000    0.000    0.000 
#
# Total GULP energy -134198.155531 kJ/mol
# GULP energy per Si atom -5591.589814 kJ/mol
# Density = 3.098378 g / cm^3
# Si number density = 31.054463 Si / 1000 Ang^3
#
#
#
# Elastic Constant Matrix: (Units=GPa)
#
#
# Indices 1 2 3 4 5 6 
#
# 1 221.4453 80.1677 162.8993 0.0000 0.0000 0.0000
# 2 80.1677 63.7109 71.3314 0.0000 0.0000 0.0000
# 3 162.8993 71.3314 235.0982 0.0000 0.0000 0.0000
# 4 0.0000 0.0000 0.0000 8.8451 0.0000 0.0000
# 5 0.0000 0.0000 0.0000 0.0000 214.7325 0.0000
# 6 0.0000 0.0000 0.0000 0.0000 0.0000 57.7562
#
#
#
# Elastic Compliance Matrix: (Units=1/GPa)
#
#
# Indices 1 2 3 4 5 6 
#
# 1 0.011613 -0.008487 -0.005472 0.000000 0.000000 0.000000
# 2 -0.008487 0.029973 -0.003214 0.000000 0.000000 0.000000
# 3 -0.005472 -0.003214 0.009020 0.000000 0.000000 0.000000
# 4 0.000000 0.000000 0.000000 0.113056 0.000000 0.000000
# 5 0.000000 0.000000 0.000000 0.000000 0.004657 0.000000
# 6 0.000000 0.000000 0.000000 0.000000 0.000000 0.017314
#
#
# Mechanical properties :
#
#
# Convention : Reuss Voigt Hill
#
# Bulk Modulus (GPa) = 61.49428 127.67236 94.58332
# Shear Modulus (GPa) = 22.18287 69.99049 46.08668
#
# Velocity S-wave (km/s) = 2.67558 4.75257 3.85653
# Velocity P-wave (km/s) = 5.42126 8.44497 7.09604
#
# Compressibility (1/GPa) = 0.01626168
#
# Stress axis : x y z
#
# Youngs Moduli (GPa) = 86.10710 33.36356 110.86353
#
# Poissons Ratio (x) = 0.28315 0.60664
# Poissons Ratio (y) = 0.73077 0.35627
# Poissons Ratio (z) = 0.47117 0.10722
#
# Static dielectric constant tensor:
#      x y z
#    x 2.446140 0.000000 0.000000 
#    y 0.000000 2.353690 0.000000 
#    z 0.000000 0.000000 2.384230 
# 
# From -- ./inp_files/4912.got.cif
#   From: 2010.05.17/outbox.cif.g08.bks.cpg/sg33_3_cif.got.tgz:4912.got - 2010.06.03 17:15:25.
