data_PCOD9345582
_publ_section_title
;
Structure prediction by ZEFSAII (Michael W. Deem and Ramdas Pophale) SiO2 
 PCOD9345582
Probable space group: P N A 21
;
_chemical_formula_sum "Si O2"
_cell_formula_units_Z 28
_cell_length_a 26.330847
_cell_length_b 5.342042
_cell_length_c 8.557899
_cell_angle_alpha 90.000000
_cell_angle_beta 90.000000
_cell_angle_gamma 90.000000
_cell_volume 1203.758272
_symmetry_space_group_name_H-M "P N A 21"
_symmetry_group_IT_number 33
_symmetry_cell_setting 'orthorhombic'
loop_
_space_group_symop_operation_xyz
x,y,z
-x,-y,1/2+z
1/2-x,1/2+y,1/2+z
1/2+x,1/2-y,z
loop_
_atom_site_type_symbol
_atom_site_label
_atom_site_fract_x
_atom_site_fract_y
_atom_site_fract_z
Si Si1 0.823939 0.492440 0.133490
Si Si2 0.847827 0.977563 0.946680
Si Si3 0.360516 0.733987 0.418119
Si Si4 0.551726 0.301998 0.308744
Si Si5 0.204180 0.951732 0.146040
Si Si6 0.546648 0.533004 0.986143
Si Si7 0.386521 0.087769 0.682577
O O1 0.842893 0.537697 0.310792
O O2 0.764146 0.553859 0.130539
O O3 0.835302 0.226213 0.049449
O O4 0.849792 0.732130 0.052644
O O5 0.806880 0.907925 0.811457
O O6 0.902660 0.990973 0.860548
O O7 0.316474 0.544582 0.475864
O O8 0.413376 0.602681 0.368948
O O9 0.373788 0.836895 0.588588
O O10 0.532933 0.354377 0.131874
O O11 0.503155 0.351999 0.412973
O O12 0.577235 0.027257 0.315960
O O13 0.168920 0.713757 0.194889
O O14 0.580183 0.746103 0.067360
#
# Coordination Sequence:
#
# PCOD9345582 Si02
#       7
#     4   4   4   4   4   4   4
#     4  12  30  42  77 112 147 192 249 314 366 452
#     4  12  27  49  71 112 150 187 248 315 366 448
#     4  10  24  46  66 102 142 191 245 310 370 456
#     4  11  24  45  70 101 145 196 253 309 386 445
#     4  11  24  47  74  98 150 196 245 295 391 439
#     4  10  24  44  70  98 140 196 248 308 377 449
#     4  10  21  45  72  99 140 198 246 305 370 453
#
# _framework density 23.260486
#
# number of rings (size 3 to 8) (size 9 to 14) (size 15 to 20)
#    0.000    1.143    4.286    1.714   10.000    2.286 
#    0.000    0.000    0.000    0.000    0.000    0.000 
#    0.000    0.000    0.000    0.000    0.000    0.000 
#
# Total GULP energy -155961.625846 kJ/mol
# GULP energy per Si atom -5570.058066 kJ/mol
# Density = 2.320754 g / cm^3
# Si number density = 23.260486 Si / 1000 Ang^3
#
#
#
# Elastic Constant Matrix: (Units=GPa)
#
#
# Indices 1 2 3 4 5 6 
#
# 1 106.6193 -1.0566 18.1176 0.0000 0.0000 0.0000
# 2 -1.0566 70.5160 7.2844 0.0000 0.0000 0.0000
# 3 18.1176 7.2844 71.8911 0.0000 0.0000 0.0000
# 4 0.0000 0.0000 0.0000 34.3559 0.0000 0.0000
# 5 0.0000 0.0000 0.0000 0.0000 39.4501 0.0000
# 6 0.0000 0.0000 0.0000 0.0000 0.0000 20.7450
#
#
#
# Elastic Compliance Matrix: (Units=1/GPa)
#
#
# Indices 1 2 3 4 5 6 
#
# 1 0.009810 0.000407 -0.002514 0.000000 0.000000 0.000000
# 2 0.000407 0.014348 -0.001556 0.000000 0.000000 0.000000
# 3 -0.002514 -0.001556 0.014701 0.000000 0.000000 0.000000
# 4 0.000000 0.000000 0.000000 0.029107 0.000000 0.000000
# 5 0.000000 0.000000 0.000000 0.000000 0.025348 0.000000
# 6 0.000000 0.000000 0.000000 0.000000 0.000000 0.048204
#
#
# Mechanical properties :
#
#
# Convention : Reuss Voigt Hill
#
# Bulk Modulus (GPa) = 31.71279 33.07970 32.39624
# Shear Modulus (GPa) = 31.37613 33.88894 32.63253
#
# Velocity S-wave (km/s) = 3.67673 3.82112 3.74962
# Velocity P-wave (km/s) = 5.62919 5.80691 5.71874
#
# Compressibility (1/GPa) = 0.03153302
#
# Stress axis : x y z
#
# Youngs Moduli (GPa) = 101.93353 69.69591 68.02228
#
# Poissons Ratio (x) = -0.02834 0.17098
# Poissons Ratio (y) = -0.04145 0.10586
# Poissons Ratio (z) = 0.25621 0.10847
#
# Static dielectric constant tensor:
#      x y z
#    x 1.877610 0.000000 0.000000 
#    y 0.000000 2.034750 0.000000 
#    z 0.000000 0.000000 2.036560 
# 
# From -- ./inp_files/5279.got.cif
#   From: 2010.05.17/outbox.cif.g08.bks.cpg/sg33_3_cif.got.tgz:5279.got - 2010.06.03 17:15:25.
