data_PCOD9345297
_publ_section_title
;
Structure prediction by ZEFSAII (Michael W. Deem and Ramdas Pophale) SiO2 
 PCOD9345297
Probable space group: P N A 21
;
_chemical_formula_sum "Si O2"
_cell_formula_units_Z 32
_cell_length_a 13.983516
_cell_length_b 6.590142
_cell_length_c 14.352973
_cell_angle_alpha 90.000000
_cell_angle_beta 90.000000
_cell_angle_gamma 90.000000
_cell_volume 1322.674632
_symmetry_space_group_name_H-M "P N A 21"
_symmetry_group_IT_number 33
_symmetry_cell_setting 'orthorhombic'
loop_
_space_group_symop_operation_xyz
x,y,z
-x,-y,1/2+z
1/2-x,1/2+y,1/2+z
1/2+x,1/2-y,z
loop_
_atom_site_type_symbol
_atom_site_label
_atom_site_fract_x
_atom_site_fract_y
_atom_site_fract_z
Si Si1 0.529857 0.554228 0.262880
Si Si2 0.180427 0.434746 0.014525
Si Si3 0.830066 0.706534 0.009557
Si Si4 0.957795 0.228481 0.499545
Si Si5 0.536046 0.865206 0.785189
Si Si6 0.661253 0.209785 0.804533
Si Si7 0.361286 0.125928 0.842842
Si Si8 0.320869 0.528497 0.607483
O O1 0.494112 0.331188 0.230945
O O2 0.428215 0.664490 0.267340
O O3 0.585144 0.652629 0.354883
O O4 0.619724 0.561030 0.192972
O O5 0.263320 0.598362 0.990266
O O6 0.199679 0.265433 0.092236
O O7 0.090780 0.572349 0.043532
O O8 0.157537 0.326806 0.916477
O O9 0.934710 0.785375 0.033233
O O10 0.776178 0.594084 0.092511
O O11 0.841375 0.530955 0.928869
O O12 0.958680 0.271246 0.389677
O O13 0.890787 0.041302 0.522901
O O14 0.634388 0.982948 0.768291
O O15 0.443820 0.012408 0.784427
O O16 0.760256 0.328772 0.794622
#
# Coordination Sequence:
#
# PCOD9345297 Si02
#       8
#     4   4   4   4   4   4   4   4
#     4  11  25  40  61  93 137 167 213 269 338 394
#     4  10  21  38  65  94 125 162 223 270 320 393
#     4  10  22  40  68  96 125 162 227 275 324 390
#     4   9  21  39  64  87 122 162 215 260 314 387
#     4   9  21  38  61  93 123 161 211 271 311 381
#     4  10  21  39  64  88 121 167 215 267 314 388
#     4  10  22  39  65  95 122 166 219 274 318 393
#     4  11  23  41  62  92 131 173 205 270 331 398
#
# _framework density 24.193403
#
# number of rings (size 3 to 8) (size 9 to 14) (size 15 to 20)
#    0.000    2.000    1.250    1.500    7.000    6.000 
#    0.000    2.500    0.000    0.000    0.000    0.000 
#    0.000    0.000    0.000    0.000    0.000    0.000 
#
# Total GULP energy -178206.679331 kJ/mol
# GULP energy per Si atom -5568.958729 kJ/mol
# Density = 2.413834 g / cm^3
# Si number density = 24.193403 Si / 1000 Ang^3
#
#
#
# Elastic Constant Matrix: (Units=GPa)
#
#
# Indices 1 2 3 4 5 6 
#
# 1 75.5546 24.2408 12.0986 0.0000 0.0000 0.0000
# 2 24.2408 89.7203 15.2862 0.0000 0.0000 0.0000
# 3 12.0986 15.2862 42.5402 0.0000 0.0000 0.0000
# 4 0.0000 0.0000 0.0000 5.8488 0.0000 0.0000
# 5 0.0000 0.0000 0.0000 0.0000 20.7450 0.0000
# 6 0.0000 0.0000 0.0000 0.0000 0.0000 31.2547
#
#
#
# Elastic Compliance Matrix: (Units=1/GPa)
#
#
# Indices 1 2 3 4 5 6 
#
# 1 0.014833 -0.003503 -0.002960 0.000000 0.000000 0.000000
# 2 -0.003503 0.012700 -0.003567 0.000000 0.000000 0.000000
# 3 -0.002960 -0.003567 0.025631 0.000000 0.000000 0.000000
# 4 0.000000 0.000000 0.000000 0.170975 0.000000 0.000000
# 5 0.000000 0.000000 0.000000 0.000000 0.048204 0.000000
# 6 0.000000 0.000000 0.000000 0.000000 0.000000 0.031995
#
#
# Mechanical properties :
#
#
# Convention : Reuss Voigt Hill
#
# Bulk Modulus (GPa) = 30.20832 34.56293 32.38562
# Shear Modulus (GPa) = 14.90606 21.98234 18.44420
#
# Velocity S-wave (km/s) = 2.48487 3.01758 2.76409
# Velocity P-wave (km/s) = 4.55479 5.14375 4.85820
#
# Compressibility (1/GPa) = 0.03310346
#
# Stress axis : x y z
#
# Youngs Moduli (GPa) = 67.41524 78.73964 39.01560
#
# Poissons Ratio (x) = 0.27586 0.11548
# Poissons Ratio (y) = 0.23619 0.13918
# Poissons Ratio (z) = 0.19953 0.28088
#
# Static dielectric constant tensor:
#      x y z
#    x 1.902800 0.000000 0.000000 
#    y 0.000000 2.261770 0.000000 
#    z 0.000000 0.000000 2.030520 
# 
# From -- ./inp_files/8765.got.cif
#   From: 2010.05.17/outbox.cif.g08.bks.cpg/sg33_5_cif.got.tgz:8765.got - 2010.06.03 17:15:25.
