data_PCOD9345862
_publ_section_title
;
Structure prediction by ZEFSAII (Michael W. Deem and Ramdas Pophale) SiO2 
 PCOD9345862
Probable space group: P N A 21
;
_chemical_formula_sum "Si O2"
_cell_formula_units_Z 32
_cell_length_a 15.392127
_cell_length_b 6.867220
_cell_length_c 12.399493
_cell_angle_alpha 90.000000
_cell_angle_beta 90.000000
_cell_angle_gamma 90.000000
_cell_volume 1310.640327
_symmetry_space_group_name_H-M "P N A 21"
_symmetry_group_IT_number 33
_symmetry_cell_setting 'orthorhombic'
loop_
_space_group_symop_operation_xyz
x,y,z
-x,-y,1/2+z
1/2-x,1/2+y,1/2+z
1/2+x,1/2-y,z
loop_
_atom_site_type_symbol
_atom_site_label
_atom_site_fract_x
_atom_site_fract_y
_atom_site_fract_z
Si Si1 0.776636 0.465381 0.149450
Si Si2 0.149617 0.863646 0.768682
Si Si3 0.971736 0.822786 0.657883
Si Si4 0.614581 0.157650 0.375660
Si Si5 0.373663 0.302655 0.639598
Si Si6 0.286727 0.100383 0.441366
Si Si7 0.254086 0.151735 0.905947
Si Si8 0.531881 0.074286 0.595455
O O1 0.780891 0.244631 0.191787
O O2 0.697019 0.289373 0.411540
O O3 0.706751 0.605278 0.206918
O O4 0.873984 0.550992 0.151138
O O5 0.142815 0.693274 0.858923
O O6 0.063748 0.900557 0.701696
O O7 0.184877 0.051941 0.827463
O O8 0.924002 0.740468 0.765057
O O9 0.994199 0.642884 0.581706
O O10 0.917880 0.992916 0.602549
O O11 0.653200 0.936823 0.364350
O O12 0.747873 0.947439 0.524474
O O13 0.323440 0.162114 0.556976
O O14 0.461112 0.186128 0.666965
O O15 0.267732 0.874612 0.427338
O O16 0.549230 0.162889 0.477380
#
# Coordination Sequence:
#
# PCOD9345862 Si02
#       8
#     4   4   4   4   4   4   4   4
#     4  10  22  46  68 103 148 187 259 315 371 464
#     4  10  22  45  66 102 147 191 249 318 376 451
#     4  11  26  43  68 106 146 198 255 318 376 467
#     4  10  22  46  66 102 150 191 250 317 378 452
#     4  12  23  43  69 103 144 194 250 311 385 450
#     4  11  23  43  71  99 142 195 246 310 377 458
#     4  10  22  43  70  99 136 201 243 306 383 449
#     4  10  24  43  70 104 147 195 250 315 378 457
#
# _framework density 24.415545999999999
#
# number of rings (size 3 to 8) (size 9 to 14) (size 15 to 20)
#    0.000    1.500    3.750    2.250    1.750    7.000 
#    4.500    3.750    0.000    0.000    0.000    0.000 
#    0.000    0.000    0.000    0.000    0.000    0.000 
#
# Total GULP energy -178700.930948 kJ/mol
# GULP energy per Si atom -5584.404092 kJ/mol
# Density = 2.435998 g / cm^3
# Si number density = 24.415546 Si / 1000 Ang^3
#
#
#
# Elastic Constant Matrix: (Units=GPa)
#
#
# Indices 1 2 3 4 5 6 
#
# 1 141.5569 64.3206 30.1725 0.0000 0.0000 0.0000
# 2 64.3206 167.1834 26.6084 0.0000 0.0000 0.0000
# 3 30.1725 26.6084 70.7311 0.0000 0.0000 0.0000
# 4 0.0000 0.0000 0.0000 31.0169 0.0000 0.0000
# 5 0.0000 0.0000 0.0000 0.0000 32.7248 0.0000
# 6 0.0000 0.0000 0.0000 0.0000 0.0000 34.1093
#
#
#
# Elastic Compliance Matrix: (Units=1/GPa)
#
#
# Indices 1 2 3 4 5 6 
#
# 1 0.009022 -0.003041 -0.002705 0.000000 0.000000 0.000000
# 2 -0.003041 0.007387 -0.001482 0.000000 0.000000 0.000000
# 3 -0.002705 -0.001482 0.015849 0.000000 0.000000 0.000000
# 4 0.000000 0.000000 0.000000 0.032240 0.000000 0.000000
# 5 0.000000 0.000000 0.000000 0.000000 0.030558 0.000000
# 6 0.000000 0.000000 0.000000 0.000000 0.000000 0.029318
#
#
# Mechanical properties :
#
#
# Convention : Reuss Voigt Hill
#
# Bulk Modulus (GPa) = 56.16716 69.07494 62.62105
# Shear Modulus (GPa) = 34.53885 36.79488 35.66687
#
# Velocity S-wave (km/s) = 3.76523 3.88626 3.82622
# Velocity P-wave (km/s) = 6.47744 6.96348 6.72485
#
# Compressibility (1/GPa) = 0.01780400
#
# Stress axis : x y z
#
# Youngs Moduli (GPa) = 110.83422 135.36988 63.09399
#
# Poissons Ratio (x) = 0.41162 0.17066
# Poissons Ratio (y) = 0.33702 0.09350
# Poissons Ratio (z) = 0.29980 0.20060
#
# Static dielectric constant tensor:
#      x y z
#    x 1.966130 0.000000 0.000000 
#    y 0.000000 1.956020 0.000000 
#    z 0.000000 0.000000 2.021850 
# 
# From -- ./inp_files/8850.got.cif
#   From: 2010.05.17/outbox.cif.g08.bks.cpg/sg33_5_cif.got.tgz:8850.got - 2010.06.03 17:15:25.
