data_PCOD9345893
_publ_section_title
;
Structure prediction by ZEFSAII (Michael W. Deem and Ramdas Pophale) SiO2 
 PCOD9345893
Probable space group: P N A 21
;
_chemical_formula_sum "Si O2"
_cell_formula_units_Z 24
_cell_length_a 11.790924
_cell_length_b 10.665836
_cell_length_c 7.424739
_cell_angle_alpha 90.000000
_cell_angle_beta 90.000000
_cell_angle_gamma 90.000000
_cell_volume 933.735635
_symmetry_space_group_name_H-M "P N A 21"
_symmetry_group_IT_number 33
_symmetry_cell_setting 'orthorhombic'
loop_
_space_group_symop_operation_xyz
x,y,z
-x,-y,1/2+z
1/2-x,1/2+y,1/2+z
1/2+x,1/2-y,z
loop_
_atom_site_type_symbol
_atom_site_label
_atom_site_fract_x
_atom_site_fract_y
_atom_site_fract_z
Si Si1 0.065417 0.894076 0.835440
Si Si2 0.306152 0.646986 0.232393
Si Si3 0.881804 0.521493 0.676464
Si Si4 0.373004 0.917859 0.095982
Si Si5 0.292576 0.293498 0.039249
Si Si6 0.366265 0.465917 0.730486
O O1 0.113599 0.028117 0.761780
O O2 0.135626 0.791221 0.723274
O O3 0.088418 0.899657 0.047606
O O4 0.934258 0.908208 0.780469
O O5 0.198929 0.595272 0.122452
O O6 0.362334 0.771093 0.151896
O O7 0.247378 0.677215 0.423591
O O8 0.826230 0.634340 0.567470
O O9 0.009829 0.481479 0.650867
O O10 0.863625 0.564458 0.882385
O O11 0.266542 0.981095 0.194383
O O12 0.372136 0.373397 0.901809
#
# Coordination Sequence:
#
# PCOD9345893 Si02
#       6
#     4   4   4   4   4   4
#     4  11  22  42  68  98 138 175 225 291 337 406
#     4  10  24  43  70  96 139 179 234 284 343 409
#     4  11  24  49  69 103 145 181 233 292 342 422
#     4  11  23  42  72  97 141 185 225 285 352 405
#     4  10  22  44  68  96 138 180 226 280 347 405
#     4  11  21  40  69  96 135 178 221 282 345 397
#
# _framework density 25.703208
#
# number of rings (size 3 to 8) (size 9 to 14) (size 15 to 20)
#    0.000    1.333    5.000    2.000    4.667    0.000 
#    6.000    1.667    0.000    0.000    0.000    0.000 
#    0.000    0.000    0.000    0.000    0.000    0.000 
#
# Total GULP energy -134367.945815 kJ/mol
# GULP energy per Si atom -5598.664409 kJ/mol
# Density = 2.564471 g / cm^3
# Si number density = 25.703208 Si / 1000 Ang^3
#
#
#
# Elastic Constant Matrix: (Units=GPa)
#
#
# Indices 1 2 3 4 5 6 
#
# 1 101.7056 6.1460 -7.0192 0.0000 0.0000 0.0000
# 2 6.1460 83.2235 12.4208 0.0000 0.0000 0.0000
# 3 -7.0192 12.4208 135.8312 0.0000 0.0000 0.0000
# 4 0.0000 0.0000 0.0000 52.3706 0.0000 0.0000
# 5 0.0000 0.0000 0.0000 0.0000 43.8384 0.0000
# 6 0.0000 0.0000 0.0000 0.0000 0.0000 -8.4467
#
#
#
# Elastic Compliance Matrix: (Units=1/GPa)
#
#
# Indices 1 2 3 4 5 6 
#
# 1 0.009922 -0.000820 0.000588 0.000000 0.000000 0.000000
# 2 -0.000820 0.012250 -0.001163 0.000000 0.000000 0.000000
# 3 0.000588 -0.001163 0.007499 0.000000 0.000000 0.000000
# 4 0.000000 0.000000 0.000000 0.019095 0.000000 0.000000
# 5 0.000000 0.000000 0.000000 0.000000 0.022811 0.000000
# 6 0.000000 0.000000 0.000000 0.000000 0.000000 -0.118390
#
#
# Mechanical properties :
#
#
# Convention : Reuss Voigt Hill
#
# Bulk Modulus (GPa) = 37.20154 38.20614 37.70384
# Shear Modulus (GPa) = -142.60501 38.16664 -52.21919
#
# Velocity S-wave (km/s) = -7.45666 3.85762 -4.51224
# Velocity P-wave (km/s) = 7.72210 5.89391 3.52793
#
# Compressibility (1/GPa) = 0.02688061
#
# Stress axis : x y z
#
# Youngs Moduli (GPa) = 100.78156 81.63305 133.35531
#
# Poissons Ratio (x) = 0.06698 -0.07838
# Poissons Ratio (y) = 0.08269 0.15503
# Poissons Ratio (z) = -0.05924 0.09490
#
# Static dielectric constant tensor:
#      x y z
#    x 2.105030 0.000000 0.000000 
#    y 0.000000 1.992330 0.000000 
#    z 0.000000 0.000000 2.020680 
# 
# From -- ./inp_files/3803.got.cif
#   From: 2010.05.17/outbox.cif.g08.bks.cpg/sg33_2_cif.got.tgz:3803.got - 2010.06.03 17:15:25.
