data_PCOD9345580
_publ_section_title
;
Structure prediction by ZEFSAII (Michael W. Deem and Ramdas Pophale) SiO2 
 PCOD9345580
Probable space group: P N A 21
;
_chemical_formula_sum "Si O2"
_cell_formula_units_Z 28
_cell_length_a 11.964380
_cell_length_b 5.058424
_cell_length_c 18.809426
_cell_angle_alpha 90.000000
_cell_angle_beta 90.000000
_cell_angle_gamma 90.000000
_cell_volume 1138.363520
_symmetry_space_group_name_H-M "P N A 21"
_symmetry_group_IT_number 33
_symmetry_cell_setting 'orthorhombic'
loop_
_space_group_symop_operation_xyz
x,y,z
-x,-y,1/2+z
1/2-x,1/2+y,1/2+z
1/2+x,1/2-y,z
loop_
_atom_site_type_symbol
_atom_site_label
_atom_site_fract_x
_atom_site_fract_y
_atom_site_fract_z
Si Si1 0.126282 0.494712 0.733710
Si Si2 0.310176 0.202704 0.644181
Si Si3 0.558374 0.297807 0.145835
Si Si4 0.208216 0.259345 0.496831
Si Si5 0.548790 0.743537 0.498079
Si Si6 0.954018 0.220182 0.836243
Si Si7 0.798684 0.717689 0.835193
O O1 0.200692 0.311820 0.682391
O O2 0.204965 0.676208 0.782743
O O3 0.047674 0.683169 0.686609
O O4 0.051743 0.309471 0.784417
O O5 0.408709 0.405287 0.665001
O O6 0.296522 0.232625 0.559455
O O7 0.341173 0.904414 0.662491
O O8 0.538075 0.273746 0.061642
O O9 0.130667 0.511289 0.510104
O O10 0.248968 0.273064 0.415743
O O11 0.126819 0.011023 0.502396
O O12 0.504718 0.757962 0.417657
O O13 0.851044 0.426996 0.824587
O O14 0.902358 0.926741 0.829934
#
# Coordination Sequence:
#
# PCOD9345580 Si02
#       7
#     4   4   4   4   4   4   4
#     4  12  26  46  70 102 143 191 221 298 356 410
#     4  12  27  43  71 104 141 181 237 284 348 422
#     4  12  27  43  70 105 139 181 238 282 347 423
#     4  10  21  45  71  99 134 181 228 289 342 415
#     4  10  21  45  71  99 136 179 229 288 341 414
#     4  10  24  45  69 101 136 177 235 285 344 421
#     4  10  24  45  70 100 139 176 236 284 346 421
#
# _framework density 24.596710000000002
#
# number of rings (size 3 to 8) (size 9 to 14) (size 15 to 20)
#    0.000    1.143    1.429    3.429    2.000    3.429 
#    0.000    0.000    0.000    0.000    0.000    0.000 
#    0.000    0.000    0.000    0.000    0.000    0.000 
#
# Total GULP energy -157167.446791 kJ/mol
# GULP energy per Si atom -5613.123100 kJ/mol
# Density = 2.454073 g / cm^3
# Si number density = 24.596710 Si / 1000 Ang^3
#
#
#
# Elastic Constant Matrix: (Units=GPa)
#
#
# Indices 1 2 3 4 5 6 
#
# 1 69.4192 6.3487 44.7515 0.0000 0.0000 0.0000
# 2 6.3487 126.6325 2.2317 0.0000 0.0000 0.0000
# 3 44.7515 2.2317 129.3099 0.0000 0.0000 0.0000
# 4 0.0000 0.0000 0.0000 33.6189 0.0000 0.0000
# 5 0.0000 0.0000 0.0000 0.0000 46.7395 0.0000
# 6 0.0000 0.0000 0.0000 0.0000 0.0000 23.6300
#
#
#
# Elastic Compliance Matrix: (Units=1/GPa)
#
#
# Indices 1 2 3 4 5 6 
#
# 1 0.018627 -0.000821 -0.006432 0.000000 0.000000 0.000000
# 2 -0.000821 0.007935 0.000147 0.000000 0.000000 0.000000
# 3 -0.006432 0.000147 0.009957 0.000000 0.000000 0.000000
# 4 0.000000 0.000000 0.000000 0.029745 0.000000 0.000000
# 5 0.000000 0.000000 0.000000 0.000000 0.021395 0.000000
# 6 0.000000 0.000000 0.000000 0.000000 0.000000 0.042319
#
#
# Mechanical properties :
#
#
# Convention : Reuss Voigt Hill
#
# Bulk Modulus (GPa) = 44.82753 48.00283 46.41518
# Shear Modulus (GPa) = 32.97591 38.93298 35.95444
#
# Velocity S-wave (km/s) = 3.66548 3.98282 3.82744
# Velocity P-wave (km/s) = 6.01489 6.38035 6.20031
#
# Compressibility (1/GPa) = 0.02230772
#
# Stress axis : x y z
#
# Youngs Moduli (GPa) = 53.68604 126.01737 100.43318
#
# Poissons Ratio (x) = 0.10340 0.64601
# Poissons Ratio (y) = 0.04405 -0.01476
# Poissons Ratio (z) = 0.34532 -0.01853
#
# Static dielectric constant tensor:
#      x y z
#    x 1.908620 0.000000 0.000000 
#    y 0.000000 1.880390 0.000000 
#    z 0.000000 0.000000 1.989470 
# 
# From -- ./inp_files/9074.got.cif
#   From: 2010.05.17/outbox.cif.g08.bks.cpg/sg33_5_cif.got.tgz:9074.got - 2010.06.03 17:15:25.
