data_PCOD9345079
_publ_section_title
;
Structure prediction by ZEFSAII (Michael W. Deem and Ramdas Pophale) SiO2 
 PCOD9345079
Probable space group: P N A 21
;
_chemical_formula_sum "Si O2"
_cell_formula_units_Z 32
_cell_length_a 17.893502
_cell_length_b 5.617101
_cell_length_c 13.860128
_cell_angle_alpha 90.000000
_cell_angle_beta 90.000000
_cell_angle_gamma 90.000000
_cell_volume 1393.076032
_symmetry_space_group_name_H-M "P N A 21"
_symmetry_group_IT_number 33
_symmetry_cell_setting 'orthorhombic'
loop_
_space_group_symop_operation_xyz
x,y,z
-x,-y,1/2+z
1/2-x,1/2+y,1/2+z
1/2+x,1/2-y,z
loop_
_atom_site_type_symbol
_atom_site_label
_atom_site_fract_x
_atom_site_fract_y
_atom_site_fract_z
Si Si1 0.186917 0.490083 0.012880
Si Si2 0.573915 0.314889 0.603654
Si Si3 0.723951 0.537848 0.696810
Si Si4 0.088227 0.293071 0.400334
Si Si5 0.618074 0.913541 0.713882
Si Si6 0.247712 0.994760 0.921512
Si Si7 0.494050 0.527699 0.765729
Si Si8 0.053823 0.362653 0.895596
O O1 0.208205 0.511876 0.125423
O O2 0.207427 0.750359 0.963993
O O3 0.101373 0.418205 0.990286
O O4 0.230439 0.249128 0.973628
O O5 0.650737 0.419682 0.647763
O O6 0.572476 0.373780 0.492614
O O7 0.501669 0.368517 0.669854
O O8 0.588542 0.036091 0.617814
O O9 0.700278 0.815193 0.698985
O O10 0.728890 0.471711 0.808348
O O11 0.165360 0.424013 0.419307
O O12 0.082777 0.142429 0.301222
O O13 0.019633 0.475912 0.394268
O O14 0.555732 0.721201 0.739419
O O15 0.611326 0.072781 0.808828
O O16 0.526978 0.392828 0.859225
#
# Coordination Sequence:
#
# PCOD9345079 Si02
#       8
#     4   4   4   4   4   4   4   4
#     4  12  26  46  73 107 141 198 246 302 377 449
#     4  10  20  40  69  99 133 192 240 285 376 442
#     4  11  23  41  71 101 141 185 244 305 370 442
#     4  11  24  43  67 102 146 187 242 309 363 439
#     4   9  17  37  65  90 124 180 229 285 348 434
#     4  12  27  46  75 106 147 191 253 314 361 444
#     4   9  21  39  65  94 132 183 237 289 360 436
#     4  10  22  42  67  95 142 186 237 295 369 436
#
# _framework density 22.970749999999999
#
# number of rings (size 3 to 8) (size 9 to 14) (size 15 to 20)
#    0.000    1.500    2.500    3.000    3.500    2.000 
#    9.000    0.000    0.000    0.000    0.000    0.000 
#    0.000    0.000    0.000    0.000    0.000    0.000 
#
# Total GULP energy -178257.349555 kJ/mol
# GULP energy per Si atom -5570.542174 kJ/mol
# Density = 2.291847 g / cm^3
# Si number density = 22.970750 Si / 1000 Ang^3
#
#
#
# Elastic Constant Matrix: (Units=GPa)
#
#
# Indices 1 2 3 4 5 6 
#
# 1 44.1251 11.0552 -10.0755 0.0000 0.0000 0.0000
# 2 11.0552 62.0717 15.0219 0.0000 0.0000 0.0000
# 3 -10.0755 15.0219 78.5632 0.0000 0.0000 0.0000
# 4 0.0000 0.0000 0.0000 20.7316 0.0000 0.0000
# 5 0.0000 0.0000 0.0000 0.0000 37.9017 0.0000
# 6 0.0000 0.0000 0.0000 0.0000 0.0000 13.3048
#
#
#
# Elastic Compliance Matrix: (Units=1/GPa)
#
#
# Indices 1 2 3 4 5 6 
#
# 1 0.025009 -0.005484 0.004256 0.000000 0.000000 0.000000
# 2 -0.005484 0.018095 -0.004163 0.000000 0.000000 0.000000
# 3 0.004256 -0.004163 0.014070 0.000000 0.000000 0.000000
# 4 0.000000 0.000000 0.000000 0.048236 0.000000 0.000000
# 5 0.000000 0.000000 0.000000 0.000000 0.026384 0.000000
# 6 0.000000 0.000000 0.000000 0.000000 0.000000 0.075161
#
#
# Mechanical properties :
#
#
# Convention : Reuss Voigt Hill
#
# Bulk Modulus (GPa) = 21.55591 24.08480 22.82036
# Shear Modulus (GPa) = 21.44076 25.63818 23.53947
#
# Velocity S-wave (km/s) = 3.05846 3.34447 3.20466
# Velocity P-wave (km/s) = 4.67725 5.04199 4.86304
#
# Compressibility (1/GPa) = 0.04639099
#
# Stress axis : x y z
#
# Youngs Moduli (GPa) = 39.98619 55.26496 71.07100
#
# Poissons Ratio (x) = 0.30308 -0.30247
# Poissons Ratio (y) = 0.21929 0.29588
# Poissons Ratio (z) = -0.17018 0.23008
#
# Static dielectric constant tensor:
#      x y z
#    x 1.852730 0.000000 0.000000 
#    y 0.000000 2.069600 0.000000 
#    z 0.000000 0.000000 1.990070 
# 
# From -- ./inp_files/8254.got.cif
#   From: 2010.05.17/outbox.cif.g08.bks.cpg/sg33_5_cif.got.tgz:8254.got - 2010.06.03 17:15:25.
