data_PCOD9345362
_publ_section_title
;
Structure prediction by ZEFSAII (Michael W. Deem and Ramdas Pophale) SiO2 
 PCOD9345362
Probable space group: P N A 21
;
_chemical_formula_sum "Si O2"
_cell_formula_units_Z 24
_cell_length_a 5.364554
_cell_length_b 21.544132
_cell_length_c 8.197073
_cell_angle_alpha 90.000000
_cell_angle_beta 90.000000
_cell_angle_gamma 90.000000
_cell_volume 947.373921
_symmetry_space_group_name_H-M "P N A 21"
_symmetry_group_IT_number 33
_symmetry_cell_setting 'orthorhombic'
loop_
_space_group_symop_operation_xyz
x,y,z
-x,-y,1/2+z
1/2-x,1/2+y,1/2+z
1/2+x,1/2-y,z
loop_
_atom_site_type_symbol
_atom_site_label
_atom_site_fract_x
_atom_site_fract_y
_atom_site_fract_z
Si Si1 0.719809 0.356922 0.432000
Si Si2 0.352703 0.910143 0.508109
Si Si3 0.689776 0.491591 0.293851
Si Si4 0.216415 0.319819 0.286891
Si Si5 0.317690 0.060804 0.738436
Si Si6 0.802278 0.217699 0.928238
O O1 0.702774 0.418476 0.316541
O O2 0.452808 0.325077 0.404910
O O3 0.773598 0.384631 0.609785
O O4 0.952931 0.314572 0.378262
O O5 0.622911 0.912637 0.421717
O O6 0.323082 0.885399 0.688976
O O7 0.237466 0.975789 0.468033
O O8 0.214055 0.856002 0.402404
O O9 0.424876 0.518894 0.249895
O O10 0.924262 0.522663 0.199115
O O11 0.277650 0.277698 0.127969
O O12 0.553836 0.251466 0.867464
#
# Coordination Sequence:
#
# PCOD9345362 Si02
#       6
#     4   4   4   4   4   4
#     4  12  23  38  59  90 129 171 203 247 316 368
#     4   8  24  37  63  87 124 150 209 261 299 368
#     4  10  23  34  60  83 131 164 209 236 305 367
#     4  10  24  38  62  91 122 157 206 268 298 379
#     4  10  23  38  56  86 123 171 196 259 297 365
#     4  10  21  39  68  93 113 157 211 269 321 355
#
# _framework density 25.333186999999999
#
# number of rings (size 3 to 8) (size 9 to 14) (size 15 to 20)
#    2.000    0.000    0.000    3.000    9.333    0.000 
#    0.000    0.000    0.000    6.000    0.000    0.000 
#    0.000    0.000    0.000    0.000    0.000    0.000 
#
# Total GULP energy -133917.696669 kJ/mol
# GULP energy per Si atom -5579.904028 kJ/mol
# Density = 2.527553 g / cm^3
# Si number density = 25.333187 Si / 1000 Ang^3
#
#
#
# Elastic Constant Matrix: (Units=GPa)
#
#
# Indices 1 2 3 4 5 6 
#
# 1 194.9229 35.1127 43.0890 0.0000 0.0000 0.0000
# 2 35.1127 87.9391 0.4371 0.0000 0.0000 0.0000
# 3 43.0890 0.4371 79.3753 0.0000 0.0000 0.0000
# 4 0.0000 0.0000 0.0000 23.4782 0.0000 0.0000
# 5 0.0000 0.0000 0.0000 0.0000 19.6600 0.0000
# 6 0.0000 0.0000 0.0000 0.0000 0.0000 6.9742
#
#
#
# Elastic Compliance Matrix: (Units=1/GPa)
#
#
# Indices 1 2 3 4 5 6 
#
# 1 0.006341 -0.002515 -0.003428 0.000000 0.000000 0.000000
# 2 -0.002515 0.012369 0.001297 0.000000 0.000000 0.000000
# 3 -0.003428 0.001297 0.014452 0.000000 0.000000 0.000000
# 4 0.000000 0.000000 0.000000 0.042593 0.000000 0.000000
# 5 0.000000 0.000000 0.000000 0.000000 0.050865 0.000000
# 6 0.000000 0.000000 0.000000 0.000000 0.000000 0.143385
#
#
# Mechanical properties :
#
#
# Convention : Reuss Voigt Hill
#
# Bulk Modulus (GPa) = 41.89316 57.72387 49.80852
# Shear Modulus (GPa) = 17.40618 28.92904 23.16761
#
# Velocity S-wave (km/s) = 2.62408 3.38293 3.02738
# Velocity P-wave (km/s) = 5.07483 6.17206 5.65014
#
# Compressibility (1/GPa) = 0.02387024
#
# Stress axis : x y z
#
# Youngs Moduli (GPa) = 157.70053 80.84593 69.19282
#
# Poissons Ratio (x) = 0.20332 0.23722
# Poissons Ratio (y) = 0.39660 -0.08975
# Poissons Ratio (z) = 0.54067 -0.10486
#
# Static dielectric constant tensor:
#      x y z
#    x 2.002440 0.000000 0.000000 
#    y 0.000000 2.029820 0.000000 
#    z 0.000000 0.000000 2.085550 
# 
# From -- ./inp_files/2764.got.cif
#   From: 2010.05.17/outbox.cif.g08.bks.cpg/sg33_2_cif.got.tgz:2764.got - 2010.06.03 17:15:25.
