data_PCOD9345179
_publ_section_title
;
Structure prediction by ZEFSAII (Michael W. Deem and Ramdas Pophale) SiO2 
 PCOD9345179
Probable space group: P N A 21
;
_chemical_formula_sum "Si O2"
_cell_formula_units_Z 28
_cell_length_a 20.252491
_cell_length_b 10.793551
_cell_length_c 5.137047
_cell_angle_alpha 90.000000
_cell_angle_beta 90.000000
_cell_angle_gamma 90.000000
_cell_volume 1122.939439
_symmetry_space_group_name_H-M "P N A 21"
_symmetry_group_IT_number 33
_symmetry_cell_setting 'orthorhombic'
loop_
_space_group_symop_operation_xyz
x,y,z
-x,-y,1/2+z
1/2-x,1/2+y,1/2+z
1/2+x,1/2-y,z
loop_
_atom_site_type_symbol
_atom_site_label
_atom_site_fract_x
_atom_site_fract_y
_atom_site_fract_z
Si Si1 0.718376 0.426262 0.375000
Si Si2 0.307364 0.722075 0.354345
Si Si3 0.497908 0.664659 0.332353
Si Si4 0.924190 0.069077 0.327373
Si Si5 0.671232 0.674674 0.169465
Si Si6 0.128485 0.477759 0.882955
Si Si7 0.075888 0.609890 0.370604
O O1 0.688731 0.389412 0.651846
O O2 0.671513 0.538987 0.291344
O O3 0.795790 0.465688 0.401060
O O4 0.710858 0.325424 0.143023
O O5 0.245894 0.787351 0.205635
O O6 0.361076 0.830476 0.360277
O O7 0.528663 0.628434 0.053251
O O8 0.432720 0.579673 0.363651
O O9 0.507738 0.812324 0.362641
O O10 0.544201 0.608624 0.557835
O O11 0.856901 0.144271 0.383665
O O12 0.629426 0.782722 0.302378
O O13 0.093791 0.543217 0.638197
O O14 0.087419 0.513887 0.138133
#
# Coordination Sequence:
#
# PCOD9345179 Si02
#       7
#     4   4   4   4   4   4   4
#     4  11  22  36  50  75 103 146 181 214 252 304
#     4  11  23  36  51  73 109 144 185 214 246 307
#     4   9  18  30  51  75 110 130 166 209 266 327
#     4   9  18  32  48  79 105 137 163 209 267 325
#     4  10  21  34  56  75 110 139 173 212 268 309
#     4  11  21  34  51  74 103 143 179 212 252 308
#     4  11  19  34  53  79 104 139 171 214 269 310
#
# _framework density 24.934557000000002
#
# number of rings (size 3 to 8) (size 9 to 14) (size 15 to 20)
#    0.000    1.714    2.857    2.571    0.000    6.857 
#    0.000    0.000    0.000    0.000    0.000    4.000 
#    0.000    0.000    0.000    0.000    0.000    0.000 
#
# Total GULP energy -156472.081093 kJ/mol
# GULP energy per Si atom -5588.288610 kJ/mol
# Density = 2.487780 g / cm^3
# Si number density = 24.934557 Si / 1000 Ang^3
#
#
#
# Elastic Constant Matrix: (Units=GPa)
#
#
# Indices 1 2 3 4 5 6 
#
# 1 76.8199 -3.8559 21.7393 0.0000 0.0000 0.0000
# 2 -3.8559 67.0915 -7.3680 0.0000 0.0000 0.0000
# 3 21.7393 -7.3680 96.8599 0.0000 0.0000 0.0000
# 4 0.0000 0.0000 0.0000 50.6411 0.0000 0.0000
# 5 0.0000 0.0000 0.0000 0.0000 17.7711 0.0000
# 6 0.0000 0.0000 0.0000 0.0000 0.0000 41.7903
#
#
#
# Elastic Compliance Matrix: (Units=1/GPa)
#
#
# Indices 1 2 3 4 5 6 
#
# 1 0.013914 0.000461 -0.003088 0.000000 0.000000 0.000000
# 2 0.000461 0.015046 0.001041 0.000000 0.000000 0.000000
# 3 -0.003088 0.001041 0.011096 0.000000 0.000000 0.000000
# 4 0.000000 0.000000 0.000000 0.019747 0.000000 0.000000
# 5 0.000000 0.000000 0.000000 0.000000 0.056271 0.000000
# 6 0.000000 0.000000 0.000000 0.000000 0.000000 0.023929
#
#
# Mechanical properties :
#
#
# Convention : Reuss Voigt Hill
#
# Bulk Modulus (GPa) = 27.11180 29.08910 28.10045
# Shear Modulus (GPa) = 32.16041 37.39091 34.77566
#
# Velocity S-wave (km/s) = 3.59526 3.87662 3.73859
# Velocity P-wave (km/s) = 5.30390 5.63286 5.47085
#
# Compressibility (1/GPa) = 0.03688431
#
# Stress axis : x y z
#
# Youngs Moduli (GPa) = 71.86786 66.46356 90.11897
#
# Poissons Ratio (x) = -0.03061 0.27828
# Poissons Ratio (y) = -0.03310 -0.09383
# Poissons Ratio (z) = 0.22192 -0.06920
#
# Static dielectric constant tensor:
#      x y z
#    x 2.057990 0.000000 0.000000 
#    y 0.000000 1.390270 0.000000 
#    z 0.000000 0.000000 1.955890 
# 
# From -- ./inp_files/2452.got.cif
#   From: 2010.05.17/outbox.cif.g08.bks.cpg/sg33_2_cif.got.tgz:2452.got - 2010.06.03 17:15:25.
