data_PCOD9345174
_publ_section_title
;
Structure prediction by ZEFSAII (Michael W. Deem and Ramdas Pophale) SiO2 
 PCOD9345174
Probable space group: P N A 21
;
_chemical_formula_sum "Si O2"
_cell_formula_units_Z 20
_cell_length_a 9.222662
_cell_length_b 7.386316
_cell_length_c 11.307987
_cell_angle_alpha 90.000000
_cell_angle_beta 90.000000
_cell_angle_gamma 90.000000
_cell_volume 770.316990
_symmetry_space_group_name_H-M "P N A 21"
_symmetry_group_IT_number 33
_symmetry_cell_setting 'orthorhombic'
loop_
_space_group_symop_operation_xyz
x,y,z
-x,-y,1/2+z
1/2-x,1/2+y,1/2+z
1/2+x,1/2-y,z
loop_
_atom_site_type_symbol
_atom_site_label
_atom_site_fract_x
_atom_site_fract_y
_atom_site_fract_z
Si Si1 0.731384 0.612933 0.802780
Si Si2 0.945725 0.434399 0.332266
Si Si3 0.367742 0.224350 0.734530
Si Si4 0.911735 0.971360 0.540631
Si Si5 0.263895 0.376801 0.989544
O O1 0.763514 0.448957 0.712796
O O2 0.823754 0.783881 0.553598
O O3 0.650262 0.791725 0.762415
O O4 0.894053 0.647856 0.852158
O O5 0.874879 0.120949 0.638472
O O6 0.857978 0.476970 0.451634
O O7 0.980478 0.619704 0.261666
O O8 0.316101 0.301967 0.860138
O O9 0.864786 0.043039 0.411647
O O10 0.081905 0.933054 0.540765
#
# Coordination Sequence:
#
# PCOD9345174 Si02
#       5
#     4   4   4   4   4
#     4   9  21  42  76 111 161 210 264 343 406 489
#     4  10  20  45  74 115 155 217 255 346 410 474
#     4   9  23  42  75 120 158 210 278 326 425 492
#     4  11  21  46  78 118 162 220 270 333 421 503
#     4  11  21  45  81 112 170 205 271 352 398 498
#
# _framework density 25.963336000000002
#
# number of rings (size 3 to 8) (size 9 to 14) (size 15 to 20)
#    1.200    0.800    2.000    1.200    0.000    0.000 
#    7.200    6.000   17.600    0.000    0.000    0.000 
#    0.000    0.000    0.000    0.000    0.000    0.000 
#
# Total GULP energy -111948.792072 kJ/mol
# GULP energy per Si atom -5597.439604 kJ/mol
# Density = 2.590424 g / cm^3
# Si number density = 25.963336 Si / 1000 Ang^3
#
#
#
# Elastic Constant Matrix: (Units=GPa)
#
#
# Indices 1 2 3 4 5 6 
#
# 1 238.1782 100.7340 77.6420 0.0000 0.0000 0.0000
# 2 100.7340 114.3750 36.1533 0.0000 0.0000 0.0000
# 3 77.6420 36.1533 88.7308 0.0000 0.0000 0.0000
# 4 0.0000 0.0000 0.0000 57.3844 0.0000 0.0000
# 5 0.0000 0.0000 0.0000 0.0000 33.4916 0.0000
# 6 0.0000 0.0000 0.0000 0.0000 0.0000 63.9138
#
#
#
# Elastic Compliance Matrix: (Units=1/GPa)
#
#
# Indices 1 2 3 4 5 6 
#
# 1 0.008175 -0.005669 -0.004844 0.000000 0.000000 0.000000
# 2 -0.005669 0.013967 -0.000730 0.000000 0.000000 0.000000
# 3 -0.004844 -0.000730 0.015806 0.000000 0.000000 0.000000
# 4 0.000000 0.000000 0.000000 0.017426 0.000000 0.000000
# 5 0.000000 0.000000 0.000000 0.000000 0.029858 0.000000
# 6 0.000000 0.000000 0.000000 0.000000 0.000000 0.015646
#
#
# Mechanical properties :
#
#
# Convention : Reuss Voigt Hill
#
# Bulk Modulus (GPa) = 64.67414 96.70475 80.68944
# Shear Modulus (GPa) = 38.90494 46.07494 42.48994
#
# Velocity S-wave (km/s) = 3.87519 4.21719 4.04980
# Velocity P-wave (km/s) = 6.70721 7.81284 7.28104
#
# Compressibility (1/GPa) = 0.01546213
#
# Stress axis : x y z
#
# Youngs Moduli (GPa) = 122.32229 71.59763 63.26765
#
# Poissons Ratio (x) = 0.40589 0.30644
# Poissons Ratio (y) = 0.69345 0.04620
# Poissons Ratio (z) = 0.59248 0.05228
#
# Static dielectric constant tensor:
#      x y z
#    x 2.006430 0.000000 0.000000 
#    y 0.000000 2.073550 0.000000 
#    z 0.000000 0.000000 2.101610 
# 
# From -- ./inp_files/5785.got.cif
#   From: 2010.05.17/outbox.cif.g08.bks.cpg/sg33_3_cif.got.tgz:5785.got - 2010.06.03 17:15:25.
