data_PCOD9345278
_publ_section_title
;
Structure prediction by ZEFSAII (Michael W. Deem and Ramdas Pophale) SiO2 
 PCOD9345278
Probable space group: P N A 21
;
_chemical_formula_sum "Si O2"
_cell_formula_units_Z 28
_cell_length_a 24.108084
_cell_length_b 8.918650
_cell_length_c 5.290196
_cell_angle_alpha 90.000000
_cell_angle_beta 90.000000
_cell_angle_gamma 90.000000
_cell_volume 1137.453312
_symmetry_space_group_name_H-M "P N A 21"
_symmetry_group_IT_number 33
_symmetry_cell_setting 'orthorhombic'
loop_
_space_group_symop_operation_xyz
x,y,z
-x,-y,1/2+z
1/2-x,1/2+y,1/2+z
1/2+x,1/2-y,z
loop_
_atom_site_type_symbol
_atom_site_label
_atom_site_fract_x
_atom_site_fract_y
_atom_site_fract_z
Si Si1 0.629685 0.785511 0.553910
Si Si2 0.504063 0.399452 0.544324
Si Si3 0.225681 0.503752 0.693773
Si Si4 0.383077 0.368728 0.553479
Si Si5 0.092976 0.208841 0.211482
Si Si6 0.994872 0.401324 0.018880
Si Si7 0.713799 0.179703 0.206372
O O1 0.762148 0.602883 0.957099
O O2 0.638608 0.663666 0.774817
O O3 0.565000 0.824675 0.542410
O O4 0.664590 0.928541 0.639774
O O5 0.494448 0.502472 0.295668
O O6 0.560783 0.316068 0.477200
O O7 0.545549 0.215728 0.040396
O O8 0.353306 0.281034 0.781400
O O9 0.263855 0.650983 0.690830
O O10 0.228013 0.415096 0.956487
O O11 0.388286 0.544246 0.616995
O O12 0.446981 0.308835 0.557815
O O13 0.147108 0.309840 0.227983
O O14 0.998408 0.492255 0.761002
#
# Coordination Sequence:
#
# PCOD9345278 Si02
#       7
#     4   4   4   4   4   4   4
#     4  12  25  44  73 103 153 184 247 301 382 448
#     4  10  21  38  62 106 150 184 236 296 359 457
#     4  12  29  54  81 113 153 199 266 324 392 464
#     4  11  24  40  71 111 141 198 234 307 369 454
#     4  11  26  43  75 104 153 187 259 300 387 453
#     4  12  26  42  64  96 140 191 233 297 376 450
#     4  12  29  53  82 113 150 205 261 331 387 460
#
# _framework density 24.616392999999999
#
# number of rings (size 3 to 8) (size 9 to 14) (size 15 to 20)
#    0.000    0.571    1.429    6.000    8.000    4.571 
#    0.000    0.000    0.000    0.000    0.000    0.000 
#    0.000    0.000    0.000    0.000    0.000    0.000 
#
# Total GULP energy -156997.062199 kJ/mol
# GULP energy per Si atom -5607.037936 kJ/mol
# Density = 2.456036 g / cm^3
# Si number density = 24.616393 Si / 1000 Ang^3
#
#
#
# Elastic Constant Matrix: (Units=GPa)
#
#
# Indices 1 2 3 4 5 6 
#
# 1 98.8667 38.2839 32.7511 0.0000 0.0000 0.0000
# 2 38.2839 112.5948 67.4981 0.0000 0.0000 0.0000
# 3 32.7511 67.4981 206.9007 0.0000 0.0000 0.0000
# 4 0.0000 0.0000 0.0000 62.2961 0.0000 0.0000
# 5 0.0000 0.0000 0.0000 0.0000 22.7537 0.0000
# 6 0.0000 0.0000 0.0000 0.0000 0.0000 40.2159
#
#
#
# Elastic Compliance Matrix: (Units=1/GPa)
#
#
# Indices 1 2 3 4 5 6 
#
# 1 0.011727 -0.003573 -0.000691 0.000000 0.000000 0.000000
# 2 -0.003573 0.012129 -0.003391 0.000000 0.000000 0.000000
# 3 -0.000691 -0.003391 0.006049 0.000000 0.000000 0.000000
# 4 0.000000 0.000000 0.000000 0.016052 0.000000 0.000000
# 5 0.000000 0.000000 0.000000 0.000000 0.043949 0.000000
# 6 0.000000 0.000000 0.000000 0.000000 0.000000 0.024866
#
#
# Mechanical properties :
#
#
# Convention : Reuss Voigt Hill
#
# Bulk Modulus (GPa) = 68.51763 77.26981 72.89372
# Shear Modulus (GPa) = 37.05126 43.70842 40.37984
#
# Velocity S-wave (km/s) = 3.88383 4.21834 4.05453
# Velocity P-wave (km/s) = 6.92869 7.42856 7.18298
#
# Compressibility (1/GPa) = 0.01459478
#
# Stress axis : x y z
#
# Youngs Moduli (GPa) = 85.27254 82.44372 165.31825
#
# Poissons Ratio (x) = 0.29461 0.11416
# Poissons Ratio (y) = 0.30471 0.56066
# Poissons Ratio (z) = 0.05889 0.27960
#
# Static dielectric constant tensor:
#      x y z
#    x 2.001920 0.000000 0.000000 
#    y 0.000000 1.981160 0.000000 
#    z 0.000000 0.000000 1.946170 
# 
# From -- ./inp_files/2283.got.cif
#   From: 2010.05.17/outbox.cif.g08.bks.cpg/sg33_2_cif.got.tgz:2283.got - 2010.06.03 17:15:25.
