data_PCOD9345239
_publ_section_title
;
Structure prediction by ZEFSAII (Michael W. Deem and Ramdas Pophale) SiO2 
 PCOD9345239
Probable space group: P N A 21
;
_chemical_formula_sum "Si O2"
_cell_formula_units_Z 20
_cell_length_a 19.539853
_cell_length_b 5.440638
_cell_length_c 8.159465
_cell_angle_alpha 90.000000
_cell_angle_beta 90.000000
_cell_angle_gamma 90.000000
_cell_volume 867.426741
_symmetry_space_group_name_H-M "P N A 21"
_symmetry_group_IT_number 33
_symmetry_cell_setting 'orthorhombic'
loop_
_space_group_symop_operation_xyz
x,y,z
-x,-y,1/2+z
1/2-x,1/2+y,1/2+z
1/2+x,1/2-y,z
loop_
_atom_site_type_symbol
_atom_site_label
_atom_site_fract_x
_atom_site_fract_y
_atom_site_fract_z
Si Si1 0.884538 0.052840 0.565730
Si Si2 0.990622 0.707072 0.174833
Si Si3 0.694804 0.520326 0.745344
Si Si4 0.513134 0.708554 0.556308
Si Si5 0.731221 0.023389 0.575606
O O1 0.933247 0.286911 0.592086
O O2 0.867954 0.026509 0.373519
O O3 0.810056 0.044149 0.642910
O O4 0.936111 0.840988 0.624769
O O5 0.004813 0.747344 0.364748
O O6 0.956511 0.448006 0.138897
O O7 0.954664 0.942592 0.091420
O O8 0.696621 0.269725 0.642984
O O9 0.700909 0.766721 0.638734
O O10 0.757659 0.521814 0.879159
#
# Coordination Sequence:
#
# PCOD9345239 Si02
#       5
#     4   4   4   4   4
#     4   8  24  36  68  74 134 144 196 232 320 308
#     4  10  21  39  64  85 117 153 195 242 294 345
#     4  10  21  37  62  86 118 155 193 238 286 348
#     4  10  21  39  64  85 117 153 195 242 294 345
#     4  10  21  37  62  86 118 155 193 238 286 348
#
# _framework density 23.056701
#
# number of rings (size 3 to 8) (size 9 to 14) (size 15 to 20)
#    2.400    0.000    0.000    2.400    5.600    0.000 
#    0.000    6.000    0.000    0.000    0.000    0.000 
#    0.000    0.000    0.000    0.000    0.000    0.000 
#
# Total GULP energy -111360.957321 kJ/mol
# GULP energy per Si atom -5568.047866 kJ/mol
# Density = 2.300422 g / cm^3
# Si number density = 23.056701 Si / 1000 Ang^3
#
#
#
# Elastic Constant Matrix: (Units=GPa)
#
#
# Indices 1 2 3 4 5 6 
#
# 1 59.1304 30.8562 -2.7609 0.0000 0.0000 0.0000
# 2 30.8562 199.5938 33.9882 0.0000 0.0000 0.0000
# 3 -2.7609 33.9882 70.2958 0.0000 0.0000 0.0000
# 4 0.0000 0.0000 0.0000 31.7850 0.0000 0.0000
# 5 0.0000 0.0000 0.0000 0.0000 37.0586 0.0000
# 6 0.0000 0.0000 0.0000 0.0000 0.0000 12.4197
#
#
#
# Elastic Compliance Matrix: (Units=1/GPa)
#
#
# Indices 1 2 3 4 5 6 
#
# 1 0.018739 -0.003293 0.002328 0.000000 0.000000 0.000000
# 2 -0.003293 0.006039 -0.003049 0.000000 0.000000 0.000000
# 3 0.002328 -0.003049 0.015791 0.000000 0.000000 0.000000
# 4 0.000000 0.000000 0.000000 0.031461 0.000000 0.000000
# 5 0.000000 0.000000 0.000000 0.000000 0.026984 0.000000
# 6 0.000000 0.000000 0.000000 0.000000 0.000000 0.080517
#
#
# Mechanical properties :
#
#
# Convention : Reuss Voigt Hill
#
# Bulk Modulus (GPa) = 30.73068 50.35409 40.54239
# Shear Modulus (GPa) = 25.20074 34.04844 29.62459
#
# Velocity S-wave (km/s) = 3.30963 3.84699 3.58838
# Velocity P-wave (km/s) = 5.28792 6.45129 5.89835
#
# Compressibility (1/GPa) = 0.03254077
#
# Stress axis : x y z
#
# Youngs Moduli (GPa) = 53.36429 165.60315 63.32618
#
# Poissons Ratio (x) = 0.54541 -0.14745
# Poissons Ratio (y) = 0.17575 0.19308
# Poissons Ratio (z) = -0.12425 0.50492
#
# Static dielectric constant tensor:
#      x y z
#    x 1.921240 0.000000 0.000000 
#    y 0.000000 1.906770 0.000000 
#    z 0.000000 0.000000 1.837760 
# 
# From -- ./inp_files/5082.got.cif
#   From: 2010.05.17/outbox.cif.g08.bks.cpg/sg33_3_cif.got.tgz:5082.got - 2010.06.03 17:15:25.
