data_PCOD9345506
_publ_section_title
;
Structure prediction by ZEFSAII (Michael W. Deem and Ramdas Pophale) SiO2 
 PCOD9345506
Probable space group: P N A 21
;
_chemical_formula_sum "Si O2"
_cell_formula_units_Z 32
_cell_length_a 9.907298
_cell_length_b 10.489044
_cell_length_c 14.908140
_cell_angle_alpha 90.000000
_cell_angle_beta 90.000000
_cell_angle_gamma 90.000000
_cell_volume 1549.225354
_symmetry_space_group_name_H-M "P N A 21"
_symmetry_group_IT_number 33
_symmetry_cell_setting 'orthorhombic'
loop_
_space_group_symop_operation_xyz
x,y,z
-x,-y,1/2+z
1/2-x,1/2+y,1/2+z
1/2+x,1/2-y,z
loop_
_atom_site_type_symbol
_atom_site_label
_atom_site_fract_x
_atom_site_fract_y
_atom_site_fract_z
Si Si1 0.787609 0.351321 0.895100
Si Si2 0.545035 0.227996 0.808691
Si Si3 0.990286 0.454929 0.648236
Si Si4 0.222043 0.009603 0.069465
Si Si5 0.474907 0.504890 0.736592
Si Si6 0.771746 0.588225 0.756875
Si Si7 0.883626 0.263555 0.499183
Si Si8 0.139926 0.181021 0.380155
O O1 0.692879 0.250149 0.846043
O O2 0.939271 0.300060 0.888197
O O3 0.783307 0.478987 0.833799
O O4 0.722882 0.388496 0.989506
O O5 0.538243 0.113237 0.739242
O O6 0.504607 0.355752 0.753648
O O7 0.875469 0.553678 0.678023
O O8 0.927303 0.347860 0.583503
O O9 0.123736 0.508193 0.602453
O O10 0.121452 0.029514 0.152330
O O11 0.180678 0.871273 0.029298
O O12 0.617359 0.578091 0.725130
O O13 0.408613 0.557356 0.827520
O O14 0.812422 0.718129 0.805028
O O15 0.767690 0.336577 0.444394
O O16 0.013874 0.235568 0.437255
#
# Coordination Sequence:
#
# PCOD9345506 Si02
#       8
#     4   4   4   4   4   4   4   4
#     4  10  21  43  64  93 128 166 215 273 315 390
#     4  10  21  42  67  93 127 171 213 264 333 388
#     4  11  24  40  71  98 130 169 226 279 323 401
#     4  12  24  43  64 101 131 170 223 276 327 387
#     4  11  24  42  68  94 130 176 218 270 338 399
#     4  10  23  44  67  95 130 172 219 272 339 388
#     4  12  23  41  69  97 129 170 228 276 320 395
#     4  12  24  45  66  95 135 178 220 272 339 402
#
# _framework density 20.655484000000001
#
# number of rings (size 3 to 8) (size 9 to 14) (size 15 to 20)
#    0.000    1.000    5.000    1.500    7.000    0.000 
#    6.750    0.000    0.000    0.000    0.000    0.000 
#    0.000    0.000    0.000    0.000    0.000    0.000 
#
# Total GULP energy -178928.544692 kJ/mol
# GULP energy per Si atom -5591.517022 kJ/mol
# Density = 2.060847 g / cm^3
# Si number density = 20.655484 Si / 1000 Ang^3
#
#
#
# Elastic Constant Matrix: (Units=GPa)
#
#
# Indices 1 2 3 4 5 6 
#
# 1 79.7769 0.0433 20.1607 0.0000 0.0000 0.0000
# 2 0.0433 5.9461 0.3844 0.0000 0.0000 0.0000
# 3 20.1607 0.3844 66.8497 0.0000 0.0000 0.0000
# 4 0.0000 0.0000 0.0000 22.9549 0.0000 0.0000
# 5 0.0000 0.0000 0.0000 0.0000 28.3615 0.0000
# 6 0.0000 0.0000 0.0000 0.0000 0.0000 13.1104
#
#
#
# Elastic Compliance Matrix: (Units=1/GPa)
#
#
# Indices 1 2 3 4 5 6 
#
# 1 0.013569 0.000166 -0.004093 0.000000 0.000000 0.000000
# 2 0.000166 0.168243 -0.001017 0.000000 0.000000 0.000000
# 3 -0.004093 -0.001017 0.016199 0.000000 0.000000 0.000000
# 4 0.000000 0.000000 0.000000 0.043564 0.000000 0.000000
# 5 0.000000 0.000000 0.000000 0.000000 0.035259 0.000000
# 6 0.000000 0.000000 0.000000 0.000000 0.000000 0.076275
#
#
# Mechanical properties :
#
#
# Convention : Reuss Voigt Hill
#
# Bulk Modulus (GPa) = 5.31571 21.52771 13.42171
# Shear Modulus (GPa) = 11.74519 21.68432 16.71476
#
# Velocity S-wave (km/s) = 2.38717 3.24359 2.84776
# Velocity P-wave (km/s) = 3.19017 4.94699 4.16233
#
# Compressibility (1/GPa) = 0.18812172
#
# Stress axis : x y z
#
# Youngs Moduli (GPa) = 73.69591 5.94379 61.73142
#
# Poissons Ratio (x) = -0.00099 0.25268
# Poissons Ratio (y) = -0.01223 0.06281
# Poissons Ratio (z) = 0.30165 0.00605
#
# Static dielectric constant tensor:
#      x y z
#    x 1.721790 0.000000 0.000000 
#    y 0.000000 1.727450 0.000000 
#    z 0.000000 0.000000 1.729760 
# 
# From -- ./inp_files/7619.got.cif
#   From: 2010.05.17/outbox.cif.g08.bks.cpg/sg33_4_cif.got.tgz:7619.got - 2010.06.03 17:15:25.
