data_PCOD9345462
_publ_section_title
;
Structure prediction by ZEFSAII (Michael W. Deem and Ramdas Pophale) SiO2 
 PCOD9345462
Probable space group: P N A 21
;
_chemical_formula_sum "Si O2"
_cell_formula_units_Z 24
_cell_length_a 10.790237
_cell_length_b 12.027159
_cell_length_c 7.629105
_cell_angle_alpha 90.000000
_cell_angle_beta 90.000000
_cell_angle_gamma 90.000000
_cell_volume 990.073937
_symmetry_space_group_name_H-M "P N A 21"
_symmetry_group_IT_number 33
_symmetry_cell_setting 'orthorhombic'
loop_
_space_group_symop_operation_xyz
x,y,z
-x,-y,1/2+z
1/2-x,1/2+y,1/2+z
1/2+x,1/2-y,z
loop_
_atom_site_type_symbol
_atom_site_label
_atom_site_fract_x
_atom_site_fract_y
_atom_site_fract_z
Si Si1 0.353452 0.037546 0.940950
Si Si2 0.381952 0.643856 0.616785
Si Si3 0.026012 0.934990 0.274835
Si Si4 0.768013 0.926207 0.074955
Si Si5 0.260825 0.816343 0.102504
Si Si6 0.624857 0.131216 0.962041
O O1 0.254662 0.103608 0.059898
O O2 0.323748 0.067980 0.742433
O O3 0.493499 0.071280 0.972657
O O4 0.321956 0.910314 0.982804
O O5 0.426030 0.563812 0.773963
O O6 0.479518 0.612788 0.460212
O O7 0.374602 0.776396 0.613969
O O8 0.902240 0.936672 0.159558
O O9 0.128878 0.860892 0.175339
O O10 0.750269 0.801380 0.005514
O O11 0.728070 0.035202 0.969919
O O12 0.346866 0.807411 0.277238
#
# Coordination Sequence:
#
# PCOD9345462 Si02
#       6
#     4   4   4   4   4   4
#     4  10  23  42  61  98 129 171 222 267 328 391
#     4  10  22  40  64  95 127 171 219 265 329 385
#     4  10  21  41  66  91 130 173 216 264 328 389
#     4  11  24  41  66  97 130 176 216 271 333 382
#     4  11  23  43  67  95 134 174 216 277 325 387
#     4  12  23  41  70  96 132 175 215 274 331 388
#
# _framework density 24.240614000000001
#
# number of rings (size 3 to 8) (size 9 to 14) (size 15 to 20)
#    0.000    1.333    3.333    3.000    4.667    0.000 
#    9.000    3.333    0.000    0.000    0.000    0.000 
#    0.000    0.000    0.000    0.000    0.000    0.000 
#
# Total GULP energy -134336.796870 kJ/mol
# GULP energy per Si atom -5597.366536 kJ/mol
# Density = 2.418544 g / cm^3
# Si number density = 24.240614 Si / 1000 Ang^3
#
#
#
# Elastic Constant Matrix: (Units=GPa)
#
#
# Indices 1 2 3 4 5 6 
#
# 1 107.7493 53.6162 9.5548 0.0000 0.0000 0.0000
# 2 53.6162 198.9497 24.9453 0.0000 0.0000 0.0000
# 3 9.5548 24.9453 33.8506 0.0000 0.0000 0.0000
# 4 0.0000 0.0000 0.0000 36.1126 0.0000 0.0000
# 5 0.0000 0.0000 0.0000 0.0000 19.7304 0.0000
# 6 0.0000 0.0000 0.0000 0.0000 0.0000 12.8100
#
#
#
# Elastic Compliance Matrix: (Units=1/GPa)
#
#
# Indices 1 2 3 4 5 6 
#
# 1 0.010748 -0.002772 -0.000991 0.000000 0.000000 0.000000
# 2 -0.002772 0.006253 -0.003826 0.000000 0.000000 0.000000
# 3 -0.000991 -0.003826 0.032640 0.000000 0.000000 0.000000
# 4 0.000000 0.000000 0.000000 0.027691 0.000000 0.000000
# 5 0.000000 0.000000 0.000000 0.000000 0.050683 0.000000
# 6 0.000000 0.000000 0.000000 0.000000 0.000000 0.078064
#
#
# Mechanical properties :
#
#
# Convention : Reuss Voigt Hill
#
# Bulk Modulus (GPa) = 29.01556 57.42026 43.21791
# Shear Modulus (GPa) = 21.48264 30.55948 26.02106
#
# Velocity S-wave (km/s) = 2.98018 3.55445 3.27991
# Velocity P-wave (km/s) = 4.88240 6.37060 5.67549
#
# Compressibility (1/GPa) = 0.03446427
#
# Stress axis : x y z
#
# Youngs Moduli (GPa) = 93.03890 159.91780 30.63687
#
# Poissons Ratio (x) = 0.44335 0.03035
# Poissons Ratio (y) = 0.25794 0.11720
# Poissons Ratio (z) = 0.09218 0.61178
#
# Static dielectric constant tensor:
#      x y z
#    x 1.866550 0.000000 0.000000 
#    y 0.000000 1.992380 0.000000 
#    z 0.000000 0.000000 1.981380 
# 
# From -- ./inp_files/3774.got.cif
#   From: 2010.05.17/outbox.cif.g08.bks.cpg/sg33_2_cif.got.tgz:3774.got - 2010.06.03 17:15:25.
