data_PCOD9345050
_publ_section_title
;
Structure prediction by ZEFSAII (Michael W. Deem and Ramdas Pophale) SiO2 
 PCOD9345050
Probable space group: P N A 21
;
_chemical_formula_sum "Si O2"
_cell_formula_units_Z 32
_cell_length_a 15.631364
_cell_length_b 9.385436
_cell_length_c 8.938508
_cell_angle_alpha 90.000000
_cell_angle_beta 90.000000
_cell_angle_gamma 90.000000
_cell_volume 1311.343181
_symmetry_space_group_name_H-M "P N A 21"
_symmetry_group_IT_number 33
_symmetry_cell_setting 'orthorhombic'
loop_
_space_group_symop_operation_xyz
x,y,z
-x,-y,1/2+z
1/2-x,1/2+y,1/2+z
1/2+x,1/2-y,z
loop_
_atom_site_type_symbol
_atom_site_label
_atom_site_fract_x
_atom_site_fract_y
_atom_site_fract_z
Si Si1 0.284460 0.098988 0.581490
Si Si2 0.704149 0.948124 0.739487
Si Si3 0.460734 0.935947 0.002331
Si Si4 0.647370 0.809559 0.481642
Si Si5 0.882938 0.929104 0.585164
Si Si6 0.674237 0.265196 0.812510
Si Si7 0.057328 0.784968 0.189765
Si Si8 0.417585 0.875045 0.684390
O O1 0.268651 0.090954 0.406939
O O2 0.328217 0.959008 0.656488
O O3 0.200222 0.147805 0.666335
O O4 0.358763 0.214242 0.613112
O O5 0.657168 0.100125 0.771973
O O6 0.656699 0.810901 0.662033
O O7 0.788144 0.976931 0.638309
O O8 0.474331 0.897826 0.831376
O O9 0.370517 0.018431 0.981595
O O10 0.481636 0.808036 0.115716
O O11 0.524271 0.060711 0.053447
O O12 0.737112 0.762250 0.410716
O O13 0.578447 0.739512 0.367093
O O14 0.885111 0.864083 0.416994
O O15 0.900938 0.789503 0.679939
O O16 0.945648 0.054927 0.632221
#
# Coordination Sequence:
#
# PCOD9345050 Si02
#       8
#     4   4   4   4   4   4   4   4
#     4  10  20  40  63 100 127 173 221 255 333 415
#     4  11  22  37  72 100 134 176 214 268 351 409
#     4  11  22  44  66  90 121 179 233 265 320 398
#     4  10  21  40  68  90 129 176 220 269 335 403
#     4  11  23  43  65 100 143 166 214 286 351 396
#     4  10  20  41  64 101 138 169 207 280 340 406
#     4  10  22  44  63  95 136 171 224 287 323 396
#     4  11  24  41  69  92 128 172 229 270 327 407
#
# _framework density 24.402460999999999
#
# number of rings (size 3 to 8) (size 9 to 14) (size 15 to 20)
#    0.000    1.500    7.500    0.000    3.500    2.000 
#    2.250    0.000    0.000    0.000    0.000    0.000 
#    0.000    0.000    0.000    0.000    0.000    0.000 
#
# Total GULP energy -178334.622249 kJ/mol
# GULP energy per Si atom -5572.956945 kJ/mol
# Density = 2.434692 g / cm^3
# Si number density = 24.402461 Si / 1000 Ang^3
#
#
#
# Elastic Constant Matrix: (Units=GPa)
#
#
# Indices 1 2 3 4 5 6 
#
# 1 65.1203 20.6400 23.7150 0.0000 0.0000 0.0000
# 2 20.6400 141.9562 35.9939 0.0000 0.0000 0.0000
# 3 23.7150 35.9939 143.2220 0.0000 0.0000 0.0000
# 4 0.0000 0.0000 0.0000 26.6423 0.0000 0.0000
# 5 0.0000 0.0000 0.0000 0.0000 9.8283 0.0000
# 6 0.0000 0.0000 0.0000 0.0000 0.0000 9.8538
#
#
#
# Elastic Compliance Matrix: (Units=1/GPa)
#
#
# Indices 1 2 3 4 5 6 
#
# 1 0.016786 -0.001854 -0.002314 0.000000 0.000000 0.000000
# 2 -0.001854 0.007729 -0.001635 0.000000 0.000000 0.000000
# 3 -0.002314 -0.001635 0.007776 0.000000 0.000000 0.000000
# 4 0.000000 0.000000 0.000000 0.037534 0.000000 0.000000
# 5 0.000000 0.000000 0.000000 0.000000 0.101747 0.000000
# 6 0.000000 0.000000 0.000000 0.000000 0.000000 0.101484
#
#
# Mechanical properties :
#
#
# Convention : Reuss Voigt Hill
#
# Bulk Modulus (GPa) = 48.34342 56.77737 52.56039
# Shear Modulus (GPa) = 17.14930 27.26153 22.20542
#
# Velocity S-wave (km/s) = 2.65386 3.34603 3.01984
# Velocity P-wave (km/s) = 5.40782 6.18429 5.80904
#
# Compressibility (1/GPa) = 0.02068534
#
# Stress axis : x y z
#
# Youngs Moduli (GPa) = 59.57210 129.38872 128.59690
#
# Poissons Ratio (x) = 0.23989 0.29752
# Poissons Ratio (y) = 0.11045 0.21030
# Poissons Ratio (z) = 0.13782 0.21159
#
# Static dielectric constant tensor:
#      x y z
#    x 2.091610 0.000000 0.000000 
#    y 0.000000 1.943780 0.000000 
#    z 0.000000 0.000000 2.129170 
# 
# From -- ./inp_files/5046.got.cif
#   From: 2010.05.17/outbox.cif.g08.bks.cpg/sg33_3_cif.got.tgz:5046.got - 2010.06.03 17:15:25.
