data_PCOD9345564
_publ_section_title
;
Structure prediction by ZEFSAII (Michael W. Deem and Ramdas Pophale) SiO2 
 PCOD9345564
Probable space group: P N A 21
;
_chemical_formula_sum "Si O2"
_cell_formula_units_Z 32
_cell_length_a 12.006090
_cell_length_b 6.080854
_cell_length_c 18.738124
_cell_angle_alpha 90.000000
_cell_angle_beta 90.000000
_cell_angle_gamma 90.000000
_cell_volume 1368.019473
_symmetry_space_group_name_H-M "P N A 21"
_symmetry_group_IT_number 33
_symmetry_cell_setting 'orthorhombic'
loop_
_space_group_symop_operation_xyz
x,y,z
-x,-y,1/2+z
1/2-x,1/2+y,1/2+z
1/2+x,1/2-y,z
loop_
_atom_site_type_symbol
_atom_site_label
_atom_site_fract_x
_atom_site_fract_y
_atom_site_fract_z
Si Si1 0.849567 0.921285 0.443890
Si Si2 0.325112 0.864313 0.565823
Si Si3 0.965197 0.998117 0.227954
Si Si4 0.802858 0.373284 0.187434
Si Si5 0.642729 0.120636 0.820973
Si Si6 0.486366 0.822165 0.108818
Si Si7 0.176569 0.214809 0.485226
Si Si8 0.520666 0.271972 0.359684
O O1 0.895156 0.766200 0.506355
O O2 0.797933 0.759663 0.383314
O O3 0.766351 0.088818 0.482926
O O4 0.941456 0.058473 0.402013
O O5 0.282346 0.698779 0.626381
O O6 0.400009 0.048420 0.601633
O O7 0.229837 0.997055 0.521217
O O8 0.931014 0.792376 0.276245
O O9 0.006395 0.896983 0.154497
O O10 0.857145 0.143159 0.211327
O O11 0.038169 0.154905 0.277887
O O12 0.780533 0.502884 0.261443
O O13 0.896791 0.522550 0.148850
O O14 0.554915 0.948303 0.855476
O O15 0.430363 0.771587 0.033218
O O16 0.133835 0.217298 0.403909
#
# Coordination Sequence:
#
# PCOD9345564 Si02
#       8
#     4   4   4   4   4   4   4   4
#     4  11  23  41  65 101 138 183 227 292 349 414
#     4  12  26  41  69 104 134 182 235 281 355 416
#     4   9  20  44  71  92 136 179 223 291 340 405
#     4  10  21  44  68  98 135 181 228 291 339 413
#     4   9  20  43  68  94 134 182 227 282 342 414
#     4  11  23  42  68 100 139 179 230 286 350 414
#     4  12  24  41  67 101 141 179 231 288 354 411
#     4  10  23  44  70  96 137 179 233 283 349 419
#
# _framework density 23.391479
#
# number of rings (size 3 to 8) (size 9 to 14) (size 15 to 20)
#    0.000    1.500    2.500    2.250    1.750    3.000 
#    0.000   21.250    0.000    0.000    0.000    0.000 
#    0.000    0.000    0.000    0.000    0.000    0.000 
#
# Total GULP energy -178803.053056 kJ/mol
# GULP energy per Si atom -5587.595408 kJ/mol
# Density = 2.333824 g / cm^3
# Si number density = 23.391479 Si / 1000 Ang^3
#
#
#
# Elastic Constant Matrix: (Units=GPa)
#
#
# Indices 1 2 3 4 5 6 
#
# 1 30.8843 -0.2018 -1.9320 0.0000 0.0000 0.0000
# 2 -0.2018 81.8514 16.8254 0.0000 0.0000 0.0000
# 3 -1.9320 16.8254 75.9173 0.0000 0.0000 0.0000
# 4 0.0000 0.0000 0.0000 66.3464 0.0000 0.0000
# 5 0.0000 0.0000 0.0000 0.0000 30.0416 0.0000
# 6 0.0000 0.0000 0.0000 0.0000 0.0000 9.8698
#
#
#
# Elastic Compliance Matrix: (Units=1/GPa)
#
#
# Indices 1 2 3 4 5 6 
#
# 1 0.032431 -0.000094 0.000846 0.000000 0.000000 0.000000
# 2 -0.000094 0.012801 -0.002839 0.000000 0.000000 0.000000
# 3 0.000846 -0.002839 0.013823 0.000000 0.000000 0.000000
# 4 0.000000 0.000000 0.000000 0.015072 0.000000 0.000000
# 5 0.000000 0.000000 0.000000 0.000000 0.033287 0.000000
# 6 0.000000 0.000000 0.000000 0.000000 0.000000 0.101319
#
#
# Mechanical properties :
#
#
# Convention : Reuss Voigt Hill
#
# Bulk Modulus (GPa) = 18.22138 24.22623 21.22381
# Shear Modulus (GPa) = 21.62619 32.84900 27.23759
#
# Velocity S-wave (km/s) = 3.04391 3.75148 3.41607
# Velocity P-wave (km/s) = 4.49005 5.39854 4.96511
#
# Compressibility (1/GPa) = 0.05488057
#
# Stress axis : x y z
#
# Youngs Moduli (GPa) = 30.83448 78.12079 72.34293
#
# Poissons Ratio (x) = 0.00734 -0.06121
# Poissons Ratio (y) = 0.00290 0.20541
# Poissons Ratio (z) = -0.02609 0.22181
#
# Static dielectric constant tensor:
#      x y z
#    x 1.881350 0.000000 0.000000 
#    y 0.000000 1.877230 0.000000 
#    z 0.000000 0.000000 1.929160 
# 
# From -- ./inp_files/9142.got.cif
#   From: 2010.05.17/outbox.cif.g08.bks.cpg/sg33_5_cif.got.tgz:9142.got - 2010.06.03 17:15:25.
