data_PCOD9345369
_publ_section_title
;
Structure prediction by ZEFSAII (Michael W. Deem and Ramdas Pophale) SiO2 
 PCOD9345369
Probable space group: P N A 21
;
_chemical_formula_sum "Si O2"
_cell_formula_units_Z 32
_cell_length_a 18.720728
_cell_length_b 7.740669
_cell_length_c 8.715485
_cell_angle_alpha 90.000000
_cell_angle_beta 90.000000
_cell_angle_gamma 90.000000
_cell_volume 1262.969289
_symmetry_space_group_name_H-M "P N A 21"
_symmetry_group_IT_number 33
_symmetry_cell_setting 'orthorhombic'
loop_
_space_group_symop_operation_xyz
x,y,z
-x,-y,1/2+z
1/2-x,1/2+y,1/2+z
1/2+x,1/2-y,z
loop_
_atom_site_type_symbol
_atom_site_label
_atom_site_fract_x
_atom_site_fract_y
_atom_site_fract_z
Si Si1 0.327721 0.334942 0.588250
Si Si2 0.418474 0.459734 0.315973
Si Si3 0.900965 0.546448 0.574988
Si Si4 0.240094 0.285459 0.016588
Si Si5 0.620482 0.845714 0.601957
Si Si6 0.023169 0.424533 0.746125
Si Si7 0.703608 0.351417 0.669820
Si Si8 0.063677 0.878247 0.321732
O O1 0.362712 0.440883 0.452964
O O2 0.243753 0.296373 0.571971
O O3 0.363665 0.427059 0.736288
O O4 0.360683 0.138724 0.583385
O O5 0.411103 0.276024 0.234163
O O6 0.378405 0.602781 0.209177
O O7 0.500028 0.492789 0.367818
O O8 0.840385 0.690816 0.573279
O O9 0.944432 0.565800 0.415882
O O10 0.958220 0.556192 0.710401
O O11 0.294544 0.159078 0.102121
O O12 0.273931 0.471484 0.075826
O O13 0.235942 0.215413 0.838900
O O14 0.586353 0.029603 0.630294
O O15 0.590864 0.750712 0.452507
O O16 0.984326 0.244704 0.713325
#
# Coordination Sequence:
#
# PCOD9345369 Si02
#       8
#     4   4   4   4   4   4   4   4
#     4  10  21  42  65  91 135 177 218 289 351 412
#     4  11  23  41  67  96 131 178 227 289 351 425
#     4  10  21  39  70  98 134 178 236 290 355 431
#     4  10  22  43  67  95 142 184 232 292 359 434
#     4  11  22  41  67  94 134 184 225 286 363 420
#     4  11  21  38  69  97 129 181 232 294 352 427
#     4  10  22  42  66  97 135 182 225 283 356 423
#     4  11  22  40  65  96 132 170 233 293 347 418
#
# _framework density 25.337116999999999
#
# number of rings (size 3 to 8) (size 9 to 14) (size 15 to 20)
#    0.000    1.500    3.750    1.500    0.000    0.000 
#    4.500    0.000    2.750    0.000    0.000    0.000 
#    0.000    0.000    0.000    0.000    0.000    0.000 
#
# Total GULP energy -178204.925436 kJ/mol
# GULP energy per Si atom -5568.903920 kJ/mol
# Density = 2.527945 g / cm^3
# Si number density = 25.337117 Si / 1000 Ang^3
#
#
#
# Elastic Constant Matrix: (Units=GPa)
#
#
# Indices 1 2 3 4 5 6 
#
# 1 110.7970 19.8308 3.4426 0.0000 0.0000 0.0000
# 2 19.8308 95.4113 13.5221 0.0000 0.0000 0.0000
# 3 3.4426 13.5221 48.6938 0.0000 0.0000 0.0000
# 4 0.0000 0.0000 0.0000 37.8457 0.0000 0.0000
# 5 0.0000 0.0000 0.0000 0.0000 991.3361 0.0000
# 6 0.0000 0.0000 0.0000 0.0000 0.0000 4.4691
#
#
#
# Elastic Compliance Matrix: (Units=1/GPa)
#
#
# Indices 1 2 3 4 5 6 
#
# 1 0.009375 -0.001931 -0.000127 0.000000 0.000000 0.000000
# 2 -0.001931 0.011308 -0.003004 0.000000 0.000000 0.000000
# 3 -0.000127 -0.003004 0.021380 0.000000 0.000000 0.000000
# 4 0.000000 0.000000 0.000000 0.026423 0.000000 0.000000
# 5 0.000000 0.000000 0.000000 0.000000 0.001009 0.000000
# 6 0.000000 0.000000 0.000000 0.000000 0.000000 0.223761
#
#
# Mechanical properties :
#
#
# Convention : Reuss Voigt Hill
#
# Bulk Modulus (GPa) = 31.30816 36.49923 33.90370
# Shear Modulus (GPa) = 15.92236 221.27062 118.59649
#
# Velocity S-wave (km/s) = 2.50955 9.35522 6.84902
# Velocity P-wave (km/s) = 4.55857 11.45122 8.71524
#
# Compressibility (1/GPa) = 0.03194055
#
# Stress axis : x y z
#
# Youngs Moduli (GPa) = 106.66670 88.43374 46.77367
#
# Poissons Ratio (x) = 0.17073 0.00593
# Poissons Ratio (y) = 0.20593 0.14049
# Poissons Ratio (z) = 0.01351 0.26563
#
# Static dielectric constant tensor:
#      x y z
#    x 1.994910 0.000000 0.000000 
#    y 0.000000 2.179220 0.000000 
#    z 0.000000 0.000000 2.147230 
# 
# From -- ./inp_files/5013.got.cif
#   From: 2010.05.17/outbox.cif.g08.bks.cpg/sg33_3_cif.got.tgz:5013.got - 2010.06.03 17:15:25.
