data_PCOD9345418
_publ_section_title
;
Structure prediction by ZEFSAII (Michael W. Deem and Ramdas Pophale) SiO2 
 PCOD9345418
Probable space group: P N A 21
;
_chemical_formula_sum "Si O2"
_cell_formula_units_Z 32
_cell_length_a 13.413505
_cell_length_b 9.086868
_cell_length_c 11.214554
_cell_angle_alpha 90.000000
_cell_angle_beta 90.000000
_cell_angle_gamma 90.000000
_cell_volume 1366.905532
_symmetry_space_group_name_H-M "P N A 21"
_symmetry_group_IT_number 33
_symmetry_cell_setting 'orthorhombic'
loop_
_space_group_symop_operation_xyz
x,y,z
-x,-y,1/2+z
1/2-x,1/2+y,1/2+z
1/2+x,1/2-y,z
loop_
_atom_site_type_symbol
_atom_site_label
_atom_site_fract_x
_atom_site_fract_y
_atom_site_fract_z
Si Si1 0.766118 0.748073 0.911190
Si Si2 0.402762 0.008327 0.806901
Si Si3 0.714716 0.336401 0.683689
Si Si4 0.285272 0.453636 0.782282
Si Si5 0.141329 0.742155 0.480189
Si Si6 0.853993 0.882780 0.556899
Si Si7 0.084501 0.960256 0.845522
Si Si8 0.997188 0.276089 0.195155
O O1 0.850354 0.634806 0.865813
O O2 0.667966 0.648727 0.899895
O O3 0.749253 0.888616 0.827074
O O4 0.787978 0.807500 0.043269
O O5 0.498959 0.940695 0.743427
O O6 0.320814 0.088963 0.722676
O O7 0.425556 0.125004 0.909031
O O8 0.710263 0.177003 0.746981
O O9 0.630936 0.441670 0.739482
O O10 0.344650 0.381094 0.893380
O O11 0.340129 0.492037 0.657503
O O12 0.249128 0.662525 0.498493
O O13 0.095096 0.761155 0.610047
O O14 0.901510 0.742729 0.620762
O O15 0.932245 0.933482 0.456803
O O16 0.002338 0.851681 0.794614
#
# Coordination Sequence:
#
# PCOD9345418 Si02
#       8
#     4   4   4   4   4   4   4   4
#     4  11  20  38  73  95 128 179 224 274 343 405
#     4  10  23  45  63 103 138 174 231 284 340 416
#     4  10  21  40  69  98 130 179 224 277 341 412
#     4  11  21  39  72 101 129 181 230 275 345 417
#     4  11  25  49  70 102 143 182 235 289 349 421
#     4  12  24  47  71 101 145 181 230 292 348 416
#     4  11  24  43  64 103 136 177 228 286 340 413
#     4  12  28  41  72 105 139 185 234 295 346 416
#
# _framework density 23.410540000000001
#
# number of rings (size 3 to 8) (size 9 to 14) (size 15 to 20)
#    0.000    1.000    6.250    1.500    5.250    2.000 
#    2.250    0.000    0.000    0.000    0.000    0.000 
#    0.000    0.000    0.000    0.000    0.000    0.000 
#
# Total GULP energy -178857.148338 kJ/mol
# GULP energy per Si atom -5589.285886 kJ/mol
# Density = 2.335726 g / cm^3
# Si number density = 23.410540 Si / 1000 Ang^3
#
#
#
# Elastic Constant Matrix: (Units=GPa)
#
#
# Indices 1 2 3 4 5 6 
#
# 1 22.4222 6.1329 5.5851 0.0000 0.0000 0.0000
# 2 6.1329 113.9292 33.1697 0.0000 0.0000 0.0000
# 3 5.5851 33.1697 110.5511 0.0000 0.0000 0.0000
# 4 0.0000 0.0000 0.0000 53.6729 0.0000 0.0000
# 5 0.0000 0.0000 0.0000 0.0000 14.8091 0.0000
# 6 0.0000 0.0000 0.0000 0.0000 0.0000 27.5959
#
#
#
# Elastic Compliance Matrix: (Units=1/GPa)
#
#
# Indices 1 2 3 4 5 6 
#
# 1 0.045560 -0.001953 -0.001716 0.000000 0.000000 0.000000
# 2 -0.001953 0.009701 -0.002812 0.000000 0.000000 0.000000
# 3 -0.001716 -0.002812 0.009976 0.000000 0.000000 0.000000
# 4 0.000000 0.000000 0.000000 0.018631 0.000000 0.000000
# 5 0.000000 0.000000 0.000000 0.000000 0.067526 0.000000
# 6 0.000000 0.000000 0.000000 0.000000 0.000000 0.036237
#
#
# Mechanical properties :
#
#
# Convention : Reuss Voigt Hill
#
# Bulk Modulus (GPa) = 19.12931 37.40864 28.26897
# Shear Modulus (GPa) = 22.93376 32.68323 27.80849
#
# Velocity S-wave (km/s) = 3.13331 3.74048 3.45028
# Velocity P-wave (km/s) = 4.61293 5.88804 5.28905
#
# Compressibility (1/GPa) = 0.05227581
#
# Stress axis : x y z
#
# Youngs Moduli (GPa) = 21.94897 103.07975 100.24048
#
# Poissons Ratio (x) = 0.20131 0.17199
# Poissons Ratio (y) = 0.04287 0.28188
# Poissons Ratio (z) = 0.03766 0.28987
#
# Static dielectric constant tensor:
#      x y z
#    x 1.899290 0.000000 0.000000 
#    y 0.000000 1.834950 0.000000 
#    z 0.000000 0.000000 1.901560 
# 
# From -- ./inp_files/6764.got.cif
#   From: 2010.05.17/outbox.cif.g08.bks.cpg/sg33_4_cif.got.tgz:6764.got - 2010.06.03 17:15:25.
