data_PCOD9345183
_publ_section_title
;
Structure prediction by ZEFSAII (Michael W. Deem and Ramdas Pophale) SiO2 
 PCOD9345183
Probable space group: P N A 21
;
_chemical_formula_sum "Si O2"
_cell_formula_units_Z 24
_cell_length_a 7.851260
_cell_length_b 9.001448
_cell_length_c 14.360875
_cell_angle_alpha 90.000000
_cell_angle_beta 90.000000
_cell_angle_gamma 90.000000
_cell_volume 1014.921934
_symmetry_space_group_name_H-M "P N A 21"
_symmetry_group_IT_number 33
_symmetry_cell_setting 'orthorhombic'
loop_
_space_group_symop_operation_xyz
x,y,z
-x,-y,1/2+z
1/2-x,1/2+y,1/2+z
1/2+x,1/2-y,z
loop_
_atom_site_type_symbol
_atom_site_label
_atom_site_fract_x
_atom_site_fract_y
_atom_site_fract_z
Si Si1 0.132655 0.802454 0.173190
Si Si2 0.140532 0.516194 0.762975
Si Si3 0.512031 0.549240 0.780042
Si Si4 0.821038 0.144801 0.472074
Si Si5 0.325684 0.948486 0.658964
Si Si6 0.934238 0.475528 0.465554
O O1 0.313349 0.883260 0.192854
O O2 0.163037 0.628649 0.170138
O O3 0.021807 0.874657 0.255513
O O4 0.083081 0.868551 0.071779
O O5 0.318127 0.604855 0.769370
O O6 0.091467 0.455907 0.864150
O O7 0.981899 0.604442 0.722897
O O8 0.584613 0.578648 0.882232
O O9 0.647699 0.598355 0.702603
O O10 0.823532 0.323364 0.461145
O O11 0.631162 0.076114 0.477284
O O12 0.367761 0.925160 0.550738
#
# Coordination Sequence:
#
# PCOD9345183 Si02
#       6
#     4   4   4   4   4   4
#     4   9  22  36  59  85 112 144 191 230 274 337
#     4  10  21  35  54  90 113 143 186 234 282 327
#     4  10  22  33  58  86 116 144 182 237 281 327
#     4  11  21  37  58  87 112 149 192 234 278 333
#     4  11  20  39  59  85 112 148 187 235 277 328
#     4  11  22  36  60  85 115 146 194 234 276 336
#
# _framework density 23.64714
#
# number of rings (size 3 to 8) (size 9 to 14) (size 15 to 20)
#    1.000    0.667    3.333    2.000    9.333    0.000 
#    0.000    0.000    0.000   12.000    0.000    0.000 
#    0.000    0.000    0.000    0.000    0.000    0.000 
#
# Total GULP energy -133891.385195 kJ/mol
# GULP energy per Si atom -5578.807716 kJ/mol
# Density = 2.359332 g / cm^3
# Si number density = 23.647140 Si / 1000 Ang^3
#
#
#
# Elastic Constant Matrix: (Units=GPa)
#
#
# Indices 1 2 3 4 5 6 
#
# 1 146.6169 7.9210 40.4259 0.0000 0.0000 0.0000
# 2 7.9210 37.3357 13.9631 0.0000 0.0000 0.0000
# 3 40.4259 13.9631 170.1111 0.0000 0.0000 0.0000
# 4 0.0000 0.0000 0.0000 17.0722 0.0000 0.0000
# 5 0.0000 0.0000 0.0000 0.0000 39.6517 0.0000
# 6 0.0000 0.0000 0.0000 0.0000 0.0000 27.0175
#
#
#
# Elastic Compliance Matrix: (Units=1/GPa)
#
#
# Indices 1 2 3 4 5 6 
#
# 1 0.007330 -0.000932 -0.001665 0.000000 0.000000 0.000000
# 2 -0.000932 0.027751 -0.002056 0.000000 0.000000 0.000000
# 3 -0.001665 -0.002056 0.006443 0.000000 0.000000 0.000000
# 4 0.000000 0.000000 0.000000 0.058575 0.000000 0.000000
# 5 0.000000 0.000000 0.000000 0.000000 0.025220 0.000000
# 6 0.000000 0.000000 0.000000 0.000000 0.000000 0.037013
#
#
# Mechanical properties :
#
#
# Convention : Reuss Voigt Hill
#
# Bulk Modulus (GPa) = 31.04051 53.18706 42.11378
# Shear Modulus (GPa) = 27.41561 36.19855 31.80708
#
# Velocity S-wave (km/s) = 3.40864 3.91676 3.67150
# Velocity P-wave (km/s) = 5.35227 6.55709 5.98507
#
# Compressibility (1/GPa) = 0.03221597
#
# Stress axis : x y z
#
# Youngs Moduli (GPa) = 136.42452 36.03499 155.20536
#
# Poissons Ratio (x) = 0.03359 0.25848
# Poissons Ratio (y) = 0.12718 0.31915
# Poissons Ratio (z) = 0.22720 0.07410
#
# Static dielectric constant tensor:
#      x y z
#    x 1.969020 0.000000 0.000000 
#    y 0.000000 1.914120 0.000000 
#    z 0.000000 0.000000 1.918040 
# 
# From -- ./inp_files/5803.got.cif
#   From: 2010.05.17/outbox.cif.g08.bks.cpg/sg33_3_cif.got.tgz:5803.got - 2010.06.03 17:15:25.
