data_PCOD9345218
_publ_section_title
;
Structure prediction by ZEFSAII (Michael W. Deem and Ramdas Pophale) SiO2 
 PCOD9345218
Probable space group: P N A 21
;
_chemical_formula_sum "Si O2"
_cell_formula_units_Z 32
_cell_length_a 10.886978
_cell_length_b 22.174043
_cell_length_c 5.491675
_cell_angle_alpha 90.000000
_cell_angle_beta 90.000000
_cell_angle_gamma 90.000000
_cell_volume 1325.736026
_symmetry_space_group_name_H-M "P N A 21"
_symmetry_group_IT_number 33
_symmetry_cell_setting 'orthorhombic'
loop_
_space_group_symop_operation_xyz
x,y,z
-x,-y,1/2+z
1/2-x,1/2+y,1/2+z
1/2+x,1/2-y,z
loop_
_atom_site_type_symbol
_atom_site_label
_atom_site_fract_x
_atom_site_fract_y
_atom_site_fract_z
Si Si1 0.248392 0.076606 0.375000
Si Si2 0.500540 0.962534 0.044953
Si Si3 0.103045 0.349205 0.681897
Si Si4 0.179053 0.235489 0.888710
Si Si5 0.374523 0.157707 0.983571
Si Si6 0.933695 0.021791 0.781733
Si Si7 0.502888 0.249095 0.309125
Si Si8 0.014008 0.145379 0.606055
O O1 0.367470 0.071908 0.545682
O O2 0.296257 0.109584 0.132570
O O3 0.131803 0.110828 0.489377
O O4 0.197030 0.010065 0.317729
O O5 0.390330 0.913300 0.051289
O O6 0.498784 0.003325 0.286181
O O7 0.034255 0.302568 0.504324
O O8 0.201391 0.303448 0.794999
O O9 0.006823 0.363766 0.899243
O O10 0.062367 0.198166 0.781528
O O11 0.285908 0.191411 0.797409
O O12 0.131787 0.240195 0.166191
O O13 0.403758 0.216184 0.146315
O O14 0.936101 0.093079 0.731416
O O15 0.992218 0.991902 0.534502
O O16 0.454565 0.313656 0.397444
#
# Coordination Sequence:
#
# PCOD9345218 Si02
#       8
#     4   4   4   4   4   4   4   4
#     4  11  22  44  74  97 134 195 238 276 353 427
#     4  12  27  46  71  98 137 187 247 291 331 412
#     4  10  23  42  65  91 134 176 220 290 339 405
#     4  10  21  36  68  97 130 175 219 279 357 412
#     4  11  20  38  70  98 130 175 238 271 343 427
#     4  10  23  40  68 104 139 175 229 291 343 413
#     4  10  21  38  64 100 129 171 215 294 340 406
#     4  10  21  40  68  99 135 168 228 288 354 414
#
# _framework density 24.137532
#
# number of rings (size 3 to 8) (size 9 to 14) (size 15 to 20)
#    0.000    1.500    2.500    2.250    3.500    3.000 
#    0.000    5.000    5.500    0.000    0.000    0.000 
#    0.000    0.000    0.000    0.000    0.000    0.000 
#
# Total GULP energy -178461.178075 kJ/mol
# GULP energy per Si atom -5576.911815 kJ/mol
# Density = 2.408259 g / cm^3
# Si number density = 24.137532 Si / 1000 Ang^3
#
#
#
# Elastic Constant Matrix: (Units=GPa)
#
#
# Indices 1 2 3 4 5 6 
#
# 1 21.4085 -17.4003 -10.3410 0.0000 0.0000 0.0000
# 2 -17.4003 93.0143 18.4854 0.0000 0.0000 0.0000
# 3 -10.3410 18.4854 59.9394 0.0000 0.0000 0.0000
# 4 0.0000 0.0000 0.0000 42.8033 0.0000 0.0000
# 5 0.0000 0.0000 0.0000 0.0000 27.2592 0.0000
# 6 0.0000 0.0000 0.0000 0.0000 0.0000 38.4152
#
#
#
# Elastic Compliance Matrix: (Units=1/GPa)
#
#
# Indices 1 2 3 4 5 6 
#
# 1 0.057765 0.009402 0.007066 0.000000 0.000000 0.000000
# 2 0.009402 0.012983 -0.002382 0.000000 0.000000 0.000000
# 3 0.007066 -0.002382 0.018637 0.000000 0.000000 0.000000
# 4 0.000000 0.000000 0.000000 0.023363 0.000000 0.000000
# 5 0.000000 0.000000 0.000000 0.000000 0.036685 0.000000
# 6 0.000000 0.000000 0.000000 0.000000 0.000000 0.026031
#
#
# Mechanical properties :
#
#
# Convention : Reuss Voigt Hill
#
# Bulk Modulus (GPa) = 8.50643 17.31671 12.91157
# Shear Modulus (GPa) = 26.81276 33.93673 30.37475
#
# Velocity S-wave (km/s) = 3.33653 3.75370 3.55125
# Velocity P-wave (km/s) = 4.28661 5.09674 4.70913
#
# Compressibility (1/GPa) = 0.11755818
#
# Stress axis : x y z
#
# Youngs Moduli (GPa) = 17.31145 77.02228 53.65599
#
# Poissons Ratio (x) = -0.72415 -0.37915
# Poissons Ratio (y) = -0.16276 0.12781
# Poissons Ratio (z) = -0.12233 0.18347
#
# Static dielectric constant tensor:
#      x y z
#    x 2.002000 0.000000 0.000000 
#    y 0.000000 1.960770 0.000000 
#    z 0.000000 0.000000 2.152870 
# 
# From -- ./inp_files/1157.got.cif
#   From: 2010.05.17/outbox.cif.g08.bks.cpg/sg33_1_cif.got.tgz:1157.got - 2010.06.03 17:15:25.
