data_PCOD9345597
_publ_section_title
;
Structure prediction by ZEFSAII (Michael W. Deem and Ramdas Pophale) SiO2 
 PCOD9345597
Probable space group: P N A 21
;
_chemical_formula_sum "Si O2"
_cell_formula_units_Z 16
_cell_length_a 8.407234
_cell_length_b 15.031270
_cell_length_c 4.895910
_cell_angle_alpha 90.000000
_cell_angle_beta 90.000000
_cell_angle_gamma 90.000000
_cell_volume 618.703022
_symmetry_space_group_name_H-M "P N A 21"
_symmetry_group_IT_number 33
_symmetry_cell_setting 'orthorhombic'
loop_
_space_group_symop_operation_xyz
x,y,z
-x,-y,1/2+z
1/2-x,1/2+y,1/2+z
1/2+x,1/2-y,z
loop_
_atom_site_type_symbol
_atom_site_label
_atom_site_fract_x
_atom_site_fract_y
_atom_site_fract_z
Si Si1 0.101175 0.886993 0.500000
Si Si2 0.061862 0.452407 0.866007
Si Si3 0.598444 0.799889 0.711507
Si Si4 0.414799 0.650177 0.986482
O O1 0.248928 0.944571 0.404539
O O2 0.164728 0.785465 0.542870
O O3 0.026925 0.910476 0.792400
O O4 0.955350 0.876904 0.290873
O O5 0.014964 0.470360 0.555014
O O6 0.984366 0.365284 0.000318
O O7 0.479445 0.749924 0.920060
O O8 0.737681 0.847395 0.877503
#
# Coordination Sequence:
#
# PCOD9345597 Si02
#       4
#     4   4   4   4
#     4  10  22  42  65 100 134 179 240 281 338 440
#     4  12  27  44  69 103 149 187 230 305 381 420
#     4  10  23  41  69 102 130 189 237 290 342 432
#     4  10  22  35  73  93 131 169 253 282 329 406
#
# _framework density 25.860548000000001
#
# number of rings (size 3 to 8) (size 9 to 14) (size 15 to 20)
#    1.500    0.000    2.500    1.500   10.500    0.000 
#    0.000    5.000    0.000    0.000    0.000    0.000 
#    0.000    0.000    0.000    0.000    0.000    0.000 
#
# Total GULP energy -89609.288833 kJ/mol
# GULP energy per Si atom -5600.580552 kJ/mol
# Density = 2.580169 g / cm^3
# Si number density = 25.860548 Si / 1000 Ang^3
#
#
#
# Elastic Constant Matrix: (Units=GPa)
#
#
# Indices 1 2 3 4 5 6 
#
# 1 108.3859 11.6914 -0.5254 0.0000 0.0000 0.0000
# 2 11.6914 102.5071 -12.8733 0.0000 0.0000 0.0000
# 3 -0.5254 -12.8733 82.7216 0.0000 0.0000 0.0000
# 4 0.0000 0.0000 0.0000 30.9771 0.0000 0.0000
# 5 0.0000 0.0000 0.0000 0.0000 37.1518 0.0000
# 6 0.0000 0.0000 0.0000 0.0000 0.0000 38.0926
#
#
#
# Elastic Compliance Matrix: (Units=1/GPa)
#
#
# Indices 1 2 3 4 5 6 
#
# 1 0.009342 -0.001079 -0.000109 0.000000 0.000000 0.000000
# 2 -0.001079 0.010075 0.001561 0.000000 0.000000 0.000000
# 3 -0.000109 0.001561 0.012331 0.000000 0.000000 0.000000
# 4 0.000000 0.000000 0.000000 0.032282 0.000000 0.000000
# 5 0.000000 0.000000 0.000000 0.000000 0.026917 0.000000
# 6 0.000000 0.000000 0.000000 0.000000 0.000000 0.026252
#
#
# Mechanical properties :
#
#
# Convention : Reuss Voigt Hill
#
# Bulk Modulus (GPa) = 30.77483 32.24445 31.50964
# Shear Modulus (GPa) = 39.28255 40.93241 40.10748
#
# Velocity S-wave (km/s) = 3.90168 3.98277 3.94244
# Velocity P-wave (km/s) = 5.67659 5.80049 5.73887
#
# Compressibility (1/GPa) = 0.03249409
#
# Stress axis : x y z
#
# Youngs Moduli (GPa) = 107.04145 99.26015 81.09657
#
# Poissons Ratio (x) = 0.10712 0.00881
# Poissons Ratio (y) = 0.11551 -0.12659
# Poissons Ratio (z) = 0.01163 -0.15494
#
# Static dielectric constant tensor:
#      x y z
#    x 1.939790 0.000000 0.000000 
#    y 0.000000 2.159210 0.000000 
#    z 0.000000 0.000000 1.927890 
# 
# From -- ./inp_files/273.got.cif
#   From: 2010.05.17/outbox.cif.g08.bks.cpg/sg33_1_cif.got.tgz:273.got - 2010.06.03 17:15:25.
