data_PCOD9345681
_publ_section_title
;
Structure prediction by ZEFSAII (Michael W. Deem and Ramdas Pophale) SiO2 
 PCOD9345681
Probable space group: P N A 21
;
_chemical_formula_sum "Si O2"
_cell_formula_units_Z 28
_cell_length_a 11.920043
_cell_length_b 8.654046
_cell_length_c 13.965830
_cell_angle_alpha 90.000000
_cell_angle_beta 90.000000
_cell_angle_gamma 90.000000
_cell_volume 1440.667545
_symmetry_space_group_name_H-M "P N A 21"
_symmetry_group_IT_number 33
_symmetry_cell_setting 'orthorhombic'
loop_
_space_group_symop_operation_xyz
x,y,z
-x,-y,1/2+z
1/2-x,1/2+y,1/2+z
1/2+x,1/2-y,z
loop_
_atom_site_type_symbol
_atom_site_label
_atom_site_fract_x
_atom_site_fract_y
_atom_site_fract_z
Si Si1 0.602615 0.987331 0.381220
Si Si2 0.673202 0.130030 0.191328
Si Si3 0.673209 0.630029 0.968466
Si Si4 0.102622 0.012670 0.778573
Si Si5 0.865394 0.992041 0.675574
Si Si6 0.250004 0.298701 0.829898
Si Si7 0.865387 0.492040 0.484220
O O1 0.595046 0.074849 0.279370
O O2 0.702847 0.071246 0.439200
O O3 0.648364 0.815807 0.358283
O O4 0.488722 0.990358 0.439247
O O5 0.797147 0.071257 0.220599
O O6 0.669534 0.313521 0.181090
O O7 0.637833 0.050976 0.092672
O O8 0.595052 0.574837 0.880427
O O9 0.669546 0.813523 0.978690
O O10 0.637833 0.550998 0.067127
O O11 0.148373 0.184195 0.801503
O O12 0.988731 0.009641 0.720545
O O13 0.784087 0.096076 0.740734
O O14 0.215919 0.403906 0.919070
#
# Coordination Sequence:
#
# PCOD9345681 Si02
#       7
#     4   4   4   4   4   4   4
#     4  10  23  43  61  88 125 155 197 252 298 352
#     4  10  23  40  59  91 120 157 204 241 295 365
#     4  10  23  40  59  91 120 157 204 241 295 365
#     4  10  23  43  61  88 125 155 197 252 298 352
#     4  12  23  40  65  88 121 162 197 248 300 348
#     4  10  22  40  62  92 118 154 204 244 294 362
#     4  12  23  40  65  88 121 162 197 248 300 348
#
# _framework density 19.435433
#
# number of rings (size 3 to 8) (size 9 to 14) (size 15 to 20)
#    0.000    1.714    0.000    6.857    0.000    6.857 
#    0.000    0.000    0.000    0.000    0.000    0.000 
#    0.000    0.000    0.000    0.000    0.000    0.000 
#
# Total GULP energy -156589.997894 kJ/mol
# GULP energy per Si atom -5592.499925 kJ/mol
# Density = 1.939120 g / cm^3
# Si number density = 19.435433 Si / 1000 Ang^3
#
#
#
# Elastic Constant Matrix: (Units=GPa)
#
#
# Indices 1 2 3 4 5 6 
#
# 1 25.4131 37.9463 47.7922 0.0000 0.0000 0.0000
# 2 37.9463 172.7862 99.5787 0.0000 0.0000 0.0000
# 3 47.7922 99.5787 182.2237 0.0000 0.0000 0.0000
# 4 0.0000 0.0000 0.0000 43.8843 0.0000 0.0000
# 5 0.0000 0.0000 0.0000 0.0000 22.9306 0.0000
# 6 0.0000 0.0000 0.0000 0.0000 0.0000 7.3408
#
#
#
# Elastic Compliance Matrix: (Units=1/GPa)
#
#
# Indices 1 2 3 4 5 6 
#
# 1 0.085497 -0.008544 -0.017754 0.000000 0.000000 0.000000
# 2 -0.008544 0.009302 -0.002842 0.000000 0.000000 0.000000
# 3 -0.017754 -0.002842 0.011697 0.000000 0.000000 0.000000
# 4 0.000000 0.000000 0.000000 0.022787 0.000000 0.000000
# 5 0.000000 0.000000 0.000000 0.000000 0.043610 0.000000
# 6 0.000000 0.000000 0.000000 0.000000 0.000000 0.136225
#
#
# Mechanical properties :
#
#
# Convention : Reuss Voigt Hill
#
# Bulk Modulus (GPa) = 20.74059 83.45083 52.09571
# Shear Modulus (GPa) = 13.03875 27.83818 20.43847
#
# Velocity S-wave (km/s) = 2.59294 3.78874 3.24637
# Velocity P-wave (km/s) = 4.43386 7.88480 6.39645
#
# Compressibility (1/GPa) = 0.04821465
#
# Stress axis : x y z
#
# Youngs Moduli (GPa) = 11.69630 107.50388 85.48904
#
# Poissons Ratio (x) = 0.91855 1.51780
# Poissons Ratio (y) = 0.09994 0.24298
# Poissons Ratio (z) = 0.20766 0.30555
#
# Static dielectric constant tensor:
#      x y z
#    x 1.659400 0.000000 0.000000 
#    y 0.000000 1.665720 0.000000 
#    z 0.000000 0.000000 1.651390 
# 
# From -- ./inp_files/6330.got.cif
#   From: 2010.05.17/outbox.cif.g08.bks.cpg/sg33_4_cif.got.tgz:6330.got - 2010.06.03 17:15:25.
