data_PCOD9345040
_publ_section_title
;
Structure prediction by ZEFSAII (Michael W. Deem and Ramdas Pophale) SiO2 
 PCOD9345040
Probable space group: P N A 21
;
_chemical_formula_sum "Si O2"
_cell_formula_units_Z 28
_cell_length_a 5.359722
_cell_length_b 25.978815
_cell_length_c 8.196903
_cell_angle_alpha 90.000000
_cell_angle_beta 90.000000
_cell_angle_gamma 90.000000
_cell_volume 1141.330432
_symmetry_space_group_name_H-M "P N A 21"
_symmetry_group_IT_number 33
_symmetry_cell_setting 'orthorhombic'
loop_
_space_group_symop_operation_xyz
x,y,z
-x,-y,1/2+z
1/2-x,1/2+y,1/2+z
1/2+x,1/2-y,z
loop_
_atom_site_type_symbol
_atom_site_label
_atom_site_fract_x
_atom_site_fract_y
_atom_site_fract_z
Si Si1 0.454688 0.884901 0.281630
Si Si2 0.197137 0.405998 0.429455
Si Si3 0.492557 0.731768 0.668760
Si Si4 0.398937 0.439514 0.992328
Si Si5 0.697902 0.380901 0.235884
Si Si6 0.749115 0.491107 0.783458
Si Si7 0.413188 0.228602 0.798662
O O1 0.264081 0.891698 0.431552
O O2 0.602343 0.938454 0.271247
O O3 0.609933 0.832873 0.302502
O O4 0.318340 0.882520 0.108110
O O5 0.966400 0.385704 0.319344
O O6 0.471411 0.395340 0.357913
O O7 0.167188 0.468047 0.420378
O O8 0.771320 0.732920 0.743554
O O9 0.367047 0.676159 0.677691
O O10 0.549982 0.749264 0.482674
O O11 0.646478 0.418868 0.083701
O O12 0.260545 0.475750 0.119955
O O13 0.473497 0.472669 0.835754
O O14 0.174531 0.254996 0.718810
#
# Coordination Sequence:
#
# PCOD9345040 Si02
#       7
#     4   4   4   4   4   4   4
#     4  12  27  45  77 103 152 197 246 311 370 443
#     4  11  28  47  70 110 149 194 242 297 377 449
#     4  10  20  39  71 100 136 175 242 294 353 426
#     4  11  26  43  72 107 148 196 250 300 375 446
#     4  11  26  47  72 104 147 193 241 306 368 441
#     4  11  27  42  73 108 151 196 245 303 370 453
#     4  10  24  43  69 106 137 181 248 301 357 430
#
# _framework density 24.532775999999998
#
# number of rings (size 3 to 8) (size 9 to 14) (size 15 to 20)
#    0.000    1.143    0.000    4.286   22.000    0.000 
#    0.000    4.286    0.000    0.000    0.000    0.000 
#    0.000    0.000    0.000    0.000    0.000    0.000 
#
# Total GULP energy -156641.836798 kJ/mol
# GULP energy per Si atom -5594.351314 kJ/mol
# Density = 2.447694 g / cm^3
# Si number density = 24.532776 Si / 1000 Ang^3
#
#
#
# Elastic Constant Matrix: (Units=GPa)
#
#
# Indices 1 2 3 4 5 6 
#
# 1 115.7245 -4.0172 6.4177 0.0000 0.0000 0.0000
# 2 -4.0172 107.2858 1.2742 0.0000 0.0000 0.0000
# 3 6.4177 1.2742 61.4594 0.0000 0.0000 0.0000
# 4 0.0000 0.0000 0.0000 20.8048 0.0000 0.0000
# 5 0.0000 0.0000 0.0000 0.0000 27.0664 0.0000
# 6 0.0000 0.0000 0.0000 0.0000 0.0000 38.0495
#
#
#
# Elastic Compliance Matrix: (Units=1/GPa)
#
#
# Indices 1 2 3 4 5 6 
#
# 1 0.008704 0.000337 -0.000916 0.000000 0.000000 0.000000
# 2 0.000337 0.009336 -0.000229 0.000000 0.000000 0.000000
# 3 -0.000916 -0.000229 0.016371 0.000000 0.000000 0.000000
# 4 0.000000 0.000000 0.000000 0.048066 0.000000 0.000000
# 5 0.000000 0.000000 0.000000 0.000000 0.036946 0.000000
# 6 0.000000 0.000000 0.000000 0.000000 0.000000 0.026282
#
#
# Mechanical properties :
#
#
# Convention : Reuss Voigt Hill
#
# Bulk Modulus (GPa) = 30.49185 32.42432 31.45809
# Shear Modulus (GPa) = 31.59511 35.90379 33.74945
#
# Velocity S-wave (km/s) = 3.59259 3.82973 3.71305
# Velocity P-wave (km/s) = 5.44655 5.72723 5.58865
#
# Compressibility (1/GPa) = 0.03279565
#
# Stress axis : x y z
#
# Youngs Moduli (GPa) = 114.89375 107.10968 61.08255
#
# Poissons Ratio (x) = -0.03607 0.05594
# Poissons Ratio (y) = -0.03869 0.01397
# Poissons Ratio (z) = 0.10522 0.02450
#
# Static dielectric constant tensor:
#      x y z
#    x 2.115200 0.000000 0.000000 
#    y 0.000000 1.934920 0.000000 
#    z 0.000000 0.000000 2.043900 
# 
# From -- ./inp_files/2747.got.cif
#   From: 2010.05.17/outbox.cif.g08.bks.cpg/sg33_2_cif.got.tgz:2747.got - 2010.06.03 17:15:25.
