data_PCOD9345824
_publ_section_title
;
Structure prediction by ZEFSAII (Michael W. Deem and Ramdas Pophale) SiO2 
 PCOD9345824
Probable space group: P N A 21
;
_chemical_formula_sum "Si O2"
_cell_formula_units_Z 32
_cell_length_a 13.380813
_cell_length_b 6.556470
_cell_length_c 17.057157
_cell_angle_alpha 90.000000
_cell_angle_beta 90.000000
_cell_angle_gamma 90.000000
_cell_volume 1496.439718
_symmetry_space_group_name_H-M "P N A 21"
_symmetry_group_IT_number 33
_symmetry_cell_setting 'orthorhombic'
loop_
_space_group_symop_operation_xyz
x,y,z
-x,-y,1/2+z
1/2-x,1/2+y,1/2+z
1/2+x,1/2-y,z
loop_
_atom_site_type_symbol
_atom_site_label
_atom_site_fract_x
_atom_site_fract_y
_atom_site_fract_z
Si Si1 0.946903 0.022787 0.689310
Si Si2 0.764547 0.304552 0.685421
Si Si3 0.844284 0.901480 0.922951
Si Si4 0.925247 0.714130 0.079462
Si Si5 0.488396 0.272010 0.846273
Si Si6 0.700721 0.010273 0.343744
Si Si7 0.417577 0.875369 0.610182
Si Si8 0.822837 0.730625 0.451639
O O1 0.835263 0.109636 0.699832
O O2 0.004900 0.122926 0.762170
O O3 0.997078 0.116873 0.611521
O O4 0.945120 0.781531 0.678947
O O5 0.669371 0.233866 0.636835
O O6 0.744601 0.420294 0.767241
O O7 0.834230 0.463726 0.637997
O O8 0.930031 0.055579 0.895481
O O9 0.751157 0.037720 0.950334
O O10 0.809153 0.750742 0.854030
O O11 0.887892 0.765931 0.993028
O O12 0.984547 0.501567 0.084597
O O13 0.587070 0.203211 0.890450
O O14 0.409827 0.087511 0.838475
O O15 0.758326 0.920082 0.419505
O O16 0.370577 0.752492 0.537367
#
# Coordination Sequence:
#
# PCOD9345824 Si02
#       8
#     4   4   4   4   4   4   4   4
#     4  10  23  41  66  92 130 177 217 275 329 385
#     4  10  22  43  62  95 133 168 225 277 322 400
#     4  11  23  41  67  97 132 179 216 277 342 392
#     4  11  23  40  63  97 133 166 220 277 328 396
#     4  10  22  43  63  95 134 171 228 274 322 404
#     4  10  23  40  66  93 132 176 220 274 332 393
#     4  11  23  40  66  95 127 177 221 270 342 395
#     4  11  23  40  65  98 133 170 223 272 331 403
#
# _framework density 21.38409
#
# number of rings (size 3 to 8) (size 9 to 14) (size 15 to 20)
#    0.000    1.500    1.250    3.000    1.750    4.000 
#    0.000    8.750    0.000    0.000    0.000    0.000 
#    0.000    0.000    0.000    0.000    0.000    0.000 
#
# Total GULP energy -178909.941053 kJ/mol
# GULP energy per Si atom -5590.935658 kJ/mol
# Density = 2.133542 g / cm^3
# Si number density = 21.384090 Si / 1000 Ang^3
#
#
#
# Elastic Constant Matrix: (Units=GPa)
#
#
# Indices 1 2 3 4 5 6 
#
# 1 44.4411 0.4220 -4.2188 0.0000 0.0000 0.0000
# 2 0.4220 34.9193 4.5479 0.0000 0.0000 0.0000
# 3 -4.2188 4.5479 62.2770 0.0000 0.0000 0.0000
# 4 0.0000 0.0000 0.0000 29.0565 0.0000 0.0000
# 5 0.0000 0.0000 0.0000 0.0000 35.0561 0.0000
# 6 0.0000 0.0000 0.0000 0.0000 0.0000 10.8292
#
#
#
# Elastic Compliance Matrix: (Units=1/GPa)
#
#
# Indices 1 2 3 4 5 6 
#
# 1 0.022655 -0.000478 0.001570 0.000000 0.000000 0.000000
# 2 -0.000478 0.028922 -0.002145 0.000000 0.000000 0.000000
# 3 0.001570 -0.002145 0.016320 0.000000 0.000000 0.000000
# 4 0.000000 0.000000 0.000000 0.034416 0.000000 0.000000
# 5 0.000000 0.000000 0.000000 0.000000 0.028526 0.000000
# 6 0.000000 0.000000 0.000000 0.000000 0.000000 0.092343
#
#
# Mechanical properties :
#
#
# Convention : Reuss Voigt Hill
#
# Bulk Modulus (GPa) = 15.19946 15.90440 15.55193
# Shear Modulus (GPa) = 20.22497 24.38077 22.30287
#
# Velocity S-wave (km/s) = 3.07871 3.38025 3.23300
# Velocity P-wave (km/s) = 4.44536 4.76324 4.60704
#
# Compressibility (1/GPa) = 0.06579182
#
# Stress axis : x y z
#
# Youngs Moduli (GPa) = 44.13994 34.57516 61.27363
#
# Poissons Ratio (x) = 0.01653 -0.09618
# Poissons Ratio (y) = 0.02111 0.13140
# Poissons Ratio (z) = -0.06928 0.07415
#
# Static dielectric constant tensor:
#      x y z
#    x 1.751110 0.000000 0.000000 
#    y 0.000000 1.735460 0.000000 
#    z 0.000000 0.000000 1.832430 
# 
# From -- ./inp_files/8763.got.cif
#   From: 2010.05.17/outbox.cif.g08.bks.cpg/sg33_5_cif.got.tgz:8763.got - 2010.06.03 17:15:25.
