data_PCOD9345185
_publ_section_title
;
Structure prediction by ZEFSAII (Michael W. Deem and Ramdas Pophale) SiO2 
 PCOD9345185
Probable space group: P N A 21
;
_chemical_formula_sum "Si O2"
_cell_formula_units_Z 24
_cell_length_a 22.579627
_cell_length_b 9.342764
_cell_length_c 5.247618
_cell_angle_alpha 90.000000
_cell_angle_beta 90.000000
_cell_angle_gamma 90.000000
_cell_volume 1107.017165
_symmetry_space_group_name_H-M "P N A 21"
_symmetry_group_IT_number 33
_symmetry_cell_setting 'orthorhombic'
loop_
_space_group_symop_operation_xyz
x,y,z
-x,-y,1/2+z
1/2-x,1/2+y,1/2+z
1/2+x,1/2-y,z
loop_
_atom_site_type_symbol
_atom_site_label
_atom_site_fract_x
_atom_site_fract_y
_atom_site_fract_z
Si Si1 0.406300 0.539853 0.378880
Si Si2 0.771357 0.968337 0.344110
Si Si3 0.469192 0.045324 0.867186
Si Si4 0.488003 0.338593 0.624518
Si Si5 0.279859 0.712621 0.867559
Si Si6 0.089397 0.280641 0.268805
O O1 0.341166 0.504153 0.293306
O O2 0.427189 0.420107 0.575691
O O3 0.463537 0.542444 0.200461
O O4 0.407148 0.699514 0.500051
O O5 0.767764 0.879521 0.610182
O O6 0.741244 0.123346 0.349381
O O7 0.751823 0.868448 0.108893
O O8 0.470657 0.213608 0.820526
O O9 0.518325 0.990234 0.661365
O O10 0.412907 0.952567 0.773734
O O11 0.527628 0.263298 0.403416
O O12 0.351393 0.724590 0.904146
#
# Coordination Sequence:
#
# PCOD9345185 Si02
#       6
#     4   4   4   4   4   4
#     4  11  21  37  62  91 129 164 214 261 326 382
#     4  11  25  45  68  99 130 177 224 280 330 399
#     4  10  21  35  56  86 124 158 202 244 306 377
#     4  11  20  36  58  91 125 163 205 255 319 380
#     4  11  24  45  70  94 133 173 227 275 335 387
#     4  10  21  38  60  87 125 171 202 261 318 383
#
# _framework density 21.679881999999999
#
# number of rings (size 3 to 8) (size 9 to 14) (size 15 to 20)
#    0.000    1.333    5.000    1.000    0.000    1.333 
#    0.000    8.333    0.000    0.000    0.000    0.000 
#    0.000    0.000    0.000    0.000    0.000    0.000 
#
# Total GULP energy -133695.401547 kJ/mol
# GULP energy per Si atom -5570.641731 kJ/mol
# Density = 2.163054 g / cm^3
# Si number density = 21.679882 Si / 1000 Ang^3
#
#
#
# Elastic Constant Matrix: (Units=GPa)
#
#
# Indices 1 2 3 4 5 6 
#
# 1 52.2077 31.3852 14.8740 0.0000 0.0000 0.0000
# 2 31.3852 127.4029 38.8823 0.0000 0.0000 0.0000
# 3 14.8740 38.8823 75.6219 0.0000 0.0000 0.0000
# 4 0.0000 0.0000 0.0000 28.2596 0.0000 0.0000
# 5 0.0000 0.0000 0.0000 0.0000 14.9062 0.0000
# 6 0.0000 0.0000 0.0000 0.0000 0.0000 32.6339
#
#
#
# Elastic Compliance Matrix: (Units=1/GPa)
#
#
# Indices 1 2 3 4 5 6 
#
# 1 0.022709 -0.005019 -0.001886 0.000000 0.000000 0.000000
# 2 -0.005019 0.010419 -0.004370 0.000000 0.000000 0.000000
# 3 -0.001886 -0.004370 0.015842 0.000000 0.000000 0.000000
# 4 0.000000 0.000000 0.000000 0.035386 0.000000 0.000000
# 5 0.000000 0.000000 0.000000 0.000000 0.067086 0.000000
# 6 0.000000 0.000000 0.000000 0.000000 0.000000 0.030643
#
#
# Mechanical properties :
#
#
# Convention : Reuss Voigt Hill
#
# Bulk Modulus (GPa) = 37.85042 47.27946 42.56494
# Shear Modulus (GPa) = 23.42568 26.49934 24.96251
#
# Velocity S-wave (km/s) = 3.29070 3.49993 3.39693
# Velocity P-wave (km/s) = 5.65110 6.17965 5.92128
#
# Compressibility (1/GPa) = 0.02641979
#
# Stress axis : x y z
#
# Youngs Moduli (GPa) = 44.03623 95.97740 63.12484
#
# Poissons Ratio (x) = 0.48166 0.11906
# Poissons Ratio (y) = 0.22100 0.27586
# Poissons Ratio (z) = 0.08306 0.41943
#
# Static dielectric constant tensor:
#      x y z
#    x 1.787840 0.000000 0.000000 
#    y 0.000000 1.886850 0.000000 
#    z 0.000000 0.000000 1.921220 
# 
# From -- ./inp_files/2179.got.cif
#   From: 2010.05.17/outbox.cif.g08.bks.cpg/sg33_2_cif.got.tgz:2179.got - 2010.06.03 17:15:25.
