data_PCOD9345676
_publ_section_title
;
Structure prediction by ZEFSAII (Michael W. Deem and Ramdas Pophale) SiO2 
 PCOD9345676
Probable space group: P N A 21
;
_chemical_formula_sum "Si O2"
_cell_formula_units_Z 28
_cell_length_a 14.279625
_cell_length_b 11.748529
_cell_length_c 8.621617
_cell_angle_alpha 90.000000
_cell_angle_beta 90.000000
_cell_angle_gamma 90.000000
_cell_volume 1446.402028
_symmetry_space_group_name_H-M "P N A 21"
_symmetry_group_IT_number 33
_symmetry_cell_setting 'orthorhombic'
loop_
_space_group_symop_operation_xyz
x,y,z
-x,-y,1/2+z
1/2-x,1/2+y,1/2+z
1/2+x,1/2-y,z
loop_
_atom_site_type_symbol
_atom_site_label
_atom_site_fract_x
_atom_site_fract_y
_atom_site_fract_z
Si Si1 0.749993 0.876071 0.834940
Si Si2 0.905408 0.015836 0.009336
Si Si3 0.553277 0.131722 0.688591
Si Si4 0.749992 0.064301 0.571155
Si Si5 0.594600 0.015857 0.009355
Si Si6 0.750012 0.114750 0.232084
Si Si7 0.946706 0.131733 0.688581
O O1 0.749983 0.744700 0.789929
O O2 0.749992 0.952241 0.678471
O O3 0.840155 0.917191 0.933309
O O4 0.659841 0.917203 0.933324
O O5 0.839921 0.084811 0.128218
O O6 0.936834 0.094507 0.867058
O O7 0.992818 0.962056 0.097400
O O8 0.656941 0.133283 0.616518
O O9 0.499987 0.249991 0.674728
O O10 0.492803 0.037914 0.597444
O O11 0.563167 0.094521 0.867075
O O12 0.750001 0.040240 0.388753
O O13 0.843036 0.133290 0.616535
O O14 0.660101 0.084833 0.128212
#
# Coordination Sequence:
#
# PCOD9345676 Si02
#       7
#     4   4   4   4   4   4   4
#     4   9  21  41  62  90 124 153 193 249 296 346
#     4  10  23  38  59  93 120 153 204 238 288 363
#     4  11  23  41  62  87 121 157 196 247 296 346
#     4  10  22  40  62  88 118 156 200 242 296 356
#     4  10  23  38  59  93 120 153 204 238 288 363
#     4  11  21  39  64  88 122 159 191 243 296 344
#     4  11  23  41  62  87 121 157 196 247 296 346
#
# _framework density 19.358377999999998
#
# number of rings (size 3 to 8) (size 9 to 14) (size 15 to 20)
#    0.000    1.714    0.000    4.286    0.000    8.000 
#    0.000    5.714    0.000    0.000    0.000    0.000 
#    0.000    0.000    0.000    0.000    0.000    0.000 
#
# Total GULP energy -156532.895812 kJ/mol
# GULP energy per Si atom -5590.460565 kJ/mol
# Density = 1.931432 g / cm^3
# Si number density = 19.358378 Si / 1000 Ang^3
#
#
#
# Elastic Constant Matrix: (Units=GPa)
#
#
# Indices 1 2 3 4 5 6 
#
# 1 130.7931 32.8932 35.7990 0.0000 0.0000 0.0000
# 2 32.8932 68.0121 15.7715 0.0000 0.0000 0.0000
# 3 35.7990 15.7715 129.7647 0.0000 0.0000 0.0000
# 4 0.0000 0.0000 0.0000 22.1723 0.0000 0.0000
# 5 0.0000 0.0000 0.0000 0.0000 38.9693 0.0000
# 6 0.0000 0.0000 0.0000 0.0000 0.0000 26.1524
#
#
#
# Elastic Compliance Matrix: (Units=1/GPa)
#
#
# Indices 1 2 3 4 5 6 
#
# 1 0.009209 -0.003977 -0.002057 0.000000 0.000000 0.000000
# 2 -0.003977 0.016847 -0.000950 0.000000 0.000000 0.000000
# 3 -0.002057 -0.000950 0.008389 0.000000 0.000000 0.000000
# 4 0.000000 0.000000 0.000000 0.045101 0.000000 0.000000
# 5 0.000000 0.000000 0.000000 0.000000 0.025661 0.000000
# 6 0.000000 0.000000 0.000000 0.000000 0.000000 0.038237
#
#
# Mechanical properties :
#
#
# Convention : Reuss Voigt Hill
#
# Bulk Modulus (GPa) = 48.83677 55.27747 52.05712
# Shear Modulus (GPa) = 30.44342 33.73256 32.08799
#
# Velocity S-wave (km/s) = 3.96993 4.17889 4.07575
# Velocity P-wave (km/s) = 6.80414 7.20423 7.00704
#
# Compressibility (1/GPa) = 0.02047638
#
# Stress axis : x y z
#
# Youngs Moduli (GPa) = 108.59152 59.35792 119.19940
#
# Poissons Ratio (x) = 0.23605 0.24521
# Poissons Ratio (y) = 0.43183 0.11330
# Poissons Ratio (z) = 0.22339 0.05642
#
# Static dielectric constant tensor:
#      x y z
#    x 1.663180 0.000000 0.000000 
#    y 0.000000 1.641490 0.000000 
#    z 0.000000 0.000000 1.657600 
# 
# From -- ./inp_files/4331.got.cif
#   From: 2010.05.17/outbox.cif.g08.bks.cpg/sg33_3_cif.got.tgz:4331.got - 2010.06.03 17:15:25.
