data_PCOD9345323
_publ_section_title
;
Structure prediction by ZEFSAII (Michael W. Deem and Ramdas Pophale) SiO2 
 PCOD9345323
Probable space group: P N A 21
;
_chemical_formula_sum "Si O2"
_cell_formula_units_Z 32
_cell_length_a 5.532668
_cell_length_b 20.862087
_cell_length_c 11.006470
_cell_angle_alpha 90.000000
_cell_angle_beta 90.000000
_cell_angle_gamma 90.000000
_cell_volume 1270.399800
_symmetry_space_group_name_H-M "P N A 21"
_symmetry_group_IT_number 33
_symmetry_cell_setting 'orthorhombic'
loop_
_space_group_symop_operation_xyz
x,y,z
-x,-y,1/2+z
1/2-x,1/2+y,1/2+z
1/2+x,1/2-y,z
loop_
_atom_site_type_symbol
_atom_site_label
_atom_site_fract_x
_atom_site_fract_y
_atom_site_fract_z
Si Si1 0.682065 0.584778 0.468550
Si Si2 0.482514 0.979658 0.657170
Si Si3 0.364829 0.290625 0.128762
Si Si4 0.751551 0.768298 0.294366
Si Si5 0.403445 0.458272 0.526574
Si Si6 0.682916 0.116527 0.335864
Si Si7 0.816548 0.719401 0.020886
Si Si8 0.129495 0.090988 0.735951
O O1 0.928635 0.557570 0.528031
O O2 0.645909 0.653808 0.527005
O O3 0.516366 0.528844 0.524953
O O4 0.595826 0.585854 0.329529
O O5 0.512198 0.922459 0.755338
O O6 0.678776 0.029457 0.613337
O O7 0.289675 0.027190 0.722936
O O8 0.627838 0.256151 0.126546
O O9 0.315441 0.332904 0.250071
O O10 0.505142 0.747754 0.357060
O O11 0.737612 0.844153 0.273054
O O12 0.788639 0.729212 0.166841
O O13 0.363439 0.435511 0.391330
O O14 0.548645 0.403198 0.596418
O O15 0.605686 0.152697 0.459004
O O16 0.544323 0.737053 0.980356
#
# Coordination Sequence:
#
# PCOD9345323 Si02
#       8
#     4   4   4   4   4   4   4   4
#     4  10  25  47  70 105 148 195 252 306 384 455
#     4  10  25  44  68 106 139 197 245 304 379 449
#     4  11  27  51  78 112 151 205 260 312 377 458
#     4  10  23  41  64  99 138 181 233 289 362 431
#     4  11  24  45  71 107 149 193 251 317 381 453
#     4  11  23  45  72 109 144 191 252 316 380 445
#     4  10  21  39  63 101 136 181 230 296 366 426
#     4  11  24  44  70 103 147 189 249 306 379 455
#
# _framework density 25.188924
#
# number of rings (size 3 to 8) (size 9 to 14) (size 15 to 20)
#    0.000    1.500    1.250    2.250   10.500    1.000 
#    9.000    0.000    0.000    0.000    0.000    0.000 
#    0.000    0.000    0.000    0.000    0.000    0.000 
#
# Total GULP energy -178389.898033 kJ/mol
# GULP energy per Si atom -5574.684314 kJ/mol
# Density = 2.513159 g / cm^3
# Si number density = 25.188924 Si / 1000 Ang^3
#
#
#
# Elastic Constant Matrix: (Units=GPa)
#
#
# Indices 1 2 3 4 5 6 
#
# 1 72.3505 28.2677 -1.8849 0.0000 0.0000 0.0000
# 2 28.2677 128.1539 30.8423 0.0000 0.0000 0.0000
# 3 -1.8849 30.8423 74.5859 0.0000 0.0000 0.0000
# 4 0.0000 0.0000 0.0000 47.2594 0.0000 0.0000
# 5 0.0000 0.0000 0.0000 0.0000 16.5203 0.0000
# 6 0.0000 0.0000 0.0000 0.0000 0.0000 21.3707
#
#
#
# Elastic Compliance Matrix: (Units=1/GPa)
#
#
# Indices 1 2 3 4 5 6 
#
# 1 0.015387 -0.003873 0.001990 0.000000 0.000000 0.000000
# 2 -0.003873 0.009640 -0.004084 0.000000 0.000000 0.000000
# 3 0.001990 -0.004084 0.015147 0.000000 0.000000 0.000000
# 4 0.000000 0.000000 0.000000 0.021160 0.000000 0.000000
# 5 0.000000 0.000000 0.000000 0.000000 0.060532 0.000000
# 6 0.000000 0.000000 0.000000 0.000000 0.000000 0.046793
#
#
# Mechanical properties :
#
#
# Convention : Reuss Voigt Hill
#
# Bulk Modulus (GPa) = 35.41101 43.28229 39.34665
# Shear Modulus (GPa) = 26.31508 31.55442 28.93475
#
# Velocity S-wave (km/s) = 3.23570 3.54320 3.39294
# Velocity P-wave (km/s) = 5.29607 5.82747 5.56811
#
# Compressibility (1/GPa) = 0.02823981
#
# Stress axis : x y z
#
# Youngs Moduli (GPa) = 64.99143 103.73066 66.02150
#
# Poissons Ratio (x) = 0.40174 -0.13141
# Poissons Ratio (y) = 0.25171 0.26965
# Poissons Ratio (z) = -0.12936 0.42367
#
# Static dielectric constant tensor:
#      x y z
#    x 2.176590 0.000000 0.000000 
#    y 0.000000 2.042720 0.000000 
#    z 0.000000 0.000000 2.051270 
# 
# From -- ./inp_files/5576.got.cif
#   From: 2010.05.17/outbox.cif.g08.bks.cpg/sg33_3_cif.got.tgz:5576.got - 2010.06.03 17:15:25.
