data_PCOD9345149
_publ_section_title
;
Structure prediction by ZEFSAII (Michael W. Deem and Ramdas Pophale) SiO2 
 PCOD9345149
Probable space group: P N A 21
;
_chemical_formula_sum "Si O2"
_cell_formula_units_Z 28
_cell_length_a 14.426561
_cell_length_b 5.972332
_cell_length_c 12.956046
_cell_angle_alpha 90.000000
_cell_angle_beta 90.000000
_cell_angle_gamma 90.000000
_cell_volume 1116.295669
_symmetry_space_group_name_H-M "P N A 21"
_symmetry_group_IT_number 33
_symmetry_cell_setting 'orthorhombic'
loop_
_space_group_symop_operation_xyz
x,y,z
-x,-y,1/2+z
1/2-x,1/2+y,1/2+z
1/2+x,1/2-y,z
loop_
_atom_site_type_symbol
_atom_site_label
_atom_site_fract_x
_atom_site_fract_y
_atom_site_fract_z
Si Si1 0.149515 0.586357 0.501400
Si Si2 0.009401 0.310316 0.143429
Si Si3 0.956336 0.173672 0.642472
Si Si4 0.522339 0.912742 0.876915
Si Si5 0.188632 0.928401 0.317681
Si Si6 0.631848 0.287029 0.764933
Si Si7 0.703512 0.670144 0.909472
O O1 0.096089 0.670264 0.601636
O O2 0.175625 0.784068 0.421884
O O3 0.243641 0.443882 0.504645
O O4 0.068047 0.445987 0.444409
O O5 0.057773 0.554550 0.123406
O O6 0.003324 0.297980 0.267971
O O7 0.052372 0.082298 0.093943
O O8 0.066752 0.172730 0.668167
O O9 0.897814 0.127290 0.746454
O O10 0.605506 0.784124 0.934294
O O11 0.567622 0.149112 0.845024
O O12 0.277204 0.858511 0.249037
O O13 0.220518 0.168691 0.357956
O O14 0.672760 0.500122 0.821150
#
# Coordination Sequence:
#
# PCOD9345149 Si02
#       7
#     4   4   4   4   4   4   4
#     4  11  23  40  69  98 134 177 233 278 345 413
#     4  11  24  41  69 102 133 183 224 280 338 406
#     4  11  22  44  67  94 138 175 222 278 344 397
#     4  10  20  43  67  94 136 181 220 282 345 408
#     4  10  21  37  70  94 125 179 227 271 337 416
#     4   9  19  36  65  94 121 171 224 267 339 404
#     4  10  21  37  67  94 127 174 228 278 346 402
#
# _framework density 25.082958999999999
#
# number of rings (size 3 to 8) (size 9 to 14) (size 15 to 20)
#    0.000    1.714    4.286    0.857    4.000    0.000 
#    0.000    4.286   28.286    0.000    0.000    0.000 
#    0.000    0.000    0.000    0.000    0.000    0.000 
#
# Total GULP energy -156138.202747 kJ/mol
# GULP energy per Si atom -5576.364384 kJ/mol
# Density = 2.502587 g / cm^3
# Si number density = 25.082959 Si / 1000 Ang^3
#
#
#
# Elastic Constant Matrix: (Units=GPa)
#
#
# Indices 1 2 3 4 5 6 
#
# 1 89.7102 46.5028 10.8962 0.0000 0.0000 0.0000
# 2 46.5028 158.5961 6.2366 0.0000 0.0000 0.0000
# 3 10.8962 6.2366 37.9864 0.0000 0.0000 0.0000
# 4 0.0000 0.0000 0.0000 11.8933 0.0000 0.0000
# 5 0.0000 0.0000 0.0000 0.0000 2.1922 0.0000
# 6 0.0000 0.0000 0.0000 0.0000 0.0000 -45.3106
#
#
#
# Elastic Compliance Matrix: (Units=1/GPa)
#
#
# Indices 1 2 3 4 5 6 
#
# 1 0.013532 -0.003840 -0.003251 0.000000 0.000000 0.000000
# 2 -0.003840 0.007436 -0.000119 0.000000 0.000000 0.000000
# 3 -0.003251 -0.000119 0.027277 0.000000 0.000000 0.000000
# 4 0.000000 0.000000 0.000000 0.084081 0.000000 0.000000
# 5 0.000000 0.000000 0.000000 0.000000 0.456167 0.000000
# 6 0.000000 0.000000 0.000000 0.000000 0.000000 -0.022070
#
#
# Mechanical properties :
#
#
# Convention : Reuss Voigt Hill
#
# Bulk Modulus (GPa) = 29.56436 45.95155 37.75795
# Shear Modulus (GPa) = 8.44423 8.59878 8.52150
#
# Velocity S-wave (km/s) = 1.83680 1.85353 1.84518
# Velocity P-wave (km/s) = 4.03865 4.78961 4.43007
#
# Compressibility (1/GPa) = 0.03382452
#
# Stress axis : x y z
#
# Youngs Moduli (GPa) = 73.89630 134.48115 36.66040
#
# Poissons Ratio (x) = 0.51642 0.11919
# Poissons Ratio (y) = 0.28377 0.00438
# Poissons Ratio (z) = 0.24026 0.01605
#
# Static dielectric constant tensor:
#      x y z
#    x 1.921920 0.000000 0.000000 
#    y 0.000000 2.107390 0.000000 
#    z 0.000000 0.000000 2.005810 
# 
# From -- ./inp_files/8091.got.cif
#   From: 2010.05.17/outbox.cif.g08.bks.cpg/sg33_5_cif.got.tgz:8091.got - 2010.06.03 17:15:25.
