data_PCOD9345402
_publ_section_title
;
Structure prediction by ZEFSAII (Michael W. Deem and Ramdas Pophale) SiO2 
 PCOD9345402
Probable space group: P N A 21
;
_chemical_formula_sum "Si O2"
_cell_formula_units_Z 20
_cell_length_a 5.119241
_cell_length_b 18.833299
_cell_length_c 8.341771
_cell_angle_alpha 90.000000
_cell_angle_beta 90.000000
_cell_angle_gamma 90.000000
_cell_volume 804.248464
_symmetry_space_group_name_H-M "P N A 21"
_symmetry_group_IT_number 33
_symmetry_cell_setting 'orthorhombic'
loop_
_space_group_symop_operation_xyz
x,y,z
-x,-y,1/2+z
1/2-x,1/2+y,1/2+z
1/2+x,1/2-y,z
loop_
_atom_site_type_symbol
_atom_site_label
_atom_site_fract_x
_atom_site_fract_y
_atom_site_fract_z
Si Si1 0.228480 0.935716 0.419700
Si Si2 0.577492 0.574932 0.902062
Si Si3 0.598869 0.950917 0.710540
Si Si4 0.087031 0.216078 0.551527
Si Si5 0.551122 0.284704 0.929319
O O1 0.470141 0.936749 0.541082
O O2 0.080596 0.861820 0.426282
O O3 0.029081 0.999465 0.466187
O O4 0.341316 0.965548 0.250347
O O5 0.367909 0.587695 0.757021
O O6 0.868395 0.570265 0.835472
O O7 0.522328 0.638129 0.022635
O O8 0.871915 0.269708 0.482036
O O9 0.107176 0.230158 0.741018
O O10 0.335806 0.230805 0.001447
#
# Coordination Sequence:
#
# PCOD9345402 Si02
#       5
#     4   4   4   4   4
#     4  10  26  41  69  93 135 165 224 267 322 392
#     4  10  24  39  65  95 127 165 218 264 326 374
#     4  10  25  38  66  97 125 167 217 263 334 366
#     4  10  21  40  66  94 130 167 217 265 321 384
#     4  10  24  40  64  95 129 176 212 263 323 388
#
# _framework density 24.867934999999999
#
# number of rings (size 3 to 8) (size 9 to 14) (size 15 to 20)
#    1.200    0.800    0.000    1.200   11.200    1.600 
#    0.000    6.000    0.000    0.000    0.000    0.000 
#    0.000    0.000    0.000    0.000    0.000    0.000 
#
# Total GULP energy -111733.921146 kJ/mol
# GULP energy per Si atom -5586.696057 kJ/mol
# Density = 2.481133 g / cm^3
# Si number density = 24.867935 Si / 1000 Ang^3
#
#
#
# Elastic Constant Matrix: (Units=GPa)
#
#
# Indices 1 2 3 4 5 6 
#
# 1 92.7650 11.6711 20.3582 0.0000 0.0000 0.0000
# 2 11.6711 78.3376 -15.2171 0.0000 0.0000 0.0000
# 3 20.3582 -15.2171 19.2496 0.0000 0.0000 0.0000
# 4 0.0000 0.0000 0.0000 25.8632 0.0000 0.0000
# 5 0.0000 0.0000 0.0000 0.0000 32.4201 0.0000
# 6 0.0000 0.0000 0.0000 0.0000 0.0000 39.2145
#
#
#
# Elastic Compliance Matrix: (Units=1/GPa)
#
#
# Indices 1 2 3 4 5 6 
#
# 1 0.016776 -0.007024 -0.023295 0.000000 0.000000 0.000000
# 2 -0.007024 0.018022 0.021676 0.000000 0.000000 0.000000
# 3 -0.023295 0.021676 0.093721 0.000000 0.000000 0.000000
# 4 0.000000 0.000000 0.000000 0.038665 0.000000 0.000000
# 5 0.000000 0.000000 0.000000 0.000000 0.030845 0.000000
# 6 0.000000 0.000000 0.000000 0.000000 0.000000 0.025501
#
#
# Mechanical properties :
#
#
# Convention : Reuss Voigt Hill
#
# Bulk Modulus (GPa) = 8.99023 24.88631 16.93827
# Shear Modulus (GPa) = 17.99242 31.06887 24.53064
#
# Velocity S-wave (km/s) = 2.69275 3.53846 3.14417
# Velocity P-wave (km/s) = 3.64567 5.16946 4.47293
#
# Compressibility (1/GPa) = 0.11123180
#
# Stress axis : x y z
#
# Youngs Moduli (GPa) = 59.60871 55.48669 10.66999
#
# Poissons Ratio (x) = 0.38976 0.24856
# Poissons Ratio (y) = 0.41872 -0.23128
# Poissons Ratio (z) = 1.38859 -1.20272
#
# Static dielectric constant tensor:
#      x y z
#    x 1.993160 0.000000 0.000000 
#    y 0.000000 1.959880 0.000000 
#    z 0.000000 0.000000 2.031100 
# 
# From -- ./inp_files/2636.got.cif
#   From: 2010.05.17/outbox.cif.g08.bks.cpg/sg33_2_cif.got.tgz:2636.got - 2010.06.03 17:15:25.
