data_PCOD9345784
_publ_section_title
;
Structure prediction by ZEFSAII (Michael W. Deem and Ramdas Pophale) SiO2 
 PCOD9345784
Probable space group: P N A 21
;
_chemical_formula_sum "Si O2"
_cell_formula_units_Z 32
_cell_length_a 18.424020
_cell_length_b 9.987324
_cell_length_c 8.639090
_cell_angle_alpha 90.000000
_cell_angle_beta 90.000000
_cell_angle_gamma 90.000000
_cell_volume 1589.650071
_symmetry_space_group_name_H-M "P N A 21"
_symmetry_group_IT_number 33
_symmetry_cell_setting 'orthorhombic'
loop_
_space_group_symop_operation_xyz
x,y,z
-x,-y,1/2+z
1/2-x,1/2+y,1/2+z
1/2+x,1/2-y,z
loop_
_atom_site_type_symbol
_atom_site_label
_atom_site_fract_x
_atom_site_fract_y
_atom_site_fract_z
Si Si1 0.702302 0.441949 0.957950
Si Si2 0.441607 0.592502 0.323181
Si Si3 0.776904 0.676155 0.812097
Si Si4 0.519610 0.360100 0.471966
Si Si5 0.833118 0.953142 0.809973
Si Si6 0.946337 0.591953 0.816700
Si Si7 0.187476 0.789772 0.504753
Si Si8 0.972155 0.321844 0.004844
O O1 0.644848 0.394945 0.830021
O O2 0.734381 0.588011 0.934195
O O3 0.663864 0.439225 0.125071
O O4 0.769659 0.341872 0.953926
O O5 0.456259 0.445442 0.393450
O O6 0.478469 0.706097 0.428913
O O7 0.473694 0.608697 0.152606
O O8 0.860440 0.626052 0.798082
O O9 0.732570 0.659584 0.652967
O O10 0.779470 0.832404 0.855982
O O11 0.590456 0.419469 0.387218
O O12 0.520959 0.202965 0.435128
O O13 0.811394 0.097155 0.873281
O O14 0.987776 0.619149 0.655651
O O15 0.958077 0.444078 0.885477
O O16 0.105083 0.747531 0.543463
#
# Coordination Sequence:
#
# PCOD9345784 Si02
#       8
#     4   4   4   4   4   4   4   4
#     4  11  24  43  67  99 135 177 223 279 345 404
#     4  12  24  41  70  99 132 179 227 279 342 403
#     4  10  23  45  65  99 135 176 222 287 335 406
#     4  11  23  42  67  98 131 171 225 281 332 405
#     4  10  22  42  66  95 133 170 223 276 329 405
#     4  11  25  46  68  97 143 174 230 280 343 403
#     4  11  23  43  66  99 134 178 226 275 338 402
#     4  12  24  46  67 100 137 185 228 283 336 410
#
# _framework density 20.130217999999999
#
# number of rings (size 3 to 8) (size 9 to 14) (size 15 to 20)
#    0.000    1.000    2.500    5.250    1.750    3.000 
#    9.000    0.000    0.000    0.000    0.000    0.000 
#    0.000    0.000    0.000    0.000    0.000    0.000 
#
# Total GULP energy -178821.913910 kJ/mol
# GULP energy per Si atom -5588.184810 kJ/mol
# Density = 2.008440 g / cm^3
# Si number density = 20.130218 Si / 1000 Ang^3
#
#
#
# Elastic Constant Matrix: (Units=GPa)
#
#
# Indices 1 2 3 4 5 6 
#
# 1 83.4109 17.5243 24.1458 0.0000 0.0000 0.0000
# 2 17.5243 84.1513 18.4735 0.0000 0.0000 0.0000
# 3 24.1458 18.4735 47.8362 0.0000 0.0000 0.0000
# 4 0.0000 0.0000 0.0000 37.4043 0.0000 0.0000
# 5 0.0000 0.0000 0.0000 0.0000 30.5561 0.0000
# 6 0.0000 0.0000 0.0000 0.0000 0.0000 28.3122
#
#
#
# Elastic Compliance Matrix: (Units=1/GPa)
#
#
# Indices 1 2 3 4 5 6 
#
# 1 0.014215 -0.001513 -0.006591 0.000000 0.000000 0.000000
# 2 -0.001513 0.013145 -0.004313 0.000000 0.000000 0.000000
# 3 -0.006591 -0.004313 0.025897 0.000000 0.000000 0.000000
# 4 0.000000 0.000000 0.000000 0.026735 0.000000 0.000000
# 5 0.000000 0.000000 0.000000 0.000000 0.032727 0.000000
# 6 0.000000 0.000000 0.000000 0.000000 0.000000 0.035320
#
#
# Mechanical properties :
#
#
# Convention : Reuss Voigt Hill
#
# Bulk Modulus (GPa) = 35.18193 37.29839 36.24016
# Shear Modulus (GPa) = 27.42039 29.60485 28.51262
#
# Velocity S-wave (km/s) = 3.69474 3.83909 3.76760
# Velocity P-wave (km/s) = 5.97633 6.18225 6.08016
#
# Compressibility (1/GPa) = 0.02842368
#
# Stress axis : x y z
#
# Youngs Moduli (GPa) = 70.35012 76.07319 38.61490
#
# Poissons Ratio (x) = 0.11513 0.25449
# Poissons Ratio (y) = 0.10647 0.16653
# Poissons Ratio (z) = 0.46364 0.32807
#
# Static dielectric constant tensor:
#      x y z
#    x 1.719220 0.000000 0.000000 
#    y 0.000000 1.722740 0.000000 
#    z 0.000000 0.000000 1.706810 
# 
# From -- ./inp_files/5020.got.cif
#   From: 2010.05.17/outbox.cif.g08.bks.cpg/sg33_3_cif.got.tgz:5020.got - 2010.06.03 17:15:25.
