data_PCOD9345101
_publ_section_title
;
Structure prediction by ZEFSAII (Michael W. Deem and Ramdas Pophale) SiO2 
 PCOD9345101
Probable space group: P N A 21
;
_chemical_formula_sum "Si O2"
_cell_formula_units_Z 20
_cell_length_a 25.367522
_cell_length_b 6.237286
_cell_length_c 5.038006
_cell_angle_alpha 90.000000
_cell_angle_beta 90.000000
_cell_angle_gamma 90.000000
_cell_volume 797.135929
_symmetry_space_group_name_H-M "P N A 21"
_symmetry_group_IT_number 33
_symmetry_cell_setting 'orthorhombic'
loop_
_space_group_symop_operation_xyz
x,y,z
-x,-y,1/2+z
1/2-x,1/2+y,1/2+z
1/2+x,1/2-y,z
loop_
_atom_site_type_symbol
_atom_site_label
_atom_site_fract_x
_atom_site_fract_y
_atom_site_fract_z
Si Si1 0.747911 0.000000 0.421560
Si Si2 1.000000 0.654794 0.171561
Si Si3 0.078685 1.000000 0.921561
Si Si4 0.166426 0.283961 0.030097
Si Si5 0.333574 0.216038 0.313023
O O1 0.707770 0.133623 0.243984
O O2 0.793211 0.169439 0.522273
O O3 0.793211 0.830562 0.320847
O O4 0.707770 0.866377 0.599136
O O5 0.013843 0.500000 0.421561
O O6 0.955248 0.821249 0.271898
O O7 0.044752 0.821249 0.071224
O O8 0.119366 0.871105 0.733001
O O9 0.119366 0.128894 0.110120
O O10 0.141024 0.500000 0.921560
#
# Coordination Sequence:
#
# PCOD9345101 Si02
#       5
#     4   4   4   4   4
#     4   9  20  38  68 104 156 196 248 305 384 468
#     4  12  28  58  84 112 162 208 268 350 404 478
#     4  11  26  50  76 114 146 202 272 317 408 470
#     4  10  20  41  68 109 148 200 249 315 380 470
#     4  10  20  41  68 109 148 200 249 315 380 470
#
# _framework density 25.089822999999999
#
# number of rings (size 3 to 8) (size 9 to 14) (size 15 to 20)
#    0.000    1.600    0.000    3.600    0.000    0.000 
#   36.000    0.000    0.000    0.000    0.000    0.000 
#    0.000    0.000    0.000    0.000    0.000    0.000 
#
# Total GULP energy -111390.622790 kJ/mol
# GULP energy per Si atom -5569.531139 kJ/mol
# Density = 2.503272 g / cm^3
# Si number density = 25.089823 Si / 1000 Ang^3
#
#
#
# Elastic Constant Matrix: (Units=GPa)
#
#
# Indices 1 2 3 4 5 6 
#
# 1 176.9873 127.5605 50.6781 0.0000 0.0000 0.0000
# 2 127.5605 193.0393 68.3789 0.0000 0.0000 0.0000
# 3 50.6781 68.3789 81.2397 0.0000 0.0000 0.0000
# 4 0.0000 0.0000 0.0000 29.4475 0.0000 0.0000
# 5 0.0000 0.0000 0.0000 0.0000 509.7444 0.0000
# 6 0.0000 0.0000 0.0000 0.0000 0.0000 81.0744
#
#
#
# Elastic Compliance Matrix: (Units=1/GPa)
#
#
# Indices 1 2 3 4 5 6 
#
# 1 0.010850 -0.006799 -0.001045 0.000000 0.000000 0.000000
# 2 -0.006799 0.011642 -0.005557 0.000000 0.000000 0.000000
# 3 -0.001045 -0.005557 0.017639 0.000000 0.000000 0.000000
# 4 0.000000 0.000000 0.000000 0.033959 0.000000 0.000000
# 5 0.000000 0.000000 0.000000 0.000000 0.001962 0.000000
# 6 0.000000 0.000000 0.000000 0.000000 0.000000 0.012334
#
#
# Mechanical properties :
#
#
# Convention : Reuss Voigt Hill
#
# Bulk Modulus (GPa) = 75.03768 104.94460 89.99114
# Shear Modulus (GPa) = 41.79482 137.69651 89.74566
#
# Velocity S-wave (km/s) = 4.08586 7.41624 5.98727
# Velocity P-wave (km/s) = 7.22714 10.73557 9.15106
#
# Compressibility (1/GPa) = 0.01332664
#
# Stress axis : x y z
#
# Youngs Moduli (GPa) = 92.16601 85.89669 56.69280
#
# Poissons Ratio (x) = 0.58405 0.05926
# Poissons Ratio (y) = 0.62667 0.31506
# Poissons Ratio (z) = 0.09634 0.47736
#
# Static dielectric constant tensor:
#      x y z
#    x 1.926050 0.000000 0.000000 
#    y 0.000000 2.191190 0.000000 
#    z 0.000000 0.000000 2.072750 
# 
# From -- ./inp_files/2151.got.cif
#   From: 2010.05.17/outbox.cif.g08.bks.cpg/sg33_2_cif.got.tgz:2151.got - 2010.06.03 17:15:25.
