data_PCOD9345412
_publ_section_title
;
Structure prediction by ZEFSAII (Michael W. Deem and Ramdas Pophale) SiO2 
 PCOD9345412
Probable space group: P N A 21
;
_chemical_formula_sum "Si O2"
_cell_formula_units_Z 24
_cell_length_a 7.539596
_cell_length_b 26.577513
_cell_length_c 5.122412
_cell_angle_alpha 90.000000
_cell_angle_beta 90.000000
_cell_angle_gamma 90.000000
_cell_volume 1026.447924
_symmetry_space_group_name_H-M "P N A 21"
_symmetry_group_IT_number 33
_symmetry_cell_setting 'orthorhombic'
loop_
_space_group_symop_operation_xyz
x,y,z
-x,-y,1/2+z
1/2-x,1/2+y,1/2+z
1/2+x,1/2-y,z
loop_
_atom_site_type_symbol
_atom_site_label
_atom_site_fract_x
_atom_site_fract_y
_atom_site_fract_z
Si Si1 0.588123 0.846133 0.466640
Si Si2 0.924525 0.183930 0.351155
Si Si3 0.885927 0.001657 0.194898
Si Si4 0.964579 0.706801 0.978385
Si Si5 0.735002 0.602439 0.477458
Si Si6 0.890185 0.895323 0.176142
O O1 0.549888 0.829960 0.761837
O O2 0.433886 0.886039 0.395579
O O3 0.776237 0.870472 0.405010
O O4 0.558363 0.800891 0.257680
O O5 0.743126 0.193916 0.514440
O O6 0.842087 0.153617 0.108214
O O7 0.014053 0.238488 0.347341
O O8 0.072562 0.147037 0.465420
O O9 0.801936 0.948473 0.103624
O O10 0.777855 0.053184 0.160938
O O11 0.948973 0.993477 0.491949
O O12 0.592503 0.591911 0.254327
#
# Coordination Sequence:
#
# PCOD9345412 Si02
#       6
#     4   4   4   4   4   4
#     4  11  26  43  65 100 133 168 224 264 330 388
#     4  11  23  42  67  91 137 172 218 270 332 378
#     4  10  21  40  68  96 123 172 220 260 332 394
#     4  11  26  42  64  98 131 174 219 271 318 401
#     4  10  23  44  64  96 134 174 213 283 318 398
#     4  11  23  41  70  95 130 178 212 280 324 399
#
# _framework density 23.381606000000001
#
# number of rings (size 3 to 8) (size 9 to 14) (size 15 to 20)
#    0.000    1.333    3.333    1.000    7.000    1.333 
#    0.000   10.000    0.000    0.000    0.000    0.000 
#    0.000    0.000    0.000    0.000    0.000    0.000 
#
# Total GULP energy -133896.972732 kJ/mol
# GULP energy per Si atom -5579.040530 kJ/mol
# Density = 2.332839 g / cm^3
# Si number density = 23.381606 Si / 1000 Ang^3
#
#
#
# Elastic Constant Matrix: (Units=GPa)
#
#
# Indices 1 2 3 4 5 6 
#
# 1 87.0669 23.4631 30.8499 0.0000 0.0000 0.0000
# 2 23.4631 112.9961 -0.0160 0.0000 0.0000 0.0000
# 3 30.8499 -0.0160 47.9204 0.0000 0.0000 0.0000
# 4 0.0000 0.0000 0.0000 26.6445 0.0000 0.0000
# 5 0.0000 0.0000 0.0000 0.0000 29.6285 0.0000
# 6 0.0000 0.0000 0.0000 0.0000 0.0000 4.3974
#
#
#
# Elastic Compliance Matrix: (Units=1/GPa)
#
#
# Indices 1 2 3 4 5 6 
#
# 1 0.016044 -0.003333 -0.010330 0.000000 0.000000 0.000000
# 2 -0.003333 0.009542 0.002149 0.000000 0.000000 0.000000
# 3 -0.010330 0.002149 0.027519 0.000000 0.000000 0.000000
# 4 0.000000 0.000000 0.000000 0.037531 0.000000 0.000000
# 5 0.000000 0.000000 0.000000 0.000000 0.033751 0.000000
# 6 0.000000 0.000000 0.000000 0.000000 0.000000 0.227405
#
#
# Mechanical properties :
#
#
# Convention : Reuss Voigt Hill
#
# Bulk Modulus (GPa) = 33.24784 39.61970 36.43377
# Shear Modulus (GPa) = 12.99226 25.04653 19.01939
#
# Velocity S-wave (km/s) = 2.35980 3.27648 2.85517
# Velocity P-wave (km/s) = 4.65569 5.59423 5.14640
#
# Compressibility (1/GPa) = 0.03007714
#
# Stress axis : x y z
#
# Youngs Moduli (GPa) = 62.33026 104.79749 36.33911
#
# Poissons Ratio (x) = 0.34927 0.37537
# Poissons Ratio (y) = 0.20774 -0.07808
# Poissons Ratio (z) = 0.64384 -0.22519
#
# Static dielectric constant tensor:
#      x y z
#    x 1.870520 0.000000 0.000000 
#    y 0.000000 1.993980 0.000000 
#    z 0.000000 0.000000 1.940100 
# 
# From -- ./inp_files/513.got.cif
#   From: 2010.05.17/outbox.cif.g08.bks.cpg/sg33_1_cif.got.tgz:513.got - 2010.06.03 17:15:25.
