data_PCOD9345282
_publ_section_title
;
Structure prediction by ZEFSAII (Michael W. Deem and Ramdas Pophale) SiO2 
 PCOD9345282
Probable space group: P N A 21
;
_chemical_formula_sum "Si O2"
_cell_formula_units_Z 24
_cell_length_a 12.383537
_cell_length_b 5.076746
_cell_length_c 17.601799
_cell_angle_alpha 90.000000
_cell_angle_beta 90.000000
_cell_angle_gamma 90.000000
_cell_volume 1106.591166
_symmetry_space_group_name_H-M "P N A 21"
_symmetry_group_IT_number 33
_symmetry_cell_setting 'orthorhombic'
loop_
_space_group_symop_operation_xyz
x,y,z
-x,-y,1/2+z
1/2-x,1/2+y,1/2+z
1/2+x,1/2-y,z
loop_
_atom_site_type_symbol
_atom_site_label
_atom_site_fract_x
_atom_site_fract_y
_atom_site_fract_z
Si Si1 0.935467 0.789576 0.724100
Si Si2 0.700453 0.225841 0.087136
Si Si3 0.422991 0.156988 0.344722
Si Si4 0.912623 0.227546 0.521652
Si Si5 0.899596 0.541864 0.118049
Si Si6 0.110104 0.150494 0.755976
O O1 0.828021 0.756694 0.676728
O O2 0.955560 0.680812 0.808690
O O3 0.021690 0.632191 0.671407
O O4 0.984679 0.084006 0.731228
O O5 0.622169 0.434107 0.044301
O O6 0.819186 0.341614 0.077439
O O7 0.672798 0.937783 0.056515
O O8 0.417922 0.224983 0.432059
O O9 0.358901 0.377622 0.295664
O O10 0.382766 0.871947 0.320042
O O11 0.026734 0.299420 0.559780
O O12 0.841261 0.739826 0.177901
#
# Coordination Sequence:
#
# PCOD9345282 Si02
#       6
#     4   4   4   4   4   4
#     4   8  19  38  59  83 110 152 198 240 283 338
#     4  11  23  35  63  90 115 156 202 240 295 358
#     4   9  18  34  61  75 116 156 185 238 301 338
#     4  11  22  38  57  88 124 153 190 246 303 355
#     4  10  21  38  62  89 117 155 198 251 290 351
#     4   9  17  35  60  79 106 154 195 233 286 336
#
# _framework density 21.688227999999999
#
# number of rings (size 3 to 8) (size 9 to 14) (size 15 to 20)
#    1.000    1.333    1.667    1.000    2.333    0.000 
#    0.000    3.333   11.000    0.000    0.000    0.000 
#    0.000    0.000    0.000    0.000    0.000    0.000 
#
# Total GULP energy -133749.097064 kJ/mol
# GULP energy per Si atom -5572.879044 kJ/mol
# Density = 2.163886 g / cm^3
# Si number density = 21.688228 Si / 1000 Ang^3
#
#
#
# Elastic Constant Matrix: (Units=GPa)
#
#
# Indices 1 2 3 4 5 6 
#
# 1 33.8887 -6.2717 16.0863 0.0000 0.0000 0.0000
# 2 -6.2717 100.0703 20.6395 0.0000 0.0000 0.0000
# 3 16.0863 20.6395 133.9014 0.0000 0.0000 0.0000
# 4 0.0000 0.0000 0.0000 26.8435 0.0000 0.0000
# 5 0.0000 0.0000 0.0000 0.0000 12.4090 0.0000
# 6 0.0000 0.0000 0.0000 0.0000 0.0000 16.9328
#
#
#
# Elastic Compliance Matrix: (Units=1/GPa)
#
#
# Indices 1 2 3 4 5 6 
#
# 1 0.032086 0.002898 -0.004301 0.000000 0.000000 0.000000
# 2 0.002898 0.010583 -0.001979 0.000000 0.000000 0.000000
# 3 -0.004301 -0.001979 0.008290 0.000000 0.000000 0.000000
# 4 0.000000 0.000000 0.000000 0.037253 0.000000 0.000000
# 5 0.000000 0.000000 0.000000 0.000000 0.080587 0.000000
# 6 0.000000 0.000000 0.000000 0.000000 0.000000 0.059057
#
#
# Mechanical properties :
#
#
# Convention : Reuss Voigt Hill
#
# Bulk Modulus (GPa) = 22.62754 36.52986 29.57870
# Shear Modulus (GPa) = 20.05192 27.06415 23.55804
#
# Velocity S-wave (km/s) = 3.04395 3.53636 3.29935
# Velocity P-wave (km/s) = 4.77597 5.79260 5.30867
#
# Compressibility (1/GPa) = 0.04419394
#
# Stress axis : x y z
#
# Youngs Moduli (GPa) = 31.16576 94.49238 120.62655
#
# Poissons Ratio (x) = -0.27385 0.51887
# Poissons Ratio (y) = -0.09032 0.23877
# Poissons Ratio (z) = 0.13406 0.18704
#
# Static dielectric constant tensor:
#      x y z
#    x 1.876090 0.000000 0.000000 
#    y 0.000000 1.833850 0.000000 
#    z 0.000000 0.000000 1.772830 
# 
# From -- ./inp_files/8594.got.cif
#   From: 2010.05.17/outbox.cif.g08.bks.cpg/sg33_5_cif.got.tgz:8594.got - 2010.06.03 17:15:25.
