data_PCOD9345473
_publ_section_title
;
Structure prediction by ZEFSAII (Michael W. Deem and Ramdas Pophale) SiO2 
 PCOD9345473
Probable space group: P N A 21
;
_chemical_formula_sum "Si O2"
_cell_formula_units_Z 20
_cell_length_a 7.988827
_cell_length_b 16.285968
_cell_length_c 5.977833
_cell_angle_alpha 90.000000
_cell_angle_beta 90.000000
_cell_angle_gamma 90.000000
_cell_volume 777.750630
_symmetry_space_group_name_H-M "P N A 21"
_symmetry_group_IT_number 33
_symmetry_cell_setting 'orthorhombic'
loop_
_space_group_symop_operation_xyz
x,y,z
-x,-y,1/2+z
1/2-x,1/2+y,1/2+z
1/2+x,1/2-y,z
loop_
_atom_site_type_symbol
_atom_site_label
_atom_site_fract_x
_atom_site_fract_y
_atom_site_fract_z
Si Si1 0.551114 0.365122 0.358450
Si Si2 0.736105 0.981457 0.637889
Si Si3 0.235981 0.279310 0.135879
Si Si4 0.757555 0.341675 0.761016
Si Si5 0.970012 0.607209 0.916631
O O1 0.596469 0.456188 0.271478
O O2 0.394618 0.327076 0.231807
O O3 0.699336 0.304126 0.271350
O O4 0.586931 0.357264 0.620396
O O5 0.728751 0.916828 0.434400
O O6 0.587712 0.964016 0.816166
O O7 0.695366 0.068989 0.531783
O O8 0.083011 0.337504 0.206282
O O9 0.249898 0.245695 0.886089
O O10 0.921177 0.347514 0.604414
#
# Coordination Sequence:
#
# PCOD9345473 Si02
#       5
#     4   4   4   4   4
#     4  10  23  42  64 102 136 177 240 286 355 414
#     4  10  21  41  67  98 135 187 236 285 354 433
#     4  11  24  43  68 102 139 184 240 290 353 427
#     4  10  22  44  70  96 143 183 232 301 341 427
#     4  11  22  42  71 100 139 191 240 286 367 421
#
# _framework density 25.715185000000002
#
# number of rings (size 3 to 8) (size 9 to 14) (size 15 to 20)
#    0.000    1.600    2.000    3.600    0.000    9.600 
#    3.600    2.000    0.000    0.000    0.000    0.000 
#    0.000    0.000    0.000    0.000    0.000    0.000 
#
# Total GULP energy -111828.399711 kJ/mol
# GULP energy per Si atom -5591.419986 kJ/mol
# Density = 2.565666 g / cm^3
# Si number density = 25.715185 Si / 1000 Ang^3
#
#
#
# Elastic Constant Matrix: (Units=GPa)
#
#
# Indices 1 2 3 4 5 6 
#
# 1 62.3071 13.9147 38.2536 0.0000 0.0000 0.0000
# 2 13.9147 73.8269 40.5310 0.0000 0.0000 0.0000
# 3 38.2536 40.5310 120.2212 0.0000 0.0000 0.0000
# 4 0.0000 0.0000 0.0000 53.3965 0.0000 0.0000
# 5 0.0000 0.0000 0.0000 0.0000 28.1780 0.0000
# 6 0.0000 0.0000 0.0000 0.0000 0.0000 40.6405
#
#
#
# Elastic Compliance Matrix: (Units=1/GPa)
#
#
# Indices 1 2 3 4 5 6 
#
# 1 0.019953 -0.000338 -0.006235 0.000000 0.000000 0.000000
# 2 -0.000338 0.016627 -0.005498 0.000000 0.000000 0.000000
# 3 -0.006235 -0.005498 0.012156 0.000000 0.000000 0.000000
# 4 0.000000 0.000000 0.000000 0.018728 0.000000 0.000000
# 5 0.000000 0.000000 0.000000 0.000000 0.035489 0.000000
# 6 0.000000 0.000000 0.000000 0.000000 0.000000 0.024606
#
#
# Mechanical properties :
#
#
# Convention : Reuss Voigt Hill
#
# Bulk Modulus (GPa) = 40.66029 49.08376 44.87202
# Shear Modulus (GPa) = 31.26986 35.35339 33.31163
#
# Velocity S-wave (km/s) = 3.49091 3.71186 3.60308
# Velocity P-wave (km/s) = 5.66522 6.12368 5.89891
#
# Compressibility (1/GPa) = 0.02459402
#
# Stress axis : x y z
#
# Youngs Moduli (GPa) = 50.11790 60.14175 82.26648
#
# Poissons Ratio (x) = 0.02031 0.51294
# Poissons Ratio (y) = 0.01692 0.45232
# Poissons Ratio (z) = 0.31249 0.33068
#
# Static dielectric constant tensor:
#      x y z
#    x 2.124080 0.000000 0.000000 
#    y 0.000000 2.041370 0.000000 
#    z 0.000000 0.000000 2.075270 
# 
# From -- ./inp_files/333.got.cif
#   From: 2010.05.17/outbox.cif.g08.bks.cpg/sg33_1_cif.got.tgz:333.got - 2010.06.03 17:15:25.
