data_PCOD9345670
_publ_section_title
;
Structure prediction by ZEFSAII (Michael W. Deem and Ramdas Pophale) SiO2 
 PCOD9345670
Probable space group: P N A 21
;
_chemical_formula_sum "Si O2"
_cell_formula_units_Z 28
_cell_length_a 5.196844
_cell_length_b 16.148996
_cell_length_c 12.760242
_cell_angle_alpha 90.000000
_cell_angle_beta 90.000000
_cell_angle_gamma 90.000000
_cell_volume 1070.888163
_symmetry_space_group_name_H-M "P N A 21"
_symmetry_group_IT_number 33
_symmetry_cell_setting 'orthorhombic'
loop_
_space_group_symop_operation_xyz
x,y,z
-x,-y,1/2+z
1/2-x,1/2+y,1/2+z
1/2+x,1/2-y,z
loop_
_atom_site_type_symbol
_atom_site_label
_atom_site_fract_x
_atom_site_fract_y
_atom_site_fract_z
Si Si1 0.591628 0.520464 0.710270
Si Si2 0.294612 0.038137 0.920863
Si Si3 0.040226 0.202553 0.491542
Si Si4 0.096546 0.576695 0.051962
Si Si5 0.202886 0.848985 0.432203
Si Si6 0.211594 0.853352 0.200784
Si Si7 0.371352 0.293777 0.162705
O O1 0.776623 0.502838 0.807614
O O2 0.750836 0.495653 0.608170
O O3 0.373347 0.449813 0.719065
O O4 0.528880 0.616582 0.699906
O O5 0.528901 0.101789 0.933360
O O6 0.349164 0.963329 0.998985
O O7 0.034821 0.087719 0.937695
O O8 0.252028 0.272074 0.458547
O O9 0.209455 0.120389 0.470377
O O10 0.984040 0.186209 0.616492
O O11 0.983791 0.637752 0.141236
O O12 0.198948 0.811191 0.314474
O O13 0.162235 0.794464 0.535685
O O14 0.584511 0.228321 0.199220
#
# Coordination Sequence:
#
# PCOD9345670 Si02
#       7
#     4   4   4   4   4   4   4
#     4  10  23  42  66  99 130 170 236 272 327 400
#     4  11  23  39  70  99 122 167 222 293 313 382
#     4  11  23  39  58  91 130 165 204 257 335 399
#     4  11  21  40  70  93 125 172 219 277 337 381
#     4  11  23  41  63  99 131 161 229 266 326 389
#     4  10  22  39  71  96 129 175 213 282 324 385
#     4  12  27  44  66  95 141 188 215 273 344 408
#
# _framework density 26.146521
#
# number of rings (size 3 to 8) (size 9 to 14) (size 15 to 20)
#    0.000    1.143    4.286    1.714    4.000    1.143 
#    0.000    1.429    0.000    0.000    0.000    0.000 
#    0.000    0.000    0.000    0.000    0.000    0.000 
#
# Total GULP energy -156598.714201 kJ/mol
# GULP energy per Si atom -5592.811221 kJ/mol
# Density = 2.608701 g / cm^3
# Si number density = 26.146521 Si / 1000 Ang^3
#
#
#
# Elastic Constant Matrix: (Units=GPa)
#
#
# Indices 1 2 3 4 5 6 
#
# 1 148.9417 20.0057 28.0894 0.0000 0.0000 0.0000
# 2 20.0057 75.8859 -4.3925 0.0000 0.0000 0.0000
# 3 28.0894 -4.3925 52.5790 0.0000 0.0000 0.0000
# 4 0.0000 0.0000 0.0000 19.4462 0.0000 0.0000
# 5 0.0000 0.0000 0.0000 0.0000 23.7470 0.0000
# 6 0.0000 0.0000 0.0000 0.0000 0.0000 45.0405
#
#
#
# Elastic Compliance Matrix: (Units=1/GPa)
#
#
# Indices 1 2 3 4 5 6 
#
# 1 0.007854 -0.002325 -0.004390 0.000000 0.000000 0.000000
# 2 -0.002325 0.013930 0.002406 0.000000 0.000000 0.000000
# 3 -0.004390 0.002406 0.021565 0.000000 0.000000 0.000000
# 4 0.000000 0.000000 0.000000 0.051424 0.000000 0.000000
# 5 0.000000 0.000000 0.000000 0.000000 0.042111 0.000000
# 6 0.000000 0.000000 0.000000 0.000000 0.000000 0.022202
#
#
# Mechanical properties :
#
#
# Convention : Reuss Voigt Hill
#
# Bulk Modulus (GPa) = 28.79287 40.53466 34.66376
# Shear Modulus (GPa) = 27.88907 33.22700 30.55803
#
# Velocity S-wave (km/s) = 3.26950 3.56870 3.42237
# Velocity P-wave (km/s) = 5.02880 5.70240 5.37616
#
# Compressibility (1/GPa) = 0.03473082
#
# Stress axis : x y z
#
# Youngs Moduli (GPa) = 127.31955 71.78860 46.37066
#
# Poissons Ratio (x) = 0.16689 0.20358
# Poissons Ratio (y) = 0.29598 -0.11155
# Poissons Ratio (z) = 0.55896 -0.17270
#
# Static dielectric constant tensor:
#      x y z
#    x 1.994090 0.000000 0.000000 
#    y 0.000000 2.093360 0.000000 
#    z 0.000000 0.000000 2.123070 
# 
# From -- ./inp_files/7418.got.cif
#   From: 2010.05.17/outbox.cif.g08.bks.cpg/sg33_4_cif.got.tgz:7418.got - 2010.06.03 17:15:25.
