data_PCOD9345945
_publ_section_title
;
Structure prediction by ZEFSAII (Michael W. Deem and Ramdas Pophale) SiO2 
 PCOD9345945
Probable space group: P N A 21
;
_chemical_formula_sum "Si O2"
_cell_formula_units_Z 16
_cell_length_a 9.208676
_cell_length_b 7.161652
_cell_length_c 9.185864
_cell_angle_alpha 90.000000
_cell_angle_beta 90.000000
_cell_angle_gamma 90.000000
_cell_volume 605.801603
_symmetry_space_group_name_H-M "P N A 21"
_symmetry_group_IT_number 33
_symmetry_cell_setting 'orthorhombic'
loop_
_space_group_symop_operation_xyz
x,y,z
-x,-y,1/2+z
1/2-x,1/2+y,1/2+z
1/2+x,1/2-y,z
loop_
_atom_site_type_symbol
_atom_site_label
_atom_site_fract_x
_atom_site_fract_y
_atom_site_fract_z
Si Si1 0.092662 0.171536 0.280500
Si Si2 0.575965 0.997138 0.090897
Si Si3 0.793119 0.007751 0.328016
Si Si4 0.337493 0.890800 0.291860
O O1 0.030034 0.296572 0.148139
O O2 0.188060 0.322365 0.372182
O O3 0.956657 0.070591 0.351327
O O4 0.206593 0.013909 0.230429
O O5 0.737080 0.981152 0.160014
O O6 0.463825 0.861402 0.173134
O O7 0.585718 0.992351 0.920066
O O8 0.779143 0.793538 0.373778
#
# Coordination Sequence:
#
# PCOD9345945 Si02
#       4
#     4   4   4   4
#     4  10  22  46  64 102 143 183 245 294 348 435
#     4  10  25  46  72 108 144 188 239 304 360 438
#     4  10  23  44  69 102 141 194 236 297 357 425
#     4  12  24  48  75 106 146 191 242 301 375 432
#
# _framework density 26.411289
#
# number of rings (size 3 to 8) (size 9 to 14) (size 15 to 20)
#    1.500    0.000    2.500    1.500    0.000   10.000 
#    9.000    0.000    0.000    0.000    0.000    0.000 
#    0.000    0.000    0.000    0.000    0.000    0.000 
#
# Total GULP energy -89296.913134 kJ/mol
# GULP energy per Si atom -5581.057071 kJ/mol
# Density = 2.635118 g / cm^3
# Si number density = 26.411289 Si / 1000 Ang^3
#
#
#
# Elastic Constant Matrix: (Units=GPa)
#
#
# Indices 1 2 3 4 5 6 
#
# 1 153.5780 49.7778 8.6537 0.0000 0.0000 0.0000
# 2 49.7778 128.9314 -19.3001 0.0000 0.0000 0.0000
# 3 8.6537 -19.3001 84.6960 0.0000 0.0000 0.0000
# 4 0.0000 0.0000 0.0000 16.0825 0.0000 0.0000
# 5 0.0000 0.0000 0.0000 0.0000 31.1413 0.0000
# 6 0.0000 0.0000 0.0000 0.0000 0.0000 53.4537
#
#
#
# Elastic Compliance Matrix: (Units=1/GPa)
#
#
# Indices 1 2 3 4 5 6 
#
# 1 0.007623 -0.003168 -0.001501 0.000000 0.000000 0.000000
# 2 -0.003168 0.009346 0.002453 0.000000 0.000000 0.000000
# 3 -0.001501 0.002453 0.012519 0.000000 0.000000 0.000000
# 4 0.000000 0.000000 0.000000 0.062180 0.000000 0.000000
# 5 0.000000 0.000000 0.000000 0.000000 0.032112 0.000000
# 6 0.000000 0.000000 0.000000 0.000000 0.000000 0.018708
#
#
# Mechanical properties :
#
#
# Convention : Reuss Voigt Hill
#
# Bulk Modulus (GPa) = 39.90643 49.49646 44.70145
# Shear Modulus (GPa) = 32.20206 42.00710 37.10458
#
# Velocity S-wave (km/s) = 3.49557 3.99243 3.75223
# Velocity P-wave (km/s) = 5.60664 6.32724 5.97781
#
# Compressibility (1/GPa) = 0.02505862
#
# Stress axis : x y z
#
# Youngs Moduli (GPa) = 131.18925 106.99476 79.87651
#
# Poissons Ratio (x) = 0.33891 0.11987
# Poissons Ratio (y) = 0.41555 -0.19597
# Poissons Ratio (z) = 0.19687 -0.26250
#
# Static dielectric constant tensor:
#      x y z
#    x 2.154330 0.000000 0.000000 
#    y 0.000000 2.164780 0.000000 
#    z 0.000000 0.000000 2.051410 
# 
# From -- ./inp_files/2920.got.cif
#   From: 2010.05.17/outbox.cif.g08.bks.cpg/sg33_2_cif.got.tgz:2920.got - 2010.06.03 17:15:25.
