data_PCOD9345766
_publ_section_title
;
Structure prediction by ZEFSAII (Michael W. Deem and Ramdas Pophale) SiO2 
 PCOD9345766
Probable space group: P N A 21
;
_chemical_formula_sum "Si O2"
_cell_formula_units_Z 32
_cell_length_a 5.377716
_cell_length_b 30.802147
_cell_length_c 9.313339
_cell_angle_alpha 90.000000
_cell_angle_beta 90.000000
_cell_angle_gamma 90.000000
_cell_volume 1542.709890
_symmetry_space_group_name_H-M "P N A 21"
_symmetry_group_IT_number 33
_symmetry_cell_setting 'orthorhombic'
loop_
_space_group_symop_operation_xyz
x,y,z
-x,-y,1/2+z
1/2-x,1/2+y,1/2+z
1/2+x,1/2-y,z
loop_
_atom_site_type_symbol
_atom_site_label
_atom_site_fract_x
_atom_site_fract_y
_atom_site_fract_z
Si Si1 0.418961 0.633743 0.019680
Si Si2 0.903698 0.046613 0.998134
Si Si3 0.987315 0.565109 0.287090
Si Si4 0.164352 0.223408 0.360173
Si Si5 0.349882 0.722659 0.517183
Si Si6 0.600953 0.082791 0.485707
Si Si7 0.141290 0.132186 0.850441
Si Si8 0.811620 0.014167 0.297707
O O1 0.670066 0.614672 0.949307
O O2 0.466229 0.638340 0.190643
O O3 0.171090 0.604285 0.997059
O O4 0.359481 0.679634 0.949174
O O5 0.928700 0.040289 0.166602
O O6 0.625505 0.049009 0.936258
O O7 0.019592 0.091694 0.937626
O O8 0.012038 0.003897 0.921638
O O9 0.084390 0.613274 0.317787
O O10 0.196694 0.530783 0.241313
O O11 0.822155 0.565635 0.144908
O O12 0.425897 0.246563 0.392515
O O13 0.154444 0.214619 0.188871
O O14 0.596559 0.750932 0.482873
O O15 0.360351 0.676726 0.436364
O O16 0.607240 0.044649 0.370612
#
# Coordination Sequence:
#
# PCOD9345766 Si02
#       8
#     4   4   4   4   4   4   4   4
#     4  11  24  42  67  94 133 166 216 274 324 397
#     4  11  23  42  64  93 134 172 230 275 331 398
#     4  10  22  42  62  90 133 169 227 276 327 387
#     4  10  22  43  66  95 128 168 212 267 328 399
#     4  10  24  42  67  95 134 169 215 269 327 401
#     4  11  24  42  62  96 128 171 216 272 327 382
#     4  10  24  41  63  99 128 174 215 278 327 391
#     4  11  25  38  65  92 128 183 221 277 331 393
#
# _framework density 20.742719000000001
#
# number of rings (size 3 to 8) (size 9 to 14) (size 15 to 20)
#    0.000    1.500    1.250    2.250    8.750    3.000 
#    0.000    0.000    0.000    0.000    0.000    0.000 
#    0.000    0.000    0.000    0.000    0.000    0.000 
#
# Total GULP energy -178565.295118 kJ/mol
# GULP energy per Si atom -5580.165472 kJ/mol
# Density = 2.069551 g / cm^3
# Si number density = 20.742719 Si / 1000 Ang^3
#
#
#
# Elastic Constant Matrix: (Units=GPa)
#
#
# Indices 1 2 3 4 5 6 
#
# 1 58.7861 21.5496 21.7825 0.0000 0.0000 0.0000
# 2 21.5496 119.8950 63.8734 0.0000 0.0000 0.0000
# 3 21.7825 63.8734 84.4760 0.0000 0.0000 0.0000
# 4 0.0000 0.0000 0.0000 43.4810 0.0000 0.0000
# 5 0.0000 0.0000 0.0000 0.0000 19.7475 0.0000
# 6 0.0000 0.0000 0.0000 0.0000 0.0000 26.2489
#
#
#
# Elastic Compliance Matrix: (Units=1/GPa)
#
#
# Indices 1 2 3 4 5 6 
#
# 1 0.018936 -0.001343 -0.003867 0.000000 0.000000 0.000000
# 2 -0.001343 0.014062 -0.010286 0.000000 0.000000 0.000000
# 3 -0.003867 -0.010286 0.020612 0.000000 0.000000 0.000000
# 4 0.000000 0.000000 0.000000 0.022999 0.000000 0.000000
# 5 0.000000 0.000000 0.000000 0.000000 0.050639 0.000000
# 6 0.000000 0.000000 0.000000 0.000000 0.000000 0.038097
#
#
# Mechanical properties :
#
#
# Convention : Reuss Voigt Hill
#
# Bulk Modulus (GPa) = 44.21367 53.06313 48.63840
# Shear Modulus (GPa) = 24.52461 28.29225 26.40843
#
# Velocity S-wave (km/s) = 3.44222 3.69719 3.57198
# Velocity P-wave (km/s) = 6.09591 6.62289 6.36486
#
# Compressibility (1/GPa) = 0.02261744
#
# Stress axis : x y z
#
# Youngs Moduli (GPa) = 52.80909 71.11414 48.51507
#
# Poissons Ratio (x) = 0.09554 0.18761
# Poissons Ratio (y) = 0.07095 0.49902
# Poissons Ratio (z) = 0.20421 0.73148
#
# Static dielectric constant tensor:
#      x y z
#    x 1.837240 0.000000 0.000000 
#    y 0.000000 1.705750 0.000000 
#    z 0.000000 0.000000 1.744310 
# 
# From -- ./inp_files/2834.got.cif
#   From: 2010.05.17/outbox.cif.g08.bks.cpg/sg33_2_cif.got.tgz:2834.got - 2010.06.03 17:15:25.
