data_PCOD9345566
_publ_section_title
;
Structure prediction by ZEFSAII (Michael W. Deem and Ramdas Pophale) SiO2 
 PCOD9345566
Probable space group: P N A 21
;
_chemical_formula_sum "Si O2"
_cell_formula_units_Z 32
_cell_length_a 20.918962
_cell_length_b 5.066627
_cell_length_c 11.336916
_cell_angle_alpha 90.000000
_cell_angle_beta 90.000000
_cell_angle_gamma 90.000000
_cell_volume 1201.583602
_symmetry_space_group_name_H-M "P N A 21"
_symmetry_group_IT_number 33
_symmetry_cell_setting 'orthorhombic'
loop_
_space_group_symop_operation_xyz
x,y,z
-x,-y,1/2+z
1/2-x,1/2+y,1/2+z
1/2+x,1/2-y,z
loop_
_atom_site_type_symbol
_atom_site_label
_atom_site_fract_x
_atom_site_fract_y
_atom_site_fract_z
Si Si1 0.072678 0.756604 0.424880
Si Si2 0.948681 0.900310 0.512496
Si Si3 0.209918 0.782654 0.818243
Si Si4 0.247272 0.450085 0.562960
Si Si5 0.678563 0.094851 0.978176
Si Si6 0.989891 0.595302 0.092523
Si Si7 0.127239 0.117800 0.637045
Si Si8 0.324434 0.146459 0.729906
O O1 0.052313 0.470053 0.474913
O O2 0.105425 0.921016 0.530879
O O3 0.119385 0.727141 0.316114
O O4 0.002590 0.884518 0.409829
O O5 0.879127 0.818943 0.471269
O O6 0.977059 0.688357 0.608115
O O7 0.956867 0.188764 0.564787
O O8 0.160250 0.932061 0.734966
O O9 0.275451 0.936900 0.788708
O O10 0.182662 0.487536 0.838167
O O11 0.217083 0.775980 0.963148
O O12 0.255901 0.743341 0.514312
O O13 0.179190 0.322819 0.584211
O O14 0.285944 0.406455 0.684293
O O15 0.656993 0.985835 0.107348
O O16 0.936122 0.721174 0.174797
#
# Coordination Sequence:
#
# PCOD9345566 Si02
#       8
#     4   4   4   4   4   4   4   4
#     4   9  21  43  74 101 144 189 251 304 358 451
#     4   9  22  43  74 101 148 189 249 295 373 435
#     4  10  24  41  65 105 143 189 242 300 384 439
#     4  10  24  40  68 102 145 187 237 309 368 452
#     4  11  25  46  70 104 154 192 246 312 376 458
#     4   9  20  41  73 101 137 192 236 309 349 447
#     4  10  21  44  70 105 139 190 250 304 377 443
#     4  10  23  44  70 103 138 194 241 299 377 439
#
# _framework density 26.631522
#
# number of rings (size 3 to 8) (size 9 to 14) (size 15 to 20)
#    0.750    1.500    0.000    0.750    3.500   12.000 
#    6.750    1.250    2.750    0.000    0.000    0.000 
#    0.000    0.000    0.000    0.000    0.000    0.000 
#
# Total GULP energy -178345.545272 kJ/mol
# GULP energy per Si atom -5573.298290 kJ/mol
# Density = 2.657091 g / cm^3
# Si number density = 26.631522 Si / 1000 Ang^3
#
#
#
# Elastic Constant Matrix: (Units=GPa)
#
#
# Indices 1 2 3 4 5 6 
#
# 1 120.8378 33.8200 56.0301 0.0000 0.0000 0.0000
# 2 33.8200 121.3428 50.6080 0.0000 0.0000 0.0000
# 3 56.0301 50.6080 109.1814 0.0000 0.0000 0.0000
# 4 0.0000 0.0000 0.0000 41.8832 0.0000 0.0000
# 5 0.0000 0.0000 0.0000 0.0000 37.8781 0.0000
# 6 0.0000 0.0000 0.0000 0.0000 0.0000 32.7781
#
#
#
# Elastic Compliance Matrix: (Units=1/GPa)
#
#
# Indices 1 2 3 4 5 6 
#
# 1 0.010934 -0.000877 -0.005205 0.000000 0.000000 0.000000
# 2 -0.000877 0.010286 -0.004318 0.000000 0.000000 0.000000
# 3 -0.005205 -0.004318 0.013832 0.000000 0.000000 0.000000
# 4 0.000000 0.000000 0.000000 0.023876 0.000000 0.000000
# 5 0.000000 0.000000 0.000000 0.000000 0.026400 0.000000
# 6 0.000000 0.000000 0.000000 0.000000 0.000000 0.030508
#
#
# Mechanical properties :
#
#
# Convention : Reuss Voigt Hill
#
# Bulk Modulus (GPa) = 70.16089 70.25313 70.20701
# Shear Modulus (GPa) = 35.36383 36.56815 35.96599
#
# Velocity S-wave (km/s) = 3.64798 3.70958 3.67891
# Velocity P-wave (km/s) = 6.64424 6.69215 6.66824
#
# Compressibility (1/GPa) = 0.01425296
#
# Stress axis : x y z
#
# Youngs Moduli (GPa) = 91.45470 97.21590 72.29787
#
# Poissons Ratio (x) = 0.08524 0.37631
# Poissons Ratio (y) = 0.08018 0.31218
# Poissons Ratio (z) = 0.47602 0.41978
#
# Static dielectric constant tensor:
#      x y z
#    x 2.159320 0.000000 0.000000 
#    y 0.000000 3.815930 0.000000 
#    z 0.000000 0.000000 2.141100 
# 
# From -- ./inp_files/7347.got.cif
#   From: 2010.05.17/outbox.cif.g08.bks.cpg/sg33_4_cif.got.tgz:7347.got - 2010.06.03 17:15:25.
