data_PCOD9345978
_publ_section_title
;
Structure prediction by ZEFSAII (Michael W. Deem and Ramdas Pophale) SiO2 
 PCOD9345978
Probable space group: P N A 21
;
_chemical_formula_sum "Si O2"
_cell_formula_units_Z 28
_cell_length_a 21.567728
_cell_length_b 12.342769
_cell_length_c 5.461546
_cell_angle_alpha 90.000000
_cell_angle_beta 90.000000
_cell_angle_gamma 90.000000
_cell_volume 1453.893499
_symmetry_space_group_name_H-M "P N A 21"
_symmetry_group_IT_number 33
_symmetry_cell_setting 'orthorhombic'
loop_
_space_group_symop_operation_xyz
x,y,z
-x,-y,1/2+z
1/2-x,1/2+y,1/2+z
1/2+x,1/2-y,z
loop_
_atom_site_type_symbol
_atom_site_label
_atom_site_fract_x
_atom_site_fract_y
_atom_site_fract_z
Si Si1 0.700882 0.856696 0.506510
Si Si2 0.064076 0.893627 0.798208
Si Si3 0.936483 0.886251 0.580839
Si Si4 0.659998 0.749965 0.996591
Si Si5 0.237490 0.412542 0.623386
Si Si6 0.340717 0.511769 0.969436
Si Si7 0.172483 0.212226 0.834463
O O1 0.666011 0.824801 0.756559
O O2 0.771155 0.809272 0.522790
O O3 0.707873 0.985738 0.489202
O O4 0.672925 0.808127 0.255596
O O5 0.095177 0.813723 0.992600
O O6 0.000833 0.847521 0.691143
O O7 0.118559 0.919978 0.604370
O O8 0.048093 0.011896 0.906177
O O9 0.895814 0.797028 0.443613
O O10 0.888230 0.935913 0.775731
O O11 0.713159 0.657903 0.971974
O O12 0.187271 0.326438 0.713534
O O13 0.280406 0.462056 0.840788
O O14 0.322525 0.609100 0.151599
#
# Coordination Sequence:
#
# PCOD9345978 Si02
#       7
#     4   4   4   4   4   4   4
#     4  11  23  39  59  91 126 163 209 245 309 386
#     4  11  21  36  60  86 128 166 199 270 315 372
#     4  11  21  35  57  92 123 159 208 253 318 378
#     4  11  24  38  61  91 123 164 206 253 312 376
#     4  11  20  39  62  86 132 164 196 263 316 373
#     4  11  20  39  56  92 126 157 211 246 318 386
#     4  10  23  36  57  92 126 161 203 256 312 379
#
# _framework density 19.258631000000001
#
# number of rings (size 3 to 8) (size 9 to 14) (size 15 to 20)
#    0.000    1.143    4.286    4.286    0.000    2.286 
#    0.000    0.000    0.000    0.000    3.714    0.000 
#    0.000    0.000    0.000    0.000    0.000    0.000 
#
# Total GULP energy -156420.178945 kJ/mol
# GULP energy per Si atom -5586.434962 kJ/mol
# Density = 1.921480 g / cm^3
# Si number density = 19.258631 Si / 1000 Ang^3
#
#
#
# Elastic Constant Matrix: (Units=GPa)
#
#
# Indices 1 2 3 4 5 6 
#
# 1 112.9114 57.6529 42.8107 0.0000 0.0000 0.0000
# 2 57.6529 98.2550 27.4291 0.0000 0.0000 0.0000
# 3 42.8107 27.4291 70.5433 0.0000 0.0000 0.0000
# 4 0.0000 0.0000 0.0000 18.3604 0.0000 0.0000
# 5 0.0000 0.0000 0.0000 0.0000 34.4426 0.0000
# 6 0.0000 0.0000 0.0000 0.0000 0.0000 21.6188
#
#
#
# Elastic Compliance Matrix: (Units=1/GPa)
#
#
# Indices 1 2 3 4 5 6 
#
# 1 0.014764 -0.006912 -0.006272 0.000000 0.000000 0.000000
# 2 -0.006912 0.014653 -0.001503 0.000000 0.000000 0.000000
# 3 -0.006272 -0.001503 0.018566 0.000000 0.000000 0.000000
# 4 0.000000 0.000000 0.000000 0.054465 0.000000 0.000000
# 5 0.000000 0.000000 0.000000 0.000000 0.029034 0.000000
# 6 0.000000 0.000000 0.000000 0.000000 0.000000 0.046256
#
#
# Mechanical properties :
#
#
# Convention : Reuss Voigt Hill
#
# Bulk Modulus (GPa) = 53.73660 59.72165 56.72912
# Shear Modulus (GPa) = 23.43951 25.13884 24.28917
#
# Velocity S-wave (km/s) = 3.49247 3.61685 3.55520
# Velocity P-wave (km/s) = 6.65028 6.96562 6.80978
#
# Compressibility (1/GPa) = 0.01860929
#
# Stress axis : x y z
#
# Youngs Moduli (GPa) = 67.73258 68.24605 53.86071
#
# Poissons Ratio (x) = 0.47172 0.33783
# Poissons Ratio (y) = 0.46817 0.08094
# Poissons Ratio (z) = 0.42483 0.10255
#
# Static dielectric constant tensor:
#      x y z
#    x 1.674570 0.000000 0.000000 
#    y 0.000000 1.679450 0.000000 
#    z 0.000000 0.000000 1.766320 
# 
# From -- ./inp_files/1976.got.cif
#   From: 2010.05.17/outbox.cif.g08.bks.cpg/sg33_1_cif.got.tgz:1976.got - 2010.06.03 17:15:25.
