data_PCOD9345199
_publ_section_title
;
Structure prediction by ZEFSAII (Michael W. Deem and Ramdas Pophale) SiO2 
 PCOD9345199
Probable space group: P N A 21
;
_chemical_formula_sum "Si O2"
_cell_formula_units_Z 24
_cell_length_a 8.447153
_cell_length_b 8.997457
_cell_length_c 12.794495
_cell_angle_alpha 90.000000
_cell_angle_beta 90.000000
_cell_angle_gamma 90.000000
_cell_volume 972.418671
_symmetry_space_group_name_H-M "P N A 21"
_symmetry_group_IT_number 33
_symmetry_cell_setting 'orthorhombic'
loop_
_space_group_symop_operation_xyz
x,y,z
-x,-y,1/2+z
1/2-x,1/2+y,1/2+z
1/2+x,1/2-y,z
loop_
_atom_site_type_symbol
_atom_site_label
_atom_site_fract_x
_atom_site_fract_y
_atom_site_fract_z
Si Si1 0.232203 0.142878 0.559710
Si Si2 0.007216 0.811892 0.788798
Si Si3 0.809468 0.539997 0.737323
Si Si4 0.615199 0.321451 0.885306
Si Si5 0.391786 0.428816 0.523046
Si Si6 0.220923 0.967407 0.348762
O O1 0.258903 0.318539 0.565141
O O2 0.051754 0.100440 0.587252
O O3 0.348204 0.051043 0.633957
O O4 0.255962 0.077982 0.444444
O O5 0.947376 0.644264 0.780446
O O6 0.158943 0.850029 0.719800
O O7 0.062153 0.856195 0.907569
O O8 0.858184 0.921941 0.764425
O O9 0.733766 0.417294 0.813387
O O10 0.646700 0.399234 0.999046
O O11 0.640570 0.152482 0.850868
O O12 0.431403 0.362146 0.871502
#
# Coordination Sequence:
#
# PCOD9345199 Si02
#       6
#     4   4   4   4   4   4
#     4  10  21  36  55  82 109 139 182 229 271 316
#     4   9  19  38  57  76 109 147 181 219 270 332
#     4  10  21  36  55  82 109 139 182 229 271 316
#     4   9  19  34  54  78 106 140 178 216 261 326
#     4   9  19  38  57  76 109 147 181 219 270 332
#     4   9  19  34  54  78 106 140 178 216 261 326
#
# _framework density 24.680728999999999
#
# number of rings (size 3 to 8) (size 9 to 14) (size 15 to 20)
#    0.000    3.333    0.000    4.000    0.000    9.333 
#    0.000    1.667    0.000    0.000    0.000    0.000 
#    0.000    0.000    0.000    0.000    0.000    0.000 
#
# Total GULP energy -133702.245333 kJ/mol
# GULP energy per Si atom -5570.926889 kJ/mol
# Density = 2.462455 g / cm^3
# Si number density = 24.680729 Si / 1000 Ang^3
#
#
#
# Elastic Constant Matrix: (Units=GPa)
#
#
# Indices 1 2 3 4 5 6 
#
# 1 33.2229 23.6981 8.0035 0.0000 0.0000 0.0000
# 2 23.6981 110.6222 -2.2447 0.0000 0.0000 0.0000
# 3 8.0035 -2.2447 19.5960 0.0000 0.0000 0.0000
# 4 0.0000 0.0000 0.0000 16.9963 0.0000 0.0000
# 5 0.0000 0.0000 0.0000 0.0000 10.0541 0.0000
# 6 0.0000 0.0000 0.0000 0.0000 0.0000 41.4576
#
#
#
# Elastic Compliance Matrix: (Units=1/GPa)
#
#
# Indices 1 2 3 4 5 6 
#
# 1 0.040876 -0.009117 -0.017739 0.000000 0.000000 0.000000
# 2 -0.009117 0.011094 0.004994 0.000000 0.000000 0.000000
# 3 -0.017739 0.004994 0.058848 0.000000 0.000000 0.000000
# 4 0.000000 0.000000 0.000000 0.058836 0.000000 0.000000
# 5 0.000000 0.000000 0.000000 0.000000 0.099462 0.000000
# 6 0.000000 0.000000 0.000000 0.000000 0.000000 0.024121
#
#
# Mechanical properties :
#
#
# Convention : Reuss Voigt Hill
#
# Bulk Modulus (GPa) = 14.90417 24.70608 19.80513
# Shear Modulus (GPa) = 13.91496 22.63389 18.27443
#
# Velocity S-wave (km/s) = 2.37702 3.03160 2.72404
# Velocity P-wave (km/s) = 3.68586 4.72082 4.23507
#
# Compressibility (1/GPa) = 0.06709533
#
# Stress axis : x y z
#
# Youngs Moduli (GPa) = 24.46415 90.13765 16.99291
#
# Poissons Ratio (x) = 0.82175 0.30144
# Poissons Ratio (y) = 0.22303 -0.08487
# Poissons Ratio (z) = 0.43397 -0.45017
#
# Static dielectric constant tensor:
#      x y z
#    x 2.034470 0.000000 0.000000 
#    y 0.000000 2.009940 0.000000 
#    z 0.000000 0.000000 2.119840 
# 
# From -- ./inp_files/8433.got.cif
#   From: 2010.05.17/outbox.cif.g08.bks.cpg/sg33_5_cif.got.tgz:8433.got - 2010.06.03 17:15:25.
