data_PCOD9345085
_publ_section_title
;
Structure prediction by ZEFSAII (Michael W. Deem and Ramdas Pophale) SiO2 
 PCOD9345085
Probable space group: P N A 21
;
_chemical_formula_sum "Si O2"
_cell_formula_units_Z 32
_cell_length_a 8.470342
_cell_length_b 11.743376
_cell_length_c 14.610305
_cell_angle_alpha 90.000000
_cell_angle_beta 90.000000
_cell_angle_gamma 90.000000
_cell_volume 1453.293043
_symmetry_space_group_name_H-M "P N A 21"
_symmetry_group_IT_number 33
_symmetry_cell_setting 'orthorhombic'
loop_
_space_group_symop_operation_xyz
x,y,z
-x,-y,1/2+z
1/2-x,1/2+y,1/2+z
1/2+x,1/2-y,z
loop_
_atom_site_type_symbol
_atom_site_label
_atom_site_fract_x
_atom_site_fract_y
_atom_site_fract_z
Si Si1 0.499526 0.447686 0.553200
Si Si2 0.057568 0.506679 0.360970
Si Si3 0.281254 0.300105 0.425588
Si Si4 0.228044 0.513617 0.169615
Si Si5 0.313540 0.672570 0.605250
Si Si6 0.026242 0.851659 0.756153
Si Si7 0.486492 0.873334 0.541034
Si Si8 0.304274 0.547947 0.891139
O O1 0.386744 0.352196 0.507663
O O2 0.631686 0.408100 0.627232
O O3 0.385483 0.547167 0.590013
O O4 0.603403 0.511545 0.474106
O O5 0.152526 0.395051 0.396655
O O6 0.135565 0.542236 0.263789
O O7 0.067881 0.594357 0.445549
O O8 0.868183 0.488083 0.358215
O O9 0.394843 0.285089 0.338135
O O10 0.211451 0.175019 0.435226
O O11 0.335674 0.404024 0.195257
O O12 0.105657 0.477357 0.090038
O O13 0.393288 0.712193 0.699669
O O14 0.370464 0.766142 0.532767
O O15 0.128425 0.662110 0.607332
O O16 0.926844 0.950030 0.807840
#
# Coordination Sequence:
#
# PCOD9345085 Si02
#       8
#     4   4   4   4   4   4   4   4
#     4  10  20  41  60  86 129 171 205 262 324 384
#     4  11  22  39  63  95 128 163 213 260 319 387
#     4  10  21  37  60  94 127 161 205 262 328 385
#     4  10  22  40  62  92 131 166 210 258 323 384
#     4  11  23  38  61  89 124 163 209 256 329 379
#     4   9  21  35  60  94 126 157 191 268 326 387
#     4  12  24  40  66  92 126 165 213 267 316 391
#     4  11  21  36  64  94 129 160 206 263 335 381
#
# _framework density 22.018958999999999
#
# number of rings (size 3 to 8) (size 9 to 14) (size 15 to 20)
#    0.000    1.500    2.500    3.750    7.000    0.000 
#    0.000    0.000    2.750    0.000    0.000    0.000 
#    0.000    0.000    0.000    0.000    0.000    0.000 
#
# Total GULP energy -178454.931659 kJ/mol
# GULP energy per Si atom -5576.716614 kJ/mol
# Density = 2.196884 g / cm^3
# Si number density = 22.018959 Si / 1000 Ang^3
#
#
#
# Elastic Constant Matrix: (Units=GPa)
#
#
# Indices 1 2 3 4 5 6 
#
# 1 102.6696 -8.3535 13.7425 0.0000 0.0000 0.0000
# 2 -8.3535 20.8635 2.0333 0.0000 0.0000 0.0000
# 3 13.7425 2.0333 76.3497 0.0000 0.0000 0.0000
# 4 0.0000 0.0000 0.0000 15.2831 0.0000 0.0000
# 5 0.0000 0.0000 0.0000 0.0000 44.4668 0.0000
# 6 0.0000 0.0000 0.0000 0.0000 0.0000 16.5781
#
#
#
# Elastic Compliance Matrix: (Units=1/GPa)
#
#
# Indices 1 2 3 4 5 6 
#
# 1 0.010358 0.004340 -0.001980 0.000000 0.000000 0.000000
# 2 0.004340 0.049874 -0.002109 0.000000 0.000000 0.000000
# 3 -0.001980 -0.002109 0.013510 0.000000 0.000000 0.000000
# 4 0.000000 0.000000 0.000000 0.065432 0.000000 0.000000
# 5 0.000000 0.000000 0.000000 0.000000 0.022489 0.000000
# 6 0.000000 0.000000 0.000000 0.000000 0.000000 0.060320
#
#
# Mechanical properties :
#
#
# Convention : Reuss Voigt Hill
#
# Bulk Modulus (GPa) = 13.46910 23.85859 18.66385
# Shear Modulus (GPa) = 20.30625 28.09631 24.20128
#
# Velocity S-wave (km/s) = 3.04010 3.57600 3.31888
# Velocity P-wave (km/s) = 4.29572 5.28293 4.81470
#
# Compressibility (1/GPa) = 0.07424399
#
# Stress axis : x y z
#
# Youngs Moduli (GPa) = 96.54239 20.05053 74.01823
#
# Poissons Ratio (x) = -0.08702 0.14656
# Poissons Ratio (y) = -0.41902 0.15614
# Poissons Ratio (z) = 0.19115 0.04230
#
# Static dielectric constant tensor:
#      x y z
#    x 1.825690 0.000000 0.000000 
#    y 0.000000 1.794740 0.000000 
#    z 0.000000 0.000000 1.887190 
# 
# From -- ./inp_files/7656.got.cif
#   From: 2010.05.17/outbox.cif.g08.bks.cpg/sg33_4_cif.got.tgz:7656.got - 2010.06.03 17:15:25.
