data_PCOD9345712
_publ_section_title
;
Structure prediction by ZEFSAII (Michael W. Deem and Ramdas Pophale) SiO2 
 PCOD9345712
Probable space group: P N A 21
;
_chemical_formula_sum "Si O2"
_cell_formula_units_Z 28
_cell_length_a 18.544458
_cell_length_b 8.589909
_cell_length_c 7.414065
_cell_angle_alpha 90.000000
_cell_angle_beta 90.000000
_cell_angle_gamma 90.000000
_cell_volume 1181.025016
_symmetry_space_group_name_H-M "P N A 21"
_symmetry_group_IT_number 33
_symmetry_cell_setting 'orthorhombic'
loop_
_space_group_symop_operation_xyz
x,y,z
-x,-y,1/2+z
1/2-x,1/2+y,1/2+z
1/2+x,1/2-y,z
loop_
_atom_site_type_symbol
_atom_site_label
_atom_site_fract_x
_atom_site_fract_y
_atom_site_fract_z
Si Si1 0.090239 0.466337 0.052120
Si Si2 0.462674 0.495497 0.703068
Si Si3 0.760972 0.669841 0.696905
Si Si4 0.744926 0.426891 0.945420
Si Si5 0.523986 0.819952 0.779994
Si Si6 0.907454 0.844806 0.344702
Si Si7 0.369634 0.286948 0.966421
O O1 0.169748 0.416176 0.114331
O O2 0.073188 0.329168 0.905674
O O3 0.035366 0.445387 0.217934
O O4 0.071659 0.624701 0.948144
O O5 0.479611 0.660761 0.797049
O O6 0.427381 0.543682 0.514846
O O7 0.539909 0.408339 0.691607
O O8 0.411658 0.387984 0.822678
O O9 0.750358 0.608657 0.899633
O O10 0.766346 0.853863 0.646177
O O11 0.690215 0.621587 0.583461
O O12 0.678191 0.358633 0.831547
O O13 0.819533 0.347670 0.883894
O O14 0.576529 0.788317 0.611062
#
# Coordination Sequence:
#
# PCOD9345712 Si02
#       7
#     4   4   4   4   4   4   4
#     4  10  23  43  64  96 137 167 221 270 348 382
#     4  11  21  41  70  98 126 176 225 277 327 404
#     4   9  21  41  64  93 133 175 219 281 336 416
#     4   9  21  40  65  90 138 168 225 276 346 407
#     4  11  24  42  64  98 129 175 217 282 325 407
#     4  10  22  41  67  96 133 168 224 281 328 401
#     4  10  22  40  68  93 130 173 227 267 344 399
#
# _framework density 23.708220000000001
#
# number of rings (size 3 to 8) (size 9 to 14) (size 15 to 20)
#    0.857    1.143    2.857    0.857    2.000    3.429 
#    2.571    0.000    0.000    0.000    0.000    0.000 
#    0.000    0.000    0.000    0.000    0.000    0.000 
#
# Total GULP energy -156179.896709 kJ/mol
# GULP energy per Si atom -5577.853454 kJ/mol
# Density = 2.365426 g / cm^3
# Si number density = 23.708220 Si / 1000 Ang^3
#
#
#
# Elastic Constant Matrix: (Units=GPa)
#
#
# Indices 1 2 3 4 5 6 
#
# 1 144.5634 5.4002 21.8236 0.0000 0.0000 0.0000
# 2 5.4002 55.6806 33.7074 0.0000 0.0000 0.0000
# 3 21.8236 33.7074 58.9896 0.0000 0.0000 0.0000
# 4 0.0000 0.0000 0.0000 58.8897 0.0000 0.0000
# 5 0.0000 0.0000 0.0000 0.0000 -2.6965 0.0000
# 6 0.0000 0.0000 0.0000 0.0000 0.0000 0.0764
#
#
#
# Elastic Compliance Matrix: (Units=1/GPa)
#
#
# Indices 1 2 3 4 5 6 
#
# 1 0.007401 0.001437 -0.003559 0.000000 0.000000 0.000000
# 2 0.001437 0.027737 -0.016381 0.000000 0.000000 0.000000
# 3 -0.003559 -0.016381 0.027629 0.000000 0.000000 0.000000
# 4 0.000000 0.000000 0.000000 0.016981 0.000000 0.000000
# 5 0.000000 0.000000 0.000000 0.000000 -0.370850 0.000000
# 6 0.000000 0.000000 0.000000 0.000000 0.000000 13.089575
#
#
# Mechanical properties :
#
#
# Convention : Reuss Voigt Hill
#
# Bulk Modulus (GPa) = 38.81871 42.34398 40.58135
# Shear Modulus (GPa) = 0.38928 24.47407 12.43168
#
# Velocity S-wave (km/s) = 0.40565 3.21643 2.29238
# Velocity P-wave (km/s) = 4.07780 5.62967 4.91537
#
# Compressibility (1/GPa) = 0.02576077
#
# Stress axis : x y z
#
# Youngs Moduli (GPa) = 135.11708 36.05353 36.19401
#
# Poissons Ratio (x) = -0.05180 0.12882
# Poissons Ratio (y) = -0.19413 0.59288
# Poissons Ratio (z) = 0.48088 0.59058
#
# Static dielectric constant tensor:
#      x y z
#    x 1.919390 0.000000 0.000000 
#    y 0.000000 1.927140 0.000000 
#    z 0.000000 0.000000 1.894930 
# 
# From -- ./inp_files/4931.got.cif
#   From: 2010.05.17/outbox.cif.g08.bks.cpg/sg33_3_cif.got.tgz:4931.got - 2010.06.03 17:15:25.
