data_PCOD9345719
_publ_section_title
;
Structure prediction by ZEFSAII (Michael W. Deem and Ramdas Pophale) SiO2 
 PCOD9345719
Probable space group: P N A 21
;
_chemical_formula_sum "Si O2"
_cell_formula_units_Z 32
_cell_length_a 14.006782
_cell_length_b 5.305832
_cell_length_c 17.033840
_cell_angle_alpha 90.000000
_cell_angle_beta 90.000000
_cell_angle_gamma 90.000000
_cell_volume 1265.914655
_symmetry_space_group_name_H-M "P N A 21"
_symmetry_group_IT_number 33
_symmetry_cell_setting 'orthorhombic'
loop_
_space_group_symop_operation_xyz
x,y,z
-x,-y,1/2+z
1/2-x,1/2+y,1/2+z
1/2+x,1/2-y,z
loop_
_atom_site_type_symbol
_atom_site_label
_atom_site_fract_x
_atom_site_fract_y
_atom_site_fract_z
Si Si1 0.933668 0.312601 0.582430
Si Si2 0.573179 0.681359 0.807162
Si Si3 0.601783 0.657719 0.258980
Si Si4 0.750262 0.608332 0.598136
Si Si5 0.616575 0.976198 0.651476
Si Si6 0.053080 0.503021 0.391276
Si Si7 0.075981 0.022499 0.486481
Si Si8 0.286694 0.653281 0.255287
O O1 0.914099 0.179351 0.666277
O O2 0.845132 0.491867 0.560012
O O3 0.026405 0.489645 0.596200
O O4 0.973974 0.102400 0.523634
O O5 0.475451 0.524048 0.797555
O O6 0.592850 0.777915 0.719366
O O7 0.553076 0.899987 0.869794
O O8 0.662991 0.500681 0.823882
O O9 0.714233 0.621395 0.275743
O O10 0.588993 0.923849 0.304438
O O11 0.714511 0.898169 0.607406
O O12 0.657560 0.500074 0.552775
O O13 0.762233 0.519768 0.688735
O O14 0.629891 0.222720 0.703777
O O15 0.102009 0.265928 0.433276
O O16 0.066168 0.758075 0.440883
#
# Coordination Sequence:
#
# PCOD9345719 Si02
#       8
#     4   4   4   4   4   4   4   4
#     4  11  22  46  78 110 149 207 264 320 394 459
#     4  11  21  42  70 108 153 193 250 316 386 458
#     4  11  23  45  75 110 143 199 261 320 386 456
#     4  10  24  43  68 109 152 196 256 319 386 459
#     4  11  20  40  74 114 152 186 256 330 377 447
#     4  12  26  48  76 102 157 207 254 315 389 464
#     4  12  26  50  71 109 158 207 253 321 392 465
#     4  10  22  40  72 112 144 189 252 329 376 454
#
# _framework density 25.278165999999999
#
# number of rings (size 3 to 8) (size 9 to 14) (size 15 to 20)
#    0.000    1.000    5.000    1.500    1.750    1.000 
#    4.500    1.250    0.000    0.000    0.000    0.000 
#    0.000    0.000    0.000    0.000    0.000    0.000 
#
# Total GULP energy -178565.687310 kJ/mol
# GULP energy per Si atom -5580.177728 kJ/mol
# Density = 2.522063 g / cm^3
# Si number density = 25.278166 Si / 1000 Ang^3
#
#
#
# Elastic Constant Matrix: (Units=GPa)
#
#
# Indices 1 2 3 4 5 6 
#
# 1 114.0536 24.7021 7.7987 0.0000 0.0000 0.0000
# 2 24.7021 106.7102 26.2881 0.0000 0.0000 0.0000
# 3 7.7987 26.2881 69.1020 0.0000 0.0000 0.0000
# 4 0.0000 0.0000 0.0000 44.9905 0.0000 0.0000
# 5 0.0000 0.0000 0.0000 0.0000 13.4755 0.0000
# 6 0.0000 0.0000 0.0000 0.0000 0.0000 29.8675
#
#
#
# Elastic Compliance Matrix: (Units=1/GPa)
#
#
# Indices 1 2 3 4 5 6 
#
# 1 0.009235 -0.002075 -0.000253 0.000000 0.000000 0.000000
# 2 -0.002075 0.010807 -0.003877 0.000000 0.000000 0.000000
# 3 -0.000253 -0.003877 0.015975 0.000000 0.000000 0.000000
# 4 0.000000 0.000000 0.000000 0.022227 0.000000 0.000000
# 5 0.000000 0.000000 0.000000 0.000000 0.074209 0.000000
# 6 0.000000 0.000000 0.000000 0.000000 0.000000 0.033481
#
#
# Mechanical properties :
#
#
# Convention : Reuss Voigt Hill
#
# Bulk Modulus (GPa) = 42.36203 45.27149 43.81676
# Shear Modulus (GPa) = 26.85117 33.07182 29.96150
#
# Velocity S-wave (km/s) = 3.26272 3.62099 3.44651
# Velocity P-wave (km/s) = 5.56673 5.95233 5.76276
#
# Compressibility (1/GPa) = 0.02360604
#
# Stress axis : x y z
#
# Youngs Moduli (GPa) = 108.28848 92.53516 62.59876
#
# Poissons Ratio (x) = 0.19205 0.01581
# Poissons Ratio (y) = 0.22475 0.24269
# Poissons Ratio (z) = 0.02736 0.35875
#
# Static dielectric constant tensor:
#      x y z
#    x 2.131360 0.000000 0.000000 
#    y 0.000000 2.117800 0.000000 
#    z 0.000000 0.000000 2.055670 
# 
# From -- ./inp_files/8760.got.cif
#   From: 2010.05.17/outbox.cif.g08.bks.cpg/sg33_5_cif.got.tgz:8760.got - 2010.06.03 17:15:25.
