data_PCOD9345820
_publ_section_title
;
Structure prediction by ZEFSAII (Michael W. Deem and Ramdas Pophale) SiO2 
 PCOD9345820
Probable space group: P N A 21
;
_chemical_formula_sum "Si O2"
_cell_formula_units_Z 16
_cell_length_a 8.956015
_cell_length_b 13.281322
_cell_length_c 5.003886
_cell_angle_alpha 90.000000
_cell_angle_beta 90.000000
_cell_angle_gamma 90.000000
_cell_volume 595.200826
_symmetry_space_group_name_H-M "P N A 21"
_symmetry_group_IT_number 33
_symmetry_cell_setting 'orthorhombic'
loop_
_space_group_symop_operation_xyz
x,y,z
-x,-y,1/2+z
1/2-x,1/2+y,1/2+z
1/2+x,1/2-y,z
loop_
_atom_site_type_symbol
_atom_site_label
_atom_site_fract_x
_atom_site_fract_y
_atom_site_fract_z
Si Si1 0.753580 0.376714 0.107680
Si Si2 0.434202 0.798383 0.445383
Si Si3 0.974580 0.927284 0.001456
Si Si4 0.288524 0.891897 0.952144
O O1 0.684969 0.384679 0.406936
O O2 0.622139 0.316091 0.957376
O O3 0.792643 0.488683 0.009794
O O4 0.900798 0.312834 0.056016
O O5 0.331367 0.861525 0.653596
O O6 0.405701 0.842030 0.153747
O O7 0.120230 0.856841 0.028986
O O8 0.021458 0.993761 0.740223
#
# Coordination Sequence:
#
# PCOD9345820 Si02
#       4
#     4   4   4   4
#     4  11  26  47  71 104 145 183 239 296 354 429
#     4  12  27  44  71 104 138 190 237 293 361 425
#     4  10  22  42  73 102 136 184 230 289 358 419
#     4  11  25  47  71 102 141 185 236 294 357 421
#
# _framework density 26.881679999999999
#
# number of rings (size 3 to 8) (size 9 to 14) (size 15 to 20)
#    0.000    1.000    0.000    6.000    0.000   18.000 
#    0.000    0.000    0.000    0.000    0.000    0.000 
#    0.000    0.000    0.000    0.000    0.000    0.000 
#
# Total GULP energy -89727.005036 kJ/mol
# GULP energy per Si atom -5607.937815 kJ/mol
# Density = 2.682050 g / cm^3
# Si number density = 26.881680 Si / 1000 Ang^3
#
#
#
# Elastic Constant Matrix: (Units=GPa)
#
#
# Indices 1 2 3 4 5 6 
#
# 1 149.5800 27.9685 -9.5439 0.0000 0.0000 0.0000
# 2 27.9685 164.9368 15.4799 0.0000 0.0000 0.0000
# 3 -9.5439 15.4799 106.2041 0.0000 0.0000 0.0000
# 4 0.0000 0.0000 0.0000 40.7392 0.0000 0.0000
# 5 0.0000 0.0000 0.0000 0.0000 46.2754 0.0000
# 6 0.0000 0.0000 0.0000 0.0000 0.0000 47.6698
#
#
#
# Elastic Compliance Matrix: (Units=1/GPa)
#
#
# Indices 1 2 3 4 5 6 
#
# 1 0.006972 -0.001258 0.000810 0.000000 0.000000 0.000000
# 2 -0.001258 0.006374 -0.001042 0.000000 0.000000 0.000000
# 3 0.000810 -0.001042 0.009641 0.000000 0.000000 0.000000
# 4 0.000000 0.000000 0.000000 0.024546 0.000000 0.000000
# 5 0.000000 0.000000 0.000000 0.000000 0.021610 0.000000
# 6 0.000000 0.000000 0.000000 0.000000 0.000000 0.020978
#
#
# Mechanical properties :
#
#
# Convention : Reuss Voigt Hill
#
# Bulk Modulus (GPa) = 49.98505 54.28108 52.13306
# Shear Modulus (GPa) = 50.11504 52.72463 51.41983
#
# Velocity S-wave (km/s) = 4.32242 4.43353 4.37833
# Velocity P-wave (km/s) = 6.59893 6.81503 6.70785
#
# Compressibility (1/GPa) = 0.02000598
#
# Stress axis : x y z
#
# Youngs Moduli (GPa) = 143.42369 156.88456 103.72884
#
# Poissons Ratio (x) = 0.19741 -0.08402
# Poissons Ratio (y) = 0.18047 0.10810
# Poissons Ratio (z) = -0.11617 0.16350
#
# Static dielectric constant tensor:
#      x y z
#    x 2.192830 0.000000 0.000000 
#    y 0.000000 2.100760 0.000000 
#    z 0.000000 0.000000 2.152170 
# 
# From -- ./inp_files/284.got.cif
#   From: 2010.05.17/outbox.cif.g08.bks.cpg/sg33_1_cif.got.tgz:284.got - 2010.06.03 17:15:25.
