data_PCOD9345404
_publ_section_title
;
Structure prediction by ZEFSAII (Michael W. Deem and Ramdas Pophale) SiO2 
 PCOD9345404
Probable space group: P N A 21
;
_chemical_formula_sum "Si O2"
_cell_formula_units_Z 32
_cell_length_a 15.736970
_cell_length_b 8.626982
_cell_length_c 10.119242
_cell_angle_alpha 90.000000
_cell_angle_beta 90.000000
_cell_angle_gamma 90.000000
_cell_volume 1373.814168
_symmetry_space_group_name_H-M "P N A 21"
_symmetry_group_IT_number 33
_symmetry_cell_setting 'orthorhombic'
loop_
_space_group_symop_operation_xyz
x,y,z
-x,-y,1/2+z
1/2-x,1/2+y,1/2+z
1/2+x,1/2-y,z
loop_
_atom_site_type_symbol
_atom_site_label
_atom_site_fract_x
_atom_site_fract_y
_atom_site_fract_z
Si Si1 0.092610 0.419694 0.312850
Si Si2 0.751754 0.612574 0.382283
Si Si3 0.587709 0.408801 0.452373
Si Si4 0.499869 0.472956 0.192854
Si Si5 0.711943 0.924652 0.495590
Si Si6 0.554738 0.880358 0.650226
Si Si7 0.835233 0.143501 0.606261
Si Si8 0.399262 0.018847 0.531991
O O1 0.104394 0.261892 0.394208
O O2 0.142160 0.556488 0.381964
O O3 0.129975 0.420286 0.163402
O O4 0.992559 0.437485 0.281910
O O5 0.672125 0.511106 0.435024
O O6 0.759682 0.768541 0.466345
O O7 0.725489 0.659154 0.234024
O O8 0.838540 0.524497 0.412173
O O9 0.513298 0.475456 0.352469
O O10 0.558934 0.413013 0.605359
O O11 0.467300 0.302637 0.150627
O O12 0.594182 0.515480 0.143185
O O13 0.653015 0.909117 0.625060
O O14 0.774376 0.069774 0.496624
O O15 0.498461 0.972065 0.540700
O O16 0.881823 0.301090 0.565652
#
# Coordination Sequence:
#
# PCOD9345404 Si02
#       8
#     4   4   4   4   4   4   4   4
#     4   9  22  41  64  92 133 168 211 275 318 401
#     4  11  22  42  68  92 132 174 216 272 330 399
#     4  10  21  40  66  96 133 171 222 268 342 390
#     4  10  21  43  63  99 132 172 219 277 327 404
#     4  12  22  42  70  95 132 170 221 273 330 397
#     4   9  21  41  64  92 128 172 210 266 336 382
#     4  11  25  42  65 100 128 176 225 273 332 401
#     4  10  22  45  64  92 136 169 216 274 329 382
#
# _framework density 23.292814
#
# number of rings (size 3 to 8) (size 9 to 14) (size 15 to 20)
#    0.750    1.000    2.500    1.500    3.500    1.000 
#    4.500    1.250    0.000    0.000    0.000    0.000 
#    0.000    0.000    0.000    0.000    0.000    0.000 
#
# Total GULP energy -178435.942123 kJ/mol
# GULP energy per Si atom -5576.123191 kJ/mol
# Density = 2.323980 g / cm^3
# Si number density = 23.292814 Si / 1000 Ang^3
#
#
#
# Elastic Constant Matrix: (Units=GPa)
#
#
# Indices 1 2 3 4 5 6 
#
# 1 44.0134 15.0258 -4.6237 0.0000 0.0000 0.0000
# 2 15.0258 54.0096 10.3556 0.0000 0.0000 0.0000
# 3 -4.6237 10.3556 32.3558 0.0000 0.0000 0.0000
# 4 0.0000 0.0000 0.0000 32.3148 0.0000 0.0000
# 5 0.0000 0.0000 0.0000 0.0000 34.0054 0.0000
# 6 0.0000 0.0000 0.0000 0.0000 0.0000 28.9585
#
#
#
# Elastic Compliance Matrix: (Units=1/GPa)
#
#
# Indices 1 2 3 4 5 6 
#
# 1 0.026331 -0.008573 0.006506 0.000000 0.000000 0.000000
# 2 -0.008573 0.022517 -0.008432 0.000000 0.000000 0.000000
# 3 0.006506 -0.008432 0.034535 0.000000 0.000000 0.000000
# 4 0.000000 0.000000 0.000000 0.030946 0.000000 0.000000
# 5 0.000000 0.000000 0.000000 0.000000 0.029407 0.000000
# 6 0.000000 0.000000 0.000000 0.000000 0.000000 0.034532
#
#
# Mechanical properties :
#
#
# Convention : Reuss Voigt Hill
#
# Bulk Modulus (GPa) = 16.02924 19.09937 17.56431
# Shear Modulus (GPa) = 22.72121 26.36381 24.54251
#
# Velocity S-wave (km/s) = 3.12662 3.36794 3.24952
# Velocity P-wave (km/s) = 4.46441 4.83130 4.65147
#
# Compressibility (1/GPa) = 0.06238599
#
# Stress axis : x y z
#
# Youngs Moduli (GPa) = 37.97867 44.41100 28.95636
#
# Poissons Ratio (x) = 0.38073 -0.18840
# Poissons Ratio (y) = 0.32559 0.24415
# Poissons Ratio (z) = -0.24711 0.37446
#
# Static dielectric constant tensor:
#      x y z
#    x 1.852360 0.000000 0.000000 
#    y 0.000000 1.828500 0.000000 
#    z 0.000000 0.000000 1.990500 
# 
# From -- ./inp_files/6796.got.cif
#   From: 2010.05.17/outbox.cif.g08.bks.cpg/sg33_4_cif.got.tgz:6796.got - 2010.06.03 17:15:25.
