data_PCOD9345371
_publ_section_title
;
Structure prediction by ZEFSAII (Michael W. Deem and Ramdas Pophale) SiO2 
 PCOD9345371
Probable space group: P N A 21
;
_chemical_formula_sum "Si O2"
_cell_formula_units_Z 32
_cell_length_a 16.408444
_cell_length_b 17.103940
_cell_length_c 5.281282
_cell_angle_alpha 90.000000
_cell_angle_beta 90.000000
_cell_angle_gamma 90.000000
_cell_volume 1482.186732
_symmetry_space_group_name_H-M "P N A 21"
_symmetry_group_IT_number 33
_symmetry_cell_setting 'orthorhombic'
loop_
_space_group_symop_operation_xyz
x,y,z
-x,-y,1/2+z
1/2-x,1/2+y,1/2+z
1/2+x,1/2-y,z
loop_
_atom_site_type_symbol
_atom_site_label
_atom_site_fract_x
_atom_site_fract_y
_atom_site_fract_z
Si Si1 0.728862 0.460584 0.831540
Si Si2 0.490427 0.373730 0.207869
Si Si3 0.667628 0.610585 0.021436
Si Si4 0.807862 0.723422 0.080235
Si Si5 0.088626 0.006312 0.431045
Si Si6 0.925570 0.575910 0.116315
Si Si7 0.101949 0.527493 0.119880
Si Si8 0.349635 0.683386 0.572046
O O1 0.661633 0.477722 0.621521
O O2 0.812047 0.434068 0.698125
O O3 0.737192 0.549632 0.930439
O O4 0.689754 0.404143 0.046312
O O5 0.400937 0.360651 0.319470
O O6 0.551831 0.406659 0.416698
O O7 0.550762 0.314662 0.070170
O O8 0.482901 0.453739 0.049865
O O9 0.719058 0.684103 0.109215
O O10 0.621446 0.555309 0.221817
O O11 0.876327 0.656240 0.113457
O O12 0.819670 0.781003 0.311333
O O13 0.818451 0.767761 0.812678
O O14 0.897485 0.519345 0.351342
O O15 0.023912 0.584459 0.133248
O O16 0.913954 0.533511 0.847057
#
# Coordination Sequence:
#
# PCOD9345371 Si02
#       8
#     4   4   4   4   4   4   4   4
#     4  11  23  41  69 103 134 180 232 304 340 417
#     4  11  22  41  67 104 135 177 224 299 352 424
#     4  11  24  41  76  99 138 182 247 285 350 432
#     4  12  27  47  65  99 142 196 223 283 362 431
#     4  11  20  38  75 107 130 171 235 296 356 402
#     4  10  21  42  68  96 130 177 233 294 342 403
#     4  10  21  39  72 100 125 168 244 299 334 391
#     4  12  28  45  66  96 150 183 226 284 372 424
#
# _framework density 21.589721999999998
#
# number of rings (size 3 to 8) (size 9 to 14) (size 15 to 20)
#    0.000    1.000    3.750    3.000    5.250    0.000 
#    4.500    0.000    0.000    0.000    0.000    0.000 
#    0.000    0.000    0.000    0.000    0.000    0.000 
#
# Total GULP energy -178274.727837 kJ/mol
# GULP energy per Si atom -5571.085245 kJ/mol
# Density = 2.154058 g / cm^3
# Si number density = 21.589722 Si / 1000 Ang^3
#
#
#
# Elastic Constant Matrix: (Units=GPa)
#
#
# Indices 1 2 3 4 5 6 
#
# 1 105.7649 29.4165 0.8237 0.0000 0.0000 0.0000
# 2 29.4165 40.7586 8.2008 0.0000 0.0000 0.0000
# 3 0.8237 8.2008 68.6954 0.0000 0.0000 0.0000
# 4 0.0000 0.0000 0.0000 27.4967 0.0000 0.0000
# 5 0.0000 0.0000 0.0000 0.0000 24.1811 0.0000
# 6 0.0000 0.0000 0.0000 0.0000 0.0000 26.0452
#
#
#
# Elastic Compliance Matrix: (Units=1/GPa)
#
#
# Indices 1 2 3 4 5 6 
#
# 1 0.011884 -0.008759 0.000903 0.000000 0.000000 0.000000
# 2 -0.008759 0.031594 -0.003667 0.000000 0.000000 0.000000
# 3 0.000903 -0.003667 0.014984 0.000000 0.000000 0.000000
# 4 0.000000 0.000000 0.000000 0.036368 0.000000 0.000000
# 5 0.000000 0.000000 0.000000 0.000000 0.041355 0.000000
# 6 0.000000 0.000000 0.000000 0.000000 0.000000 0.038395
#
#
# Mechanical properties :
#
#
# Convention : Reuss Voigt Hill
#
# Bulk Modulus (GPa) = 28.23482 32.45568 30.34525
# Shear Modulus (GPa) = 23.87444 27.32980 25.60212
#
# Velocity S-wave (km/s) = 3.32900 3.56177 3.44735
# Velocity P-wave (km/s) = 5.28040 5.65513 5.47097
#
# Compressibility (1/GPa) = 0.03541726
#
# Stress axis : x y z
#
# Youngs Moduli (GPa) = 84.14710 31.65183 66.73826
#
# Poissons Ratio (x) = 0.27723 -0.06027
# Poissons Ratio (y) = 0.73701 0.24470
# Poissons Ratio (z) = -0.07599 0.11606
#
# Static dielectric constant tensor:
#      x y z
#    x 1.873910 0.000000 0.000000 
#    y 0.000000 1.862340 0.000000 
#    z 0.000000 0.000000 1.923380 
# 
# From -- ./inp_files/1534.got.cif
#   From: 2010.05.17/outbox.cif.g08.bks.cpg/sg33_1_cif.got.tgz:1534.got - 2010.06.03 17:15:25.
