data_PCOD9345009
_publ_section_title
;
Structure prediction by ZEFSAII (Michael W. Deem and Ramdas Pophale) SiO2 
 PCOD9345009
Probable space group: P N A 21
;
_chemical_formula_sum "Si O2"
_cell_formula_units_Z 32
_cell_length_a 10.644791
_cell_length_b 15.873960
_cell_length_c 8.725157
_cell_angle_alpha 90.000000
_cell_angle_beta 90.000000
_cell_angle_gamma 90.000000
_cell_volume 1474.333287
_symmetry_space_group_name_H-M "P N A 21"
_symmetry_group_IT_number 33
_symmetry_cell_setting 'orthorhombic'
loop_
_space_group_symop_operation_xyz
x,y,z
-x,-y,1/2+z
1/2-x,1/2+y,1/2+z
1/2+x,1/2-y,z
loop_
_atom_site_type_symbol
_atom_site_label
_atom_site_fract_x
_atom_site_fract_y
_atom_site_fract_z
Si Si1 0.392190 0.757924 0.434530
Si Si2 0.724620 0.994382 0.611672
Si Si3 0.474932 0.586018 0.554405
Si Si4 0.316519 0.363736 0.825587
Si Si5 0.386904 0.879488 0.917758
Si Si6 0.602305 0.659396 0.831990
Si Si7 0.996539 0.768294 0.116220
Si Si8 0.568129 0.834685 0.656973
O O1 0.401159 0.675228 0.537524
O O2 0.268050 0.813079 0.446221
O O3 0.400210 0.728973 0.257583
O O4 0.513123 0.811795 0.489434
O O5 0.867434 0.983605 0.552841
O O6 0.674515 0.904819 0.665740
O O7 0.732882 0.067550 0.738436
O O8 0.627805 0.027323 0.484415
O O9 0.571891 0.588583 0.414100
O O10 0.553940 0.590361 0.711259
O O11 0.377353 0.296461 0.707431
O O12 0.241719 0.851849 0.898524
O O13 0.452467 0.871444 0.755075
O O14 0.467053 0.821126 0.035091
O O15 0.605020 0.748007 0.740336
O O16 0.501774 0.669707 0.970177
#
# Coordination Sequence:
#
# PCOD9345009 Si02
#       8
#     4   4   4   4   4   4   4   4
#     4  10  21  44  69  98 126 177 223 264 331 415
#     4  12  26  42  66 104 136 164 224 290 336 386
#     4  10  26  40  70  97 132 173 222 273 342 401
#     4  11  23  44  67  95 134 174 219 278 331 401
#     4  11  23  44  67  95 134 174 219 278 331 401
#     4  10  21  44  69  98 126 177 223 264 331 415
#     4  10  20  38  70  94 126 174 222 264 318 404
#     4  10  26  40  70  97 132 173 222 273 342 401
#
# _framework density 21.704726000000001
#
# number of rings (size 3 to 8) (size 9 to 14) (size 15 to 20)
#    0.000    1.500    2.500    0.750   14.000    0.000 
#    0.000    0.000    0.000    0.000    0.000    0.000 
#    0.000    0.000    0.000    0.000    0.000    0.000 
#
# Total GULP energy -178468.647917 kJ/mol
# GULP energy per Si atom -5577.145247 kJ/mol
# Density = 2.165533 g / cm^3
# Si number density = 21.704726 Si / 1000 Ang^3
#
#
#
# Elastic Constant Matrix: (Units=GPa)
#
#
# Indices 1 2 3 4 5 6 
#
# 1 62.0615 18.3854 22.9354 0.0000 0.0000 0.0000
# 2 18.3854 47.5786 10.2183 0.0000 0.0000 0.0000
# 3 22.9354 10.2183 92.1065 0.0000 0.0000 0.0000
# 4 0.0000 0.0000 0.0000 16.7021 0.0000 0.0000
# 5 0.0000 0.0000 0.0000 0.0000 37.0459 0.0000
# 6 0.0000 0.0000 0.0000 0.0000 0.0000 49.9016
#
#
#
# Elastic Compliance Matrix: (Units=1/GPa)
#
#
# Indices 1 2 3 4 5 6 
#
# 1 0.019628 -0.006695 -0.004145 0.000000 0.000000 0.000000
# 2 -0.006695 0.023814 -0.000975 0.000000 0.000000 0.000000
# 3 -0.004145 -0.000975 0.011997 0.000000 0.000000 0.000000
# 4 0.000000 0.000000 0.000000 0.059873 0.000000 0.000000
# 5 0.000000 0.000000 0.000000 0.000000 0.026994 0.000000
# 6 0.000000 0.000000 0.000000 0.000000 0.000000 0.020039
#
#
# Mechanical properties :
#
#
# Convention : Reuss Voigt Hill
#
# Bulk Modulus (GPa) = 31.43589 33.86943 32.65266
# Shear Modulus (GPa) = 25.43527 30.74374 28.08951
#
# Velocity S-wave (km/s) = 3.42698 3.76766 3.60135
# Velocity P-wave (km/s) = 5.49307 5.87925 5.68944
#
# Compressibility (1/GPa) = 0.03181077
#
# Stress axis : x y z
#
# Youngs Moduli (GPa) = 50.94751 41.99184 83.35223
#
# Poissons Ratio (x) = 0.28111 0.34549
# Poissons Ratio (y) = 0.34107 0.08126
# Poissons Ratio (z) = 0.21117 0.04094
#
# Static dielectric constant tensor:
#      x y z
#    x 1.809400 0.000000 0.000000 
#    y 0.000000 1.785730 0.000000 
#    z 0.000000 0.000000 1.804570 
# 
# From -- ./inp_files/3966.got.cif
#   From: 2010.05.17/outbox.cif.g08.bks.cpg/sg33_2_cif.got.tgz:3966.got - 2010.06.03 17:15:25.
