data_PCOD9345442
_publ_section_title
;
Structure prediction by ZEFSAII (Michael W. Deem and Ramdas Pophale) SiO2 
 PCOD9345442
Probable space group: P N A 21
;
_chemical_formula_sum "Si O2"
_cell_formula_units_Z 32
_cell_length_a 14.105500
_cell_length_b 18.119104
_cell_length_c 6.414167
_cell_angle_alpha 90.000000
_cell_angle_beta 90.000000
_cell_angle_gamma 90.000000
_cell_volume 1639.326525
_symmetry_space_group_name_H-M "P N A 21"
_symmetry_group_IT_number 33
_symmetry_cell_setting 'orthorhombic'
loop_
_space_group_symop_operation_xyz
x,y,z
-x,-y,1/2+z
1/2-x,1/2+y,1/2+z
1/2+x,1/2-y,z
loop_
_atom_site_type_symbol
_atom_site_label
_atom_site_fract_x
_atom_site_fract_y
_atom_site_fract_z
Si Si1 0.179826 0.700355 0.497610
Si Si2 0.690435 0.187582 0.773471
Si Si3 0.056855 0.913154 0.623215
Si Si4 0.258736 0.465199 0.873402
Si Si5 0.884590 0.007792 0.487429
Si Si6 0.776563 0.906532 0.172964
Si Si7 0.318444 0.726183 0.880105
Si Si8 0.474576 0.745936 0.542578
O O1 0.219612 0.773756 0.383638
O O2 0.209597 0.635187 0.339283
O O3 0.238421 0.702380 0.713301
O O4 0.068546 0.704755 0.537989
O O5 0.687495 0.102468 0.839309
O O6 0.703945 0.204952 0.530056
O O7 0.597514 0.229944 0.860092
O O8 0.148154 0.932984 0.488041
O O9 0.089776 0.916990 0.864997
O O10 0.011778 0.837856 0.541605
O O11 0.975826 0.975143 0.601679
O O12 0.298420 0.488019 0.648231
O O13 0.228348 0.534202 0.016589
O O14 0.852648 0.950710 0.309153
O O15 0.826454 0.844456 0.031110
O O16 0.410992 0.747673 0.750397
#
# Coordination Sequence:
#
# PCOD9345442 Si02
#       8
#     4   4   4   4   4   4   4   4
#     4  10  21  41  63  90 123 163 213 259 317 382
#     4  10  23  41  60  92 129 163 211 264 323 386
#     4  11  21  34  57  93 128 157 201 257 325 399
#     4  11  22  38  61  88 125 167 206 261 327 381
#     4  11  22  34  58  93 128 159 198 254 329 397
#     4  10  22  40  62  84 129 169 206 257 321 392
#     4  10  22  38  61  92 127 162 203 267 332 380
#     4  11  23  38  64  92 125 166 218 265 316 395
#
# _framework density 19.520209999999999
#
# number of rings (size 3 to 8) (size 9 to 14) (size 15 to 20)
#    0.000    1.500    2.500    3.750    3.500    4.000 
#    0.000    0.000    5.500    0.000    0.000    0.000 
#    0.000    0.000    0.000    0.000    0.000    0.000 
#
# Total GULP energy -178518.433745 kJ/mol
# GULP energy per Si atom -5578.701055 kJ/mol
# Density = 1.947578 g / cm^3
# Si number density = 19.520210 Si / 1000 Ang^3
#
#
#
# Elastic Constant Matrix: (Units=GPa)
#
#
# Indices 1 2 3 4 5 6 
#
# 1 79.7006 35.0726 43.5042 0.0000 0.0000 0.0000
# 2 35.0726 97.7914 45.2491 0.0000 0.0000 0.0000
# 3 43.5042 45.2491 121.1195 0.0000 0.0000 0.0000
# 4 0.0000 0.0000 0.0000 21.4436 0.0000 0.0000
# 5 0.0000 0.0000 0.0000 0.0000 4.9893 0.0000
# 6 0.0000 0.0000 0.0000 0.0000 0.0000 31.3667
#
#
#
# Elastic Compliance Matrix: (Units=1/GPa)
#
#
# Indices 1 2 3 4 5 6 
#
# 1 0.016752 -0.003898 -0.004561 0.000000 0.000000 0.000000
# 2 -0.003898 0.013270 -0.003558 0.000000 0.000000 0.000000
# 3 -0.004561 -0.003558 0.011224 0.000000 0.000000 0.000000
# 4 0.000000 0.000000 0.000000 0.046634 0.000000 0.000000
# 5 0.000000 0.000000 0.000000 0.000000 0.200429 0.000000
# 6 0.000000 0.000000 0.000000 0.000000 0.000000 0.031881
#
#
# Mechanical properties :
#
#
# Convention : Reuss Voigt Hill
#
# Bulk Modulus (GPa) = 58.09522 60.69591 59.39556
# Shear Modulus (GPa) = 14.28740 23.21230 18.74985
#
# Velocity S-wave (km/s) = 2.70835 3.45213 3.10261
# Velocity P-wave (km/s) = 6.29336 6.85938 6.58246
#
# Compressibility (1/GPa) = 0.01721312
#
# Stress axis : x y z
#
# Youngs Moduli (GPa) = 59.69579 75.35905 89.09846
#
# Poissons Ratio (x) = 0.29372 0.40636
# Poissons Ratio (y) = 0.23267 0.31697
# Poissons Ratio (z) = 0.27226 0.26809
#
# Static dielectric constant tensor:
#      x y z
#    x 1.663880 0.000000 0.000000 
#    y 0.000000 1.735980 0.000000 
#    z 0.000000 0.000000 1.730690 
# 
# From -- ./inp_files/1510.got.cif
#   From: 2010.05.17/outbox.cif.g08.bks.cpg/sg33_1_cif.got.tgz:1510.got - 2010.06.03 17:15:25.
