data_PCOD9345579
_publ_section_title
;
Structure prediction by ZEFSAII (Michael W. Deem and Ramdas Pophale) SiO2 
 PCOD9345579
Probable space group: P N A 21
;
_chemical_formula_sum "Si O2"
_cell_formula_units_Z 32
_cell_length_a 11.914085
_cell_length_b 14.223557
_cell_length_c 7.426715
_cell_angle_alpha 90.000000
_cell_angle_beta 90.000000
_cell_angle_gamma 90.000000
_cell_volume 1258.536078
_symmetry_space_group_name_H-M "P N A 21"
_symmetry_group_IT_number 33
_symmetry_cell_setting 'orthorhombic'
loop_
_space_group_symop_operation_xyz
x,y,z
-x,-y,1/2+z
1/2-x,1/2+y,1/2+z
1/2+x,1/2-y,z
loop_
_atom_site_type_symbol
_atom_site_label
_atom_site_fract_x
_atom_site_fract_y
_atom_site_fract_z
Si Si1 0.487110 0.555636 0.439320
Si Si2 0.391825 0.612731 0.792742
Si Si3 0.835761 0.425587 0.109319
Si Si4 0.100442 0.595408 0.182790
Si Si5 0.567509 0.243047 0.821719
Si Si6 0.729757 0.581511 0.941131
Si Si7 0.732054 0.273921 0.542069
Si Si8 0.068910 0.389619 0.160776
O O1 0.485895 0.598764 0.640252
O O2 0.588975 0.484505 0.402443
O O3 0.480557 0.650529 0.323327
O O4 0.374050 0.490601 0.417259
O O5 0.277542 0.621828 0.677754
O O6 0.378257 0.701368 0.923360
O O7 0.939158 0.384264 0.222775
O O8 0.860989 0.412118 0.894711
O O9 0.800873 0.535822 0.107048
O O10 0.203016 0.630088 0.064877
O O11 0.060199 0.498495 0.095199
O O12 0.007042 0.675009 0.198617
O O13 0.690140 0.249046 0.739680
O O14 0.578197 0.191734 0.014112
O O15 0.822200 0.600152 0.785475
O O16 0.692893 0.687435 0.979459
#
# Coordination Sequence:
#
# PCOD9345579 Si02
#       8
#     4   4   4   4   4   4   4   4
#     4  11  25  48  69 106 147 195 246 305 370 446
#     4  11  25  44  71  98 151 193 240 306 361 439
#     4   9  21  43  69  98 136 184 232 302 361 428
#     4  10  24  43  69 104 140 180 250 297 368 442
#     4  11  24  45  73 104 145 186 248 300 375 442
#     4  10  23  42  67  99 143 182 242 294 359 436
#     4  12  25  40  67 102 139 194 235 305 361 434
#     4  10  21  45  71 103 135 186 231 309 361 435
#
# _framework density 25.426369000000001
#
# number of rings (size 3 to 8) (size 9 to 14) (size 15 to 20)
#    0.000    1.500    0.000    4.500    5.250    6.000 
#    6.750    0.000    0.000    0.000    0.000    0.000 
#    0.000    0.000    0.000    0.000    0.000    0.000 
#
# Total GULP energy -178496.349897 kJ/mol
# GULP energy per Si atom -5578.010934 kJ/mol
# Density = 2.536850 g / cm^3
# Si number density = 25.426369 Si / 1000 Ang^3
#
#
#
# Elastic Constant Matrix: (Units=GPa)
#
#
# Indices 1 2 3 4 5 6 
#
# 1 82.9748 32.3727 20.9320 0.0000 0.0000 0.0000
# 2 32.3727 161.3448 19.3862 0.0000 0.0000 0.0000
# 3 20.9320 19.3862 63.8815 0.0000 0.0000 0.0000
# 4 0.0000 0.0000 0.0000 32.5387 0.0000 0.0000
# 5 0.0000 0.0000 0.0000 0.0000 36.7172 0.0000
# 6 0.0000 0.0000 0.0000 0.0000 0.0000 40.4841
#
#
#
# Elastic Compliance Matrix: (Units=1/GPa)
#
#
# Indices 1 2 3 4 5 6 
#
# 1 0.013935 -0.002332 -0.003858 0.000000 0.000000 0.000000
# 2 -0.002332 0.006823 -0.001306 0.000000 0.000000 0.000000
# 3 -0.003858 -0.001306 0.017315 0.000000 0.000000 0.000000
# 4 0.000000 0.000000 0.000000 0.030733 0.000000 0.000000
# 5 0.000000 0.000000 0.000000 0.000000 0.027235 0.000000
# 6 0.000000 0.000000 0.000000 0.000000 0.000000 0.024701
#
#
# Mechanical properties :
#
#
# Convention : Reuss Voigt Hill
#
# Bulk Modulus (GPa) = 43.33006 50.39813 46.86409
# Shear Modulus (GPa) = 34.86059 37.64868 36.25463
#
# Velocity S-wave (km/s) = 3.70677 3.85215 3.78016
# Velocity P-wave (km/s) = 5.94967 6.29680 6.12570
#
# Compressibility (1/GPa) = 0.02307867
#
# Stress axis : x y z
#
# Youngs Moduli (GPa) = 71.76083 146.56651 57.75455
#
# Poissons Ratio (x) = 0.34185 0.22284
# Poissons Ratio (y) = 0.16738 0.07544
# Poissons Ratio (z) = 0.27688 0.19146
#
# Static dielectric constant tensor:
#      x y z
#    x 2.104220 0.000000 0.000000 
#    y 0.000000 2.074020 0.000000 
#    z 0.000000 0.000000 2.091650 
# 
# From -- ./inp_files/3984.got.cif
#   From: 2010.05.17/outbox.cif.g08.bks.cpg/sg33_2_cif.got.tgz:3984.got - 2010.06.03 17:15:25.
