data_PCOD9345753
_publ_section_title
;
Structure prediction by ZEFSAII (Michael W. Deem and Ramdas Pophale) SiO2 
 PCOD9345753
Probable space group: P N A 21
;
_chemical_formula_sum "Si O2"
_cell_formula_units_Z 24
_cell_length_a 9.090147
_cell_length_b 9.326180
_cell_length_c 13.220016
_cell_angle_alpha 90.000000
_cell_angle_beta 90.000000
_cell_angle_gamma 90.000000
_cell_volume 1120.744666
_symmetry_space_group_name_H-M "P N A 21"
_symmetry_group_IT_number 33
_symmetry_cell_setting 'orthorhombic'
loop_
_space_group_symop_operation_xyz
x,y,z
-x,-y,1/2+z
1/2-x,1/2+y,1/2+z
1/2+x,1/2-y,z
loop_
_atom_site_type_symbol
_atom_site_label
_atom_site_fract_x
_atom_site_fract_y
_atom_site_fract_z
Si Si1 0.094891 0.917029 0.258960
Si Si2 0.060602 0.410802 0.421459
Si Si3 0.418254 0.830866 0.322696
Si Si4 0.623098 0.651376 0.854077
Si Si5 0.507212 0.835703 0.541395
Si Si6 0.222004 0.191027 0.164651
O O1 0.244859 0.857995 0.310874
O O2 0.993227 0.776538 0.242662
O O3 0.164253 0.028581 0.177905
O O4 0.982097 0.024030 0.316500
O O5 0.235783 0.402133 0.415947
O O6 0.005549 0.495386 0.519859
O O7 0.002019 0.516169 0.331331
O O8 0.982887 0.259665 0.412546
O O9 0.453702 0.768822 0.435372
O O10 0.698370 0.743765 0.762975
O O11 0.671303 0.794990 0.569448
O O12 0.414148 0.789572 0.636696
#
# Coordination Sequence:
#
# PCOD9345753 Si02
#       6
#     4   4   4   4   4   4
#     4  12  23  41  71  98 129 178 230 269 330 404
#     4  10  22  41  68  97 130 174 230 269 327 404
#     4  10  23  43  66  97 131 175 227 269 323 409
#     4  12  21  41  73  98 129 178 232 272 317 414
#     4  10  24  40  64  97 131 169 214 277 338 385
#     4  12  21  42  66  99 130 172 217 276 343 388
#
# _framework density 21.414332999999999
#
# number of rings (size 3 to 8) (size 9 to 14) (size 15 to 20)
#    1.000    0.000    5.000    2.000    2.333    0.000 
#    0.000    1.667    0.000    0.000    0.000    0.000 
#    0.000    0.000    0.000    0.000    0.000    0.000 
#
# Total GULP energy -133698.567686 kJ/mol
# GULP energy per Si atom -5570.773654 kJ/mol
# Density = 2.136559 g / cm^3
# Si number density = 21.414333 Si / 1000 Ang^3
#
#
#
# Elastic Constant Matrix: (Units=GPa)
#
#
# Indices 1 2 3 4 5 6 
#
# 1 148.2118 40.9241 14.7644 0.0000 0.0000 0.0000
# 2 40.9241 86.4349 4.3799 0.0000 0.0000 0.0000
# 3 14.7644 4.3799 36.1106 0.0000 0.0000 0.0000
# 4 0.0000 0.0000 0.0000 21.5592 0.0000 0.0000
# 5 0.0000 0.0000 0.0000 0.0000 17.8766 0.0000
# 6 0.0000 0.0000 0.0000 0.0000 0.0000 47.1795
#
#
#
# Elastic Compliance Matrix: (Units=1/GPa)
#
#
# Indices 1 2 3 4 5 6 
#
# 1 0.008042 -0.003663 -0.002844 0.000000 0.000000 0.000000
# 2 -0.003663 0.013310 -0.000117 0.000000 0.000000 0.000000
# 3 -0.002844 -0.000117 0.028870 0.000000 0.000000 0.000000
# 4 0.000000 0.000000 0.000000 0.046384 0.000000 0.000000
# 5 0.000000 0.000000 0.000000 0.000000 0.055939 0.000000
# 6 0.000000 0.000000 0.000000 0.000000 0.000000 0.021196
#
#
# Mechanical properties :
#
#
# Convention : Reuss Voigt Hill
#
# Bulk Modulus (GPa) = 27.04612 43.43269 35.23940
# Shear Modulus (GPa) = 25.08631 31.36900 28.22765
#
# Velocity S-wave (km/s) = 3.42639 3.83150 3.63459
# Velocity P-wave (km/s) = 5.32080 6.31664 5.83998
#
# Compressibility (1/GPa) = 0.03697389
#
# Stress axis : x y z
#
# Youngs Moduli (GPa) = 124.34803 75.13235 34.63860
#
# Poissons Ratio (x) = 0.27525 0.09850
# Poissons Ratio (y) = 0.45555 0.00404
# Poissons Ratio (z) = 0.35361 0.00875
#
# Static dielectric constant tensor:
#      x y z
#    x 1.785600 0.000000 0.000000 
#    y 0.000000 1.793660 0.000000 
#    z 0.000000 0.000000 1.846780 
# 
# From -- ./inp_files/8432.got.cif
#   From: 2010.05.17/outbox.cif.g08.bks.cpg/sg33_5_cif.got.tgz:8432.got - 2010.06.03 17:15:25.
