data_PCOD9345287
_publ_section_title
;
Structure prediction by ZEFSAII (Michael W. Deem and Ramdas Pophale) SiO2 
 PCOD9345287
Probable space group: P N A 21
;
_chemical_formula_sum "Si O2"
_cell_formula_units_Z 24
_cell_length_a 9.849247
_cell_length_b 8.282427
_cell_length_c 14.898426
_cell_angle_alpha 90.000000
_cell_angle_beta 90.000000
_cell_angle_gamma 90.000000
_cell_volume 1215.349072
_symmetry_space_group_name_H-M "P N A 21"
_symmetry_group_IT_number 33
_symmetry_cell_setting 'orthorhombic'
loop_
_space_group_symop_operation_xyz
x,y,z
-x,-y,1/2+z
1/2-x,1/2+y,1/2+z
1/2+x,1/2-y,z
loop_
_atom_site_type_symbol
_atom_site_label
_atom_site_fract_x
_atom_site_fract_y
_atom_site_fract_z
Si Si1 0.215146 0.547133 0.417430
Si Si2 0.492420 0.059805 0.272158
Si Si3 0.778186 0.146015 0.809320
Si Si4 0.996862 0.109053 0.356816
Si Si5 0.862659 0.736262 0.031099
Si Si6 0.882042 0.345006 0.639432
O O1 0.230896 0.738583 0.397679
O O2 0.356387 0.468482 0.387271
O O3 0.177461 0.451184 0.509050
O O4 0.096144 0.495269 0.349665
O O5 0.467114 0.248102 0.286722
O O6 0.357255 0.955116 0.288780
O O7 0.565120 0.014412 0.178818
O O8 0.811813 0.255865 0.723206
O O9 0.903522 0.025526 0.819092
O O10 0.074291 0.186803 0.441743
O O11 0.729767 0.834360 0.061594
O O12 0.981476 0.740743 0.104536
#
# Coordination Sequence:
#
# PCOD9345287 Si02
#       6
#     4   4   4   4   4   4
#     4  10  21  38  64  90 125 165 214 252 313 382
#     4  10  21  38  64  90 124 167 212 255 314 380
#     4  11  23  41  65  94 124 170 218 261 316 388
#     4  11  23  41  65  94 123 169 220 260 317 389
#     4  11  22  41  64  92 132 170 205 265 324 374
#     4  11  22  41  64  92 132 169 207 263 326 373
#
# _framework density 19.747415
#
# number of rings (size 3 to 8) (size 9 to 14) (size 15 to 20)
#    0.000    1.333    3.333    4.000    4.667    0.000 
#    0.000    3.333    0.000    0.000    0.000    0.000 
#    0.000    0.000    0.000    0.000    0.000    0.000 
#
# Total GULP energy -133857.877084 kJ/mol
# GULP energy per Si atom -5577.411545 kJ/mol
# Density = 1.970247 g / cm^3
# Si number density = 19.747415 Si / 1000 Ang^3
#
#
#
# Elastic Constant Matrix: (Units=GPa)
#
#
# Indices 1 2 3 4 5 6 
#
# 1 137.5043 27.1598 11.6483 0.0000 0.0000 0.0000
# 2 27.1598 86.6829 4.0210 0.0000 0.0000 0.0000
# 3 11.6483 4.0210 28.4676 0.0000 0.0000 0.0000
# 4 0.0000 0.0000 0.0000 15.0832 0.0000 0.0000
# 5 0.0000 0.0000 0.0000 0.0000 31.1995 0.0000
# 6 0.0000 0.0000 0.0000 0.0000 0.0000 31.0906
#
#
#
# Elastic Compliance Matrix: (Units=1/GPa)
#
#
# Indices 1 2 3 4 5 6 
#
# 1 0.007989 -0.002367 -0.002934 0.000000 0.000000 0.000000
# 2 -0.002367 0.012314 -0.000771 0.000000 0.000000 0.000000
# 3 -0.002934 -0.000771 0.036437 0.000000 0.000000 0.000000
# 4 0.000000 0.000000 0.000000 0.066299 0.000000 0.000000
# 5 0.000000 0.000000 0.000000 0.000000 0.032052 0.000000
# 6 0.000000 0.000000 0.000000 0.000000 0.000000 0.032164
#
#
# Mechanical properties :
#
#
# Convention : Reuss Voigt Hill
#
# Bulk Modulus (GPa) = 22.42389 37.59032 30.00711
# Shear Modulus (GPa) = 23.33576 29.46306 26.39941
#
# Velocity S-wave (km/s) = 3.44133 3.86683 3.66027
# Velocity P-wave (km/s) = 5.21252 6.24607 5.75255
#
# Compressibility (1/GPa) = 0.04459529
#
# Stress axis : x y z
#
# Youngs Moduli (GPa) = 125.17851 81.21064 27.44441
#
# Poissons Ratio (x) = 0.19222 0.08053
# Poissons Ratio (y) = 0.29628 0.02115
# Poissons Ratio (z) = 0.36733 0.06260
#
# Static dielectric constant tensor:
#      x y z
#    x 1.669670 0.000000 0.000000 
#    y 0.000000 1.729290 0.000000 
#    z 0.000000 0.000000 1.729820 
# 
# From -- ./inp_files/7526.got.cif
#   From: 2010.05.17/outbox.cif.g08.bks.cpg/sg33_4_cif.got.tgz:7526.got - 2010.06.03 17:15:25.
