data_PCOD9345970
_publ_section_title
;
Structure prediction by ZEFSAII (Michael W. Deem and Ramdas Pophale) SiO2 
 PCOD9345970
Probable space group: P N A 21
;
_chemical_formula_sum "Si O2"
_cell_formula_units_Z 16
_cell_length_a 9.239153
_cell_length_b 7.384042
_cell_length_c 8.970721
_cell_angle_alpha 90.000000
_cell_angle_beta 90.000000
_cell_angle_gamma 90.000000
_cell_volume 612.003164
_symmetry_space_group_name_H-M "P N A 21"
_symmetry_group_IT_number 33
_symmetry_cell_setting 'orthorhombic'
loop_
_space_group_symop_operation_xyz
x,y,z
-x,-y,1/2+z
1/2-x,1/2+y,1/2+z
1/2+x,1/2-y,z
loop_
_atom_site_type_symbol
_atom_site_label
_atom_site_fract_x
_atom_site_fract_y
_atom_site_fract_z
Si Si1 0.246834 0.831561 0.764850
Si Si2 0.474262 0.112786 0.445545
Si Si3 0.018265 0.109465 0.695308
Si Si4 0.555737 0.714873 0.499147
O O1 0.411004 0.851001 0.813145
O O2 0.171634 0.706947 0.890388
O O3 0.193186 0.754053 0.606182
O O4 0.169750 0.030427 0.760304
O O5 0.527628 0.213684 0.594499
O O6 0.471160 0.900549 0.474442
O O7 0.974076 0.946642 0.585863
O O8 0.914200 0.138656 0.834702
#
# Coordination Sequence:
#
# PCOD9345970 Si02
#       4
#     4   4   4   4
#     4  10  25  46  70 109 150 193 252 313 376 453
#     4  12  24  48  73 111 147 203 248 316 388 449
#     4  10  22  48  70 107 152 190 252 319 369 459
#     4  10  23  46  75 107 147 198 254 312 383 451
#
# _framework density 26.143657999999999
#
# number of rings (size 3 to 8) (size 9 to 14) (size 15 to 20)
#    1.500    0.000    2.500    1.500    0.000    8.000 
#    9.000    0.000    0.000    0.000    0.000    0.000 
#    0.000    0.000    0.000    0.000    0.000    0.000 
#
# Total GULP energy -89573.188773 kJ/mol
# GULP energy per Si atom -5598.324298 kJ/mol
# Density = 2.608415 g / cm^3
# Si number density = 26.143658 Si / 1000 Ang^3
#
#
#
# Elastic Constant Matrix: (Units=GPa)
#
#
# Indices 1 2 3 4 5 6 
#
# 1 72.9651 11.8973 7.5250 0.0000 0.0000 0.0000
# 2 11.8973 161.9331 50.3350 0.0000 0.0000 0.0000
# 3 7.5250 50.3350 172.2682 0.0000 0.0000 0.0000
# 4 0.0000 0.0000 0.0000 56.3914 0.0000 0.0000
# 5 0.0000 0.0000 0.0000 0.0000 21.5532 0.0000
# 6 0.0000 0.0000 0.0000 0.0000 0.0000 27.0685
#
#
#
# Elastic Compliance Matrix: (Units=1/GPa)
#
#
# Indices 1 2 3 4 5 6 
#
# 1 0.013889 -0.000915 -0.000339 0.000000 0.000000 0.000000
# 2 -0.000915 0.006853 -0.001962 0.000000 0.000000 0.000000
# 3 -0.000339 -0.001962 0.006393 0.000000 0.000000 0.000000
# 4 0.000000 0.000000 0.000000 0.017733 0.000000 0.000000
# 5 0.000000 0.000000 0.000000 0.000000 0.046397 0.000000
# 6 0.000000 0.000000 0.000000 0.000000 0.000000 0.036943
#
#
# Mechanical properties :
#
#
# Convention : Reuss Voigt Hill
#
# Bulk Modulus (GPa) = 48.30501 60.74234 54.52368
# Shear Modulus (GPa) = 35.32517 43.49657 39.41087
#
# Velocity S-wave (km/s) = 3.67985 4.08334 3.88683
# Velocity P-wave (km/s) = 6.04747 6.74656 6.40656
#
# Compressibility (1/GPa) = 0.02070179
#
# Stress axis : x y z
#
# Youngs Moduli (GPa) = 71.99746 145.93076 156.41899
#
# Poissons Ratio (x) = 0.13352 0.05308
# Poissons Ratio (y) = 0.06588 0.30694
# Poissons Ratio (z) = 0.02443 0.28636
#
# Static dielectric constant tensor:
#      x y z
#    x 2.020140 0.000000 0.000000 
#    y 0.000000 2.014850 0.000000 
#    z 0.000000 0.000000 2.074360 
# 
# From -- ./inp_files/6203.got.cif
#   From: 2010.05.17/outbox.cif.g08.bks.cpg/sg33_4_cif.got.tgz:6203.got - 2010.06.03 17:15:25.
