data_PCOD9345080
_publ_section_title
;
Structure prediction by ZEFSAII (Michael W. Deem and Ramdas Pophale) SiO2 
 PCOD9345080
Probable space group: P N A 21
;
_chemical_formula_sum "Si O2"
_cell_formula_units_Z 16
_cell_length_a 5.392906
_cell_length_b 22.305265
_cell_length_c 5.044670
_cell_angle_alpha 90.000000
_cell_angle_beta 90.000000
_cell_angle_gamma 90.000000
_cell_volume 606.824350
_symmetry_space_group_name_H-M "P N A 21"
_symmetry_group_IT_number 33
_symmetry_cell_setting 'orthorhombic'
loop_
_space_group_symop_operation_xyz
x,y,z
-x,-y,1/2+z
1/2-x,1/2+y,1/2+z
1/2+x,1/2-y,z
loop_
_atom_site_type_symbol
_atom_site_label
_atom_site_fract_x
_atom_site_fract_y
_atom_site_fract_z
Si Si1 0.925234 0.239012 0.687740
Si Si2 0.758487 0.943883 0.345712
Si Si3 0.126821 0.346648 0.988609
Si Si4 0.385441 0.425313 0.348668
O O1 0.181282 0.240159 0.534315
O O2 0.956840 0.288835 0.923221
O O3 0.865867 0.176847 0.827737
O O4 0.927855 0.931040 0.600972
O O5 0.513634 0.903456 0.362990
O O6 0.930940 0.929071 0.095277
O O7 0.713303 0.015384 0.348094
O O8 0.215836 0.367745 0.277599
#
# Coordination Sequence:
#
# PCOD9345080 Si02
#       4
#     4   4   4   4
#     4   8  18  36  66  98 138 186 236 294 350 432
#     4  10  23  42  67 102 143 189 242 304 373 444
#     4  10  20  40  70 100 144 188 242 300 366 436
#     4  10  23  42  67 102 143 189 242 304 373 444
#
# _framework density 26.366772999999998
#
# number of rings (size 3 to 8) (size 9 to 14) (size 15 to 20)
#    1.500    1.000    0.000    1.500    0.000    8.000 
#    0.000    2.500    0.000    0.000    0.000    0.000 
#    0.000    0.000    0.000    0.000    0.000    0.000 
#
# Total GULP energy -89417.969679 kJ/mol
# GULP energy per Si atom -5588.623105 kJ/mol
# Density = 2.630676 g / cm^3
# Si number density = 26.366773 Si / 1000 Ang^3
#
#
#
# Elastic Constant Matrix: (Units=GPa)
#
#
# Indices 1 2 3 4 5 6 
#
# 1 111.1433 26.7120 17.5260 0.0000 0.0000 0.0000
# 2 26.7120 128.5176 26.2387 0.0000 0.0000 0.0000
# 3 17.5260 26.2387 140.3248 0.0000 0.0000 0.0000
# 4 0.0000 0.0000 0.0000 21.7563 0.0000 0.0000
# 5 0.0000 0.0000 0.0000 0.0000 15.4439 0.0000
# 6 0.0000 0.0000 0.0000 0.0000 0.0000 63.2203
#
#
#
# Elastic Compliance Matrix: (Units=1/GPa)
#
#
# Indices 1 2 3 4 5 6 
#
# 1 0.009568 -0.001814 -0.000856 0.000000 0.000000 0.000000
# 2 -0.001814 0.008434 -0.001350 0.000000 0.000000 0.000000
# 3 -0.000856 -0.001350 0.007486 0.000000 0.000000 0.000000
# 4 0.000000 0.000000 0.000000 0.045964 0.000000 0.000000
# 5 0.000000 0.000000 0.000000 0.000000 0.064750 0.000000
# 6 0.000000 0.000000 0.000000 0.000000 0.000000 0.015818
#
#
# Mechanical properties :
#
#
# Convention : Reuss Voigt Hill
#
# Bulk Modulus (GPa) = 57.31564 57.88212 57.59888
# Shear Modulus (GPa) = 30.14302 40.71806 35.43054
#
# Velocity S-wave (km/s) = 3.38482 3.93401 3.66971
# Velocity P-wave (km/s) = 6.08778 6.52960 6.31255
#
# Compressibility (1/GPa) = 0.01744725
#
# Stress axis : x y z
#
# Youngs Moduli (GPa) = 104.51149 118.57075 133.58761
#
# Poissons Ratio (x) = 0.21509 0.11433
# Poissons Ratio (y) = 0.18959 0.18040
# Poissons Ratio (z) = 0.08945 0.16012
#
# Static dielectric constant tensor:
#      x y z
#    x 2.134940 0.000000 0.000000 
#    y 0.000000 2.076310 0.000000 
#    z 0.000000 0.000000 2.006600 
# 
# From -- ./inp_files/137.got.cif
#   From: 2010.05.17/outbox.cif.g08.bks.cpg/sg33_1_cif.got.tgz:137.got - 2010.06.03 17:15:25.
