data_PCOD9345643
_publ_section_title
;
Structure prediction by ZEFSAII (Michael W. Deem and Ramdas Pophale) SiO2 
 PCOD9345643
Probable space group: P N A 21
;
_chemical_formula_sum "Si O2"
_cell_formula_units_Z 32
_cell_length_a 15.314958
_cell_length_b 15.909129
_cell_length_c 5.111064
_cell_angle_alpha 90.000000
_cell_angle_beta 90.000000
_cell_angle_gamma 90.000000
_cell_volume 1245.298694
_symmetry_space_group_name_H-M "P N A 21"
_symmetry_group_IT_number 33
_symmetry_cell_setting 'orthorhombic'
loop_
_space_group_symop_operation_xyz
x,y,z
-x,-y,1/2+z
1/2-x,1/2+y,1/2+z
1/2+x,1/2-y,z
loop_
_atom_site_type_symbol
_atom_site_label
_atom_site_fract_x
_atom_site_fract_y
_atom_site_fract_z
Si Si1 0.362994 0.439171 0.337980
Si Si2 0.057497 0.490752 0.591659
Si Si3 0.716688 0.695560 0.540043
Si Si4 0.996278 0.823881 0.007173
Si Si5 0.773636 0.431135 0.913068
Si Si6 0.230042 0.704297 0.031654
Si Si7 0.411661 0.613515 0.500481
Si Si8 0.885680 0.686162 0.860309
O O1 0.337335 0.390383 0.075039
O O2 0.411393 0.370337 0.507717
O O3 0.270600 0.476813 0.431673
O O4 0.418583 0.524293 0.351363
O O5 0.132999 0.559596 0.541670
O O6 0.097078 0.400950 0.504044
O O7 0.020265 0.490790 0.884278
O O8 0.696386 0.744892 0.280795
O O9 0.820214 0.675706 0.608721
O O10 0.688316 0.759631 0.771015
O O11 0.960761 0.824874 0.303202
O O12 0.947474 0.883381 0.791041
O O13 0.978857 0.733984 0.867519
O O14 0.778024 0.392627 0.618325
O O15 0.693395 0.374612 0.025263
O O16 0.327720 0.742879 0.009323
#
# Coordination Sequence:
#
# PCOD9345643 Si02
#       8
#     4   4   4   4   4   4   4   4
#     4  10  23  41  66  98 138 174 219 274 337 416
#     4  12  30  48  69 101 138 185 239 290 336 406
#     4  10  22  42  64  97 128 183 220 269 333 405
#     4  12  23  40  67 105 137 172 220 278 343 405
#     4  10  22  48  68  99 130 183 221 284 345 412
#     4  10  22  38  73  92 128 173 228 274 330 408
#     4  10  23  40  64 102 137 171 214 276 345 408
#     4  10  23  45  67  96 138 179 221 287 341 390
#
# _framework density 25.696645
#
# number of rings (size 3 to 8) (size 9 to 14) (size 15 to 20)
#    1.500    0.000    2.500    1.500    1.750    6.000 
#    0.000    0.000    0.000    0.000    0.000    0.000 
#    0.000    0.000    0.000    0.000    0.000    0.000 
#
# Total GULP energy -178268.364272 kJ/mol
# GULP energy per Si atom -5570.886383 kJ/mol
# Density = 2.563816 g / cm^3
# Si number density = 25.696645 Si / 1000 Ang^3
#
#
#
# Elastic Constant Matrix: (Units=GPa)
#
#
# Indices 1 2 3 4 5 6 
#
# 1 59.5391 27.8927 22.5792 0.0000 0.0000 0.0000
# 2 27.8927 97.3017 10.6948 0.0000 0.0000 0.0000
# 3 22.5792 10.6948 111.7286 0.0000 0.0000 0.0000
# 4 0.0000 0.0000 0.0000 25.7943 0.0000 0.0000
# 5 0.0000 0.0000 0.0000 0.0000 28.2943 0.0000
# 6 0.0000 0.0000 0.0000 0.0000 0.0000 38.1950
#
#
#
# Elastic Compliance Matrix: (Units=1/GPa)
#
#
# Indices 1 2 3 4 5 6 
#
# 1 0.020790 -0.005556 -0.003670 0.000000 0.000000 0.000000
# 2 -0.005556 0.011872 -0.000013 0.000000 0.000000 0.000000
# 3 -0.003670 -0.000013 0.009693 0.000000 0.000000 0.000000
# 4 0.000000 0.000000 0.000000 0.038768 0.000000 0.000000
# 5 0.000000 0.000000 0.000000 0.000000 0.035343 0.000000
# 6 0.000000 0.000000 0.000000 0.000000 0.000000 0.026181
#
#
# Mechanical properties :
#
#
# Convention : Reuss Voigt Hill
#
# Bulk Modulus (GPa) = 41.88306 43.43365 42.65835
# Shear Modulus (GPa) = 29.57082 32.28356 30.92719
#
# Velocity S-wave (km/s) = 3.39597 3.54832 3.47298
# Velocity P-wave (km/s) = 5.63128 5.80746 5.72005
#
# Compressibility (1/GPa) = 0.02387600
#
# Stress axis : x y z
#
# Youngs Moduli (GPa) = 48.09907 84.23445 103.16567
#
# Poissons Ratio (x) = 0.46805 0.37858
# Poissons Ratio (y) = 0.26726 0.00139
# Poissons Ratio (z) = 0.17651 0.00113
#
# Static dielectric constant tensor:
#      x y z
#    x 2.299190 0.000000 0.000000 
#    y 0.000000 2.077610 0.000000 
#    z 0.000000 0.000000 2.025840 
# 
# From -- ./inp_files/1532.got.cif
#   From: 2010.05.17/outbox.cif.g08.bks.cpg/sg33_1_cif.got.tgz:1532.got - 2010.06.03 17:15:25.
