data_PCOD9345039
_publ_section_title
;
Structure prediction by ZEFSAII (Michael W. Deem and Ramdas Pophale) SiO2 
 PCOD9345039
Probable space group: P N A 21
;
_chemical_formula_sum "Si O2"
_cell_formula_units_Z 24
_cell_length_a 10.149016
_cell_length_b 17.302050
_cell_length_c 5.983613
_cell_angle_alpha 90.000000
_cell_angle_beta 90.000000
_cell_angle_gamma 90.000000
_cell_volume 1050.715156
_symmetry_space_group_name_H-M "P N A 21"
_symmetry_group_IT_number 33
_symmetry_cell_setting 'orthorhombic'
loop_
_space_group_symop_operation_xyz
x,y,z
-x,-y,1/2+z
1/2-x,1/2+y,1/2+z
1/2+x,1/2-y,z
loop_
_atom_site_type_symbol
_atom_site_label
_atom_site_fract_x
_atom_site_fract_y
_atom_site_fract_z
Si Si1 0.062270 0.511798 0.271040
Si Si2 0.671209 0.571728 0.854819
Si Si3 0.477658 0.580437 0.208850
Si Si4 0.352505 0.721380 0.975959
Si Si5 0.029190 0.801504 0.591905
Si Si6 0.586789 0.807342 0.212568
O O1 0.181720 0.453135 0.312508
O O2 0.100122 0.601760 0.244834
O O3 0.990396 0.507843 0.517548
O O4 0.583645 0.502666 0.748561
O O5 0.631594 0.652187 0.744933
O O6 0.625371 0.573974 0.112697
O O7 0.398757 0.632901 0.031386
O O8 0.474690 0.632648 0.426975
O O9 0.444344 0.779725 0.119625
O O10 0.201584 0.722690 0.048205
O O11 0.406404 0.732945 0.727600
O O12 0.099271 0.736353 0.447125
#
# Coordination Sequence:
#
# PCOD9345039 Si02
#       6
#     4   4   4   4   4   4
#     4  12  32  51  77 113 162 220 260 332 411 499
#     4  11  22  42  75 108 150 192 270 324 398 468
#     4  10  20  39  70 107 136 188 249 327 384 459
#     4  10  24  44  70 107 145 206 253 326 397 483
#     4  10  24  42  72 111 150 200 259 334 398 478
#     4  11  26  48  74 110 159 202 271 327 412 487
#
# _framework density 22.841584999999998
#
# number of rings (size 3 to 8) (size 9 to 14) (size 15 to 20)
#    0.000    1.333    3.333    0.000    7.000    6.667 
#    0.000    0.000    0.000    0.000    0.000    0.000 
#    0.000    0.000    0.000    0.000    0.000    0.000 
#
# Total GULP energy -134042.064616 kJ/mol
# GULP energy per Si atom -5585.086026 kJ/mol
# Density = 2.278960 g / cm^3
# Si number density = 22.841585 Si / 1000 Ang^3
#
#
#
# Elastic Constant Matrix: (Units=GPa)
#
#
# Indices 1 2 3 4 5 6 
#
# 1 88.6245 30.1082 44.2780 0.0000 0.0000 0.0000
# 2 30.1082 87.4775 28.1541 0.0000 0.0000 0.0000
# 3 44.2780 28.1541 118.8804 0.0000 0.0000 0.0000
# 4 0.0000 0.0000 0.0000 33.5038 0.0000 0.0000
# 5 0.0000 0.0000 0.0000 0.0000 27.3530 0.0000
# 6 0.0000 0.0000 0.0000 0.0000 0.0000 26.1112
#
#
#
# Elastic Compliance Matrix: (Units=1/GPa)
#
#
# Indices 1 2 3 4 5 6 
#
# 1 0.014844 -0.003604 -0.004675 0.000000 0.000000 0.000000
# 2 -0.003604 0.013250 -0.001795 0.000000 0.000000 0.000000
# 3 -0.004675 -0.001795 0.010578 0.000000 0.000000 0.000000
# 4 0.000000 0.000000 0.000000 0.029847 0.000000 0.000000
# 5 0.000000 0.000000 0.000000 0.000000 0.036559 0.000000
# 6 0.000000 0.000000 0.000000 0.000000 0.000000 0.038298
#
#
# Mechanical properties :
#
#
# Convention : Reuss Voigt Hill
#
# Bulk Modulus (GPa) = 53.98917 55.56256 54.77586
# Shear Modulus (GPa) = 29.46376 30.22308 29.84342
#
# Velocity S-wave (km/s) = 3.59544 3.64147 3.61853
# Velocity P-wave (km/s) = 6.39718 6.48525 6.44136
#
# Compressibility (1/GPa) = 0.01852223
#
# Stress axis : x y z
#
# Youngs Moduli (GPa) = 67.36829 75.47215 94.53310
#
# Poissons Ratio (x) = 0.27203 0.44195
# Poissons Ratio (y) = 0.24282 0.16973
# Poissons Ratio (z) = 0.31495 0.13551
#
# Static dielectric constant tensor:
#      x y z
#    x 1.879860 0.000000 0.000000 
#    y 0.000000 1.799110 0.000000 
#    z 0.000000 0.000000 1.929090 
# 
# From -- ./inp_files/398.got.cif
#   From: 2010.05.17/outbox.cif.g08.bks.cpg/sg33_1_cif.got.tgz:398.got - 2010.06.03 17:15:25.
