data_PCOD9345791
_publ_section_title
;
Structure prediction by ZEFSAII (Michael W. Deem and Ramdas Pophale) SiO2 
 PCOD9345791
Probable space group: P N A 21
;
_chemical_formula_sum "Si O2"
_cell_formula_units_Z 32
_cell_length_a 23.607345
_cell_length_b 4.974213
_cell_length_c 11.106382
_cell_angle_alpha 90.000000
_cell_angle_beta 90.000000
_cell_angle_gamma 90.000000
_cell_volume 1304.199808
_symmetry_space_group_name_H-M "P N A 21"
_symmetry_group_IT_number 33
_symmetry_cell_setting 'orthorhombic'
loop_
_space_group_symop_operation_xyz
x,y,z
-x,-y,1/2+z
1/2-x,1/2+y,1/2+z
1/2+x,1/2-y,z
loop_
_atom_site_type_symbol
_atom_site_label
_atom_site_fract_x
_atom_site_fract_y
_atom_site_fract_z
Si Si1 0.749401 0.449053 0.839570
Si Si2 0.033721 0.029857 0.405356
Si Si3 0.906793 0.070761 0.380680
Si Si4 0.157028 0.672668 0.184040
Si Si5 0.184956 0.170818 0.054056
Si Si6 0.324431 0.060560 0.258657
Si Si7 0.919000 0.716939 0.139441
Si Si8 0.964228 0.477597 0.743646
O O1 0.814829 0.423868 0.807595
O O2 0.718274 0.687957 0.766915
O O3 0.714571 0.186739 0.796940
O O4 0.737945 0.449083 0.981619
O O5 0.072006 0.118782 0.516810
O O6 0.045050 0.221382 0.290595
O O7 0.968545 0.097687 0.435598
O O8 0.035220 0.723426 0.359613
O O9 0.873639 0.345200 0.352542
O O10 0.867855 0.898258 0.468156
O O11 0.912239 0.922879 0.251700
O O12 0.187974 0.481107 0.086956
O O13 0.091185 0.613845 0.172349
O O14 0.172194 0.981790 0.167111
O O15 0.363247 0.970560 0.146045
O O16 0.977014 0.555917 0.171924
#
# Coordination Sequence:
#
# PCOD9345791 Si02
#       8
#     4   4   4   4   4   4   4   4
#     4  11  25  44  69  99 129 163 235 282 312 395
#     4  11  25  40  65 103 138 182 209 273 357 381
#     4  10  22  42  67 103 133 168 241 270 308 422
#     4  12  26  48  66  99 136 175 221 272 341 397
#     4  11  23  43  75  93 124 186 222 267 334 388
#     4  11  20  42  68  92 131 166 218 291 308 377
#     4  11  23  41  71  99 137 176 223 276 332 401
#     4  11  26  44  65 100 144 172 219 279 330 411
#
# _framework density 24.536114999999999
#
# number of rings (size 3 to 8) (size 9 to 14) (size 15 to 20)
#    0.000    1.000    3.750    3.750    1.750    3.000 
#    6.750    0.000    0.000    0.000    0.000    0.000 
#    0.000    0.000    0.000    0.000    0.000    0.000 
#
# Total GULP energy -178990.133096 kJ/mol
# GULP energy per Si atom -5593.441659 kJ/mol
# Density = 2.448027 g / cm^3
# Si number density = 24.536115 Si / 1000 Ang^3
#
#
#
# Elastic Constant Matrix: (Units=GPa)
#
#
# Indices 1 2 3 4 5 6 
#
# 1 68.0431 9.6301 -5.1367 0.0000 0.0000 0.0000
# 2 9.6301 109.5084 -7.8066 0.0000 0.0000 0.0000
# 3 -5.1367 -7.8066 30.3829 0.0000 0.0000 0.0000
# 4 0.0000 0.0000 0.0000 25.3590 0.0000 0.0000
# 5 0.0000 0.0000 0.0000 0.0000 35.4779 0.0000
# 6 0.0000 0.0000 0.0000 0.0000 0.0000 21.4238
#
#
#
# Elastic Compliance Matrix: (Units=1/GPa)
#
#
# Indices 1 2 3 4 5 6 
#
# 1 0.015030 -0.001162 0.002243 0.000000 0.000000 0.000000
# 2 -0.001162 0.009392 0.002217 0.000000 0.000000 0.000000
# 3 0.002243 0.002217 0.033862 0.000000 0.000000 0.000000
# 4 0.000000 0.000000 0.000000 0.039434 0.000000 0.000000
# 5 0.000000 0.000000 0.000000 0.000000 0.028187 0.000000
# 6 0.000000 0.000000 0.000000 0.000000 0.000000 0.046677
#
#
# Mechanical properties :
#
#
# Convention : Reuss Voigt Hill
#
# Bulk Modulus (GPa) = 15.41330 22.36754 18.89042
# Shear Modulus (GPa) = 26.65060 30.53531 28.59295
#
# Velocity S-wave (km/s) = 3.29930 3.53158 3.41741
# Velocity P-wave (km/s) = 4.56173 5.07596 4.82570
#
# Compressibility (1/GPa) = 0.06487903
#
# Stress axis : x y z
#
# Youngs Moduli (GPa) = 66.53224 106.47445 29.53169
#
# Poissons Ratio (x) = 0.12371 -0.06623
# Poissons Ratio (y) = 0.07730 -0.06546
# Poissons Ratio (z) = -0.14920 -0.23603
#
# Static dielectric constant tensor:
#      x y z
#    x 1.948210 0.000000 0.000000 
#    y 0.000000 1.933670 0.000000 
#    z 0.000000 0.000000 2.020840 
# 
# From -- ./inp_files/7308.got.cif
#   From: 2010.05.17/outbox.cif.g08.bks.cpg/sg33_4_cif.got.tgz:7308.got - 2010.06.03 17:15:25.
