data_PCOD9345191
_publ_section_title
;
Structure prediction by ZEFSAII (Michael W. Deem and Ramdas Pophale) SiO2 
 PCOD9345191
Probable space group: P N A 21
;
_chemical_formula_sum "Si O2"
_cell_formula_units_Z 28
_cell_length_a 18.882746
_cell_length_b 11.517745
_cell_length_c 4.940591
_cell_angle_alpha 90.000000
_cell_angle_beta 90.000000
_cell_angle_gamma 90.000000
_cell_volume 1074.512602
_symmetry_space_group_name_H-M "P N A 21"
_symmetry_group_IT_number 33
_symmetry_cell_setting 'orthorhombic'
loop_
_space_group_symop_operation_xyz
x,y,z
-x,-y,1/2+z
1/2-x,1/2+y,1/2+z
1/2+x,1/2-y,z
loop_
_atom_site_type_symbol
_atom_site_label
_atom_site_fract_x
_atom_site_fract_y
_atom_site_fract_z
Si Si1 0.287739 0.881585 0.265950
Si Si2 0.194002 0.853544 0.758886
Si Si3 0.996875 0.915957 0.586483
Si Si4 0.977333 0.339806 0.077273
Si Si5 0.157023 0.098299 0.905550
Si Si6 0.063391 0.401699 0.584742
Si Si7 0.259793 0.126586 0.419775
O O1 0.224279 0.835652 0.458164
O O2 0.367344 0.843329 0.211011
O O3 0.296571 0.003744 0.421819
O O4 0.257809 0.892048 0.962934
O O5 0.182438 0.725564 0.873240
O O6 0.145159 0.964551 0.801955
O O7 0.042852 0.796531 0.616837
O O8 0.922139 0.866044 0.475267
O O9 0.019618 0.010918 0.359851
O O10 0.043294 0.365470 0.281098
O O11 0.931091 0.457972 0.115522
O O12 0.999122 0.355456 0.765771
O O13 0.210410 0.147235 0.678672
O O14 0.202704 0.116159 0.177069
#
# Coordination Sequence:
#
# PCOD9345191 Si02
#       7
#     4   4   4   4   4   4   4
#     4  10  21  35  58  90 118 153 206 246 307 379
#     4  10  21  37  58  91 123 159 197 249 312 377
#     4  12  26  44  64  93 125 175 222 255 316 383
#     4  10  23  40  63  91 127 163 213 264 314 370
#     4  10  23  40  60  90 124 158 205 256 300 370
#     4  10  21  40  62  94 122 161 209 266 322 365
#     4  10  21  38  59  89 121 157 198 246 317 366
#
# _framework density 26.058323999999999
#
# number of rings (size 3 to 8) (size 9 to 14) (size 15 to 20)
#    0.000    1.714    0.000    3.429    6.000    1.143 
#    0.000    4.286    0.000    0.000    0.000    0.000 
#    0.000    0.000    0.000    0.000    0.000    0.000 
#
# Total GULP energy -156181.019814 kJ/mol
# GULP energy per Si atom -5577.893565 kJ/mol
# Density = 2.599901 g / cm^3
# Si number density = 26.058324 Si / 1000 Ang^3
#
#
#
# Elastic Constant Matrix: (Units=GPa)
#
#
# Indices 1 2 3 4 5 6 
#
# 1 11.7403 -26.8068 3.2739 0.0000 0.0000 0.0000
# 2 -26.8068 140.3676 2.1672 0.0000 0.0000 0.0000
# 3 3.2739 2.1672 151.4947 0.0000 0.0000 0.0000
# 4 0.0000 0.0000 0.0000 36.4530 0.0000 0.0000
# 5 0.0000 0.0000 0.0000 0.0000 14.9575 0.0000
# 6 0.0000 0.0000 0.0000 0.0000 0.0000 32.9909
#
#
#
# Elastic Compliance Matrix: (Units=1/GPa)
#
#
# Indices 1 2 3 4 5 6 
#
# 1 0.153113 0.029298 -0.003728 0.000000 0.000000 0.000000
# 2 0.029298 0.012732 -0.000815 0.000000 0.000000 0.000000
# 3 -0.003728 -0.000815 0.006693 0.000000 0.000000 0.000000
# 4 0.000000 0.000000 0.000000 0.027433 0.000000 0.000000
# 5 0.000000 0.000000 0.000000 0.000000 0.066856 0.000000
# 6 0.000000 0.000000 0.000000 0.000000 0.000000 0.030311
#
#
# Mechanical properties :
#
#
# Convention : Reuss Voigt Hill
#
# Bulk Modulus (GPa) = 4.50351 28.98570 16.74460
# Shear Modulus (GPa) = 15.54510 38.54483 27.04497
#
# Velocity S-wave (km/s) = 2.44509 3.85018 3.22508
# Velocity P-wave (km/s) = 3.11501 5.55992 4.50644
#
# Compressibility (1/GPa) = 0.22204901
#
# Stress axis : x y z
#
# Youngs Moduli (GPa) = 6.53111 78.54202 149.40722
#
# Poissons Ratio (x) = -2.30116 0.55699
# Poissons Ratio (y) = -0.19135 0.12181
# Poissons Ratio (z) = 0.02435 0.06403
#
# Static dielectric constant tensor:
#      x y z
#    x 2.023610 0.000000 0.000000 
#    y 0.000000 2.410090 0.000000 
#    z 0.000000 0.000000 1.954110 
# 
# From -- ./inp_files/1988.got.cif
#   From: 2010.05.17/outbox.cif.g08.bks.cpg/sg33_1_cif.got.tgz:1988.got - 2010.06.03 17:15:25.
