data_PCOD9345786
_publ_section_title
;
Structure prediction by ZEFSAII (Michael W. Deem and Ramdas Pophale) SiO2 
 PCOD9345786
Probable space group: P N A 21
;
_chemical_formula_sum "Si O2"
_cell_formula_units_Z 32
_cell_length_a 8.735869
_cell_length_b 12.170552
_cell_length_c 15.118497
_cell_angle_alpha 90.000000
_cell_angle_beta 90.000000
_cell_angle_gamma 90.000000
_cell_volume 1607.403861
_symmetry_space_group_name_H-M "P N A 21"
_symmetry_group_IT_number 33
_symmetry_cell_setting 'orthorhombic'
loop_
_space_group_symop_operation_xyz
x,y,z
-x,-y,1/2+z
1/2-x,1/2+y,1/2+z
1/2+x,1/2-y,z
loop_
_atom_site_type_symbol
_atom_site_label
_atom_site_fract_x
_atom_site_fract_y
_atom_site_fract_z
Si Si1 0.808109 0.630607 0.547610
Si Si2 0.770541 0.381539 0.585076
Si Si3 0.717272 0.543006 0.196703
Si Si4 0.878916 0.668131 0.035967
Si Si5 0.894978 0.889315 0.264302
Si Si6 0.593160 0.152856 0.850506
Si Si7 0.835897 0.349633 0.093408
Si Si8 0.204877 0.525039 0.415306
O O1 0.746925 0.507718 0.558164
O O2 0.821510 0.661617 0.444389
O O3 0.706565 0.722456 0.594483
O O4 0.981774 0.632865 0.585381
O O5 0.662883 0.295846 0.533569
O O6 0.945462 0.351058 0.562856
O O7 0.159783 0.404309 0.449757
O O8 0.776098 0.616859 0.114770
O O9 0.539367 0.561293 0.213489
O O10 0.805324 0.585143 0.282497
O O11 0.765755 0.419577 0.172831
O O12 0.765777 0.871253 0.189392
O O13 0.935486 0.772286 0.308520
O O14 0.837542 0.966881 0.343388
O O15 0.438728 0.086727 0.870766
O O16 0.764440 0.404493 0.004339
#
# Coordination Sequence:
#
# PCOD9345786 Si02
#       8
#     4   4   4   4   4   4   4   4
#     4  11  24  44  70  97 134 185 226 283 343 416
#     4  12  24  44  69  98 137 184 230 289 352 406
#     4  11  23  40  64 102 136 169 223 288 344 400
#     4  11  23  45  65  98 137 183 224 285 350 417
#     4  12  24  37  71 108 132 175 234 289 339 420
#     4  11  21  41  68  99 135 174 225 291 340 399
#     4  10  23  43  67  96 136 179 224 276 346 413
#     4  10  22  42  66  96 135 173 226 287 340 401
#
# _framework density 19.907879000000001
#
# number of rings (size 3 to 8) (size 9 to 14) (size 15 to 20)
#    0.000    1.000    6.250    2.250    3.500    0.000 
#    4.500    1.250    0.000    0.000    0.000    0.000 
#    0.000    0.000    0.000    0.000    0.000    0.000 
#
# Total GULP energy -178914.913687 kJ/mol
# GULP energy per Si atom -5591.091053 kJ/mol
# Density = 1.986257 g / cm^3
# Si number density = 19.907879 Si / 1000 Ang^3
#
#
#
# Elastic Constant Matrix: (Units=GPa)
#
#
# Indices 1 2 3 4 5 6 
#
# 1 56.1242 40.2486 39.4226 0.0000 0.0000 0.0000
# 2 40.2486 169.2999 35.8690 0.0000 0.0000 0.0000
# 3 39.4226 35.8690 54.1575 0.0000 0.0000 0.0000
# 4 0.0000 0.0000 0.0000 32.8305 0.0000 0.0000
# 5 0.0000 0.0000 0.0000 0.0000 16.4386 0.0000
# 6 0.0000 0.0000 0.0000 0.0000 0.0000 26.9679
#
#
#
# Elastic Compliance Matrix: (Units=1/GPa)
#
#
# Indices 1 2 3 4 5 6 
#
# 1 0.038382 -0.003729 -0.025470 0.000000 0.000000 0.000000
# 2 -0.003729 0.007233 -0.002076 0.000000 0.000000 0.000000
# 3 -0.025470 -0.002076 0.038380 0.000000 0.000000 0.000000
# 4 0.000000 0.000000 0.000000 0.030459 0.000000 0.000000
# 5 0.000000 0.000000 0.000000 0.000000 0.060832 0.000000
# 6 0.000000 0.000000 0.000000 0.000000 0.000000 0.037081
#
#
# Mechanical properties :
#
#
# Convention : Reuss Voigt Hill
#
# Bulk Modulus (GPa) = 46.62973 56.74022 51.68498
# Shear Modulus (GPa) = 17.72642 26.18351 21.95496
#
# Velocity S-wave (km/s) = 2.98723 3.63055 3.32449
# Velocity P-wave (km/s) = 5.94741 6.79248 6.38394
#
# Compressibility (1/GPa) = 0.02144554
#
# Stress axis : x y z
#
# Youngs Moduli (GPa) = 26.05409 138.25522 26.05540
#
# Poissons Ratio (x) = 0.51549 0.66362
# Poissons Ratio (y) = 0.09714 0.05410
# Poissons Ratio (z) = 0.66359 0.28707
#
# Static dielectric constant tensor:
#      x y z
#    x 1.726060 0.000000 0.000000 
#    y 0.000000 1.717120 0.000000 
#    z 0.000000 0.000000 1.696700 
# 
# From -- ./inp_files/7695.got.cif
#   From: 2010.05.17/outbox.cif.g08.bks.cpg/sg33_4_cif.got.tgz:7695.got - 2010.06.03 17:15:25.
