data_PCOD9345428
_publ_section_title
;
Structure prediction by ZEFSAII (Michael W. Deem and Ramdas Pophale) SiO2 
 PCOD9345428
Probable space group: P N A 21
;
_chemical_formula_sum "Si O2"
_cell_formula_units_Z 20
_cell_length_a 8.838190
_cell_length_b 17.817024
_cell_length_c 5.018940
_cell_angle_alpha 90.000000
_cell_angle_beta 90.000000
_cell_angle_gamma 90.000000
_cell_volume 790.333703
_symmetry_space_group_name_H-M "P N A 21"
_symmetry_group_IT_number 33
_symmetry_cell_setting 'orthorhombic'
loop_
_space_group_symop_operation_xyz
x,y,z
-x,-y,1/2+z
1/2-x,1/2+y,1/2+z
1/2+x,1/2-y,z
loop_
_atom_site_type_symbol
_atom_site_label
_atom_site_fract_x
_atom_site_fract_y
_atom_site_fract_z
Si Si1 0.982600 0.401742 0.575730
Si Si2 0.147779 0.254224 0.715018
Si Si3 0.180640 0.543230 0.585377
Si Si4 0.928197 0.151788 0.926092
Si Si5 0.445089 0.611765 0.914228
O O1 0.030798 0.318016 0.630300
O O2 0.123283 0.458251 0.620264
O O3 0.936144 0.410732 0.270514
O O4 0.851424 0.429971 0.782442
O O5 0.071146 0.208282 0.954431
O O6 0.295614 0.298247 0.804609
O O7 0.148363 0.187903 0.495614
O O8 0.336892 0.560981 0.733317
O O9 0.985985 0.092733 0.704039
O O10 0.908609 0.122879 0.222501
#
# Coordination Sequence:
#
# PCOD9345428 Si02
#       5
#     4   4   4   4   4
#     4  10  22  36  66  84 123 154 214 243 307 375
#     4  10  24  38  60  90 119 156 203 253 299 370
#     4  10  21  41  58  92 114 167 196 258 305 367
#     4  10  24  35  60  86 118 157 198 243 313 351
#     4  10  23  36  60  82 124 152 197 249 306 353
#
# _framework density 25.305768
#
# number of rings (size 3 to 8) (size 9 to 14) (size 15 to 20)
#    1.200    0.800    0.000    2.400    8.400    0.000 
#    0.000    2.000    0.000    0.000    0.000    0.000 
#    0.000    0.000    0.000    0.000    0.000    0.000 
#
# Total GULP energy -111575.031428 kJ/mol
# GULP energy per Si atom -5578.751571 kJ/mol
# Density = 2.524817 g / cm^3
# Si number density = 25.305768 Si / 1000 Ang^3
#
#
#
# Elastic Constant Matrix: (Units=GPa)
#
#
# Indices 1 2 3 4 5 6 
#
# 1 65.1725 13.8836 1.3499 0.0000 0.0000 0.0000
# 2 13.8836 85.7652 -6.3209 0.0000 0.0000 0.0000
# 3 1.3499 -6.3209 107.1227 0.0000 0.0000 0.0000
# 4 0.0000 0.0000 0.0000 11.7136 0.0000 0.0000
# 5 0.0000 0.0000 0.0000 0.0000 9.0958 0.0000
# 6 0.0000 0.0000 0.0000 0.0000 0.0000 31.7065
#
#
#
# Elastic Compliance Matrix: (Units=1/GPa)
#
#
# Indices 1 2 3 4 5 6 
#
# 1 0.015905 -0.002601 -0.000354 0.000000 0.000000 0.000000
# 2 -0.002601 0.012136 0.000749 0.000000 0.000000 0.000000
# 3 -0.000354 0.000749 0.009384 0.000000 0.000000 0.000000
# 4 0.000000 0.000000 0.000000 0.085371 0.000000 0.000000
# 5 0.000000 0.000000 0.000000 0.000000 0.109940 0.000000
# 6 0.000000 0.000000 0.000000 0.000000 0.000000 0.031539
#
#
# Mechanical properties :
#
#
# Convention : Reuss Voigt Hill
#
# Bulk Modulus (GPa) = 30.29085 30.65397 30.47241
# Shear Modulus (GPa) = 17.87684 27.11303 22.49493
#
# Velocity S-wave (km/s) = 2.66076 3.27680 2.98472
# Velocity P-wave (km/s) = 4.62985 5.14357 4.89345
#
# Compressibility (1/GPa) = 0.03301327
#
# Stress axis : x y z
#
# Youngs Moduli (GPa) = 62.87218 82.39986 106.56738
#
# Poissons Ratio (x) = 0.21431 0.03771
# Poissons Ratio (y) = 0.16352 -0.07980
# Poissons Ratio (z) = 0.02225 -0.06171
#
# Static dielectric constant tensor:
#      x y z
#    x 2.109990 0.000000 0.000000 
#    y 0.000000 1.984470 0.000000 
#    z 0.000000 0.000000 1.932170 
# 
# From -- ./inp_files/339.got.cif
#   From: 2010.05.17/outbox.cif.g08.bks.cpg/sg33_1_cif.got.tgz:339.got - 2010.06.03 17:15:25.
