data_PCOD9345383
_publ_section_title
;
Structure prediction by ZEFSAII (Michael W. Deem and Ramdas Pophale) SiO2 
 PCOD9345383
Probable space group: P N A 21
;
_chemical_formula_sum "Si O2"
_cell_formula_units_Z 28
_cell_length_a 10.777797
_cell_length_b 18.139420
_cell_length_c 5.874617
_cell_angle_alpha 90.000000
_cell_angle_beta 90.000000
_cell_angle_gamma 90.000000
_cell_volume 1148.505168
_symmetry_space_group_name_H-M "P N A 21"
_symmetry_group_IT_number 33
_symmetry_cell_setting 'orthorhombic'
loop_
_space_group_symop_operation_xyz
x,y,z
-x,-y,1/2+z
1/2-x,1/2+y,1/2+z
1/2+x,1/2-y,z
loop_
_atom_site_type_symbol
_atom_site_label
_atom_site_fract_x
_atom_site_fract_y
_atom_site_fract_z
Si Si1 0.991394 0.926305 0.982380
Si Si2 0.922201 0.429383 0.018664
Si Si3 0.934636 0.807823 0.602476
Si Si4 0.587947 0.711311 0.211032
Si Si5 0.653023 0.213398 0.479431
Si Si6 0.511780 0.911697 0.016673
Si Si7 0.836537 0.940391 0.356510
O O1 0.979514 0.871857 0.771617
O O2 0.058287 0.002162 0.931666
O O3 0.068608 0.876370 0.161523
O O4 0.854221 0.940163 0.084881
O O5 0.943899 0.388978 0.773512
O O6 0.787865 0.463643 0.976232
O O7 0.014767 0.499363 0.027321
O O8 0.927032 0.391975 0.269234
O O9 0.852730 0.746715 0.726632
O O10 0.854054 0.855465 0.427464
O O11 0.054717 0.776334 0.474100
O O12 0.472660 0.750455 0.082980
O O13 0.720941 0.731894 0.110310
O O14 0.622451 0.127012 0.490404
#
# Coordination Sequence:
#
# PCOD9345383 Si02
#       7
#     4   4   4   4   4   4   4
#     4  10  21  40  62 100 135 180 234 293 368 430
#     4  10  24  43  71 103 137 186 247 301 369 440
#     4  10  24  43  63 102 138 183 245 289 365 444
#     4  10  25  44  66 102 136 189 241 289 365 441
#     4  11  25  45  70  98 145 188 240 297 364 438
#     4  10  24  47  66 103 139 187 243 301 369 440
#     4  11  21  38  70  98 142 181 236 308 364 429
#
# _framework density 24.379512999999999
#
# number of rings (size 3 to 8) (size 9 to 14) (size 15 to 20)
#    0.000    1.714    1.429    0.857    6.000    4.571 
#    7.714    0.000    0.000    0.000    0.000    0.000 
#    0.000    0.000    0.000    0.000    0.000    0.000 
#
# Total GULP energy -156074.770217 kJ/mol
# GULP energy per Si atom -5574.098936 kJ/mol
# Density = 2.432402 g / cm^3
# Si number density = 24.379513 Si / 1000 Ang^3
#
#
#
# Elastic Constant Matrix: (Units=GPa)
#
#
# Indices 1 2 3 4 5 6 
#
# 1 102.4867 10.3139 45.4452 0.0000 0.0000 0.0000
# 2 10.3139 79.9951 19.7756 0.0000 0.0000 0.0000
# 3 45.4452 19.7756 154.4325 0.0000 0.0000 0.0000
# 4 0.0000 0.0000 0.0000 37.1822 0.0000 0.0000
# 5 0.0000 0.0000 0.0000 0.0000 39.1651 0.0000
# 6 0.0000 0.0000 0.0000 0.0000 0.0000 29.2882
#
#
#
# Elastic Compliance Matrix: (Units=1/GPa)
#
#
# Indices 1 2 3 4 5 6 
#
# 1 0.011255 -0.000653 -0.003228 0.000000 0.000000 0.000000
# 2 -0.000653 0.012947 -0.001466 0.000000 0.000000 0.000000
# 3 -0.003228 -0.001466 0.007613 0.000000 0.000000 0.000000
# 4 0.000000 0.000000 0.000000 0.026895 0.000000 0.000000
# 5 0.000000 0.000000 0.000000 0.000000 0.025533 0.000000
# 6 0.000000 0.000000 0.000000 0.000000 0.000000 0.034143
#
#
# Mechanical properties :
#
#
# Convention : Reuss Voigt Hill
#
# Bulk Modulus (GPa) = 47.34681 54.22044 50.78362
# Shear Modulus (GPa) = 36.73219 38.55239 37.64229
#
# Velocity S-wave (km/s) = 3.88581 3.98093 3.93366
# Velocity P-wave (km/s) = 6.29250 6.58929 6.44261
#
# Compressibility (1/GPa) = 0.02112075
#
# Stress axis : x y z
#
# Youngs Moduli (GPa) = 88.85268 77.23611 131.35397
#
# Poissons Ratio (x) = 0.05044 0.42405
# Poissons Ratio (y) = 0.05802 0.19254
# Poissons Ratio (z) = 0.28684 0.11321
#
# Static dielectric constant tensor:
#      x y z
#    x 1.961690 0.000000 0.000000 
#    y 0.000000 1.981980 0.000000 
#    z 0.000000 0.000000 2.121750 
# 
# From -- ./inp_files/948.got.cif
#   From: 2010.05.17/outbox.cif.g08.bks.cpg/sg33_1_cif.got.tgz:948.got - 2010.06.03 17:15:25.
