data_PCOD9345196
_publ_section_title
;
Structure prediction by ZEFSAII (Michael W. Deem and Ramdas Pophale) SiO2 
 PCOD9345196
Probable space group: P N A 21
;
_chemical_formula_sum "Si O2"
_cell_formula_units_Z 28
_cell_length_a 5.319478
_cell_length_b 18.124017
_cell_length_c 13.833572
_cell_angle_alpha 90.000000
_cell_angle_beta 90.000000
_cell_angle_gamma 90.000000
_cell_volume 1333.698961
_symmetry_space_group_name_H-M "P N A 21"
_symmetry_group_IT_number 33
_symmetry_cell_setting 'orthorhombic'
loop_
_space_group_symop_operation_xyz
x,y,z
-x,-y,1/2+z
1/2-x,1/2+y,1/2+z
1/2+x,1/2-y,z
loop_
_atom_site_type_symbol
_atom_site_label
_atom_site_fract_x
_atom_site_fract_y
_atom_site_fract_z
Si Si1 0.392255 0.205009 0.186260
Si Si2 0.359580 0.528316 0.381413
Si Si3 0.341976 0.482158 0.059837
Si Si4 0.840842 0.706895 0.286342
Si Si5 0.967893 0.443323 0.702107
Si Si6 0.463124 0.137883 0.975632
Si Si7 0.340172 0.557931 0.723608
O O1 0.668347 0.236974 0.205364
O O2 0.309719 0.131999 0.245134
O O3 0.395032 0.179826 0.073605
O O4 0.445139 0.494874 0.483393
O O5 0.132321 0.523056 0.304134
O O6 0.290965 0.610995 0.420090
O O7 0.570191 0.492784 0.311871
O O8 0.245181 0.552496 0.120604
O O9 0.438317 0.427939 0.146162
O O10 0.132333 0.434432 0.001943
O O11 0.560387 0.733902 0.266175
O O12 0.911873 0.634495 0.225226
O O13 0.879196 0.685073 0.398856
O O14 0.162284 0.503134 0.665112
#
# Coordination Sequence:
#
# PCOD9345196 Si02
#       7
#     4   4   4   4   4   4   4
#     4  12  25  40  63  95 138 180 213 271 345 412
#     4  10  21  35  65  92 126 168 226 278 325 386
#     4  11  20  39  66  97 125 171 232 279 327 391
#     4  11  26  41  64  99 142 178 213 273 351 419
#     4  10  23  39  65  92 133 178 227 276 331 400
#     4  11  22  38  62  98 133 175 214 274 344 414
#     4  11  23  40  65  91 135 176 229 277 329 402
#
# _framework density 20.994240999999999
#
# number of rings (size 3 to 8) (size 9 to 14) (size 15 to 20)
#    0.000    1.143    2.857    3.429   12.000    0.000 
#    0.000    0.000    0.000    1.714    0.000    0.000 
#    0.000    0.000    0.000    0.000    0.000    0.000 
#
# Total GULP energy -155876.939097 kJ/mol
# GULP energy per Si atom -5567.033539 kJ/mol
# Density = 2.094646 g / cm^3
# Si number density = 20.994241 Si / 1000 Ang^3
#
#
#
# Elastic Constant Matrix: (Units=GPa)
#
#
# Indices 1 2 3 4 5 6 
#
# 1 57.1050 15.3313 27.5557 0.0000 0.0000 0.0000
# 2 15.3313 51.2608 10.0475 0.0000 0.0000 0.0000
# 3 27.5557 10.0475 71.4781 0.0000 0.0000 0.0000
# 4 0.0000 0.0000 0.0000 38.2371 0.0000 0.0000
# 5 0.0000 0.0000 0.0000 0.0000 24.9712 0.0000
# 6 0.0000 0.0000 0.0000 0.0000 0.0000 38.0804
#
#
#
# Elastic Compliance Matrix: (Units=1/GPa)
#
#
# Indices 1 2 3 4 5 6 
#
# 1 0.022806 -0.005242 -0.008055 0.000000 0.000000 0.000000
# 2 -0.005242 0.021266 -0.000968 0.000000 0.000000 0.000000
# 3 -0.008055 -0.000968 0.017232 0.000000 0.000000 0.000000
# 4 0.000000 0.000000 0.000000 0.026153 0.000000 0.000000
# 5 0.000000 0.000000 0.000000 0.000000 0.040046 0.000000
# 6 0.000000 0.000000 0.000000 0.000000 0.000000 0.026260
#
#
# Mechanical properties :
#
#
# Convention : Reuss Voigt Hill
#
# Bulk Modulus (GPa) = 30.51356 31.74588 31.12972
# Shear Modulus (GPa) = 25.87758 28.71837 27.29797
#
# Velocity S-wave (km/s) = 3.51465 3.70255 3.60982
# Velocity P-wave (km/s) = 5.57101 5.78209 5.67753
#
# Compressibility (1/GPa) = 0.03277232
#
# Stress axis : x y z
#
# Youngs Moduli (GPa) = 43.84831 47.02410 58.03231
#
# Poissons Ratio (x) = 0.24650 0.46746
# Poissons Ratio (y) = 0.22985 0.05620
# Poissons Ratio (z) = 0.35320 0.04554
#
# Static dielectric constant tensor:
#      x y z
#    x 1.919060 0.000000 0.000000 
#    y 0.000000 1.758200 0.000000 
#    z 0.000000 0.000000 1.751600 
# 
# From -- ./inp_files/7417.got.cif
#   From: 2010.05.17/outbox.cif.g08.bks.cpg/sg33_4_cif.got.tgz:7417.got - 2010.06.03 17:15:25.
