data_PCOD9345826
_publ_section_title
;
Structure prediction by ZEFSAII (Michael W. Deem and Ramdas Pophale) SiO2 
 PCOD9345826
Probable space group: P N A 21
;
_chemical_formula_sum "Si O2"
_cell_formula_units_Z 32
_cell_length_a 10.642974
_cell_length_b 21.844736
_cell_length_c 6.068801
_cell_angle_alpha 90.000000
_cell_angle_beta 90.000000
_cell_angle_gamma 90.000000
_cell_volume 1410.953492
_symmetry_space_group_name_H-M "P N A 21"
_symmetry_group_IT_number 33
_symmetry_cell_setting 'orthorhombic'
loop_
_space_group_symop_operation_xyz
x,y,z
-x,-y,1/2+z
1/2-x,1/2+y,1/2+z
1/2+x,1/2-y,z
loop_
_atom_site_type_symbol
_atom_site_label
_atom_site_fract_x
_atom_site_fract_y
_atom_site_fract_z
Si Si1 0.648913 0.141365 0.882830
Si Si2 0.752456 0.255075 0.084104
Si Si3 0.584974 0.350612 0.798638
Si Si4 0.470606 0.077131 0.213289
Si Si5 0.038567 0.735249 0.267214
Si Si6 0.946900 0.982154 0.457998
Si Si7 0.275697 0.162774 0.458869
Si Si8 0.819096 0.539882 0.057293
O O1 0.587153 0.195841 0.741578
O O2 0.717612 0.091222 0.736857
O O3 0.725001 0.183277 0.053940
O O4 0.532151 0.106783 0.997014
O O5 0.720618 0.281470 0.319955
O O6 0.667137 0.301114 0.935997
O O7 0.897570 0.264528 0.010610
O O8 0.476043 0.306363 0.708100
O O9 0.550116 0.408347 0.943277
O O10 0.670204 0.372594 0.595028
O O11 0.360232 0.119092 0.309972
O O12 0.587697 0.069762 0.378709
O O13 0.405453 0.012424 0.167148
O O14 0.133863 0.697365 0.123976
O O15 0.804848 0.008676 0.459469
O O16 0.997559 0.998679 0.710397
#
# Coordination Sequence:
#
# PCOD9345826 Si02
#       8
#     4   4   4   4   4   4   4   4
#     4  11  24  43  68 111 143 191 257 319 392 468
#     4  10  23  41  70 102 148 190 249 323 394 472
#     4  10  26  45  71  99 151 198 258 315 391 476
#     4  12  25  42  76 109 149 195 260 334 399 459
#     4  10  22  43  65 104 143 185 244 311 390 464
#     4  12  33  57  79 113 161 221 271 322 397 485
#     4  11  23  41  72 105 144 198 249 325 398 473
#     4  12  28  46  77 109 153 204 266 333 395 471
#
# _framework density 22.679698999999999
#
# number of rings (size 3 to 8) (size 9 to 14) (size 15 to 20)
#    0.000    1.000    3.750    0.750   12.250    1.000 
#    0.000    0.000    0.000    0.000    0.000    0.000 
#    0.000    0.000    0.000    0.000    0.000    0.000 
#
# Total GULP energy -178450.213662 kJ/mol
# GULP energy per Si atom -5576.569177 kJ/mol
# Density = 2.262808 g / cm^3
# Si number density = 22.679699 Si / 1000 Ang^3
#
#
#
# Elastic Constant Matrix: (Units=GPa)
#
#
# Indices 1 2 3 4 5 6 
#
# 1 15.8201 5.7334 -3.3959 0.0000 0.0000 0.0000
# 2 5.7334 136.5660 19.2479 0.0000 0.0000 0.0000
# 3 -3.3959 19.2479 58.2320 0.0000 0.0000 0.0000
# 4 0.0000 0.0000 0.0000 35.8147 0.0000 0.0000
# 5 0.0000 0.0000 0.0000 0.0000 7.3431 0.0000
# 6 0.0000 0.0000 0.0000 0.0000 0.0000 29.2552
#
#
#
# Elastic Compliance Matrix: (Units=1/GPa)
#
#
# Indices 1 2 3 4 5 6 
#
# 1 0.065526 -0.003450 0.004962 0.000000 0.000000 0.000000
# 2 -0.003450 0.007862 -0.002800 0.000000 0.000000 0.000000
# 3 0.004962 -0.002800 0.018388 0.000000 0.000000 0.000000
# 4 0.000000 0.000000 0.000000 0.027921 0.000000 0.000000
# 5 0.000000 0.000000 0.000000 0.000000 0.136183 0.000000
# 6 0.000000 0.000000 0.000000 0.000000 0.000000 0.034182
#
#
# Mechanical properties :
#
#
# Convention : Reuss Voigt Hill
#
# Bulk Modulus (GPa) = 11.21090 28.19878 19.70484
# Shear Modulus (GPa) = 15.51002 27.08477 21.29739
#
# Velocity S-wave (km/s) = 2.61793 3.45951 3.06772
# Velocity P-wave (km/s) = 3.75393 5.33086 4.61032
#
# Compressibility (1/GPa) = 0.08919890
#
# Stress axis : x y z
#
# Youngs Moduli (GPa) = 15.26104 127.19503 54.38472
#
# Poissons Ratio (x) = 0.43886 -0.26984
# Poissons Ratio (y) = 0.05265 0.15227
# Poissons Ratio (z) = -0.07572 0.35613
#
# Static dielectric constant tensor:
#      x y z
#    x 1.969460 0.000000 0.000000 
#    y 0.000000 1.812140 0.000000 
#    z 0.000000 0.000000 1.932550 
# 
# From -- ./inp_files/1141.got.cif
#   From: 2010.05.17/outbox.cif.g08.bks.cpg/sg33_1_cif.got.tgz:1141.got - 2010.06.03 17:15:25.
