data_PCOD9345189
_publ_section_title
;
Structure prediction by ZEFSAII (Michael W. Deem and Ramdas Pophale) SiO2 
 PCOD9345189
Probable space group: P N A 21
;
_chemical_formula_sum "Si O2"
_cell_formula_units_Z 32
_cell_length_a 11.372168
_cell_length_b 17.973938
_cell_length_c 5.763034
_cell_angle_alpha 90.000000
_cell_angle_beta 90.000000
_cell_angle_gamma 90.000000
_cell_volume 1177.979379
_symmetry_space_group_name_H-M "P N A 21"
_symmetry_group_IT_number 33
_symmetry_cell_setting 'orthorhombic'
loop_
_space_group_symop_operation_xyz
x,y,z
-x,-y,1/2+z
1/2-x,1/2+y,1/2+z
1/2+x,1/2-y,z
loop_
_atom_site_type_symbol
_atom_site_label
_atom_site_fract_x
_atom_site_fract_y
_atom_site_fract_z
Si Si1 0.432936 0.107814 0.837710
Si Si2 0.292106 0.672298 0.874837
Si Si3 0.972651 0.201014 0.292005
Si Si4 0.298833 0.373348 0.613583
Si Si5 0.797619 0.993398 0.331719
Si Si6 0.259563 0.238518 0.872620
Si Si7 0.030373 0.625483 0.835916
Si Si8 0.035162 0.921754 0.468026
O O1 0.313587 0.060222 0.806619
O O2 0.384910 0.193324 0.864035
O O3 0.502118 0.100232 0.595854
O O4 0.496001 0.089947 0.083983
O O5 0.425296 0.644196 0.871788
O O6 0.287846 0.719008 0.629591
O O7 0.174728 0.624221 0.846913
O O8 0.294982 0.705468 0.135168
O O9 0.857800 0.187656 0.445428
O O10 0.003512 0.286934 0.320223
O O11 0.952131 0.165012 0.043491
O O12 0.240223 0.434712 0.456042
O O13 0.240985 0.325986 0.817166
O O14 0.405600 0.420742 0.718662
O O15 0.900185 0.945955 0.457962
O O16 0.875395 0.029625 0.124426
#
# Coordination Sequence:
#
# PCOD9345189 Si02
#       8
#     4   4   4   4   4   4   4   4
#     4  10  21  36  58  78 121 155 201 249 296 348
#     4  10  21  35  58  88 115 158 203 252 306 359
#     4  11  23  36  64  88 124 167 199 261 320 370
#     4  11  23  38  58  82 133 168 205 249 319 381
#     4  11  24  35  55  90 122 174 203 252 308 397
#     4  10  21  40  56  84 118 161 206 254 293 370
#     4  10  21  38  57  88 120 155 205 253 303 367
#     4  11  22  36  54  86 129 164 208 234 309 398
#
# _framework density 27.165161999999999
#
# number of rings (size 3 to 8) (size 9 to 14) (size 15 to 20)
#    0.000    1.500    3.750    3.000    8.750    0.000 
#    0.000    0.000    0.000    0.000    0.000    3.500 
#    0.000    0.000    0.000    0.000    0.000    0.000 
#
# Total GULP energy -178388.413335 kJ/mol
# GULP energy per Si atom -5574.637917 kJ/mol
# Density = 2.710333 g / cm^3
# Si number density = 27.165162 Si / 1000 Ang^3
#
#
#
# Elastic Constant Matrix: (Units=GPa)
#
#
# Indices 1 2 3 4 5 6 
#
# 1 50.0607 -11.8363 35.5887 0.0000 0.0000 0.0000
# 2 -11.8363 71.8570 36.6069 0.0000 0.0000 0.0000
# 3 35.5887 36.6069 209.3080 0.0000 0.0000 0.0000
# 4 0.0000 0.0000 0.0000 32.2234 0.0000 0.0000
# 5 0.0000 0.0000 0.0000 0.0000 24.2721 0.0000
# 6 0.0000 0.0000 0.0000 0.0000 0.0000 10.5967
#
#
#
# Elastic Compliance Matrix: (Units=1/GPa)
#
#
# Indices 1 2 3 4 5 6 
#
# 1 0.025624 0.007070 -0.005593 0.000000 0.000000 0.000000
# 2 0.007070 0.017229 -0.004215 0.000000 0.000000 0.000000
# 3 -0.005593 -0.004215 0.006466 0.000000 0.000000 0.000000
# 4 0.000000 0.000000 0.000000 0.031033 0.000000 0.000000
# 5 0.000000 0.000000 0.000000 0.000000 0.041200 0.000000
# 6 0.000000 0.000000 0.000000 0.000000 0.000000 0.094369
#
#
# Mechanical properties :
#
#
# Convention : Reuss Voigt Hill
#
# Bulk Modulus (GPa) = 22.80949 50.21604 36.51276
# Shear Modulus (GPa) = 21.18541 31.47618 26.33079
#
# Velocity S-wave (km/s) = 2.79565 3.40766 3.11671
# Velocity P-wave (km/s) = 4.34001 5.83167 5.14024
#
# Compressibility (1/GPa) = 0.04384141
#
# Stress axis : x y z
#
# Youngs Moduli (GPa) = 39.02617 58.04297 154.65662
#
# Poissons Ratio (x) = -0.41038 0.86505
# Poissons Ratio (y) = -0.27592 0.65193
# Poissons Ratio (z) = 0.21829 0.24467
#
# Static dielectric constant tensor:
#      x y z
#    x 2.151520 0.000000 0.000000 
#    y 0.000000 2.288180 0.000000 
#    z 0.000000 0.000000 2.191260 
# 
# From -- ./inp_files/1488.got.cif
#   From: 2010.05.17/outbox.cif.g08.bks.cpg/sg33_1_cif.got.tgz:1488.got - 2010.06.03 17:15:25.
