data_PCOD9345734
_publ_section_title
;
Structure prediction by ZEFSAII (Michael W. Deem and Ramdas Pophale) SiO2 
 PCOD9345734
Probable space group: P N A 21
;
_chemical_formula_sum "Si O2"
_cell_formula_units_Z 32
_cell_length_a 13.934894
_cell_length_b 9.224375
_cell_length_c 11.239196
_cell_angle_alpha 90.000000
_cell_angle_beta 90.000000
_cell_angle_gamma 90.000000
_cell_volume 1444.693985
_symmetry_space_group_name_H-M "P N A 21"
_symmetry_group_IT_number 33
_symmetry_cell_setting 'orthorhombic'
loop_
_space_group_symop_operation_xyz
x,y,z
-x,-y,1/2+z
1/2-x,1/2+y,1/2+z
1/2+x,1/2-y,z
loop_
_atom_site_type_symbol
_atom_site_label
_atom_site_fract_x
_atom_site_fract_y
_atom_site_fract_z
Si Si1 0.205698 0.727116 0.434080
Si Si2 0.263539 0.508788 0.778817
Si Si3 0.180595 0.389053 0.106837
Si Si4 0.391764 0.753861 0.841440
Si Si5 0.320636 0.563120 0.236177
Si Si6 0.357304 0.831473 0.099281
Si Si7 0.975347 0.393094 0.043244
Si Si8 0.403663 0.246546 0.280612
O O1 0.253784 0.754334 0.563416
O O2 0.267109 0.622705 0.351678
O O3 0.098478 0.664465 0.444098
O O4 0.217935 0.885619 0.377080
O O5 0.360277 0.602429 0.782336
O O6 0.229815 0.418727 0.662619
O O7 0.177999 0.625674 0.803750
O O8 0.139789 0.365790 0.239874
O O9 0.247323 0.527406 0.127405
O O10 0.088516 0.395331 0.021351
O O11 0.504886 0.762973 0.866919
O O12 0.337835 0.781095 0.964976
O O13 0.382774 0.694960 0.182795
O O14 0.366212 0.410088 0.271137
O O15 0.440973 0.949862 0.086769
O O16 0.952254 0.287511 0.153169
#
# Coordination Sequence:
#
# PCOD9345734 Si02
#       8
#     4   4   4   4   4   4   4   4
#     4  11  23  41  69  95 136 178 220 288 343 415
#     4  10  22  43  66  97 135 178 228 280 343 414
#     4  11  22  41  68  95 132 184 221 278 351 404
#     4  11  22  40  69  97 132 179 224 284 344 405
#     4  11  22  45  66  98 136 180 229 285 352 412
#     4  10  23  43  66  95 137 176 226 286 337 419
#     4  10  22  41  64  95 133 176 227 279 332 415
#     4  10  22  42  64  94 137 171 227 280 336 412
#
# _framework density 22.150019
#
# number of rings (size 3 to 8) (size 9 to 14) (size 15 to 20)
#    0.000    1.500    2.500    2.250    1.750    1.000 
#   11.250    0.000    0.000    0.000    0.000    0.000 
#    0.000    0.000    0.000    0.000    0.000    0.000 
#
# Total GULP energy -178576.558445 kJ/mol
# GULP energy per Si atom -5580.517451 kJ/mol
# Density = 2.209960 g / cm^3
# Si number density = 22.150019 Si / 1000 Ang^3
#
#
#
# Elastic Constant Matrix: (Units=GPa)
#
#
# Indices 1 2 3 4 5 6 
#
# 1 94.1282 35.0354 19.0179 0.0000 0.0000 0.0000
# 2 35.0354 131.2767 22.7609 0.0000 0.0000 0.0000
# 3 19.0179 22.7609 75.0213 0.0000 0.0000 0.0000
# 4 0.0000 0.0000 0.0000 36.5292 0.0000 0.0000
# 5 0.0000 0.0000 0.0000 0.0000 21.8482 0.0000
# 6 0.0000 0.0000 0.0000 0.0000 0.0000 16.1979
#
#
#
# Elastic Compliance Matrix: (Units=1/GPa)
#
#
# Indices 1 2 3 4 5 6 
#
# 1 0.012133 -0.002855 -0.002210 0.000000 0.000000 0.000000
# 2 -0.002855 0.008712 -0.001919 0.000000 0.000000 0.000000
# 3 -0.002210 -0.001919 0.014472 0.000000 0.000000 0.000000
# 4 0.000000 0.000000 0.000000 0.027375 0.000000 0.000000
# 5 0.000000 0.000000 0.000000 0.000000 0.045770 0.000000
# 6 0.000000 0.000000 0.000000 0.000000 0.000000 0.061736
#
#
# Mechanical properties :
#
#
# Convention : Reuss Voigt Hill
#
# Bulk Modulus (GPa) = 46.84020 50.45054 48.64537
# Shear Modulus (GPa) = 26.13919 29.82251 27.98085
#
# Velocity S-wave (km/s) = 3.43898 3.67330 3.55807
# Velocity P-wave (km/s) = 6.07960 6.38882 6.23612
#
# Compressibility (1/GPa) = 0.02134918
#
# Stress axis : x y z
#
# Youngs Moduli (GPa) = 82.42077 114.78109 69.09889
#
# Poissons Ratio (x) = 0.32769 0.15267
# Poissons Ratio (y) = 0.23531 0.13264
# Poissons Ratio (z) = 0.18211 0.22032
#
# Static dielectric constant tensor:
#      x y z
#    x 1.867900 0.000000 0.000000 
#    y 0.000000 1.824680 0.000000 
#    z 0.000000 0.000000 1.891950 
# 
# From -- ./inp_files/6815.got.cif
#   From: 2010.05.17/outbox.cif.g08.bks.cpg/sg33_4_cif.got.tgz:6815.got - 2010.06.03 17:15:25.
