data_PCOD9345730
_publ_section_title
;
Structure prediction by ZEFSAII (Michael W. Deem and Ramdas Pophale) SiO2 
 PCOD9345730
Probable space group: P N A 21
;
_chemical_formula_sum "Si O2"
_cell_formula_units_Z 20
_cell_length_a 17.040269
_cell_length_b 6.216869
_cell_length_c 8.031998
_cell_angle_alpha 90.000000
_cell_angle_beta 90.000000
_cell_angle_gamma 90.000000
_cell_volume 850.886737
_symmetry_space_group_name_H-M "P N A 21"
_symmetry_group_IT_number 33
_symmetry_cell_setting 'orthorhombic'
loop_
_space_group_symop_operation_xyz
x,y,z
-x,-y,1/2+z
1/2-x,1/2+y,1/2+z
1/2+x,1/2-y,z
loop_
_atom_site_type_symbol
_atom_site_label
_atom_site_fract_x
_atom_site_fract_y
_atom_site_fract_z
Si Si1 0.526961 0.068904 0.915860
Si Si2 0.769546 0.464399 0.939192
Si Si3 0.103966 0.914570 0.429637
Si Si4 0.396050 0.811363 0.744254
Si Si5 0.655932 0.246201 0.705285
O O1 0.477484 0.288306 0.936280
O O2 0.587694 0.087082 0.764716
O O3 0.462627 0.889076 0.876524
O O4 0.578422 0.059876 0.081431
O O5 0.828173 0.262062 0.945517
O O6 0.809791 0.614260 0.798525
O O7 0.689409 0.370540 0.866759
O O8 0.778551 0.606629 0.105991
O O9 0.104460 0.054860 0.260083
O O10 0.120875 0.079460 0.578941
#
# Coordination Sequence:
#
# PCOD9345730 Si02
#       5
#     4   4   4   4   4
#     4  11  22  41  67  95 129 175 223 287 332 415
#     4  10  25  43  63  97 135 177 223 280 340 420
#     4  10  22  42  65  95 130 174 224 279 341 413
#     4  10  22  41  63  97 132 168 227 275 341 400
#     4  11  25  43  66  98 136 178 231 281 350 416
#
# _framework density 23.504892000000002
#
# number of rings (size 3 to 8) (size 9 to 14) (size 15 to 20)
#    0.000    1.600    0.000    4.800    5.600    3.200 
#    3.600    0.000    0.000    0.000    0.000    0.000 
#    0.000    0.000    0.000    0.000    0.000    0.000 
#
# Total GULP energy -111768.017938 kJ/mol
# GULP energy per Si atom -5588.400897 kJ/mol
# Density = 2.345139 g / cm^3
# Si number density = 23.504892 Si / 1000 Ang^3
#
#
#
# Elastic Constant Matrix: (Units=GPa)
#
#
# Indices 1 2 3 4 5 6 
#
# 1 65.7630 1.9660 2.3267 0.0000 0.0000 0.0000
# 2 1.9660 68.9270 3.1736 0.0000 0.0000 0.0000
# 3 2.3267 3.1736 72.6698 0.0000 0.0000 0.0000
# 4 0.0000 0.0000 0.0000 17.5672 0.0000 0.0000
# 5 0.0000 0.0000 0.0000 0.0000 36.3949 0.0000
# 6 0.0000 0.0000 0.0000 0.0000 0.0000 25.2400
#
#
#
# Elastic Compliance Matrix: (Units=1/GPa)
#
#
# Indices 1 2 3 4 5 6 
#
# 1 0.015235 -0.000413 -0.000470 0.000000 0.000000 0.000000
# 2 -0.000413 0.014549 -0.000622 0.000000 0.000000 0.000000
# 3 -0.000470 -0.000622 0.013803 0.000000 0.000000 0.000000
# 4 0.000000 0.000000 0.000000 0.056924 0.000000 0.000000
# 5 0.000000 0.000000 0.000000 0.000000 0.027476 0.000000
# 6 0.000000 0.000000 0.000000 0.000000 0.000000 0.039620
#
#
# Mechanical properties :
#
#
# Convention : Reuss Voigt Hill
#
# Bulk Modulus (GPa) = 24.64447 24.69916 24.67182
# Shear Modulus (GPa) = 27.15290 29.16664 28.15977
#
# Velocity S-wave (km/s) = 3.40251 3.52643 3.46502
# Velocity P-wave (km/s) = 5.09350 5.20690 5.15051
#
# Compressibility (1/GPa) = 0.04057706
#
# Stress axis : x y z
#
# Youngs Moduli (GPa) = 65.63799 68.73547 72.44761
#
# Poissons Ratio (x) = 0.02838 0.03403
# Poissons Ratio (y) = 0.02710 0.04507
# Poissons Ratio (z) = 0.03083 0.04276
#
# Static dielectric constant tensor:
#      x y z
#    x 1.880860 0.000000 0.000000 
#    y 0.000000 1.874820 0.000000 
#    z 0.000000 0.000000 1.990550 
# 
# From -- ./inp_files/4542.got.cif
#   From: 2010.05.17/outbox.cif.g08.bks.cpg/sg33_3_cif.got.tgz:4542.got - 2010.06.03 17:15:25.
