data_PCOD9345817
_publ_section_title
;
Structure prediction by ZEFSAII (Michael W. Deem and Ramdas Pophale) SiO2 
 PCOD9345817
Probable space group: P N A 21
;
_chemical_formula_sum "Si O2"
_cell_formula_units_Z 20
_cell_length_a 9.027178
_cell_length_b 5.698902
_cell_length_c 13.403476
_cell_angle_alpha 90.000000
_cell_angle_beta 90.000000
_cell_angle_gamma 90.000000
_cell_volume 689.541860
_symmetry_space_group_name_H-M "P N A 21"
_symmetry_group_IT_number 33
_symmetry_cell_setting 'orthorhombic'
loop_
_space_group_symop_operation_xyz
x,y,z
-x,-y,1/2+z
1/2-x,1/2+y,1/2+z
1/2+x,1/2-y,z
loop_
_atom_site_type_symbol
_atom_site_label
_atom_site_fract_x
_atom_site_fract_y
_atom_site_fract_z
Si Si1 0.450304 0.300936 0.977790
Si Si2 0.246309 0.944199 0.927641
Si Si3 0.218991 0.586122 0.082354
Si Si4 0.944437 0.658597 0.737391
Si Si5 0.562848 0.670754 0.257984
O O1 0.613728 0.370778 0.943410
O O2 0.369978 0.333576 0.868447
O O3 0.384061 0.040669 0.995243
O O4 0.379546 0.481125 0.056121
O O5 0.316012 0.870311 0.821500
O O6 0.179001 0.714046 0.980327
O O7 0.125166 0.367593 0.126868
O O8 0.180030 0.773267 0.169743
O O9 0.031116 0.414279 0.752840
O O10 0.008979 0.915571 0.748677
#
# Coordination Sequence:
#
# PCOD9345817 Si02
#       5
#     4   4   4   4   4
#     4  11  24  45  72 107 146 196 248 308 371 446
#     4  11  24  45  72 107 146 196 248 308 371 446
#     4  10  22  42  72 102 146 192 244 300 372 442
#     4   9  20  42  69 100 144 189 242 300 365 434
#     4   9  20  42  69 100 144 189 242 300 365 434
#
# _framework density 29.004767000000001
#
# number of rings (size 3 to 8) (size 9 to 14) (size 15 to 20)
#    1.200    0.800    2.000    1.200    0.000    3.200 
#    0.000    2.000    0.000    0.000    0.000    0.000 
#    0.000    0.000    0.000    0.000    0.000    0.000 
#
# Total GULP energy -111516.453235 kJ/mol
# GULP energy per Si atom -5575.822662 kJ/mol
# Density = 2.893875 g / cm^3
# Si number density = 29.004767 Si / 1000 Ang^3
#
#
#
# Elastic Constant Matrix: (Units=GPa)
#
#
# Indices 1 2 3 4 5 6 
#
# 1 90.6746 13.9659 -13.2176 0.0000 0.0000 0.0000
# 2 13.9659 205.6662 -11.3853 0.0000 0.0000 0.0000
# 3 -13.2176 -11.3853 77.3319 0.0000 0.0000 0.0000
# 4 0.0000 0.0000 0.0000 46.3946 0.0000 0.0000
# 5 0.0000 0.0000 0.0000 0.0000 41.9789 0.0000
# 6 0.0000 0.0000 0.0000 0.0000 0.0000 25.6431
#
#
#
# Elastic Compliance Matrix: (Units=1/GPa)
#
#
# Indices 1 2 3 4 5 6 
#
# 1 0.011402 -0.000672 0.001850 0.000000 0.000000 0.000000
# 2 -0.000672 0.004942 0.000613 0.000000 0.000000 0.000000
# 3 0.001850 0.000613 0.013338 0.000000 0.000000 0.000000
# 4 0.000000 0.000000 0.000000 0.021554 0.000000 0.000000
# 5 0.000000 0.000000 0.000000 0.000000 0.023821 0.000000
# 6 0.000000 0.000000 0.000000 0.000000 0.000000 0.038997
#
#
# Mechanical properties :
#
#
# Convention : Reuss Voigt Hill
#
# Bulk Modulus (GPa) = 30.06387 39.15543 34.60965
# Shear Modulus (GPa) = 41.13209 48.42397 44.77803
#
# Velocity S-wave (km/s) = 3.76987 4.09041 3.93341
# Velocity P-wave (km/s) = 5.41635 5.98644 5.70852
#
# Compressibility (1/GPa) = 0.03326251
#
# Stress axis : x y z
#
# Youngs Moduli (GPa) = 87.70715 202.35588 74.97571
#
# Poissons Ratio (x) = 0.13595 -0.13869
# Poissons Ratio (y) = 0.05892 -0.04594
# Poissons Ratio (z) = -0.16224 -0.12399
#
# Static dielectric constant tensor:
#      x y z
#    x 2.323860 0.000000 0.000000 
#    y 0.000000 2.345570 0.000000 
#    z 0.000000 0.000000 2.263480 
# 
# From -- ./inp_files/8589.got.cif
#   From: 2010.05.17/outbox.cif.g08.bks.cpg/sg33_5_cif.got.tgz:8589.got - 2010.06.03 17:15:25.
