data_PCOD9345900
_publ_section_title
;
Structure prediction by ZEFSAII (Michael W. Deem and Ramdas Pophale) SiO2 
 PCOD9345900
Probable space group: P N A 21
;
_chemical_formula_sum "Si O2"
_cell_formula_units_Z 32
_cell_length_a 31.592573
_cell_length_b 5.317032
_cell_length_c 8.256149
_cell_angle_alpha 90.000000
_cell_angle_beta 90.000000
_cell_angle_gamma 90.000000
_cell_volume 1386.857354
_symmetry_space_group_name_H-M "P N A 21"
_symmetry_group_IT_number 33
_symmetry_cell_setting 'orthorhombic'
loop_
_space_group_symop_operation_xyz
x,y,z
-x,-y,1/2+z
1/2-x,1/2+y,1/2+z
1/2+x,1/2-y,z
loop_
_atom_site_type_symbol
_atom_site_label
_atom_site_fract_x
_atom_site_fract_y
_atom_site_fract_z
Si Si1 0.147694 0.663552 0.041650
Si Si2 0.192588 0.303709 0.796227
Si Si3 0.792687 0.221347 0.802536
Si Si4 0.170536 0.270152 0.444139
Si Si5 0.595930 0.206591 0.219671
Si Si6 0.504215 0.253650 0.106023
Si Si7 0.035760 0.261468 0.734072
Si Si8 0.115644 0.036116 0.872821
O O1 0.180864 0.838063 0.139264
O O2 0.115653 0.564237 0.178906
O O3 0.177963 0.473162 0.946201
O O4 0.112952 0.742300 0.904927
O O5 0.242440 0.280756 0.784349
O O6 0.174237 0.383212 0.622935
O O7 0.164681 0.055461 0.825316
O O8 0.806691 0.507826 0.841990
O O9 0.805431 0.997357 0.925801
O O10 0.123479 0.216444 0.374562
O O11 0.545671 0.213630 0.220215
O O12 0.608159 0.358459 0.055073
O O13 0.487201 0.532773 0.140761
O O14 0.472289 0.028865 0.151047
O O15 0.518043 0.230728 0.918785
O O16 0.084086 0.171820 0.755128
#
# Coordination Sequence:
#
# PCOD9345900 Si02
#       8
#     4   4   4   4   4   4   4   4
#     4  10  22  44  69  93 132 184 221 269 336 417
#     4  11  26  38  66 100 130 172 224 288 324 388
#     4  11  25  43  65  94 135 175 225 269 337 399
#     4  11  25  43  65  98 130 171 221 284 327 389
#     4   9  22  43  70  91 134 177 226 258 346 407
#     4  11  25  44  72 105 134 181 223 285 333 413
#     4  11  26  44  71 100 141 174 232 275 346 403
#     4  10  23  43  68  93 136 184 218 268 343 410
#
# _framework density 23.07375
#
# number of rings (size 3 to 8) (size 9 to 14) (size 15 to 20)
#    0.000    1.500    1.250    1.500   14.000    2.000 
#    0.000    0.000    0.000    0.000    0.000    0.000 
#    0.000    0.000    0.000    0.000    0.000    0.000 
#
# Total GULP energy -178324.830808 kJ/mol
# GULP energy per Si atom -5572.650963 kJ/mol
# Density = 2.302123 g / cm^3
# Si number density = 23.073750 Si / 1000 Ang^3
#
#
#
# Elastic Constant Matrix: (Units=GPa)
#
#
# Indices 1 2 3 4 5 6 
#
# 1 53.5510 13.5537 -7.7407 0.0000 0.0000 0.0000
# 2 13.5537 46.7733 -1.7720 0.0000 0.0000 0.0000
# 3 -7.7407 -1.7720 59.2981 0.0000 0.0000 0.0000
# 4 0.0000 0.0000 0.0000 13.8177 0.0000 0.0000
# 5 0.0000 0.0000 0.0000 0.0000 24.4819 0.0000
# 6 0.0000 0.0000 0.0000 0.0000 0.0000 12.2311
#
#
#
# Elastic Compliance Matrix: (Units=1/GPa)
#
#
# Indices 1 2 3 4 5 6 
#
# 1 0.020516 -0.005850 0.002503 0.000000 0.000000 0.000000
# 2 -0.005850 0.023072 -0.000074 0.000000 0.000000 0.000000
# 3 0.002503 -0.000074 0.017189 0.000000 0.000000 0.000000
# 4 0.000000 0.000000 0.000000 0.072371 0.000000 0.000000
# 5 0.000000 0.000000 0.000000 0.000000 0.040847 0.000000
# 6 0.000000 0.000000 0.000000 0.000000 0.000000 0.081759
#
#
# Mechanical properties :
#
#
# Convention : Reuss Voigt Hill
#
# Bulk Modulus (GPa) = 18.54095 18.63385 18.58740
# Shear Modulus (GPa) = 17.82062 20.47822 19.14942
#
# Velocity S-wave (km/s) = 2.78210 2.98235 2.88396
# Velocity P-wave (km/s) = 4.28638 4.46682 4.37753
#
# Compressibility (1/GPa) = 0.05393468
#
# Stress axis : x y z
#
# Youngs Moduli (GPa) = 48.74161 43.34229 58.17836
#
# Poissons Ratio (x) = 0.25356 -0.14564
# Poissons Ratio (y) = 0.28515 0.00432
# Poissons Ratio (z) = -0.12202 0.00322
#
# Static dielectric constant tensor:
#      x y z
#    x 1.857970 0.000000 0.000000 
#    y 0.000000 2.109700 0.000000 
#    z 0.000000 0.000000 2.015550 
# 
# From -- ./inp_files/5320.got.cif
#   From: 2010.05.17/outbox.cif.g08.bks.cpg/sg33_3_cif.got.tgz:5320.got - 2010.06.03 17:15:25.
