data_PCOD9345558
_publ_section_title
;
Structure prediction by ZEFSAII (Michael W. Deem and Ramdas Pophale) SiO2 
 PCOD9345558
Probable space group: P N A 21
;
_chemical_formula_sum "Si O2"
_cell_formula_units_Z 32
_cell_length_a 21.283078
_cell_length_b 5.298281
_cell_length_c 12.625022
_cell_angle_alpha 90.000000
_cell_angle_beta 90.000000
_cell_angle_gamma 90.000000
_cell_volume 1423.644544
_symmetry_space_group_name_H-M "P N A 21"
_symmetry_group_IT_number 33
_symmetry_cell_setting 'orthorhombic'
loop_
_space_group_symop_operation_xyz
x,y,z
-x,-y,1/2+z
1/2-x,1/2+y,1/2+z
1/2+x,1/2-y,z
loop_
_atom_site_type_symbol
_atom_site_label
_atom_site_fract_x
_atom_site_fract_y
_atom_site_fract_z
Si Si1 0.459137 0.902495 0.977280
Si Si2 0.426262 0.334115 0.598346
Si Si3 0.256796 0.419738 0.384030
Si Si4 0.027715 0.909007 0.334113
Si Si5 0.826027 0.474173 0.492716
Si Si6 0.236631 0.899729 0.653783
Si Si7 0.673152 0.071961 0.581609
Si Si8 0.397464 0.648141 0.400251
O O1 0.453614 0.660701 0.898502
O O2 0.461766 0.157944 0.906442
O O3 0.519589 0.848753 0.051524
O O4 0.399510 0.908702 0.054638
O O5 0.439407 0.393177 0.720074
O O6 0.358093 0.214833 0.575417
O O7 0.424465 0.564971 0.514962
O O8 0.271753 0.135169 0.419519
O O9 0.232364 0.442590 0.266882
O O10 0.207080 0.503866 0.470818
O O11 0.327938 0.533942 0.383033
O O12 0.951589 0.917907 0.318881
O O13 0.791424 0.666576 0.570219
O O14 0.880724 0.560414 0.414233
O O15 0.190297 0.660594 0.658084
O O16 0.201610 0.160150 0.620891
#
# Coordination Sequence:
#
# PCOD9345558 Si02
#       8
#     4   4   4   4   4   4   4   4
#     4  11  25  45  62 100 136 165 219 276 321 390
#     4  10  24  41  67  97 132 176 218 274 328 396
#     4  10  24  41  66  94 130 172 218 270 325 387
#     4  11  25  41  69  98 126 181 216 260 340 387
#     4  10  21  44  65  94 134 167 226 273 319 393
#     4  11  25  41  68  96 125 180 215 261 339 381
#     4  11  25  45  62  98 136 165 217 276 319 388
#     4  10  21  44  65  93 133 168 221 276 313 390
#
# _framework density 22.477520999999999
#
# number of rings (size 3 to 8) (size 9 to 14) (size 15 to 20)
#    0.000    1.500    2.500    0.750    7.000    0.000 
#    0.000    0.000    0.000    0.000    0.000    0.000 
#    0.000    0.000    0.000    0.000    0.000    0.000 
#
# Total GULP energy -178451.032806 kJ/mol
# GULP energy per Si atom -5576.594775 kJ/mol
# Density = 2.242636 g / cm^3
# Si number density = 22.477521 Si / 1000 Ang^3
#
#
#
# Elastic Constant Matrix: (Units=GPa)
#
#
# Indices 1 2 3 4 5 6 
#
# 1 30.9619 2.2918 -8.6503 0.0000 0.0000 0.0000
# 2 2.2918 84.7614 5.5668 0.0000 0.0000 0.0000
# 3 -8.6503 5.5668 67.6516 0.0000 0.0000 0.0000
# 4 0.0000 0.0000 0.0000 10.6317 0.0000 0.0000
# 5 0.0000 0.0000 0.0000 0.0000 29.0125 0.0000
# 6 0.0000 0.0000 0.0000 0.0000 0.0000 16.9947
#
#
#
# Elastic Compliance Matrix: (Units=1/GPa)
#
#
# Indices 1 2 3 4 5 6 
#
# 1 0.033615 -0.001198 0.004397 0.000000 0.000000 0.000000
# 2 -0.001198 0.011905 -0.001133 0.000000 0.000000 0.000000
# 3 0.004397 -0.001133 0.015437 0.000000 0.000000 0.000000
# 4 0.000000 0.000000 0.000000 0.094058 0.000000 0.000000
# 5 0.000000 0.000000 0.000000 0.000000 0.034468 0.000000
# 6 0.000000 0.000000 0.000000 0.000000 0.000000 0.058842
#
#
# Mechanical properties :
#
#
# Convention : Reuss Voigt Hill
#
# Bulk Modulus (GPa) = 15.36355 20.19905 17.78130
# Shear Modulus (GPa) = 18.80493 23.60557 21.20525
#
# Velocity S-wave (km/s) = 2.89556 3.24417 3.07481
# Velocity P-wave (km/s) = 4.24605 4.79987 4.53143
#
# Compressibility (1/GPa) = 0.06508910
#
# Stress axis : x y z
#
# Youngs Moduli (GPa) = 29.74881 84.00119 64.77941
#
# Poissons Ratio (x) = 0.10060 -0.28482
# Poissons Ratio (y) = 0.03563 0.07338
# Poissons Ratio (z) = -0.13080 0.09515
#
# Static dielectric constant tensor:
#      x y z
#    x 1.859210 0.000000 0.000000 
#    y 0.000000 1.951860 0.000000 
#    z 0.000000 0.000000 1.797170 
# 
# From -- ./inp_files/7205.got.cif
#   From: 2010.05.17/outbox.cif.g08.bks.cpg/sg33_4_cif.got.tgz:7205.got - 2010.06.03 17:15:25.
