data_PCOD9345253
_publ_section_title
;
Structure prediction by ZEFSAII (Michael W. Deem and Ramdas Pophale) SiO2 
 PCOD9345253
Probable space group: P N A 21
;
_chemical_formula_sum "Si O2"
_cell_formula_units_Z 32
_cell_length_a 13.807251
_cell_length_b 5.670663
_cell_length_c 16.803014
_cell_angle_alpha 90.000000
_cell_angle_beta 90.000000
_cell_angle_gamma 90.000000
_cell_volume 1315.613277
_symmetry_space_group_name_H-M "P N A 21"
_symmetry_group_IT_number 33
_symmetry_cell_setting 'orthorhombic'
loop_
_space_group_symop_operation_xyz
x,y,z
-x,-y,1/2+z
1/2-x,1/2+y,1/2+z
1/2+x,1/2-y,z
loop_
_atom_site_type_symbol
_atom_site_label
_atom_site_fract_x
_atom_site_fract_y
_atom_site_fract_z
Si Si1 0.838791 0.142835 0.599560
Si Si2 0.728104 0.632102 0.354768
Si Si3 0.931203 0.876261 0.744079
Si Si4 0.869943 0.526934 0.102554
Si Si5 0.217399 0.493074 0.228027
Si Si6 0.499233 0.749365 0.982620
Si Si7 0.431799 0.249625 0.968068
Si Si8 0.374769 0.142866 0.264950
O O1 0.742470 0.999124 0.578633
O O2 0.788728 0.342333 0.653022
O O3 0.898652 0.253545 0.527806
O O4 0.910075 0.000623 0.659326
O O5 0.639506 0.512524 0.304832
O O6 0.749956 0.868033 0.306065
O O7 0.676256 0.699022 0.436010
O O8 0.821888 0.466808 0.342044
O O9 0.039311 0.828629 0.773016
O O10 0.888156 0.613360 0.739969
O O11 0.915243 0.738704 0.050639
O O12 0.896036 0.548898 0.195609
O O13 0.927616 0.308067 0.062183
O O14 0.289560 0.279478 0.218885
O O15 0.491087 0.485423 0.948134
O O16 0.474096 0.995176 0.936077
#
# Coordination Sequence:
#
# PCOD9345253 Si02
#       8
#     4   4   4   4   4   4   4   4
#     4  11  21  38  62 103 125 173 226 283 345 399
#     4  10  23  43  63  94 130 183 224 282 344 414
#     4  10  22  36  65  97 134 169 226 290 343 406
#     4  10  22  38  65 102 131 177 223 289 343 410
#     4  10  21  37  67  91 134 166 219 289 331 408
#     4  10  25  41  68  93 135 177 219 283 336 417
#     4  10  25  45  66  91 139 182 220 279 347 409
#     4  11  21  38  66  99 128 171 227 285 345 399
#
# _framework density 24.323259
#
# number of rings (size 3 to 8) (size 9 to 14) (size 15 to 20)
#    0.750    1.000    3.750    1.500    8.750    2.000 
#    0.000    3.750    0.000    0.000    0.000    0.000 
#    0.000    0.000    0.000    0.000    0.000    0.000 
#
# Total GULP energy -178335.807520 kJ/mol
# GULP energy per Si atom -5572.993985 kJ/mol
# Density = 2.426790 g / cm^3
# Si number density = 24.323259 Si / 1000 Ang^3
#
#
#
# Elastic Constant Matrix: (Units=GPa)
#
#
# Indices 1 2 3 4 5 6 
#
# 1 99.5063 9.3174 5.5334 0.0000 0.0000 0.0000
# 2 9.3174 98.1493 3.9116 0.0000 0.0000 0.0000
# 3 5.5334 3.9116 41.4706 0.0000 0.0000 0.0000
# 4 0.0000 0.0000 0.0000 10.7771 0.0000 0.0000
# 5 0.0000 0.0000 0.0000 0.0000 28.5339 0.0000
# 6 0.0000 0.0000 0.0000 0.0000 0.0000 18.5971
#
#
#
# Elastic Compliance Matrix: (Units=1/GPa)
#
#
# Indices 1 2 3 4 5 6 
#
# 1 0.010206 -0.000918 -0.001275 0.000000 0.000000 0.000000
# 2 -0.000918 0.010310 -0.000850 0.000000 0.000000 0.000000
# 3 -0.001275 -0.000850 0.024364 0.000000 0.000000 0.000000
# 4 0.000000 0.000000 0.000000 0.092790 0.000000 0.000000
# 5 0.000000 0.000000 0.000000 0.000000 0.035046 0.000000
# 6 0.000000 0.000000 0.000000 0.000000 0.000000 0.053772
#
#
# Mechanical properties :
#
#
# Convention : Reuss Voigt Hill
#
# Bulk Modulus (GPa) = 25.77760 30.73900 28.25830
# Shear Modulus (GPa) = 20.36619 26.27253 23.31936
#
# Velocity S-wave (km/s) = 2.89678 3.29011 3.09969
# Velocity P-wave (km/s) = 4.67005 5.20560 4.94508
#
# Compressibility (1/GPa) = 0.03879336
#
# Stress axis : x y z
#
# Youngs Moduli (GPa) = 97.97679 96.99710 41.04449
#
# Poissons Ratio (x) = 0.08905 0.05234
# Poissons Ratio (y) = 0.08995 0.03488
# Poissons Ratio (z) = 0.12494 0.08244
#
# Static dielectric constant tensor:
#      x y z
#    x 1.962020 0.000000 0.000000 
#    y 0.000000 2.090810 0.000000 
#    z 0.000000 0.000000 1.980360 
# 
# From -- ./inp_files/8782.got.cif
#   From: 2010.05.17/outbox.cif.g08.bks.cpg/sg33_5_cif.got.tgz:8782.got - 2010.06.03 17:15:25.
