data_PCOD9345198
_publ_section_title
;
Structure prediction by ZEFSAII (Michael W. Deem and Ramdas Pophale) SiO2 
 PCOD9345198
Probable space group: P N A 21
;
_chemical_formula_sum "Si O2"
_cell_formula_units_Z 32
_cell_length_a 12.880116
_cell_length_b 14.434961
_cell_length_c 7.049695
_cell_angle_alpha 90.000000
_cell_angle_beta 90.000000
_cell_angle_gamma 90.000000
_cell_volume 1310.707297
_symmetry_space_group_name_H-M "P N A 21"
_symmetry_group_IT_number 33
_symmetry_cell_setting 'orthorhombic'
loop_
_space_group_symop_operation_xyz
x,y,z
-x,-y,1/2+z
1/2-x,1/2+y,1/2+z
1/2+x,1/2-y,z
loop_
_atom_site_type_symbol
_atom_site_label
_atom_site_fract_x
_atom_site_fract_y
_atom_site_fract_z
Si Si1 0.037511 0.792481 0.508500
Si Si2 0.788485 0.066363 0.037560
Si Si3 0.604815 0.441965 0.041525
Si Si4 0.248834 0.905682 0.080125
Si Si5 0.559376 0.115060 0.093218
Si Si6 0.075428 0.094485 0.480257
Si Si7 0.584667 0.745168 0.091507
Si Si8 0.022447 0.415380 0.650039
O O1 0.117722 0.865504 0.598313
O O2 0.997228 0.711031 0.642684
O O3 0.094824 0.757985 0.320567
O O4 0.938076 0.852240 0.435651
O O5 0.773947 0.078194 0.807527
O O6 0.681499 0.101004 0.126563
O O7 0.826873 0.960623 0.072057
O O8 0.708108 0.497414 0.993516
O O9 0.602885 0.406804 0.258096
O O10 0.518174 0.521487 0.015929
O O11 0.181316 0.816156 0.020645
O O12 0.369750 0.896722 0.045256
O O13 0.544965 0.116053 0.864433
O O14 0.502876 0.022985 0.160796
O O15 0.021962 0.190467 0.538796
O O16 0.567382 0.853650 0.054504
#
# Coordination Sequence:
#
# PCOD9345198 Si02
#       8
#     4   4   4   4   4   4   4   4
#     4   9  18  33  53  75 100 133 171 207 246 295
#     4   8  16  32  51  73 103 134 161 201 256 296
#     4   9  16  29  51  76 102 130 163 204 247 292
#     4   8  16  32  51  73 103 134 161 201 256 296
#     4  10  21  36  52  72 102 135 167 206 250 299
#     4   9  16  29  51  76 102 130 163 204 247 292
#     4   9  18  33  53  75 100 133 171 207 246 295
#     4  10  21  36  52  72 102 135 167 206 250 299
#
# _framework density 24.414299
#
# number of rings (size 3 to 8) (size 9 to 14) (size 15 to 20)
#    0.000    3.000    0.000    2.250    0.000    3.000 
#    0.000    8.750    0.000    0.000    0.000    0.000 
#    0.000    0.000    0.000    0.000    0.000    0.000 
#
# Total GULP energy -178546.527800 kJ/mol
# GULP energy per Si atom -5579.578994 kJ/mol
# Density = 2.435873 g / cm^3
# Si number density = 24.414299 Si / 1000 Ang^3
#
#
#
# Elastic Constant Matrix: (Units=GPa)
#
#
# Indices 1 2 3 4 5 6 
#
# 1 105.7013 43.3759 -12.2026 0.0000 0.0000 0.0000
# 2 43.3759 125.2057 -14.9744 0.0000 0.0000 0.0000
# 3 -12.2026 -14.9744 66.1080 0.0000 0.0000 0.0000
# 4 0.0000 0.0000 0.0000 17.0971 0.0000 0.0000
# 5 0.0000 0.0000 0.0000 0.0000 39.9197 0.0000
# 6 0.0000 0.0000 0.0000 0.0000 0.0000 23.3487
#
#
#
# Elastic Compliance Matrix: (Units=1/GPa)
#
#
# Indices 1 2 3 4 5 6 
#
# 1 0.011122 -0.003708 0.001213 0.000000 0.000000 0.000000
# 2 -0.003708 0.009446 0.001455 0.000000 0.000000 0.000000
# 3 0.001213 0.001455 0.015680 0.000000 0.000000 0.000000
# 4 0.000000 0.000000 0.000000 0.058489 0.000000 0.000000
# 5 0.000000 0.000000 0.000000 0.000000 0.025050 0.000000
# 6 0.000000 0.000000 0.000000 0.000000 0.000000 0.042829
#
#
# Mechanical properties :
#
#
# Convention : Reuss Voigt Hill
#
# Bulk Modulus (GPa) = 29.26693 36.60141 32.93417
# Shear Modulus (GPa) = 28.39520 34.79417 31.59468
#
# Velocity S-wave (km/s) = 3.41406 3.77922 3.60127
# Velocity P-wave (km/s) = 5.24926 5.83675 5.55078
#
# Compressibility (1/GPa) = 0.03416825
#
# Stress axis : x y z
#
# Youngs Moduli (GPa) = 89.90917 105.87043 63.77434
#
# Poissons Ratio (x) = 0.39258 -0.07736
# Poissons Ratio (y) = 0.33339 -0.09280
# Poissons Ratio (z) = -0.10907 -0.15405
#
# Static dielectric constant tensor:
#      x y z
#    x 1.924910 0.000000 0.000000 
#    y 0.000000 2.029690 0.000000 
#    z 0.000000 0.000000 2.069850 
# 
# From -- ./inp_files/3931.got.cif
#   From: 2010.05.17/outbox.cif.g08.bks.cpg/sg33_2_cif.got.tgz:3931.got - 2010.06.03 17:15:25.
