data_PCOD9345641
_publ_section_title
;
Structure prediction by ZEFSAII (Michael W. Deem and Ramdas Pophale) SiO2 
 PCOD9345641
Probable space group: P N A 21
;
_chemical_formula_sum "Si O2"
_cell_formula_units_Z 32
_cell_length_a 11.575332
_cell_length_b 20.978566
_cell_length_c 6.256163
_cell_angle_alpha 90.000000
_cell_angle_beta 90.000000
_cell_angle_gamma 90.000000
_cell_volume 1519.208250
_symmetry_space_group_name_H-M "P N A 21"
_symmetry_group_IT_number 33
_symmetry_cell_setting 'orthorhombic'
loop_
_space_group_symop_operation_xyz
x,y,z
-x,-y,1/2+z
1/2-x,1/2+y,1/2+z
1/2+x,1/2-y,z
loop_
_atom_site_type_symbol
_atom_site_label
_atom_site_fract_x
_atom_site_fract_y
_atom_site_fract_z
Si Si1 0.586404 0.324232 0.097870
Si Si2 0.092742 0.771101 0.925045
Si Si3 0.525674 0.210760 0.812862
Si Si4 0.687682 0.145832 0.463798
Si Si5 0.245136 0.085602 0.340303
Si Si6 0.034329 0.638347 0.701948
Si Si7 0.593295 0.425426 0.733073
Si Si8 0.849981 0.028679 0.567788
O O1 0.495879 0.315757 0.292183
O O2 0.699567 0.355299 0.198251
O O3 0.591994 0.256371 0.980588
O O4 0.555783 0.374930 0.913680
O O5 0.218066 0.801228 0.900735
O O6 0.078135 0.702368 0.818973
O O7 0.056020 0.756975 0.170169
O O8 0.612090 0.176685 0.651792
O O9 0.461844 0.156655 0.952331
O O10 0.597425 0.128417 0.277209
O O11 0.758991 0.085080 0.542869
O O12 0.381126 0.084188 0.292464
O O13 0.194515 0.097970 0.575469
O O14 0.186507 0.020966 0.252998
O O15 0.477168 0.443796 0.609505
O O16 0.642121 0.487099 0.853683
#
# Coordination Sequence:
#
# PCOD9345641 Si02
#       8
#     4   4   4   4   4   4   4   4
#     4  10  22  38  69 102 132 174 217 280 346 396
#     4  10  23  40  68  99 137 170 222 278 332 410
#     4  10  23  42  65 101 134 176 220 270 345 412
#     4  11  25  42  66  99 137 178 226 278 335 418
#     4  11  24  42  67  95 136 177 227 285 335 408
#     4  10  26  43  62  99 137 178 227 268 346 412
#     4  11  23  42  71 100 132 171 232 286 343 399
#     4  11  24  43  68  99 131 176 229 285 338 395
#
# _framework density 21.063604000000002
#
# number of rings (size 3 to 8) (size 9 to 14) (size 15 to 20)
#    0.000    1.500    1.250    2.250   10.500    6.000 
#    4.500    0.000    0.000    0.000    0.000    0.000 
#    0.000    0.000    0.000    0.000    0.000    0.000 
#
# Total GULP energy -178727.571050 kJ/mol
# GULP energy per Si atom -5585.236595 kJ/mol
# Density = 2.101566 g / cm^3
# Si number density = 21.063604 Si / 1000 Ang^3
#
#
#
# Elastic Constant Matrix: (Units=GPa)
#
#
# Indices 1 2 3 4 5 6 
#
# 1 101.2229 17.3107 29.6608 0.0000 0.0000 0.0000
# 2 17.3107 45.8977 6.2210 0.0000 0.0000 0.0000
# 3 29.6608 6.2210 84.6192 0.0000 0.0000 0.0000
# 4 0.0000 0.0000 0.0000 26.8147 0.0000 0.0000
# 5 0.0000 0.0000 0.0000 0.0000 19.4585 0.0000
# 6 0.0000 0.0000 0.0000 0.0000 0.0000 31.8586
#
#
#
# Elastic Compliance Matrix: (Units=1/GPa)
#
#
# Indices 1 2 3 4 5 6 
#
# 1 0.011657 -0.003881 -0.003801 0.000000 0.000000 0.000000
# 2 -0.003881 0.023299 -0.000352 0.000000 0.000000 0.000000
# 3 -0.003801 -0.000352 0.013176 0.000000 0.000000 0.000000
# 4 0.000000 0.000000 0.000000 0.037293 0.000000 0.000000
# 5 0.000000 0.000000 0.000000 0.000000 0.051391 0.000000
# 6 0.000000 0.000000 0.000000 0.000000 0.000000 0.031389
#
#
# Mechanical properties :
#
#
# Convention : Reuss Voigt Hill
#
# Bulk Modulus (GPa) = 31.18854 37.56943 34.37898
# Shear Modulus (GPa) = 25.64617 27.52950 26.58784
#
# Velocity S-wave (km/s) = 3.49314 3.61913 3.55669
# Velocity P-wave (km/s) = 5.57748 5.94466 5.76400
#
# Compressibility (1/GPa) = 0.03206306
#
# Stress axis : x y z
#
# Youngs Moduli (GPa) = 85.78837 42.91988 75.89714
#
# Poissons Ratio (x) = 0.16658 0.28845
# Poissons Ratio (y) = 0.33297 0.02675
# Poissons Ratio (z) = 0.32604 0.01513
#
# Static dielectric constant tensor:
#      x y z
#    x 1.783180 0.000000 0.000000 
#    y 0.000000 1.765490 0.000000 
#    z 0.000000 0.000000 1.796910 
# 
# From -- ./inp_files/1050.got.cif
#   From: 2010.05.17/outbox.cif.g08.bks.cpg/sg33_1_cif.got.tgz:1050.got - 2010.06.03 17:15:25.
