data_PCOD9345973
_publ_section_title
;
Structure prediction by ZEFSAII (Michael W. Deem and Ramdas Pophale) SiO2 
 PCOD9345973
Probable space group: P N A 21
;
_chemical_formula_sum "Si O2"
_cell_formula_units_Z 20
_cell_length_a 13.899530
_cell_length_b 6.934430
_cell_length_c 8.074152
_cell_angle_alpha 90.000000
_cell_angle_beta 90.000000
_cell_angle_gamma 90.000000
_cell_volume 778.229707
_symmetry_space_group_name_H-M "P N A 21"
_symmetry_group_IT_number 33
_symmetry_cell_setting 'orthorhombic'
loop_
_space_group_symop_operation_xyz
x,y,z
-x,-y,1/2+z
1/2-x,1/2+y,1/2+z
1/2+x,1/2-y,z
loop_
_atom_site_type_symbol
_atom_site_label
_atom_site_fract_x
_atom_site_fract_y
_atom_site_fract_z
Si Si1 0.550908 0.042512 0.751800
Si Si2 0.093351 0.272137 0.099840
Si Si3 0.222432 0.274514 0.638797
Si Si4 0.428816 0.332828 0.552930
Si Si5 0.718057 0.653864 0.777807
O O1 0.663545 0.037757 0.699370
O O2 0.515623 0.212287 0.625502
O O3 0.465637 0.890227 0.735416
O O4 0.560794 0.118739 0.935493
O O5 0.208140 0.282883 0.130869
O O6 0.055572 0.057906 0.075560
O O7 0.336577 0.291380 0.670376
O O8 0.217817 0.288290 0.439393
O O9 0.198277 0.071381 0.727113
O O10 0.384979 0.292966 0.368029
#
# Coordination Sequence:
#
# PCOD9345973 Si02
#       5
#     4   4   4   4   4
#     4  12  25  45  77 117 155 202 278 323 419 471
#     4  12  25  48  79 110 155 211 260 349 392 498
#     4  10  22  48  74 105 162 207 266 336 396 505
#     4  10  26  48  72 111 158 205 264 327 411 488
#     4  10  22  49  72 107 156 205 268 323 414 468
#
# _framework density 25.699351
#
# number of rings (size 3 to 8) (size 9 to 14) (size 15 to 20)
#    1.200    0.000    4.000    1.200    0.000    6.400 
#    7.200    0.000    0.000    0.000    0.000    0.000 
#    0.000    0.000    0.000    0.000    0.000    0.000 
#
# Total GULP energy -111399.791079 kJ/mol
# GULP energy per Si atom -5569.989554 kJ/mol
# Density = 2.564086 g / cm^3
# Si number density = 25.699351 Si / 1000 Ang^3
#
#
#
# Elastic Constant Matrix: (Units=GPa)
#
#
# Indices 1 2 3 4 5 6 
#
# 1 114.1834 25.2204 36.9451 0.0000 0.0000 0.0000
# 2 25.2204 25.5142 20.0117 0.0000 0.0000 0.0000
# 3 36.9451 20.0117 114.3963 0.0000 0.0000 0.0000
# 4 0.0000 0.0000 0.0000 51.7296 0.0000 0.0000
# 5 0.0000 0.0000 0.0000 0.0000 36.2656 0.0000
# 6 0.0000 0.0000 0.0000 0.0000 0.0000 48.9579
#
#
#
# Elastic Compliance Matrix: (Units=1/GPa)
#
#
# Indices 1 2 3 4 5 6 
#
# 1 0.011592 -0.009877 -0.002016 0.000000 0.000000 0.000000
# 2 -0.009877 0.053843 -0.006229 0.000000 0.000000 0.000000
# 3 -0.002016 -0.006229 0.010482 0.000000 0.000000 0.000000
# 4 0.000000 0.000000 0.000000 0.019331 0.000000 0.000000
# 5 0.000000 0.000000 0.000000 0.000000 0.027574 0.000000
# 6 0.000000 0.000000 0.000000 0.000000 0.000000 0.020426
#
#
# Mechanical properties :
#
#
# Convention : Reuss Voigt Hill
#
# Bulk Modulus (GPa) = 25.20613 46.49425 35.85019
# Shear Modulus (GPa) = 25.94491 38.85175 32.39833
#
# Velocity S-wave (km/s) = 3.18080 3.89238 3.55444
# Velocity P-wave (km/s) = 4.82901 6.19126 5.55207
#
# Compressibility (1/GPa) = 0.03967288
#
# Stress axis : x y z
#
# Youngs Moduli (GPa) = 86.26871 18.57260 95.39978
#
# Poissons Ratio (x) = 0.18344 0.19231
# Poissons Ratio (y) = 0.85209 0.59424
# Poissons Ratio (z) = 0.17390 0.11569
#
# Static dielectric constant tensor:
#      x y z
#    x 2.029090 0.000000 0.000000 
#    y 0.000000 2.177480 0.000000 
#    z 0.000000 0.000000 2.034150 
# 
# From -- ./inp_files/4220.got.cif
#   From: 2010.05.17/outbox.cif.g08.bks.cpg/sg33_3_cif.got.tgz:4220.got - 2010.06.03 17:15:25.
