data_PCOD9345963
_publ_section_title
;
Structure prediction by ZEFSAII (Michael W. Deem and Ramdas Pophale) SiO2 
 PCOD9345963
Probable space group: P N A 21
;
_chemical_formula_sum "Si O2"
_cell_formula_units_Z 24
_cell_length_a 13.902160
_cell_length_b 13.493110
_cell_length_c 5.087412
_cell_angle_alpha 90.000000
_cell_angle_beta 90.000000
_cell_angle_gamma 90.000000
_cell_volume 954.313908
_symmetry_space_group_name_H-M "P N A 21"
_symmetry_group_IT_number 33
_symmetry_cell_setting 'orthorhombic'
loop_
_space_group_symop_operation_xyz
x,y,z
-x,-y,1/2+z
1/2-x,1/2+y,1/2+z
1/2+x,1/2-y,z
loop_
_atom_site_type_symbol
_atom_site_label
_atom_site_fract_x
_atom_site_fract_y
_atom_site_fract_z
Si Si1 0.014085 0.230167 0.685500
Si Si2 0.293751 0.631487 0.193894
Si Si3 0.372714 0.902408 0.413896
Si Si4 0.839426 0.231751 0.001712
Si Si5 0.399867 0.113502 0.349256
Si Si6 0.244249 0.920722 0.904053
O O1 0.100287 0.159700 0.585970
O O2 0.067791 0.303432 0.885311
O O3 0.921118 0.180246 0.823458
O O4 0.970185 0.307979 0.481693
O O5 0.255311 0.725570 0.361299
O O6 0.301017 0.529110 0.356884
O O7 0.206862 0.616789 0.985371
O O8 0.335369 0.914392 0.709023
O O9 0.432377 0.001315 0.350122
O O10 0.284234 0.909685 0.199399
O O11 0.882724 0.339928 0.067341
O O12 0.818752 0.166392 0.262342
#
# Coordination Sequence:
#
# PCOD9345963 Si02
#       6
#     4   4   4   4   4   4
#     4  11  25  40  68 104 143 181 236 313 360 424
#     4  10  22  47  65  98 139 191 233 291 370 429
#     4  11  24  43  73 100 136 186 231 297 369 419
#     4  11  23  43  66 104 136 184 239 293 349 448
#     4  10  24  40  68  99 135 177 243 288 353 440
#     4  11  24  45  74  95 139 193 234 286 365 448
#
# _framework density 25.148959000000001
#
# number of rings (size 3 to 8) (size 9 to 14) (size 15 to 20)
#    0.000    1.333    3.333    1.000    7.000    1.333 
#    3.000    0.000    0.000    0.000    0.000    0.000 
#    0.000    0.000    0.000    0.000    0.000    0.000 
#
# Total GULP energy -133990.298577 kJ/mol
# GULP energy per Si atom -5582.929107 kJ/mol
# Density = 2.509172 g / cm^3
# Si number density = 25.148959 Si / 1000 Ang^3
#
#
#
# Elastic Constant Matrix: (Units=GPa)
#
#
# Indices 1 2 3 4 5 6 
#
# 1 120.7883 17.3221 18.5186 0.0000 0.0000 0.0000
# 2 17.3221 103.0433 4.0160 0.0000 0.0000 0.0000
# 3 18.5186 4.0160 41.3720 0.0000 0.0000 0.0000
# 4 0.0000 0.0000 0.0000 35.3327 0.0000 0.0000
# 5 0.0000 0.0000 0.0000 0.0000 38.7415 0.0000
# 6 0.0000 0.0000 0.0000 0.0000 0.0000 31.8361
#
#
#
# Elastic Compliance Matrix: (Units=1/GPa)
#
#
# Indices 1 2 3 4 5 6 
#
# 1 0.009078 -0.001373 -0.003930 0.000000 0.000000 0.000000
# 2 -0.001373 0.009949 -0.000351 0.000000 0.000000 0.000000
# 3 -0.003930 -0.000351 0.025964 0.000000 0.000000 0.000000
# 4 0.000000 0.000000 0.000000 0.028302 0.000000 0.000000
# 5 0.000000 0.000000 0.000000 0.000000 0.025812 0.000000
# 6 0.000000 0.000000 0.000000 0.000000 0.000000 0.031411
#
#
# Mechanical properties :
#
#
# Convention : Reuss Voigt Hill
#
# Bulk Modulus (GPa) = 29.68870 38.32412 34.00641
# Shear Modulus (GPa) = 32.66821 36.20517 34.43669
#
# Velocity S-wave (km/s) = 3.60806 3.79836 3.70443
# Velocity P-wave (km/s) = 5.40261 5.87441 5.64344
#
# Compressibility (1/GPa) = 0.03368285
#
# Stress axis : x y z
#
# Youngs Moduli (GPa) = 110.15130 100.51116 38.51440
#
# Poissons Ratio (x) = 0.13800 0.15137
# Poissons Ratio (y) = 0.15123 0.01353
# Poissons Ratio (z) = 0.43293 0.03530
#
# Static dielectric constant tensor:
#      x y z
#    x 2.212860 0.000000 0.000000 
#    y 0.000000 2.029210 0.000000 
#    z 0.000000 0.000000 2.044470 
# 
# From -- ./inp_files/840.got.cif
#   From: 2010.05.17/outbox.cif.g08.bks.cpg/sg33_1_cif.got.tgz:840.got - 2010.06.03 17:15:25.
