data_PCOD9345884
_publ_section_title
;
Structure prediction by ZEFSAII (Michael W. Deem and Ramdas Pophale) SiO2 
 PCOD9345884
Probable space group: P N A 21
;
_chemical_formula_sum "Si O2"
_cell_formula_units_Z 24
_cell_length_a 5.662201
_cell_length_b 24.033457
_cell_length_c 7.585264
_cell_angle_alpha 90.000000
_cell_angle_beta 90.000000
_cell_angle_gamma 90.000000
_cell_volume 1032.219900
_symmetry_space_group_name_H-M "P N A 21"
_symmetry_group_IT_number 33
_symmetry_cell_setting 'orthorhombic'
loop_
_space_group_symop_operation_xyz
x,y,z
-x,-y,1/2+z
1/2-x,1/2+y,1/2+z
1/2+x,1/2-y,z
loop_
_atom_site_type_symbol
_atom_site_label
_atom_site_fract_x
_atom_site_fract_y
_atom_site_fract_z
Si Si1 0.357644 0.111590 0.777670
Si Si2 0.132667 0.494379 0.849147
Si Si3 0.370892 0.892180 0.903047
Si Si4 0.252966 0.735381 0.327605
Si Si5 0.508802 0.545889 0.088627
Si Si6 0.315156 0.776244 0.724122
O O1 0.508954 0.064860 0.875856
O O2 0.489088 0.120758 0.587280
O O3 0.303335 0.170719 0.859867
O O4 0.112093 0.080678 0.742113
O O5 0.273890 0.487459 0.666914
O O6 0.979018 0.549985 0.834404
O O7 0.316563 0.506775 0.003048
O O8 0.368488 0.839442 0.777993
O O9 0.103992 0.909240 0.950801
O O10 0.512742 0.740912 0.238335
O O11 0.291168 0.766878 0.513281
O O12 0.551524 0.742700 0.786991
#
# Coordination Sequence:
#
# PCOD9345884 Si02
#       6
#     4   4   4   4   4   4
#     4  10  23  43  69 101 141 185 238 294 360 434
#     4  10  22  44  68 108 136 186 232 296 372 426
#     4  10  23  43  69 101 141 185 238 294 360 434
#     4  10  24  47  66 102 139 185 240 294 355 420
#     4  10  22  44  66 106 140 184 232 294 366 428
#     4  10  24  47  66 102 139 185 240 294 355 420
#
# _framework density 23.250862000000001
#
# number of rings (size 3 to 8) (size 9 to 14) (size 15 to 20)
#    0.000    2.000    0.000    1.000    9.333    1.333 
#   30.000    0.000    0.000    0.000    0.000    0.000 
#    0.000    0.000    0.000    0.000    0.000    0.000 
#
# Total GULP energy -134042.407730 kJ/mol
# GULP energy per Si atom -5585.100322 kJ/mol
# Density = 2.319794 g / cm^3
# Si number density = 23.250862 Si / 1000 Ang^3
#
#
#
# Elastic Constant Matrix: (Units=GPa)
#
#
# Indices 1 2 3 4 5 6 
#
# 1 142.6726 33.8892 3.4727 0.0000 0.0000 0.0000
# 2 33.8892 86.1533 17.0163 0.0000 0.0000 0.0000
# 3 3.4727 17.0163 43.3150 0.0000 0.0000 0.0000
# 4 0.0000 0.0000 0.0000 44.8642 0.0000 0.0000
# 5 0.0000 0.0000 0.0000 0.0000 9.6715 0.0000
# 6 0.0000 0.0000 0.0000 0.0000 0.0000 18.9505
#
#
#
# Elastic Compliance Matrix: (Units=1/GPa)
#
#
# Indices 1 2 3 4 5 6 
#
# 1 0.007747 -0.003171 0.000625 0.000000 0.000000 0.000000
# 2 -0.003171 0.013881 -0.005199 0.000000 0.000000 0.000000
# 3 0.000625 -0.005199 0.025079 0.000000 0.000000 0.000000
# 4 0.000000 0.000000 0.000000 0.022289 0.000000 0.000000
# 5 0.000000 0.000000 0.000000 0.000000 0.103397 0.000000
# 6 0.000000 0.000000 0.000000 0.000000 0.000000 0.052769
#
#
# Mechanical properties :
#
#
# Convention : Reuss Voigt Hill
#
# Bulk Modulus (GPa) = 32.03399 42.32193 37.17796
# Shear Modulus (GPa) = 19.91566 29.21476 24.56521
#
# Velocity S-wave (km/s) = 2.92987 3.54856 3.25396
# Velocity P-wave (km/s) = 5.02524 5.91875 5.49020
#
# Compressibility (1/GPa) = 0.03121684
#
# Stress axis : x y z
#
# Youngs Moduli (GPa) = 129.08233 72.03924 39.87389
#
# Poissons Ratio (x) = 0.22841 -0.02490
# Poissons Ratio (y) = 0.40928 0.20731
# Poissons Ratio (z) = -0.08061 0.37454
#
# Static dielectric constant tensor:
#      x y z
#    x 1.969830 0.000000 0.000000 
#    y 0.000000 1.838740 0.000000 
#    z 0.000000 0.000000 1.932220 
# 
# From -- ./inp_files/2657.got.cif
#   From: 2010.05.17/outbox.cif.g08.bks.cpg/sg33_2_cif.got.tgz:2657.got - 2010.06.03 17:15:25.
