data_PCOD9345709
_publ_section_title
;
Structure prediction by ZEFSAII (Michael W. Deem and Ramdas Pophale) SiO2 
 PCOD9345709
Probable space group: P N A 21
;
_chemical_formula_sum "Si O2"
_cell_formula_units_Z 32
_cell_length_a 12.839726
_cell_length_b 15.703299
_cell_length_c 8.177781
_cell_angle_alpha 90.000000
_cell_angle_beta 90.000000
_cell_angle_gamma 90.000000
_cell_volume 1648.853734
_symmetry_space_group_name_H-M "P N A 21"
_symmetry_group_IT_number 33
_symmetry_cell_setting 'orthorhombic'
loop_
_space_group_symop_operation_xyz
x,y,z
-x,-y,1/2+z
1/2-x,1/2+y,1/2+z
1/2+x,1/2-y,z
loop_
_atom_site_type_symbol
_atom_site_label
_atom_site_fract_x
_atom_site_fract_y
_atom_site_fract_z
Si Si1 0.070080 0.269480 0.280370
Si Si2 0.083150 0.078414 0.360465
Si Si3 0.915455 0.562625 0.994605
Si Si4 0.038964 0.401646 0.855240
Si Si5 0.388396 0.216073 0.032220
Si Si6 0.229442 0.058478 0.043687
Si Si7 0.631414 0.502150 0.719134
Si Si8 0.266279 0.854888 0.556644
O O1 0.085324 0.180975 0.372191
O O2 0.078211 0.355760 0.381604
O O3 0.162621 0.285116 0.150111
O O4 0.957537 0.267045 0.193126
O O5 0.160657 0.055556 0.208665
O O6 0.108052 0.039980 0.540466
O O7 0.971159 0.046658 0.294364
O O8 0.962433 0.590002 0.164680
O O9 0.801327 0.525247 0.029694
O O10 0.982461 0.484674 0.925659
O O11 0.154752 0.396081 0.928141
O O12 0.973270 0.319373 0.906720
O O13 0.306565 0.139345 0.055457
O O14 0.329196 0.301674 0.982540
O O15 0.169770 0.059142 0.867874
O O16 0.718672 0.573409 0.675530
#
# Coordination Sequence:
#
# PCOD9345709 Si02
#       8
#     4   4   4   4   4   4   4   4
#     4  11  23  43  69  93 135 171 222 283 333 387
#     4  12  25  44  67 100 135 180 225 276 336 410
#     4  11  22  44  66  98 131 172 225 280 337 397
#     4  10  23  39  68  98 131 171 222 280 334 404
#     4  10  22  40  67  97 131 173 220 270 340 395
#     4  11  23  43  69  97 135 178 223 274 337 406
#     4  12  25  42  68  96 136 182 223 270 338 410
#     4  11  21  43  66  91 132 181 214 271 343 387
#
# _framework density 19.407423999999999
#
# number of rings (size 3 to 8) (size 9 to 14) (size 15 to 20)
#    0.000    1.000    5.000    3.000    1.750    1.000 
#    2.250    1.250    0.000    0.000    0.000    0.000 
#    0.000    0.000    0.000    0.000    0.000    0.000 
#
# Total GULP energy -178547.614394 kJ/mol
# GULP energy per Si atom -5579.612950 kJ/mol
# Density = 1.936325 g / cm^3
# Si number density = 19.407424 Si / 1000 Ang^3
#
#
#
# Elastic Constant Matrix: (Units=GPa)
#
#
# Indices 1 2 3 4 5 6 
#
# 1 88.6402 32.8975 30.4136 0.0000 0.0000 0.0000
# 2 32.8975 87.8495 26.3889 0.0000 0.0000 0.0000
# 3 30.4136 26.3889 87.0459 0.0000 0.0000 0.0000
# 4 0.0000 0.0000 0.0000 29.9307 0.0000 0.0000
# 5 0.0000 0.0000 0.0000 0.0000 24.6761 0.0000
# 6 0.0000 0.0000 0.0000 0.0000 0.0000 29.5186
#
#
#
# Elastic Compliance Matrix: (Units=1/GPa)
#
#
# Indices 1 2 3 4 5 6 
#
# 1 0.014086 -0.004177 -0.003655 0.000000 0.000000 0.000000
# 2 -0.004177 0.013762 -0.002713 0.000000 0.000000 0.000000
# 3 -0.003655 -0.002713 0.013588 0.000000 0.000000 0.000000
# 4 0.000000 0.000000 0.000000 0.033410 0.000000 0.000000
# 5 0.000000 0.000000 0.000000 0.000000 0.040525 0.000000
# 6 0.000000 0.000000 0.000000 0.000000 0.000000 0.033877
#
#
# Mechanical properties :
#
#
# Convention : Reuss Voigt Hill
#
# Bulk Modulus (GPa) = 49.14981 49.21506 49.18244
# Shear Modulus (GPa) = 28.22944 28.41413 28.32178
#
# Velocity S-wave (km/s) = 3.81802 3.83049 3.82426
# Velocity P-wave (km/s) = 6.69452 6.70652 6.70052
#
# Compressibility (1/GPa) = 0.02034596
#
# Stress axis : x y z
#
# Youngs Moduli (GPa) = 70.99288 72.66335 73.59572
#
# Poissons Ratio (x) = 0.30350 0.26902
# Poissons Ratio (y) = 0.29652 0.19965
# Poissons Ratio (z) = 0.25950 0.19712
#
# Static dielectric constant tensor:
#      x y z
#    x 1.691070 0.000000 0.000000 
#    y 0.000000 1.638280 0.000000 
#    z 0.000000 0.000000 1.668510 
# 
# From -- ./inp_files/3958.got.cif
#   From: 2010.05.17/outbox.cif.g08.bks.cpg/sg33_2_cif.got.tgz:3958.got - 2010.06.03 17:15:25.
