data_PCOD9345228
_publ_section_title
;
Structure prediction by ZEFSAII (Michael W. Deem and Ramdas Pophale) SiO2 
 PCOD9345228
Probable space group: P N A 21
;
_chemical_formula_sum "Si O2"
_cell_formula_units_Z 32
_cell_length_a 20.261404
_cell_length_b 10.198160
_cell_length_c 8.801611
_cell_angle_alpha 90.000000
_cell_angle_beta 90.000000
_cell_angle_gamma 90.000000
_cell_volume 1818.668430
_symmetry_space_group_name_H-M "P N A 21"
_symmetry_group_IT_number 33
_symmetry_cell_setting 'orthorhombic'
loop_
_space_group_symop_operation_xyz
x,y,z
-x,-y,1/2+z
1/2-x,1/2+y,1/2+z
1/2+x,1/2-y,z
loop_
_atom_site_type_symbol
_atom_site_label
_atom_site_fract_x
_atom_site_fract_y
_atom_site_fract_z
Si Si1 0.193609 0.598282 0.946220
Si Si2 0.202296 0.901419 0.584551
Si Si3 0.449541 0.104586 0.584169
Si Si4 0.048464 0.892005 0.947515
Si Si5 0.806393 0.401718 0.084753
Si Si6 0.548462 0.607994 0.583461
Si Si7 0.202298 0.901419 0.946419
Si Si8 0.449543 0.104587 0.946807
O O1 0.181643 0.592722 0.765487
O O2 0.214324 0.748113 0.982369
O O3 0.249320 0.496766 0.995621
O O4 0.124837 0.571628 0.031026
O O5 0.214320 0.748113 0.548601
O O6 0.125094 0.926321 0.550546
O O7 0.212032 0.919541 0.765485
O O8 0.464447 0.249399 0.519026
O O9 0.453586 0.105508 0.765487
O O10 0.499998 0.999998 0.515486
O O11 0.041489 0.883905 0.765488
O O12 0.125096 0.926317 0.980428
O O13 0.000001 1.000000 0.015489
O O14 0.750683 0.503233 0.035347
O O15 0.875166 0.428375 0.999953
O O16 0.535552 0.750600 0.511948
#
# Coordination Sequence:
#
# PCOD9345228 Si02
#       8
#     4   4   4   4   4   4   4   4
#     4  10  21  37  57  82 111 143 183 228 274 328
#     4   9  20  37  55  79 111 145 182 225 271 323
#     4  11  22  38  59  82 111 146 185 230 280 331
#     4  10  21  38  58  83 115 148 186 229 275 328
#     4  10  21  37  57  82 111 143 183 228 274 328
#     4  10  21  38  58  83 115 148 186 229 275 328
#     4   9  20  37  55  79 111 145 182 225 271 323
#     4  11  22  38  59  82 111 146 185 230 280 331
#
# _framework density 17.595289000000001
#
# number of rings (size 3 to 8) (size 9 to 14) (size 15 to 20)
#    0.000    2.000    0.000    5.250    0.000    8.000 
#    0.000    5.000    0.000    0.000    0.000    0.000 
#    0.000    0.000    0.000    0.000    0.000    0.000 
#
# Total GULP energy -178738.523951 kJ/mol
# GULP energy per Si atom -5585.578873 kJ/mol
# Density = 1.755524 g / cm^3
# Si number density = 17.595289 Si / 1000 Ang^3
#
#
#
# Elastic Constant Matrix: (Units=GPa)
#
#
# Indices 1 2 3 4 5 6 
#
# 1 117.3730 115.3060 84.5010 0.0000 0.0000 0.0000
# 2 115.3060 129.8886 85.0026 0.0000 0.0000 0.0000
# 3 84.5010 85.0026 121.5994 0.0000 0.0000 0.0000
# 4 0.0000 0.0000 0.0000 36.2370 0.0000 0.0000
# 5 0.0000 0.0000 0.0000 0.0000 35.2958 0.0000
# 6 0.0000 0.0000 0.0000 0.0000 0.0000 41.0443
#
#
#
# Elastic Compliance Matrix: (Units=1/GPa)
#
#
# Indices 1 2 3 4 5 6 
#
# 1 0.072604 -0.057941 -0.009951 0.000000 0.000000 0.000000
# 2 -0.057941 0.060430 -0.001979 0.000000 0.000000 0.000000
# 3 -0.009951 -0.001979 0.016522 0.000000 0.000000 0.000000
# 4 0.000000 0.000000 0.000000 0.027596 0.000000 0.000000
# 5 0.000000 0.000000 0.000000 0.000000 0.028332 0.000000
# 6 0.000000 0.000000 0.000000 0.000000 0.000000 0.024364
#
#
# Mechanical properties :
#
#
# Convention : Reuss Voigt Hill
#
# Bulk Modulus (GPa) = 101.88509 104.27558 103.08033
# Shear Modulus (GPa) = 13.40983 28.11885 20.76434
#
# Velocity S-wave (km/s) = 2.76366 4.00195 3.43900
# Velocity P-wave (km/s) = 8.25919 8.98588 8.63019
#
# Compressibility (1/GPa) = 0.00981498
#
# Stress axis : x y z
#
# Youngs Moduli (GPa) = 13.77328 16.54811 60.52582
#
# Poissons Ratio (x) = 0.95881 0.60228
# Poissons Ratio (y) = 0.79804 0.11977
# Poissons Ratio (z) = 0.13705 0.03275
#
# Static dielectric constant tensor:
#      x y z
#    x 1.573250 0.000000 0.000000 
#    y 0.000000 1.572550 0.000000 
#    z 0.000000 0.000000 1.588640 
# 
# From -- ./inp_files/5014.got.cif
#   From: 2010.05.17/outbox.cif.g08.bks.cpg/sg33_3_cif.got.tgz:5014.got - 2010.06.03 17:15:25.
