data_PCOD9345292
_publ_section_title
;
Structure prediction by ZEFSAII (Michael W. Deem and Ramdas Pophale) SiO2 
 PCOD9345292
Probable space group: P N A 21
;
_chemical_formula_sum "Si O2"
_cell_formula_units_Z 24
_cell_length_a 11.017520
_cell_length_b 15.775789
_cell_length_c 5.001495
_cell_angle_alpha 90.000000
_cell_angle_beta 90.000000
_cell_angle_gamma 90.000000
_cell_volume 869.310200
_symmetry_space_group_name_H-M "P N A 21"
_symmetry_group_IT_number 33
_symmetry_cell_setting 'orthorhombic'
loop_
_space_group_symop_operation_xyz
x,y,z
-x,-y,1/2+z
1/2-x,1/2+y,1/2+z
1/2+x,1/2-y,z
loop_
_atom_site_type_symbol
_atom_site_label
_atom_site_fract_x
_atom_site_fract_y
_atom_site_fract_z
Si Si1 0.463019 0.101940 0.519940
Si Si2 0.816214 0.547396 0.273558
Si Si3 0.680281 0.226116 0.870778
Si Si4 0.750793 0.401275 0.918439
Si Si5 0.468450 0.551475 0.078716
Si Si6 0.068489 0.771440 0.052069
O O1 0.605707 0.094171 0.546659
O O2 0.385956 0.106666 0.797956
O O3 0.436996 0.189176 0.363137
O O4 0.411132 0.017661 0.396886
O O5 0.797734 0.628655 0.466307
O O6 0.733205 0.481626 0.111249
O O7 0.704820 0.312128 0.039528
O O8 0.795672 0.229761 0.667544
O O9 0.545695 0.246998 0.750903
O O10 0.667895 0.421996 0.658504
O O11 0.521641 0.523940 0.367324
O O12 0.537576 0.633777 0.965252
#
# Coordination Sequence:
#
# PCOD9345292 Si02
#       6
#     4   4   4   4   4   4
#     4  10  21  38  64  99 135 175 235 290 349 420
#     4  11  20  39  67  95 135 182 231 290 355 420
#     4   9  20  38  64  90 136 172 230 290 351 418
#     4  10  22  40  63  95 134 178 229 290 351 421
#     4  11  25  45  68  98 138 188 236 284 353 427
#     4   9  20  42  62  97 138 179 231 292 347 418
#
# _framework density 27.608094999999999
#
# number of rings (size 3 to 8) (size 9 to 14) (size 15 to 20)
#    0.000    2.000    1.667    1.000    4.667    0.000 
#    6.000    3.333    0.000    0.000    0.000    0.000 
#    0.000    0.000    0.000    0.000    0.000    0.000 
#
# Total GULP energy -133825.797901 kJ/mol
# GULP energy per Si atom -5576.074913 kJ/mol
# Density = 2.754526 g / cm^3
# Si number density = 27.608095 Si / 1000 Ang^3
#
#
#
# Elastic Constant Matrix: (Units=GPa)
#
#
# Indices 1 2 3 4 5 6 
#
# 1 140.3652 14.8736 24.6665 0.0000 0.0000 0.0000
# 2 14.8736 237.3784 31.6010 0.0000 0.0000 0.0000
# 3 24.6665 31.6010 75.4344 0.0000 0.0000 0.0000
# 4 0.0000 0.0000 0.0000 17.5993 0.0000 0.0000
# 5 0.0000 0.0000 0.0000 0.0000 27.5389 0.0000
# 6 0.0000 0.0000 0.0000 0.0000 0.0000 59.2715
#
#
#
# Elastic Compliance Matrix: (Units=1/GPa)
#
#
# Indices 1 2 3 4 5 6 
#
# 1 0.007564 -0.000153 -0.002409 0.000000 0.000000 0.000000
# 2 -0.000153 0.004465 -0.001820 0.000000 0.000000 0.000000
# 3 -0.002409 -0.001820 0.014807 0.000000 0.000000 0.000000
# 4 0.000000 0.000000 0.000000 0.056820 0.000000 0.000000
# 5 0.000000 0.000000 0.000000 0.000000 0.036312 0.000000
# 6 0.000000 0.000000 0.000000 0.000000 0.000000 0.016872
#
#
# Mechanical properties :
#
#
# Convention : Reuss Voigt Hill
#
# Bulk Modulus (GPa) = 55.33984 66.16226 60.75105
# Shear Modulus (GPa) = 32.97543 46.35107 39.66325
#
# Velocity S-wave (km/s) = 3.45978 4.10188 3.79443
# Velocity P-wave (km/s) = 6.00403 6.81547 6.42258
#
# Compressibility (1/GPa) = 0.01807017
#
# Stress axis : x y z
#
# Youngs Moduli (GPa) = 132.20743 223.98436 67.53635
#
# Poissons Ratio (x) = 0.03432 0.16271
# Poissons Ratio (y) = 0.02026 0.12293
# Poissons Ratio (z) = 0.31851 0.40770
#
# Static dielectric constant tensor:
#      x y z
#    x 2.269420 0.000000 0.000000 
#    y 0.000000 2.281450 0.000000 
#    z 0.000000 0.000000 2.222230 
# 
# From -- ./inp_files/831.got.cif
#   From: 2010.05.17/outbox.cif.g08.bks.cpg/sg33_1_cif.got.tgz:831.got - 2010.06.03 17:15:25.
