data_PCOD9345552
_publ_section_title
;
Structure prediction by ZEFSAII (Michael W. Deem and Ramdas Pophale) SiO2 
 PCOD9345552
Probable space group: P N A 21
;
_chemical_formula_sum "Si O2"
_cell_formula_units_Z 32
_cell_length_a 20.942443
_cell_length_b 5.202499
_cell_length_c 12.084981
_cell_angle_alpha 90.000000
_cell_angle_beta 90.000000
_cell_angle_gamma 90.000000
_cell_volume 1316.695403
_symmetry_space_group_name_H-M "P N A 21"
_symmetry_group_IT_number 33
_symmetry_cell_setting 'orthorhombic'
loop_
_space_group_symop_operation_xyz
x,y,z
-x,-y,1/2+z
1/2-x,1/2+y,1/2+z
1/2+x,1/2-y,z
loop_
_atom_site_type_symbol
_atom_site_label
_atom_site_fract_x
_atom_site_fract_y
_atom_site_fract_z
Si Si1 0.939808 0.336277 0.272750
Si Si2 0.152590 0.242424 0.152039
Si Si3 0.427729 0.853001 0.045405
Si Si4 0.574924 0.963996 0.311240
Si Si5 0.342415 0.067230 0.454013
Si Si6 0.940275 0.123690 0.603322
Si Si7 0.269456 0.028823 0.246410
Si Si8 0.156704 0.021067 0.678757
O O1 0.931773 0.477347 0.155927
O O2 0.898998 0.486799 0.365572
O O3 0.013449 0.346919 0.302556
O O4 0.904282 0.063315 0.255286
O O5 0.138587 0.429354 0.253826
O O6 0.197283 0.027626 0.204819
O O7 0.080687 0.169616 0.112571
O O8 0.181045 0.357063 0.040663
O O9 0.494891 0.699019 0.043694
O O10 0.372540 0.643100 0.067520
O O11 0.416356 0.040265 0.942263
O O12 0.557531 0.730202 0.229165
O O13 0.379940 0.264603 0.534092
O O14 0.284020 0.124626 0.371520
O O15 0.303518 0.256446 0.175106
O O16 0.300544 0.749430 0.229677
#
# Coordination Sequence:
#
# PCOD9345552 Si02
#       8
#     4   4   4   4   4   4   4   4
#     4  10  21  43  71 108 141 189 243 297 373 439
#     4  11  26  46  65 107 145 196 244 305 361 435
#     4  11  21  41  73 108 143 185 236 309 369 435
#     4  10  23  42  67 109 149 182 238 305 367 438
#     4  10  22  44  72 100 139 193 240 296 361 436
#     4  10  23  43  70 104 145 188 238 300 373 435
#     4  11  27  46  74 100 147 192 253 293 356 436
#     4  11  23  45  70 104 135 187 242 297 352 434
#
# _framework density 24.303267000000002
#
# number of rings (size 3 to 8) (size 9 to 14) (size 15 to 20)
#    0.000    1.500    3.750    0.750    7.000    2.000 
#    6.750    0.000    0.000    0.000    0.000    0.000 
#    0.000    0.000    0.000    0.000    0.000    0.000 
#
# Total GULP energy -178428.263992 kJ/mol
# GULP energy per Si atom -5575.883250 kJ/mol
# Density = 2.424795 g / cm^3
# Si number density = 24.303267 Si / 1000 Ang^3
#
#
#
# Elastic Constant Matrix: (Units=GPa)
#
#
# Indices 1 2 3 4 5 6 
#
# 1 59.0069 17.1334 37.3347 0.0000 0.0000 0.0000
# 2 17.1334 60.6406 4.4404 0.0000 0.0000 0.0000
# 3 37.3347 4.4404 154.5396 0.0000 0.0000 0.0000
# 4 0.0000 0.0000 0.0000 12.3558 0.0000 0.0000
# 5 0.0000 0.0000 0.0000 0.0000 28.1468 0.0000
# 6 0.0000 0.0000 0.0000 0.0000 0.0000 33.5221
#
#
#
# Elastic Compliance Matrix: (Units=1/GPa)
#
#
# Indices 1 2 3 4 5 6 
#
# 1 0.021870 -0.005804 -0.005117 0.000000 0.000000 0.000000
# 2 -0.005804 0.018066 0.000883 0.000000 0.000000 0.000000
# 3 -0.005117 0.000883 0.007682 0.000000 0.000000 0.000000
# 4 0.000000 0.000000 0.000000 0.080934 0.000000 0.000000
# 5 0.000000 0.000000 0.000000 0.000000 0.035528 0.000000
# 6 0.000000 0.000000 0.000000 0.000000 0.000000 0.029831
#
#
# Mechanical properties :
#
#
# Convention : Reuss Voigt Hill
#
# Bulk Modulus (GPa) = 36.30883 43.55602 39.93242
# Shear Modulus (GPa) = 22.40476 29.15686 25.78081
#
# Velocity S-wave (km/s) = 3.03955 3.46744 3.26052
# Velocity P-wave (km/s) = 5.22406 5.83023 5.53545
#
# Compressibility (1/GPa) = 0.02754151
#
# Stress axis : x y z
#
# Youngs Moduli (GPa) = 45.72475 55.35289 130.18145
#
# Poissons Ratio (x) = 0.32129 0.66610
# Poissons Ratio (y) = 0.26541 -0.11498
# Poissons Ratio (z) = 0.23396 -0.04889
#
# Static dielectric constant tensor:
#      x y z
#    x 1.993150 0.000000 0.000000 
#    y 0.000000 2.047300 0.000000 
#    z 0.000000 0.000000 1.911850 
# 
# From -- ./inp_files/7348.got.cif
#   From: 2010.05.17/outbox.cif.g08.bks.cpg/sg33_4_cif.got.tgz:7348.got - 2010.06.03 17:15:25.
