data_PCOD9345985
_publ_section_title
;
Structure prediction by ZEFSAII (Michael W. Deem and Ramdas Pophale) SiO2 
 PCOD9345985
Probable space group: P N A 21
;
_chemical_formula_sum "Si O2"
_cell_formula_units_Z 32
_cell_length_a 5.568901
_cell_length_b 28.215823
_cell_length_c 8.807060
_cell_angle_alpha 90.000000
_cell_angle_beta 90.000000
_cell_angle_gamma 90.000000
_cell_volume 1383.863245
_symmetry_space_group_name_H-M "P N A 21"
_symmetry_group_IT_number 33
_symmetry_cell_setting 'orthorhombic'
loop_
_space_group_symop_operation_xyz
x,y,z
-x,-y,1/2+z
1/2-x,1/2+y,1/2+z
1/2+x,1/2-y,z
loop_
_atom_site_type_symbol
_atom_site_label
_atom_site_fract_x
_atom_site_fract_y
_atom_site_fract_z
Si Si1 0.882214 0.369003 0.849960
Si Si2 0.595769 0.410903 0.122816
Si Si3 0.594558 0.959421 0.863647
Si Si4 0.218653 0.875858 0.896847
Si Si5 0.423473 0.575598 0.122033
Si Si6 0.241629 0.443733 0.887706
Si Si7 0.669156 0.230293 0.417354
Si Si8 0.241226 0.235093 0.766931
O O1 0.791145 0.404362 0.720692
O O2 0.849212 0.317292 0.784075
O O3 0.141617 0.390138 0.887123
O O4 0.720624 0.377538 0.998532
O O5 0.800620 0.442197 0.203303
O O6 0.453943 0.381790 0.251711
O O7 0.408212 0.444371 0.035481
O O8 0.386383 0.922373 0.900962
O O9 0.542432 0.015016 0.879326
O O10 0.813144 0.952320 0.981855
O O11 0.355502 0.826253 0.900003
O O12 0.060476 0.879718 0.048308
O O13 0.598558 0.549268 0.237440
O O14 0.429174 0.254474 0.351698
O O15 0.694836 0.247026 0.593926
O O16 0.468986 0.264583 0.833555
#
# Coordination Sequence:
#
# PCOD9345985 Si02
#       8
#     4   4   4   4   4   4   4   4
#     4  11  24  42  69  99 139 181 231 292 353 431
#     4  10  25  44  66  94 150 184 230 282 365 422
#     4  11  24  42  67  99 137 183 233 288 355 428
#     4  11  24  42  69  99 139 181 231 292 353 431
#     4  10  23  38  66  96 134 170 236 282 353 406
#     4  11  24  42  67  99 137 183 233 288 355 428
#     4  10  23  40  70 102 139 176 235 298 364 414
#     4  10  23  40  70 102 139 176 235 298 364 414
#
# _framework density 23.123673
#
# number of rings (size 3 to 8) (size 9 to 14) (size 15 to 20)
#    0.000    1.500    0.000    3.750   14.000    8.000 
#    0.000    1.250    0.000    0.000    0.000    0.000 
#    0.000    0.000    0.000    0.000    0.000    0.000 
#
# Total GULP energy -178746.315708 kJ/mol
# GULP energy per Si atom -5585.822366 kJ/mol
# Density = 2.307104 g / cm^3
# Si number density = 23.123673 Si / 1000 Ang^3
#
#
#
# Elastic Constant Matrix: (Units=GPa)
#
#
# Indices 1 2 3 4 5 6 
#
# 1 89.5614 -4.8881 2.5675 0.0000 0.0000 0.0000
# 2 -4.8881 77.9422 16.6276 0.0000 0.0000 0.0000
# 3 2.5675 16.6276 70.6343 0.0000 0.0000 0.0000
# 4 0.0000 0.0000 0.0000 11.9302 0.0000 0.0000
# 5 0.0000 0.0000 0.0000 0.0000 9.0307 0.0000
# 6 0.0000 0.0000 0.0000 0.0000 0.0000 32.2575
#
#
#
# Elastic Compliance Matrix: (Units=1/GPa)
#
#
# Indices 1 2 3 4 5 6 
#
# 1 0.011228 0.000833 -0.000604 0.000000 0.000000 0.000000
# 2 0.000833 0.013570 -0.003225 0.000000 0.000000 0.000000
# 3 -0.000604 -0.003225 0.014939 0.000000 0.000000 0.000000
# 4 0.000000 0.000000 0.000000 0.083821 0.000000 0.000000
# 5 0.000000 0.000000 0.000000 0.000000 0.110733 0.000000
# 6 0.000000 0.000000 0.000000 0.000000 0.000000 0.031000
#
#
# Mechanical properties :
#
#
# Convention : Reuss Voigt Hill
#
# Bulk Modulus (GPa) = 29.63387 29.63910 29.63648
# Shear Modulus (GPa) = 17.69711 25.56574 21.63143
#
# Velocity S-wave (km/s) = 2.76945 3.32868 3.06186
# Velocity P-wave (km/s) = 4.80309 5.25537 5.03431
#
# Compressibility (1/GPa) = 0.03374517
#
# Stress axis : x y z
#
# Youngs Moduli (GPa) = 89.06053 73.69085 66.94102
#
# Poissons Ratio (x) = -0.06139 0.04045
# Poissons Ratio (y) = -0.07419 0.21587
# Poissons Ratio (z) = 0.05381 0.23764
#
# Static dielectric constant tensor:
#      x y z
#    x 1.933240 0.000000 0.000000 
#    y 0.000000 1.880340 0.000000 
#    z 0.000000 0.000000 1.849660 
# 
# From -- ./inp_files/2857.got.cif
#   From: 2010.05.17/outbox.cif.g08.bks.cpg/sg33_2_cif.got.tgz:2857.got - 2010.06.03 17:15:25.
