data_PCOD9345470
_publ_section_title
;
Structure prediction by ZEFSAII (Michael W. Deem and Ramdas Pophale) SiO2 
 PCOD9345470
Probable space group: P N A 21
;
_chemical_formula_sum "Si O2"
_cell_formula_units_Z 32
_cell_length_a 13.848760
_cell_length_b 12.409886
_cell_length_c 8.461534
_cell_angle_alpha 90.000000
_cell_angle_beta 90.000000
_cell_angle_gamma 90.000000
_cell_volume 1454.212203
_symmetry_space_group_name_H-M "P N A 21"
_symmetry_group_IT_number 33
_symmetry_cell_setting 'orthorhombic'
loop_
_space_group_symop_operation_xyz
x,y,z
-x,-y,1/2+z
1/2-x,1/2+y,1/2+z
1/2+x,1/2-y,z
loop_
_atom_site_type_symbol
_atom_site_label
_atom_site_fract_x
_atom_site_fract_y
_atom_site_fract_z
Si Si1 0.816029 0.225264 0.812780
Si Si2 0.007190 0.146711 0.652322
Si Si3 0.710119 0.609675 0.878565
Si Si4 0.940738 0.955202 0.481485
Si Si5 0.352238 0.842753 0.139574
Si Si6 0.026795 0.540920 0.550368
Si Si7 0.359409 0.039941 0.725844
Si Si8 0.566341 0.719639 0.638715
O O1 0.711411 0.173225 0.795543
O O2 0.807152 0.346294 0.746054
O O3 0.897310 0.171863 0.701290
O O4 0.860738 0.217832 0.987531
O O5 0.062503 0.256898 0.623980
O O6 0.050033 0.091823 0.807773
O O7 0.010120 0.057367 0.516432
O O8 0.782126 0.553379 0.754860
O O9 0.626998 0.677349 0.789265
O O10 0.664140 0.510364 0.980047
O O11 0.777986 0.676129 0.995517
O O12 0.977973 0.862137 0.599134
O O13 0.394482 0.961372 0.125853
O O14 0.061647 0.546881 0.369163
O O15 0.028689 0.657504 0.634786
O O16 0.923193 0.485395 0.573380
#
# Coordination Sequence:
#
# PCOD9345470 Si02
#       8
#     4   4   4   4   4   4   4   4
#     4  10  21  41  67  92 132 172 224 271 334 411
#     4  11  22  42  68  96 130 182 223 277 343 395
#     4  11  23  42  63 101 133 170 227 277 327 410
#     4  11  22  43  68  94 137 171 229 279 335 395
#     4  11  23  42  70  96 133 182 218 279 343 400
#     4  10  23  44  64  93 132 171 220 270 338 393
#     4  10  22  42  64  94 131 168 216 275 328 400
#     4  10  24  44  64 102 132 176 223 278 336 398
#
# _framework density 22.005040999999999
#
# number of rings (size 3 to 8) (size 9 to 14) (size 15 to 20)
#    0.000    1.500    3.750    0.750    0.000    4.000 
#   11.250    0.000    0.000    0.000    0.000    0.000 
#    0.000    0.000    0.000    0.000    0.000    0.000 
#
# Total GULP energy -178657.411903 kJ/mol
# GULP energy per Si atom -5583.044122 kJ/mol
# Density = 2.195496 g / cm^3
# Si number density = 22.005041 Si / 1000 Ang^3
#
#
#
# Elastic Constant Matrix: (Units=GPa)
#
#
# Indices 1 2 3 4 5 6 
#
# 1 50.7831 5.7133 9.0633 0.0000 0.0000 0.0000
# 2 5.7133 89.8966 30.3328 0.0000 0.0000 0.0000
# 3 9.0633 30.3328 36.1095 0.0000 0.0000 0.0000
# 4 0.0000 0.0000 0.0000 26.1105 0.0000 0.0000
# 5 0.0000 0.0000 0.0000 0.0000 33.8224 0.0000
# 6 0.0000 0.0000 0.0000 0.0000 0.0000 15.5549
#
#
#
# Elastic Compliance Matrix: (Units=1/GPa)
#
#
# Indices 1 2 3 4 5 6 
#
# 1 0.020639 0.000609 -0.005692 0.000000 0.000000 0.000000
# 2 0.000609 0.015542 -0.013208 0.000000 0.000000 0.000000
# 3 -0.005692 -0.013208 0.040217 0.000000 0.000000 0.000000
# 4 0.000000 0.000000 0.000000 0.038299 0.000000 0.000000
# 5 0.000000 0.000000 0.000000 0.000000 0.029566 0.000000
# 6 0.000000 0.000000 0.000000 0.000000 0.000000 0.064289
#
#
# Mechanical properties :
#
#
# Convention : Reuss Voigt Hill
#
# Bulk Modulus (GPa) = 25.11565 29.66755 27.39160
# Shear Modulus (GPa) = 19.34938 23.87620 21.61279
#
# Velocity S-wave (km/s) = 2.96854 3.29756 3.13737
# Velocity P-wave (km/s) = 4.81540 5.29244 5.05954
#
# Compressibility (1/GPa) = 0.03981581
#
# Stress axis : x y z
#
# Youngs Moduli (GPa) = 48.45222 64.34195 24.86485
#
# Poissons Ratio (x) = -0.03917 0.14152
# Poissons Ratio (y) = -0.02950 0.32842
# Poissons Ratio (z) = 0.27577 0.84985
#
# Static dielectric constant tensor:
#      x y z
#    x 1.832540 0.000000 0.000000 
#    y 0.000000 1.817140 0.000000 
#    z 0.000000 0.000000 1.853980 
# 
# From -- ./inp_files/4372.got.cif
#   From: 2010.05.17/outbox.cif.g08.bks.cpg/sg33_3_cif.got.tgz:4372.got - 2010.06.03 17:15:25.
