data_PCOD9345460
_publ_section_title
;
Structure prediction by ZEFSAII (Michael W. Deem and Ramdas Pophale) SiO2 
 PCOD9345460
Probable space group: P N A 21
;
_chemical_formula_sum "Si O2"
_cell_formula_units_Z 20
_cell_length_a 13.333546
_cell_length_b 7.717232
_cell_length_c 7.609692
_cell_angle_alpha 90.000000
_cell_angle_beta 90.000000
_cell_angle_gamma 90.000000
_cell_volume 783.022604
_symmetry_space_group_name_H-M "P N A 21"
_symmetry_group_IT_number 33
_symmetry_cell_setting 'orthorhombic'
loop_
_space_group_symop_operation_xyz
x,y,z
-x,-y,1/2+z
1/2-x,1/2+y,1/2+z
1/2+x,1/2-y,z
loop_
_atom_site_type_symbol
_atom_site_label
_atom_site_fract_x
_atom_site_fract_y
_atom_site_fract_z
Si Si1 0.431202 0.860636 0.328190
Si Si2 0.858255 0.733775 0.958887
Si Si3 0.840035 0.837678 0.605522
Si Si4 0.047110 0.908948 0.539246
Si Si5 0.843083 0.291954 0.329490
O O1 0.417350 0.844250 0.120816
O O2 0.337802 0.757025 0.418864
O O3 0.524655 0.755727 0.412494
O O4 0.416926 0.057397 0.386373
O O5 0.887489 0.937572 0.963840
O O6 0.877527 0.693456 0.752514
O O7 0.737099 0.721161 0.969331
O O8 0.732921 0.879654 0.684462
O O9 0.933227 0.967807 0.584795
O O10 0.098683 0.851157 0.719700
#
# Coordination Sequence:
#
# PCOD9345460 Si02
#       5
#     4   4   4   4   4
#     4  10  22  41  64  96 128 183 219 273 341 397
#     4  10  21  41  66  89 128 176 220 272 341 394
#     4   8  22  38  62  91 133 164 224 271 328 404
#     4  10  21  42  65  97 134 171 227 276 336 413
#     4  10  22  42  63  97 133 164 228 280 330 406
#
# _framework density 25.542045000000002
#
# number of rings (size 3 to 8) (size 9 to 14) (size 15 to 20)
#    2.400    0.000    0.000    2.400    0.000    3.200 
#    0.000    2.000    0.000    0.000    0.000    0.000 
#    0.000    0.000    0.000    0.000    0.000    0.000 
#
# Total GULP energy -111399.074167 kJ/mol
# GULP energy per Si atom -5569.953708 kJ/mol
# Density = 2.548391 g / cm^3
# Si number density = 25.542045 Si / 1000 Ang^3
#
#
#
# Elastic Constant Matrix: (Units=GPa)
#
#
# Indices 1 2 3 4 5 6 
#
# 1 120.3552 25.9894 41.3501 0.0000 0.0000 0.0000
# 2 25.9894 26.0403 18.7464 0.0000 0.0000 0.0000
# 3 41.3501 18.7464 119.7781 0.0000 0.0000 0.0000
# 4 0.0000 0.0000 0.0000 33.1615 0.0000 0.0000
# 5 0.0000 0.0000 0.0000 0.0000 48.6193 0.0000
# 6 0.0000 0.0000 0.0000 0.0000 0.0000 38.2613
#
#
#
# Elastic Compliance Matrix: (Units=1/GPa)
#
#
# Indices 1 2 3 4 5 6 
#
# 1 0.011161 -0.009428 -0.002378 0.000000 0.000000 0.000000
# 2 -0.009428 0.051242 -0.004765 0.000000 0.000000 0.000000
# 3 -0.002378 -0.004765 0.009915 0.000000 0.000000 0.000000
# 4 0.000000 0.000000 0.000000 0.030155 0.000000 0.000000
# 5 0.000000 0.000000 0.000000 0.000000 0.020568 0.000000
# 6 0.000000 0.000000 0.000000 0.000000 0.000000 0.026136
#
#
# Mechanical properties :
#
#
# Convention : Reuss Voigt Hill
#
# Bulk Modulus (GPa) = 25.52498 48.70506 37.11502
# Shear Modulus (GPa) = 25.59132 36.01427 30.80279
#
# Velocity S-wave (km/s) = 3.16876 3.75907 3.47647
# Velocity P-wave (km/s) = 4.83767 6.16042 5.53868
#
# Compressibility (1/GPa) = 0.03917731
#
# Stress axis : x y z
#
# Youngs Moduli (GPa) = 89.59380 19.51528 100.85358
#
# Poissons Ratio (x) = 0.18399 0.23979
# Poissons Ratio (y) = 0.84469 0.48058
# Poissons Ratio (z) = 0.21302 0.09299
#
# Static dielectric constant tensor:
#      x y z
#    x 2.004380 0.000000 0.000000 
#    y 0.000000 2.032950 0.000000 
#    z 0.000000 0.000000 2.043740 
# 
# From -- ./inp_files/4165.got.cif
#   From: 2010.05.17/outbox.cif.g08.bks.cpg/sg33_3_cif.got.tgz:4165.got - 2010.06.03 17:15:25.
