data_PCOD9345257
_publ_section_title
;
Structure prediction by ZEFSAII (Michael W. Deem and Ramdas Pophale) SiO2 
 PCOD9345257
Probable space group: P N A 21
;
_chemical_formula_sum "Si O2"
_cell_formula_units_Z 32
_cell_length_a 7.788313
_cell_length_b 20.278239
_cell_length_c 7.229038
_cell_angle_alpha 90.000000
_cell_angle_beta 90.000000
_cell_angle_gamma 90.000000
_cell_volume 1141.705628
_symmetry_space_group_name_H-M "P N A 21"
_symmetry_group_IT_number 33
_symmetry_cell_setting 'orthorhombic'
loop_
_space_group_symop_operation_xyz
x,y,z
-x,-y,1/2+z
1/2-x,1/2+y,1/2+z
1/2+x,1/2-y,z
loop_
_atom_site_type_symbol
_atom_site_label
_atom_site_fract_x
_atom_site_fract_y
_atom_site_fract_z
Si Si1 0.158418 0.602032 0.716120
Si Si2 0.798694 0.025625 0.737253
Si Si3 0.528556 0.233109 0.227052
Si Si4 0.341582 0.602033 0.315863
Si Si5 0.652959 0.651690 0.823143
Si Si6 0.201306 0.474375 0.294730
Si Si7 0.152961 0.348309 0.708840
Si Si8 0.471445 0.266890 0.804930
O O1 0.284109 0.548659 0.811867
O O2 0.098168 0.673459 0.785548
O O3 0.250000 0.615236 0.515992
O O4 0.978549 0.559620 0.738262
O O5 0.750000 0.016383 0.515991
O O6 0.658366 0.080397 0.803387
O O7 0.978549 0.059620 0.793721
O O8 0.511879 0.302327 0.335194
O O9 0.715063 0.201411 0.229893
O O10 0.500000 0.250000 0.015991
O O11 0.215891 0.548659 0.220116
O O12 0.401831 0.673459 0.246434
O O13 0.658366 0.580397 0.728595
O O14 0.749999 0.641630 0.015992
O O15 0.284938 0.298589 0.802090
O O16 0.988122 0.302326 0.696787
#
# Coordination Sequence:
#
# PCOD9345257 Si02
#       8
#     4   4   4   4   4   4   4   4
#     4  10  21  40  63  93 128 169 219 270 330 394
#     4   9  21  40  61  89 125 167 213 263 323 392
#     4  11  22  38  62  93 126 163 212 270 328 387
#     4  10  21  40  63  93 128 169 219 270 330 394
#     4  10  21  38  59  85 121 163 208 257 317 387
#     4   9  21  40  61  89 125 167 213 263 323 392
#     4  10  21  38  59  85 121 163 208 257 317 387
#     4  11  22  38  62  93 126 163 212 270 328 387
#
# _framework density 28.028238999999999
#
# number of rings (size 3 to 8) (size 9 to 14) (size 15 to 20)
#    0.000    2.000    0.000    3.000    0.000    6.000 
#    0.000   15.000    0.000    0.000    0.000    0.000 
#    0.000    0.000    0.000    0.000    0.000    0.000 
#
# Total GULP energy -178489.271085 kJ/mol
# GULP energy per Si atom -5577.789721 kJ/mol
# Density = 2.796445 g / cm^3
# Si number density = 28.028239 Si / 1000 Ang^3
#
#
#
# Elastic Constant Matrix: (Units=GPa)
#
#
# Indices 1 2 3 4 5 6 
#
# 1 136.3160 12.9570 6.6863 0.0000 0.0000 0.0000
# 2 12.9570 184.5175 -17.0619 0.0000 0.0000 0.0000
# 3 6.6863 -17.0619 111.6012 0.0000 0.0000 0.0000
# 4 0.0000 0.0000 0.0000 -2.2756 0.0000 0.0000
# 5 0.0000 0.0000 0.0000 0.0000 44.8070 0.0000
# 6 0.0000 0.0000 0.0000 0.0000 0.0000 51.9686
#
#
#
# Elastic Compliance Matrix: (Units=1/GPa)
#
#
# Indices 1 2 3 4 5 6 
#
# 1 0.007416 -0.000570 -0.000531 0.000000 0.000000 0.000000
# 2 -0.000570 0.005541 0.000881 0.000000 0.000000 0.000000
# 3 -0.000531 0.000881 0.009127 0.000000 0.000000 0.000000
# 4 0.000000 0.000000 0.000000 -0.439441 0.000000 0.000000
# 5 0.000000 0.000000 0.000000 0.000000 0.022318 0.000000
# 6 0.000000 0.000000 0.000000 0.000000 0.000000 0.019242
#
#
# Mechanical properties :
#
#
# Convention : Reuss Voigt Hill
#
# Bulk Modulus (GPa) = 46.20206 48.62198 47.41202
# Shear Modulus (GPa) = -13.58174 47.55689 16.98757
#
# Velocity S-wave (km/s) = -2.20369 4.12363 2.46456
# Velocity P-wave (km/s) = 3.16937 6.32911 5.00512
#
# Compressibility (1/GPa) = 0.02164405
#
# Stress axis : x y z
#
# Youngs Moduli (GPa) = 134.84118 180.47127 109.56448
#
# Poissons Ratio (x) = 0.10285 0.05823
# Poissons Ratio (y) = 0.07685 -0.09656
# Poissons Ratio (z) = 0.07166 -0.15904
#
# Static dielectric constant tensor:
#      x y z
#    x 2.414730 0.000000 0.000000 
#    y 0.000000 2.335520 0.000000 
#    z 0.000000 0.000000 2.329310 
# 
# From -- ./inp_files/3443.got.cif
#   From: 2010.05.17/outbox.cif.g08.bks.cpg/sg33_2_cif.got.tgz:3443.got - 2010.06.03 17:15:25.
