data_PCOD9345373
_publ_section_title
;
Structure prediction by ZEFSAII (Michael W. Deem and Ramdas Pophale) SiO2 
 PCOD9345373
Probable space group: P N A 21
;
_chemical_formula_sum "Si O2"
_cell_formula_units_Z 28
_cell_length_a 14.401913
_cell_length_b 9.556572
_cell_length_c 7.369572
_cell_angle_alpha 90.000000
_cell_angle_beta 90.000000
_cell_angle_gamma 90.000000
_cell_volume 1014.295703
_symmetry_space_group_name_H-M "P N A 21"
_symmetry_group_IT_number 33
_symmetry_cell_setting 'orthorhombic'
loop_
_space_group_symop_operation_xyz
x,y,z
-x,-y,1/2+z
1/2-x,1/2+y,1/2+z
1/2+x,1/2-y,z
loop_
_atom_site_type_symbol
_atom_site_label
_atom_site_fract_x
_atom_site_fract_y
_atom_site_fract_z
Si Si1 0.912178 0.467305 0.534800
Si Si2 0.959880 0.705763 0.251692
Si Si3 0.911157 0.991005 0.358331
Si Si4 0.845113 0.181699 0.898059
Si Si5 0.710302 0.961080 0.382563
Si Si6 0.898902 0.889748 0.760903
Si Si7 0.798143 0.307839 0.244696
O O1 0.920171 0.604060 0.408359
O O2 0.656493 0.690655 0.613925
O O3 0.861986 0.501079 0.726286
O O4 0.851294 0.355864 0.422602
O O5 0.915635 0.859654 0.216549
O O6 0.060200 0.754569 0.325206
O O7 0.989394 0.606987 0.082221
O O8 0.997955 0.096864 0.345597
O O9 0.806047 0.043397 0.381888
O O10 0.922750 0.909646 0.550033
O O11 0.769050 0.294358 0.836590
O O12 0.844021 0.026724 0.831621
O O13 0.686844 0.936600 0.594677
O O14 0.812114 0.784450 0.776308
#
# Coordination Sequence:
#
# PCOD9345373 Si02
#       7
#     4   4   4   4   4   4   4
#     4  11  21  39  71  99 139 182 233 300 350 409
#     4  10  22  39  67  99 136 181 233 289 343 421
#     4  10  22  43  66 100 140 187 234 283 362 429
#     4   8  18  41  60  93 132 175 227 284 337 405
#     4   8  20  40  63  94 137 175 240 281 343 428
#     4  10  21  39  72  94 142 182 226 298 344 422
#     4   9  20  37  67  93 134 180 229 283 355 404
#
# _framework density 27.605362
#
# number of rings (size 3 to 8) (size 9 to 14) (size 15 to 20)
#    0.857    1.714    0.000    0.857    4.000    0.000 
#    0.000   12.857   40.857    0.000    0.000    0.000 
#    0.000    0.000    0.000    0.000    0.000    0.000 
#
# Total GULP energy -156169.152257 kJ/mol
# GULP energy per Si atom -5577.469723 kJ/mol
# Density = 2.754253 g / cm^3
# Si number density = 27.605362 Si / 1000 Ang^3
#
#
#
# Elastic Constant Matrix: (Units=GPa)
#
#
# Indices 1 2 3 4 5 6 
#
# 1 85.7337 -3.5668 12.7627 0.0000 0.0000 0.0000
# 2 -3.5668 68.4642 8.6472 0.0000 0.0000 0.0000
# 3 12.7627 8.6472 108.3815 0.0000 0.0000 0.0000
# 4 0.0000 0.0000 0.0000 24.5344 0.0000 0.0000
# 5 0.0000 0.0000 0.0000 0.0000 -21.9209 0.0000
# 6 0.0000 0.0000 0.0000 0.0000 0.0000 47.2491
#
#
#
# Elastic Compliance Matrix: (Units=1/GPa)
#
#
# Indices 1 2 3 4 5 6 
#
# 1 0.011916 0.000806 -0.001468 0.000000 0.000000 0.000000
# 2 0.000806 0.014809 -0.001276 0.000000 0.000000 0.000000
# 3 -0.001468 -0.001276 0.009501 0.000000 0.000000 0.000000
# 4 0.000000 0.000000 0.000000 0.040759 0.000000 0.000000
# 5 0.000000 0.000000 0.000000 0.000000 -0.045619 0.000000
# 6 0.000000 0.000000 0.000000 0.000000 0.000000 0.021164
#
#
# Mechanical properties :
#
#
# Convention : Reuss Voigt Hill
#
# Bulk Modulus (GPa) = 30.91094 33.14063 32.02579
# Shear Modulus (GPa) = 74.41462 26.28827 50.35145
#
# Velocity S-wave (km/s) = 5.19761 3.08927 4.27543
# Velocity P-wave (km/s) = 6.87327 4.97554 5.99991
#
# Compressibility (1/GPa) = 0.03235100
#
# Stress axis : x y z
#
# Youngs Moduli (GPa) = 83.92065 67.52466 105.24853
#
# Poissons Ratio (x) = -0.05443 0.15445
# Poissons Ratio (y) = -0.06765 0.13435
# Poissons Ratio (z) = 0.12315 0.08619
#
# Static dielectric constant tensor:
#      x y z
#    x 2.147750 0.000000 0.000000 
#    y 0.000000 2.360330 0.000000 
#    z 0.000000 0.000000 2.251830 
# 
# From -- ./inp_files/4353.got.cif
#   From: 2010.05.17/outbox.cif.g08.bks.cpg/sg33_3_cif.got.tgz:4353.got - 2010.06.03 17:15:25.
