data_PCOD9345465
_publ_section_title
;
Structure prediction by ZEFSAII (Michael W. Deem and Ramdas Pophale) SiO2 
 PCOD9345465
Probable space group: P N A 21
;
_chemical_formula_sum "Si O2"
_cell_formula_units_Z 32
_cell_length_a 16.894865
_cell_length_b 6.772369
_cell_length_c 12.963796
_cell_angle_alpha 90.000000
_cell_angle_beta 90.000000
_cell_angle_gamma 90.000000
_cell_volume 1483.294981
_symmetry_space_group_name_H-M "P N A 21"
_symmetry_group_IT_number 33
_symmetry_cell_setting 'orthorhombic'
loop_
_space_group_symop_operation_xyz
x,y,z
-x,-y,1/2+z
1/2-x,1/2+y,1/2+z
1/2+x,1/2-y,z
loop_
_atom_site_type_symbol
_atom_site_label
_atom_site_fract_x
_atom_site_fract_y
_atom_site_fract_z
Si Si1 0.845599 0.421430 0.201050
Si Si2 0.418882 0.904530 0.999898
Si Si3 0.304902 0.843802 0.686881
Si Si4 0.611750 0.428631 0.353036
Si Si5 0.552004 0.207236 0.030902
Si Si6 0.461900 0.413909 0.208571
Si Si7 0.858155 0.796882 0.329350
Si Si8 0.812291 0.350666 0.846361
O O1 0.779307 0.261059 0.168270
O O2 0.920376 0.292738 0.238534
O O3 0.829527 0.583772 0.288082
O O4 0.868808 0.547451 0.101147
O O5 0.413433 0.682996 0.957534
O O6 0.504425 0.000944 0.021215
O O7 0.377809 0.032128 0.910148
O O8 0.335447 0.718610 0.784704
O O9 0.367434 0.819437 0.595647
O O10 0.308491 0.068975 0.728243
O O11 0.535162 0.462083 0.282126
O O12 0.660591 0.627844 0.363908
O O13 0.497217 0.361155 0.095592
O O14 0.576568 0.277060 0.917927
O O15 0.396885 0.579826 0.235323
O O16 0.778733 0.891385 0.377827
#
# Coordination Sequence:
#
# PCOD9345465 Si02
#       8
#     4   4   4   4   4   4   4   4
#     4  11  22  41  63  96 134 175 227 289 348 418
#     4  10  23  40  63  94 134 171 223 286 345 417
#     4  10  21  43  64  94 136 174 230 284 351 417
#     4  10  21  41  66  96 131 181 225 284 351 414
#     4  10  23  43  67  98 135 185 232 289 356 431
#     4  10  23  41  67  94 140 177 226 292 346 422
#     4  12  23  40  67  99 130 180 234 283 355 424
#     4  11  22  41  67  93 130 177 225 289 344 419
#
# _framework density 21.573591
#
# number of rings (size 3 to 8) (size 9 to 14) (size 15 to 20)
#    0.000    1.500    2.500    2.250    0.000    7.000 
#    2.250    5.000    0.000    0.000    0.000    0.000 
#    0.000    0.000    0.000    0.000    0.000    0.000 
#
# Total GULP energy -178474.520533 kJ/mol
# GULP energy per Si atom -5577.328767 kJ/mol
# Density = 2.152449 g / cm^3
# Si number density = 21.573591 Si / 1000 Ang^3
#
#
#
# Elastic Constant Matrix: (Units=GPa)
#
#
# Indices 1 2 3 4 5 6 
#
# 1 70.1901 37.1164 4.7918 0.0000 0.0000 0.0000
# 2 37.1164 93.6299 44.5659 0.0000 0.0000 0.0000
# 3 4.7918 44.5659 62.5835 0.0000 0.0000 0.0000
# 4 0.0000 0.0000 0.0000 15.9807 0.0000 0.0000
# 5 0.0000 0.0000 0.0000 0.0000 30.0183 0.0000
# 6 0.0000 0.0000 0.0000 0.0000 0.0000 25.9885
#
#
#
# Elastic Compliance Matrix: (Units=1/GPa)
#
#
# Indices 1 2 3 4 5 6 
#
# 1 0.019429 -0.010580 0.006046 0.000000 0.000000 0.000000
# 2 -0.010580 0.021918 -0.014798 0.000000 0.000000 0.000000
# 3 0.006046 -0.014798 0.026053 0.000000 0.000000 0.000000
# 4 0.000000 0.000000 0.000000 0.062575 0.000000 0.000000
# 5 0.000000 0.000000 0.000000 0.000000 0.033313 0.000000
# 6 0.000000 0.000000 0.000000 0.000000 0.000000 0.038479
#
#
# Mechanical properties :
#
#
# Convention : Reuss Voigt Hill
#
# Bulk Modulus (GPa) = 34.79780 44.37242 39.58511
# Shear Modulus (GPa) = 19.99937 23.72612 21.86274
#
# Velocity S-wave (km/s) = 3.04802 3.31989 3.18685
# Velocity P-wave (km/s) = 5.34341 5.94206 5.65067
#
# Compressibility (1/GPa) = 0.02873745
#
# Stress axis : x y z
#
# Youngs Moduli (GPa) = 51.46989 45.62527 38.38317
#
# Poissons Ratio (x) = 0.48271 -0.23208
# Poissons Ratio (y) = 0.54454 0.56798
# Poissons Ratio (z) = -0.31120 0.67514
#
# Static dielectric constant tensor:
#      x y z
#    x 1.808680 0.000000 0.000000 
#    y 0.000000 1.822930 0.000000 
#    z 0.000000 0.000000 1.794820 
# 
# From -- ./inp_files/8280.got.cif
#   From: 2010.05.17/outbox.cif.g08.bks.cpg/sg33_5_cif.got.tgz:8280.got - 2010.06.03 17:15:25.
