data_PCOD9345128
_publ_section_title
;
Structure prediction by ZEFSAII (Michael W. Deem and Ramdas Pophale) SiO2 
 PCOD9345128
Probable space group: P N A 21
;
_chemical_formula_sum "Si O2"
_cell_formula_units_Z 28
_cell_length_a 5.655654
_cell_length_b 15.505768
_cell_length_c 12.263053
_cell_angle_alpha 90.000000
_cell_angle_beta 90.000000
_cell_angle_gamma 90.000000
_cell_volume 1075.411607
_symmetry_space_group_name_H-M "P N A 21"
_symmetry_group_IT_number 33
_symmetry_cell_setting 'orthorhombic'
loop_
_space_group_symop_operation_xyz
x,y,z
-x,-y,1/2+z
1/2-x,1/2+y,1/2+z
1/2+x,1/2-y,z
loop_
_atom_site_type_symbol
_atom_site_label
_atom_site_fract_x
_atom_site_fract_y
_atom_site_fract_z
Si Si1 0.046389 0.022535 0.618770
Si Si2 0.695759 0.728193 0.394133
Si Si3 0.073054 0.444321 0.256361
Si Si4 0.941684 0.725259 0.850914
Si Si5 0.317716 0.119531 0.055699
Si Si6 0.190703 0.463297 0.916331
Si Si7 0.491022 0.286129 0.599206
O O1 0.923908 0.114863 0.623871
O O2 0.220280 0.007308 0.720156
O O3 0.199212 0.025538 0.506255
O O4 0.896006 0.935540 0.603376
O O5 0.452839 0.758991 0.340887
O O6 0.720050 0.786596 0.504419
O O7 0.671924 0.626674 0.413086
O O8 0.123630 0.375758 0.350927
O O9 0.017394 0.387563 0.149061
O O10 0.845659 0.495701 0.298900
O O11 0.706179 0.767475 0.798785
O O12 0.984496 0.766170 0.969346
O O13 0.429065 0.063225 0.957320
O O14 0.262288 0.231157 0.635995
#
# Coordination Sequence:
#
# PCOD9345128 Si02
#       7
#     4   4   4   4   4   4   4
#     4  11  24  44  70 101 142 188 238 299 364 430
#     4  10  20  42  67  99 135 193 236 289 353 428
#     4  11  26  42  69 110 142 185 244 304 362 426
#     4  10  23  41  65 103 141 184 236 296 354 423
#     4  10  24  41  70  99 141 187 239 301 358 429
#     4  10  22  43  69  97 144 190 239 290 366 432
#     4  10  23  43  72  97 135 189 238 287 355 428
#
# _framework density 26.036543000000002
#
# number of rings (size 3 to 8) (size 9 to 14) (size 15 to 20)
#    0.000    1.714    1.429    1.714   10.000    4.571 
#    0.000    2.857    0.000    0.000    0.000    0.000 
#    0.000    0.000    0.000    0.000    0.000    0.000 
#
# Total GULP energy -156480.260343 kJ/mol
# GULP energy per Si atom -5588.580727 kJ/mol
# Density = 2.597728 g / cm^3
# Si number density = 26.036543 Si / 1000 Ang^3
#
#
#
# Elastic Constant Matrix: (Units=GPa)
#
#
# Indices 1 2 3 4 5 6 
#
# 1 124.3272 -2.7886 20.2532 0.0000 0.0000 0.0000
# 2 -2.7886 111.1442 38.6280 0.0000 0.0000 0.0000
# 3 20.2532 38.6280 67.0995 0.0000 0.0000 0.0000
# 4 0.0000 0.0000 0.0000 26.4187 0.0000 0.0000
# 5 0.0000 0.0000 0.0000 0.0000 30.6099 0.0000
# 6 0.0000 0.0000 0.0000 0.0000 0.0000 16.3127
#
#
#
# Elastic Compliance Matrix: (Units=1/GPa)
#
#
# Indices 1 2 3 4 5 6 
#
# 1 0.008631 0.001403 -0.003412 0.000000 0.000000 0.000000
# 2 0.001403 0.011476 -0.007030 0.000000 0.000000 0.000000
# 3 -0.003412 -0.007030 0.019980 0.000000 0.000000 0.000000
# 4 0.000000 0.000000 0.000000 0.037852 0.000000 0.000000
# 5 0.000000 0.000000 0.000000 0.000000 0.032669 0.000000
# 6 0.000000 0.000000 0.000000 0.000000 0.000000 0.061302
#
#
# Mechanical properties :
#
#
# Convention : Reuss Voigt Hill
#
# Bulk Modulus (GPa) = 45.43966 46.08401 45.76184
# Shear Modulus (GPa) = 25.33899 31.10014 28.21956
#
# Velocity S-wave (km/s) = 3.12301 3.45988 3.29575
# Velocity P-wave (km/s) = 5.52218 5.80510 5.66540
#
# Compressibility (1/GPa) = 0.02200720
#
# Stress axis : x y z
#
# Youngs Moduli (GPa) = 115.86604 87.14089 50.04971
#
# Poissons Ratio (x) = -0.12222 0.17079
# Poissons Ratio (y) = -0.16251 0.35183
# Poissons Ratio (z) = 0.39539 0.61257
#
# Static dielectric constant tensor:
#      x y z
#    x 2.135070 0.000000 0.000000 
#    y 0.000000 2.005830 0.000000 
#    z 0.000000 0.000000 2.086030 
# 
# From -- ./inp_files/7406.got.cif
#   From: 2010.05.17/outbox.cif.g08.bks.cpg/sg33_4_cif.got.tgz:7406.got - 2010.06.03 17:15:25.
