data_PCOD9345455
_publ_section_title
;
Structure prediction by ZEFSAII (Michael W. Deem and Ramdas Pophale) SiO2 
 PCOD9345455
Probable space group: P N A 21
;
_chemical_formula_sum "Si O2"
_cell_formula_units_Z 32
_cell_length_a 14.064138
_cell_length_b 8.748415
_cell_length_c 10.737129
_cell_angle_alpha 90.000000
_cell_angle_beta 90.000000
_cell_angle_gamma 90.000000
_cell_volume 1321.084711
_symmetry_space_group_name_H-M "P N A 21"
_symmetry_group_IT_number 33
_symmetry_cell_setting 'orthorhombic'
loop_
_space_group_symop_operation_xyz
x,y,z
-x,-y,1/2+z
1/2-x,1/2+y,1/2+z
1/2+x,1/2-y,z
loop_
_atom_site_type_symbol
_atom_site_label
_atom_site_fract_x
_atom_site_fract_y
_atom_site_fract_z
Si Si1 0.169448 0.889174 0.254880
Si Si2 0.692658 0.138621 0.391049
Si Si3 0.446614 0.144425 0.880383
Si Si4 0.860106 0.724598 0.362572
Si Si5 0.799269 0.811193 0.637185
Si Si6 0.916035 0.070514 0.380970
Si Si7 0.111262 0.077506 0.500021
Si Si8 0.596575 0.711335 0.638634
O O1 0.094495 0.753274 0.271477
O O2 0.272763 0.814604 0.273782
O O3 0.162072 0.016274 0.148198
O O4 0.151337 0.992001 0.377694
O O5 0.670592 0.207744 0.253823
O O6 0.806379 0.118809 0.401317
O O7 0.657496 0.257411 0.495055
O O8 0.631427 0.985468 0.399821
O O9 0.554771 0.102814 0.849717
O O10 0.455228 0.233104 0.013986
O O11 0.821146 0.736875 0.504247
O O12 0.907171 0.891763 0.343619
O O13 0.685788 0.821485 0.653739
O O14 0.954441 0.178322 0.267903
O O15 0.997431 0.087667 0.484579
O O16 0.136510 0.958723 0.607399
#
# Coordination Sequence:
#
# PCOD9345455 Si02
#       8
#     4   4   4   4   4   4   4   4
#     4  10  21  41  65  96 130 171 224 263 329 396
#     4  10  23  40  63  99 138 166 225 277 324 390
#     4  11  22  40  65  94 135 166 226 278 318 398
#     4  12  22  42  69  97 132 177 219 273 335 395
#     4  10  22  42  71  92 131 181 209 276 337 390
#     4  11  22  40  67  93 127 182 217 270 334 392
#     4  10  21  41  66  92 134 170 222 276 324 400
#     4  10  21  42  66  93 129 177 222 263 327 401
#
# _framework density 24.222518999999998
#
# number of rings (size 3 to 8) (size 9 to 14) (size 15 to 20)
#    0.000    1.500    6.250    0.000    3.500    3.000 
#    4.500    0.000    0.000    0.000    0.000    0.000 
#    0.000    0.000    0.000    0.000    0.000    0.000 
#
# Total GULP energy -178808.495353 kJ/mol
# GULP energy per Si atom -5587.765480 kJ/mol
# Density = 2.416739 g / cm^3
# Si number density = 24.222519 Si / 1000 Ang^3
#
#
#
# Elastic Constant Matrix: (Units=GPa)
#
#
# Indices 1 2 3 4 5 6 
#
# 1 135.2861 21.8632 3.7634 0.0000 0.0000 0.0000
# 2 21.8632 71.8528 9.5492 0.0000 0.0000 0.0000
# 3 3.7634 9.5492 72.1762 0.0000 0.0000 0.0000
# 4 0.0000 0.0000 0.0000 26.2994 0.0000 0.0000
# 5 0.0000 0.0000 0.0000 0.0000 7.4075 0.0000
# 6 0.0000 0.0000 0.0000 0.0000 0.0000 33.8982
#
#
#
# Elastic Compliance Matrix: (Units=1/GPa)
#
#
# Indices 1 2 3 4 5 6 
#
# 1 0.007775 -0.002353 -0.000094 0.000000 0.000000 0.000000
# 2 -0.002353 0.014879 -0.001846 0.000000 0.000000 0.000000
# 3 -0.000094 -0.001846 0.014104 0.000000 0.000000 0.000000
# 4 0.000000 0.000000 0.000000 0.038024 0.000000 0.000000
# 5 0.000000 0.000000 0.000000 0.000000 0.134998 0.000000
# 6 0.000000 0.000000 0.000000 0.000000 0.000000 0.029500
#
#
# Mechanical properties :
#
#
# Convention : Reuss Voigt Hill
#
# Bulk Modulus (GPa) = 35.49703 38.85186 37.17444
# Shear Modulus (GPa) = 19.43594 29.79698 24.61646
#
# Velocity S-wave (km/s) = 2.83572 3.51113 3.19135
# Velocity P-wave (km/s) = 5.04065 5.70191 5.38145
#
# Compressibility (1/GPa) = 0.02817137
#
# Stress axis : x y z
#
# Youngs Moduli (GPa) = 128.62322 67.21036 70.90142
#
# Poissons Ratio (x) = 0.15816 0.00667
# Poissons Ratio (y) = 0.30267 0.13087
# Poissons Ratio (z) = 0.01210 0.12406
#
# Static dielectric constant tensor:
#      x y z
#    x 1.926030 0.000000 0.000000 
#    y 0.000000 1.936070 0.000000 
#    z 0.000000 0.000000 2.000540 
# 
# From -- ./inp_files/6840.got.cif
#   From: 2010.05.17/outbox.cif.g08.bks.cpg/sg33_4_cif.got.tgz:6840.got - 2010.06.03 17:15:25.
