data_PCOD9345307
_publ_section_title
;
Structure prediction by ZEFSAII (Michael W. Deem and Ramdas Pophale) SiO2 
 PCOD9345307
Probable space group: P N A 21
;
_chemical_formula_sum "Si O2"
_cell_formula_units_Z 28
_cell_length_a 19.292463
_cell_length_b 7.438836
_cell_length_c 7.310446
_cell_angle_alpha 90.000000
_cell_angle_beta 90.000000
_cell_angle_gamma 90.000000
_cell_volume 1049.147460
_symmetry_space_group_name_H-M "P N A 21"
_symmetry_group_IT_number 33
_symmetry_cell_setting 'orthorhombic'
loop_
_space_group_symop_operation_xyz
x,y,z
-x,-y,1/2+z
1/2-x,1/2+y,1/2+z
1/2+x,1/2-y,z
loop_
_atom_site_type_symbol
_atom_site_label
_atom_site_fract_x
_atom_site_fract_y
_atom_site_fract_z
Si Si1 0.708682 0.083495 0.777710
Si Si2 0.130220 0.521131 0.303580
Si Si3 0.958133 0.786285 0.666918
Si Si4 0.778324 0.905497 0.468100
Si Si5 0.021597 0.815802 0.256761
Si Si6 0.125224 0.084431 0.670653
Si Si7 0.898032 0.318746 0.185315
O O1 0.727731 0.190020 0.958589
O O2 0.678893 0.249661 0.649579
O O3 0.768350 0.992153 0.662913
O O4 0.654907 0.923740 0.815013
O O5 0.212928 0.538952 0.337127
O O6 0.081762 0.675066 0.210660
O O7 0.103233 0.549230 0.511766
O O8 0.893712 0.662271 0.711701
O O9 0.986739 0.782625 0.457819
O O10 0.026392 0.705095 0.767486
O O11 0.947541 0.985595 0.738939
O O12 0.852343 0.953920 0.383194
O O13 0.950539 0.834213 0.140489
O O14 0.125178 0.877390 0.607282
#
# Coordination Sequence:
#
# PCOD9345307 Si02
#       7
#     4   4   4   4   4   4   4
#     4   9  19  40  59  89 124 166 209 268 321 396
#     4  10  21  39  59  96 123 166 208 265 316 386
#     4  10  22  38  65  96 125 165 217 262 322 381
#     4   9  21  39  60  89 127 168 218 265 332 391
#     4  10  22  41  66  95 128 171 211 268 318 387
#     4   9  20  40  61  92 124 170 213 265 325 392
#     4   9  19  39  64  87 121 170 208 253 334 383
#
# _framework density 26.688336
#
# number of rings (size 3 to 8) (size 9 to 14) (size 15 to 20)
#    0.857    1.714    0.000    0.857    0.000   10.286 
#   12.857    4.286    0.000    0.000    0.000    0.000 
#    0.000    0.000    0.000    0.000    0.000    0.000 
#
# Total GULP energy -156168.742548 kJ/mol
# GULP energy per Si atom -5577.455091 kJ/mol
# Density = 2.662759 g / cm^3
# Si number density = 26.688336 Si / 1000 Ang^3
#
#
#
# Elastic Constant Matrix: (Units=GPa)
#
#
# Indices 1 2 3 4 5 6 
#
# 1 110.9661 11.3947 5.0502 0.0000 0.0000 0.0000
# 2 11.3947 115.9147 26.8235 0.0000 0.0000 0.0000
# 3 5.0502 26.8235 57.1348 0.0000 0.0000 0.0000
# 4 0.0000 0.0000 0.0000 29.5744 0.0000 0.0000
# 5 0.0000 0.0000 0.0000 0.0000 30.9646 0.0000
# 6 0.0000 0.0000 0.0000 0.0000 0.0000 47.2992
#
#
#
# Elastic Compliance Matrix: (Units=1/GPa)
#
#
# Indices 1 2 3 4 5 6 
#
# 1 0.009113 -0.000796 -0.000432 0.000000 0.000000 0.000000
# 2 -0.000796 0.009748 -0.004506 0.000000 0.000000 0.000000
# 3 -0.000432 -0.004506 0.019656 0.000000 0.000000 0.000000
# 4 0.000000 0.000000 0.000000 0.033813 0.000000 0.000000
# 5 0.000000 0.000000 0.000000 0.000000 0.032295 0.000000
# 6 0.000000 0.000000 0.000000 0.000000 0.000000 0.021142
#
#
# Mechanical properties :
#
#
# Convention : Reuss Voigt Hill
#
# Bulk Modulus (GPa) = 36.96917 41.17246 39.07081
# Shear Modulus (GPa) = 34.18766 37.61746 35.90256
#
# Velocity S-wave (km/s) = 3.58298 3.75842 3.67175
# Velocity P-wave (km/s) = 5.56770 5.85618 5.71376
#
# Compressibility (1/GPa) = 0.02704957
#
# Stress axis : x y z
#
# Youngs Moduli (GPa) = 109.73161 102.58491 50.87462
#
# Poissons Ratio (x) = 0.08165 0.02197
# Poissons Ratio (y) = 0.08734 0.22925
# Poissons Ratio (z) = 0.04739 0.46226
#
# Static dielectric constant tensor:
#      x y z
#    x 2.146890 0.000000 0.000000 
#    y 0.000000 2.130960 0.000000 
#    z 0.000000 0.000000 2.295270 
# 
# From -- ./inp_files/4771.got.cif
#   From: 2010.05.17/outbox.cif.g08.bks.cpg/sg33_3_cif.got.tgz:4771.got - 2010.06.03 17:15:25.
