data_PCOD9345158
_publ_section_title
;
Structure prediction by ZEFSAII (Michael W. Deem and Ramdas Pophale) SiO2 
 PCOD9345158
Probable space group: P N A 21
;
_chemical_formula_sum "Si O2"
_cell_formula_units_Z 20
_cell_length_a 12.331855
_cell_length_b 11.689393
_cell_length_c 5.088936
_cell_angle_alpha 90.000000
_cell_angle_beta 90.000000
_cell_angle_gamma 90.000000
_cell_volume 733.579791
_symmetry_space_group_name_H-M "P N A 21"
_symmetry_group_IT_number 33
_symmetry_cell_setting 'orthorhombic'
loop_
_space_group_symop_operation_xyz
x,y,z
-x,-y,1/2+z
1/2-x,1/2+y,1/2+z
1/2+x,1/2-y,z
loop_
_atom_site_type_symbol
_atom_site_label
_atom_site_fract_x
_atom_site_fract_y
_atom_site_fract_z
Si Si1 0.821093 0.304452 0.488530
Si Si2 0.914339 0.122810 0.911563
Si Si3 0.737684 0.034937 0.301152
Si Si4 0.991648 0.568929 0.731498
Si Si5 0.376401 0.609060 0.693181
O O1 0.864326 0.203753 0.681297
O O2 0.802112 0.419876 0.656291
O O3 0.704965 0.307541 0.342349
O O4 0.916578 0.338200 0.287244
O O5 0.937747 0.985165 0.870470
O O6 0.820895 0.111104 0.133651
O O7 0.033620 0.164205 0.004683
O O8 0.625053 0.096896 0.351821
O O9 0.797567 0.980298 0.546216
O O10 0.979187 0.538573 0.424825
#
# Coordination Sequence:
#
# PCOD9345158 Si02
#       5
#     4   4   4   4   4
#     4  10  24  45  75 115 151 215 286 331 425 511
#     4  11  24  46  78 112 158 218 272 344 425 502
#     4  10  22  45  75 106 160 209 266 349 411 490
#     4  10  20  43  77 109 157 206 267 351 407 485
#     4  11  22  47  75 108 166 206 269 351 412 502
#
# _framework density 27.263562
#
# number of rings (size 3 to 8) (size 9 to 14) (size 15 to 20)
#    0.000    1.600    4.000    0.000    0.000    1.600 
#    3.600   10.000    0.000    2.400    0.000    0.000 
#    0.000    0.000    0.000    0.000    0.000    0.000 
#
# Total GULP energy -111758.848632 kJ/mol
# GULP energy per Si atom -5587.942432 kJ/mol
# Density = 2.720151 g / cm^3
# Si number density = 27.263562 Si / 1000 Ang^3
#
#
#
# Elastic Constant Matrix: (Units=GPa)
#
#
# Indices 1 2 3 4 5 6 
#
# 1 185.0501 73.7999 47.1067 0.0000 0.0000 0.0000
# 2 73.7999 157.1891 35.8097 0.0000 0.0000 0.0000
# 3 47.1067 35.8097 88.3001 0.0000 0.0000 0.0000
# 4 0.0000 0.0000 0.0000 45.6687 0.0000 0.0000
# 5 0.0000 0.0000 0.0000 0.0000 56.8310 0.0000
# 6 0.0000 0.0000 0.0000 0.0000 0.0000 26.4497
#
#
#
# Elastic Compliance Matrix: (Units=1/GPa)
#
#
# Indices 1 2 3 4 5 6 
#
# 1 0.007197 -0.002759 -0.002720 0.000000 0.000000 0.000000
# 2 -0.002759 0.008067 -0.001800 0.000000 0.000000 0.000000
# 3 -0.002720 -0.001800 0.013506 0.000000 0.000000 0.000000
# 4 0.000000 0.000000 0.000000 0.021897 0.000000 0.000000
# 5 0.000000 0.000000 0.000000 0.000000 0.017596 0.000000
# 6 0.000000 0.000000 0.000000 0.000000 0.000000 0.037808
#
#
# Mechanical properties :
#
#
# Convention : Reuss Voigt Hill
#
# Bulk Modulus (GPa) = 70.36451 82.66354 76.51402
# Shear Modulus (GPa) = 39.88310 44.04473 41.96392
#
# Velocity S-wave (km/s) = 3.82890 4.02371 3.92751
# Velocity P-wave (km/s) = 6.73887 7.20923 6.97801
#
# Compressibility (1/GPa) = 0.01421171
#
# Stress axis : x y z
#
# Youngs Moduli (GPa) = 138.94991 123.95937 74.04026
#
# Poissons Ratio (x) = 0.34202 0.20142
# Poissons Ratio (y) = 0.38338 0.13325
# Poissons Ratio (z) = 0.37800 0.22308
#
# Static dielectric constant tensor:
#      x y z
#    x 2.204000 0.000000 0.000000 
#    y 0.000000 2.216160 0.000000 
#    z 0.000000 0.000000 2.284580 
# 
# From -- ./inp_files/715.got.cif
#   From: 2010.05.17/outbox.cif.g08.bks.cpg/sg33_1_cif.got.tgz:715.got - 2010.06.03 17:15:25.
