data_PCOD9345547
_publ_section_title
;
Structure prediction by ZEFSAII (Michael W. Deem and Ramdas Pophale) SiO2 
 PCOD9345547
Probable space group: P N A 21
;
_chemical_formula_sum "Si O2"
_cell_formula_units_Z 24
_cell_length_a 14.344258
_cell_length_b 15.726507
_cell_length_c 5.227785
_cell_angle_alpha 90.000000
_cell_angle_beta 90.000000
_cell_angle_gamma 90.000000
_cell_volume 1179.310265
_symmetry_space_group_name_H-M "P N A 21"
_symmetry_group_IT_number 33
_symmetry_cell_setting 'orthorhombic'
loop_
_space_group_symop_operation_xyz
x,y,z
-x,-y,1/2+z
1/2-x,1/2+y,1/2+z
1/2+x,1/2-y,z
loop_
_atom_site_type_symbol
_atom_site_label
_atom_site_fract_x
_atom_site_fract_y
_atom_site_fract_z
Si Si1 0.399160 0.605444 0.625000
Si Si2 0.754206 0.648394 0.180854
Si Si3 0.395322 0.439296 0.959286
Si Si4 0.645101 0.205053 0.197723
Si Si5 0.444514 0.973902 0.684681
Si Si6 0.247939 0.005580 0.856285
O O1 0.497894 0.582718 0.500862
O O2 0.399282 0.702459 0.706995
O O3 0.309769 0.587119 0.444453
O O4 0.389537 0.533873 0.842485
O O5 0.649227 0.631745 0.274174
O O6 0.809336 0.685693 0.421664
O O7 0.779676 0.700120 0.927503
O O8 0.781017 0.551242 0.099133
O O9 0.328265 0.447447 0.206401
O O10 0.574283 0.126398 0.233903
O O11 0.341148 0.016351 0.693333
O O12 0.494719 0.989058 0.416322
#
# Coordination Sequence:
#
# PCOD9345547 Si02
#       6
#     4   4   4   4   4   4
#     4  11  25  40  72 107 141 178 237 286 354 423
#     4  10  21  43  70  89 136 186 213 279 356 394
#     4  11  21  44  71 104 138 192 219 281 370 425
#     4  11  24  45  67 101 140 175 236 299 324 411
#     4  11  23  44  70  93 130 187 231 274 344 405
#     4  10  22  44  70  94 137 180 230 281 348 424
#
# _framework density 20.350878000000002
#
# number of rings (size 3 to 8) (size 9 to 14) (size 15 to 20)
#    0.000    1.333    5.000    2.000    4.667    0.000 
#    3.000    1.667    3.667    0.000    0.000    0.000 
#    0.000    0.000    0.000    0.000    0.000    0.000 
#
# Total GULP energy -133844.405487 kJ/mol
# GULP energy per Si atom -5576.850229 kJ/mol
# Density = 2.030456 g / cm^3
# Si number density = 20.350878 Si / 1000 Ang^3
#
#
#
# Elastic Constant Matrix: (Units=GPa)
#
#
# Indices 1 2 3 4 5 6 
#
# 1 96.3787 42.7296 29.6319 0.0000 0.0000 0.0000
# 2 42.7296 119.4716 23.3907 0.0000 0.0000 0.0000
# 3 29.6319 23.3907 100.2780 0.0000 0.0000 0.0000
# 4 0.0000 0.0000 0.0000 20.2852 0.0000 0.0000
# 5 0.0000 0.0000 0.0000 0.0000 32.4122 0.0000
# 6 0.0000 0.0000 0.0000 0.0000 0.0000 21.4570
#
#
#
# Elastic Compliance Matrix: (Units=1/GPa)
#
#
# Indices 1 2 3 4 5 6 
#
# 1 0.013094 -0.004113 -0.002910 0.000000 0.000000 0.000000
# 2 -0.004113 0.010063 -0.001132 0.000000 0.000000 0.000000
# 3 -0.002910 -0.001132 0.011096 0.000000 0.000000 0.000000
# 4 0.000000 0.000000 0.000000 0.049297 0.000000 0.000000
# 5 0.000000 0.000000 0.000000 0.000000 0.030853 0.000000
# 6 0.000000 0.000000 0.000000 0.000000 0.000000 0.046605
#
#
# Mechanical properties :
#
#
# Convention : Reuss Voigt Hill
#
# Bulk Modulus (GPa) = 55.73154 56.40364 56.06759
# Shear Modulus (GPa) = 27.27791 29.52264 28.40027
#
# Velocity S-wave (km/s) = 3.66509 3.81291 3.73973
# Velocity P-wave (km/s) = 6.73463 6.86733 6.80130
#
# Compressibility (1/GPa) = 0.01794316
#
# Stress axis : x y z
#
# Youngs Moduli (GPa) = 76.37056 99.37427 90.12181
#
# Poissons Ratio (x) = 0.40877 0.26223
# Poissons Ratio (y) = 0.31415 0.10200
# Poissons Ratio (z) = 0.22222 0.11247
#
# Static dielectric constant tensor:
#      x y z
#    x 1.760440 0.000000 0.000000 
#    y 0.000000 1.705690 0.000000 
#    z 0.000000 0.000000 1.815200 
# 
# From -- ./inp_files/1374.got.cif
#   From: 2010.05.17/outbox.cif.g08.bks.cpg/sg33_1_cif.got.tgz:1374.got - 2010.06.03 17:15:25.
