data_PCOD9345294
_publ_section_title
;
Structure prediction by ZEFSAII (Michael W. Deem and Ramdas Pophale) SiO2 
 PCOD9345294
Probable space group: P N A 21
;
_chemical_formula_sum "Si O2"
_cell_formula_units_Z 20
_cell_length_a 17.516437
_cell_length_b 9.482688
_cell_length_c 4.974175
_cell_angle_alpha 90.000000
_cell_angle_beta 90.000000
_cell_angle_gamma 90.000000
_cell_volume 826.224927
_symmetry_space_group_name_H-M "P N A 21"
_symmetry_group_IT_number 33
_symmetry_cell_setting 'orthorhombic'
loop_
_space_group_symop_operation_xyz
x,y,z
-x,-y,1/2+z
1/2-x,1/2+y,1/2+z
1/2+x,1/2-y,z
loop_
_atom_site_type_symbol
_atom_site_label
_atom_site_fract_x
_atom_site_fract_y
_atom_site_fract_z
Si Si1 0.534904 0.670568 0.007320
Si Si2 0.048865 0.533291 0.215634
Si Si3 0.431538 0.637280 0.505613
Si Si4 0.708387 0.031641 0.454324
Si Si5 0.729001 0.218049 0.985199
O O1 0.573003 0.814184 0.101476
O O2 0.462139 0.653637 0.204103
O O3 0.500001 0.676227 0.709703
O O4 0.583173 0.529545 0.048109
O O5 0.119884 0.463374 0.363930
O O6 0.984487 0.541045 0.448381
O O7 0.355743 0.723824 0.547132
O O8 0.723552 0.122410 0.719810
O O9 0.725443 0.864988 0.473317
O O10 0.754465 0.111487 0.218906
#
# Coordination Sequence:
#
# PCOD9345294 Si02
#       5
#     4   4   4   4   4
#     4  10  21  38  65 102 126 181 223 281 344 415
#     4  12  24  42  70 100 141 178 238 291 351 416
#     4  10  21  40  67  94 139 170 226 282 349 405
#     4  12  28  47  75 104 143 191 238 288 365 411
#     4  12  26  49  71 102 143 188 237 292 349 433
#
# _framework density 24.206479999999999
#
# number of rings (size 3 to 8) (size 9 to 14) (size 15 to 20)
#    0.000    0.800    0.000    8.400    2.800    0.000 
#    7.200    0.000    0.000    0.000    0.000    0.000 
#    0.000    0.000    0.000    0.000    0.000    0.000 
#
# Total GULP energy -111973.731734 kJ/mol
# GULP energy per Si atom -5598.686587 kJ/mol
# Density = 2.415139 g / cm^3
# Si number density = 24.206480 Si / 1000 Ang^3
#
#
#
# Elastic Constant Matrix: (Units=GPa)
#
#
# Indices 1 2 3 4 5 6 
#
# 1 50.3968 14.9391 9.6584 0.0000 0.0000 0.0000
# 2 14.9391 166.9876 70.9714 0.0000 0.0000 0.0000
# 3 9.6584 70.9714 139.3373 0.0000 0.0000 0.0000
# 4 0.0000 0.0000 0.0000 49.5708 0.0000 0.0000
# 5 0.0000 0.0000 0.0000 0.0000 16.4947 0.0000
# 6 0.0000 0.0000 0.0000 0.0000 0.0000 25.9718
#
#
#
# Elastic Compliance Matrix: (Units=1/GPa)
#
#
# Indices 1 2 3 4 5 6 
#
# 1 0.020425 -0.001564 -0.000619 0.000000 0.000000 0.000000
# 2 -0.001564 0.007763 -0.003846 0.000000 0.000000 0.000000
# 3 -0.000619 -0.003846 0.009178 0.000000 0.000000 0.000000
# 4 0.000000 0.000000 0.000000 0.020173 0.000000 0.000000
# 5 0.000000 0.000000 0.000000 0.000000 0.060626 0.000000
# 6 0.000000 0.000000 0.000000 0.000000 0.000000 0.038503
#
#
# Mechanical properties :
#
#
# Convention : Reuss Voigt Hill
#
# Bulk Modulus (GPa) = 39.51234 60.87329 50.19281
# Shear Modulus (GPa) = 28.22277 35.81765 32.02021
#
# Velocity S-wave (km/s) = 3.41826 3.85082 3.64097
# Velocity P-wave (km/s) = 5.65135 6.70626 6.20128
#
# Compressibility (1/GPa) = 0.02530855
#
# Stress axis : x y z
#
# Youngs Moduli (GPa) = 48.95997 128.81948 108.95051
#
# Poissons Ratio (x) = 0.20149 0.06745
# Poissons Ratio (y) = 0.07658 0.41898
# Poissons Ratio (z) = 0.03031 0.49538
#
# Static dielectric constant tensor:
#      x y z
#    x 1.929360 0.000000 0.000000 
#    y 0.000000 2.020690 0.000000 
#    z 0.000000 0.000000 1.887130 
# 
# From -- ./inp_files/1943.got.cif
#   From: 2010.05.17/outbox.cif.g08.bks.cpg/sg33_1_cif.got.tgz:1943.got - 2010.06.03 17:15:25.
