data_PCOD9345361
_publ_section_title
;
Structure prediction by ZEFSAII (Michael W. Deem and Ramdas Pophale) SiO2 
 PCOD9345361
Probable space group: P N A 21
;
_chemical_formula_sum "Si O2"
_cell_formula_units_Z 28
_cell_length_a 26.187197
_cell_length_b 5.604906
_cell_length_c 8.063447
_cell_angle_alpha 90.000000
_cell_angle_beta 90.000000
_cell_angle_gamma 90.000000
_cell_volume 1183.526767
_symmetry_space_group_name_H-M "P N A 21"
_symmetry_group_IT_number 33
_symmetry_cell_setting 'orthorhombic'
loop_
_space_group_symop_operation_xyz
x,y,z
-x,-y,1/2+z
1/2-x,1/2+y,1/2+z
1/2+x,1/2-y,z
loop_
_atom_site_type_symbol
_atom_site_label
_atom_site_fract_x
_atom_site_fract_y
_atom_site_fract_z
Si Si1 0.477969 0.276011 0.472130
Si Si2 0.688956 0.240831 0.614302
Si Si3 0.164684 0.249405 0.234260
Si Si4 0.552512 0.406573 0.230904
Si Si5 0.644338 0.737934 0.571167
Si Si6 0.962766 0.402352 0.137611
Si Si7 0.695307 0.748180 0.206521
O O1 0.508217 0.473014 0.362065
O O2 0.439984 0.374842 0.607399
O O3 0.452156 0.111456 0.333842
O O4 0.526732 0.155078 0.558704
O O5 0.694289 0.237947 0.411351
O O6 0.663368 0.984980 0.655116
O O7 0.743872 0.262543 0.697774
O O8 0.657625 0.483515 0.652599
O O9 0.181454 0.013007 0.135091
O O10 0.105563 0.206479 0.282401
O O11 0.173813 0.499028 0.141593
O O12 0.519593 0.209360 0.131748
O O13 0.671397 0.734628 0.391589
O O14 0.583669 0.768381 0.551559
#
# Coordination Sequence:
#
# PCOD9345361 Si02
#       7
#     4   4   4   4   4   4   4
#     4  10  24  39  68  97 149 181 242 283 353 419
#     4  10  21  40  66  94 127 177 234 293 356 414
#     4  10  22  39  67  96 131 177 227 287 363 415
#     4  10  25  41  70 102 142 190 229 294 352 444
#     4  10  22  39  67  97 130 178 226 289 362 415
#     4  10  25  41  70 102 143 189 231 294 352 442
#     4  10  21  39  68  92 128 176 235 292 356 415
#
# _framework density 23.658104000000002
#
# number of rings (size 3 to 8) (size 9 to 14) (size 15 to 20)
#    0.857    1.143    0.000    2.571   10.000    0.000 
#    0.000    8.571    0.000    0.000    0.000    0.000 
#    0.000    0.000    0.000    0.000    0.000    0.000 
#
# Total GULP energy -155965.705673 kJ/mol
# GULP energy per Si atom -5570.203774 kJ/mol
# Density = 2.360426 g / cm^3
# Si number density = 23.658104 Si / 1000 Ang^3
#
#
#
# Elastic Constant Matrix: (Units=GPa)
#
#
# Indices 1 2 3 4 5 6 
#
# 1 99.8689 15.6316 10.0762 0.0000 0.0000 0.0000
# 2 15.6316 152.8359 -2.8139 0.0000 0.0000 0.0000
# 3 10.0762 -2.8139 46.3785 0.0000 0.0000 0.0000
# 4 0.0000 0.0000 0.0000 11.4676 0.0000 0.0000
# 5 0.0000 0.0000 0.0000 0.0000 23.7866 0.0000
# 6 0.0000 0.0000 0.0000 0.0000 0.0000 41.0896
#
#
#
# Elastic Compliance Matrix: (Units=1/GPa)
#
#
# Indices 1 2 3 4 5 6 
#
# 1 0.010422 -0.001109 -0.002332 0.000000 0.000000 0.000000
# 2 -0.001109 0.006668 0.000645 0.000000 0.000000 0.000000
# 3 -0.002332 0.000645 0.022107 0.000000 0.000000 0.000000
# 4 0.000000 0.000000 0.000000 0.087202 0.000000 0.000000
# 5 0.000000 0.000000 0.000000 0.000000 0.042040 0.000000
# 6 0.000000 0.000000 0.000000 0.000000 0.000000 0.024337
#
#
# Mechanical properties :
#
#
# Convention : Reuss Voigt Hill
#
# Bulk Modulus (GPa) = 29.75499 38.31900 34.03700
# Shear Modulus (GPa) = 23.85845 33.68141 28.76993
#
# Velocity S-wave (km/s) = 3.17908 3.77725 3.49100
# Velocity P-wave (km/s) = 5.10684 5.93765 5.53785
#
# Compressibility (1/GPa) = 0.03360781
#
# Stress axis : x y z
#
# Youngs Moduli (GPa) = 95.95151 149.96418 45.23366
#
# Poissons Ratio (x) = 0.16629 0.10546
# Poissons Ratio (y) = 0.10640 -0.02920
# Poissons Ratio (z) = 0.22372 -0.09680
#
# Static dielectric constant tensor:
#      x y z
#    x 1.837610 0.000000 0.000000 
#    y 0.000000 2.075260 0.000000 
#    z 0.000000 0.000000 1.944390 
# 
# From -- ./inp_files/5260.got.cif
#   From: 2010.05.17/outbox.cif.g08.bks.cpg/sg33_3_cif.got.tgz:5260.got - 2010.06.03 17:15:25.
