data_PCOD9345399
_publ_section_title
;
Structure prediction by ZEFSAII (Michael W. Deem and Ramdas Pophale) SiO2 
 PCOD9345399
Probable space group: P N A 21
;
_chemical_formula_sum "Si O2"
_cell_formula_units_Z 32
_cell_length_a 11.174154
_cell_length_b 22.571861
_cell_length_c 6.631279
_cell_angle_alpha 90.000000
_cell_angle_beta 90.000000
_cell_angle_gamma 90.000000
_cell_volume 1672.550811
_symmetry_space_group_name_H-M "P N A 21"
_symmetry_group_IT_number 33
_symmetry_cell_setting 'orthorhombic'
loop_
_space_group_symop_operation_xyz
x,y,z
-x,-y,1/2+z
1/2-x,1/2+y,1/2+z
1/2+x,1/2-y,z
loop_
_atom_site_type_symbol
_atom_site_label
_atom_site_fract_x
_atom_site_fract_y
_atom_site_fract_z
Si Si1 0.832744 0.485911 0.035550
Si Si2 0.429869 0.830613 0.010758
Si Si3 0.357127 0.702135 0.985640
Si Si4 0.292845 0.636656 0.587726
Si Si5 0.025812 0.837399 0.324709
Si Si6 0.234270 0.402442 0.802379
Si Si7 0.417299 0.932754 0.688880
Si Si8 0.359588 0.211309 0.795282
O O1 0.743086 0.431060 0.051830
O O2 0.790560 0.535620 0.192386
O O3 0.964423 0.462333 0.095977
O O4 0.846314 0.517554 0.818367
O O5 0.321480 0.853529 0.151249
O O6 0.539269 0.821476 0.164641
O O7 0.401720 0.766721 0.912593
O O8 0.452683 0.881056 0.845880
O O9 0.306995 0.659491 0.814491
O O10 0.464664 0.670466 0.105608
O O11 0.254139 0.716527 0.147819
O O12 0.418070 0.650612 0.477722
O O13 0.187142 0.673962 0.482913
O O14 0.127422 0.886934 0.331926
O O15 0.089124 0.774294 0.364223
O O16 0.163810 0.405098 0.013160
#
# Coordination Sequence:
#
# PCOD9345399 Si02
#       8
#     4   4   4   4   4   4   4   4
#     4  11  24  43  62  96 123 168 216 268 321 377
#     4  10  22  37  66  96 124 166 209 263 326 378
#     4  10  22  41  64  95 131 167 207 260 320 395
#     4  11  25  40  66  97 130 172 215 259 325 394
#     4  10  24  43  60  94 134 169 212 263 319 385
#     4  11  23  43  65  89 129 168 216 271 315 380
#     4  11  23  39  70  92 124 163 219 272 322 380
#     4  10  21  40  65  93 133 161 206 270 316 377
#
# _framework density 19.132452000000001
#
# number of rings (size 3 to 8) (size 9 to 14) (size 15 to 20)
#    0.000    1.500    2.500    1.500    3.500    7.000 
#    4.500    0.000    0.000    0.000    0.000    0.000 
#    0.000    0.000    0.000    0.000    0.000    0.000 
#
# Total GULP energy -178788.356562 kJ/mol
# GULP energy per Si atom -5587.136143 kJ/mol
# Density = 1.908891 g / cm^3
# Si number density = 19.132452 Si / 1000 Ang^3
#
#
#
# Elastic Constant Matrix: (Units=GPa)
#
#
# Indices 1 2 3 4 5 6 
#
# 1 78.0754 34.1914 1.7919 0.0000 0.0000 0.0000
# 2 34.1914 79.1491 28.0323 0.0000 0.0000 0.0000
# 3 1.7919 28.0323 44.5137 0.0000 0.0000 0.0000
# 4 0.0000 0.0000 0.0000 10.8191 0.0000 0.0000
# 5 0.0000 0.0000 0.0000 0.0000 18.8305 0.0000
# 6 0.0000 0.0000 0.0000 0.0000 0.0000 42.0763
#
#
#
# Elastic Compliance Matrix: (Units=1/GPa)
#
#
# Indices 1 2 3 4 5 6 
#
# 1 0.016604 -0.008927 0.004953 0.000000 0.000000 0.000000
# 2 -0.008927 0.021061 -0.012904 0.000000 0.000000 0.000000
# 3 0.004953 -0.012904 0.030392 0.000000 0.000000 0.000000
# 4 0.000000 0.000000 0.000000 0.092429 0.000000 0.000000
# 5 0.000000 0.000000 0.000000 0.000000 0.053105 0.000000
# 6 0.000000 0.000000 0.000000 0.000000 0.000000 0.023766
#
#
# Mechanical properties :
#
#
# Convention : Reuss Voigt Hill
#
# Bulk Modulus (GPa) = 29.15302 36.64103 32.89703
# Shear Modulus (GPa) = 17.69629 23.52670 20.61150
#
# Velocity S-wave (km/s) = 3.04458 3.51048 3.28579
# Velocity P-wave (km/s) = 5.25641 5.96859 5.62378
#
# Compressibility (1/GPa) = 0.03430176
#
# Stress axis : x y z
#
# Youngs Moduli (GPa) = 60.22715 47.48163 32.90386
#
# Poissons Ratio (x) = 0.42387 -0.16298
# Poissons Ratio (y) = 0.53765 0.42458
# Poissons Ratio (z) = -0.29832 0.61268
#
# Static dielectric constant tensor:
#      x y z
#    x 1.654290 0.000000 0.000000 
#    y 0.000000 1.671530 0.000000 
#    z 0.000000 0.000000 1.649560 
# 
# From -- ./inp_files/1095.got.cif
#   From: 2010.05.17/outbox.cif.g08.bks.cpg/sg33_1_cif.got.tgz:1095.got - 2010.06.03 17:15:25.
