data_PCOD9345959
_publ_section_title
;
Structure prediction by ZEFSAII (Michael W. Deem and Ramdas Pophale) SiO2 
 PCOD9345959
Probable space group: P N A 21
;
_chemical_formula_sum "Si O2"
_cell_formula_units_Z 16
_cell_length_a 5.048726
_cell_length_b 20.705445
_cell_length_c 5.428026
_cell_angle_alpha 90.000000
_cell_angle_beta 90.000000
_cell_angle_gamma 90.000000
_cell_volume 567.424769
_symmetry_space_group_name_H-M "P N A 21"
_symmetry_group_IT_number 33
_symmetry_cell_setting 'orthorhombic'
loop_
_space_group_symop_operation_xyz
x,y,z
-x,-y,1/2+z
1/2-x,1/2+y,1/2+z
1/2+x,1/2-y,z
loop_
_atom_site_type_symbol
_atom_site_label
_atom_site_fract_x
_atom_site_fract_y
_atom_site_fract_z
Si Si1 0.341526 0.514550 0.996230
Si Si2 0.838293 0.614518 0.546324
Si Si3 0.908412 0.215957 0.332247
Si Si4 0.327219 0.646960 0.235164
O O1 0.465844 0.503354 0.727186
O O2 0.108769 0.462042 0.043358
O O3 0.279678 0.589997 0.032624
O O4 0.765945 0.650903 0.798733
O O5 0.554383 0.622503 0.416318
O O6 0.055459 0.649086 0.381499
O O7 0.194789 0.233981 0.220088
O O8 0.037473 0.208496 0.604850
#
# Coordination Sequence:
#
# PCOD9345959 Si02
#       4
#     4   4   4   4
#     4  10  22  46  74 110 154 196 254 330 402 476
#     4  11  25  45  71 106 147 197 253 323 396 468
#     4  12  26  46  72 104 150 198 258 316 382 474
#     4  11  25  45  71 106 147 197 253 323 396 468
#
# _framework density 28.197571
#
# number of rings (size 3 to 8) (size 9 to 14) (size 15 to 20)
#    0.000    1.000    2.500    3.000    0.000   14.000 
#    4.500    0.000    0.000    0.000    0.000    0.000 
#    0.000    0.000    0.000    0.000    0.000    0.000 
#
# Total GULP energy -89269.489225 kJ/mol
# GULP energy per Si atom -5579.343077 kJ/mol
# Density = 2.813339 g / cm^3
# Si number density = 28.197571 Si / 1000 Ang^3
#
#
#
# Elastic Constant Matrix: (Units=GPa)
#
#
# Indices 1 2 3 4 5 6 
#
# 1 199.3216 64.2299 73.3227 0.0000 0.0000 0.0000
# 2 64.2299 79.9559 24.3420 0.0000 0.0000 0.0000
# 3 73.3227 24.3420 83.1700 0.0000 0.0000 0.0000
# 4 0.0000 0.0000 0.0000 40.0020 0.0000 0.0000
# 5 0.0000 0.0000 0.0000 0.0000 47.7140 0.0000
# 6 0.0000 0.0000 0.0000 0.0000 0.0000 28.7630
#
#
#
# Elastic Compliance Matrix: (Units=1/GPa)
#
#
# Indices 1 2 3 4 5 6 
#
# 1 0.009127 -0.005360 -0.006478 0.000000 0.000000 0.000000
# 2 -0.005360 0.016878 -0.000215 0.000000 0.000000 0.000000
# 3 -0.006478 -0.000215 0.017797 0.000000 0.000000 0.000000
# 4 0.000000 0.000000 0.000000 0.024999 0.000000 0.000000
# 5 0.000000 0.000000 0.000000 0.000000 0.020958 0.000000
# 6 0.000000 0.000000 0.000000 0.000000 0.000000 0.034767
#
#
# Mechanical properties :
#
#
# Convention : Reuss Voigt Hill
#
# Bulk Modulus (GPa) = 50.76698 76.24851 63.50775
# Shear Modulus (GPa) = 32.21731 36.66601 34.44166
#
# Velocity S-wave (km/s) = 3.38384 3.60991 3.49870
# Velocity P-wave (km/s) = 5.77150 6.66894 6.23639
#
# Compressibility (1/GPa) = 0.01969784
#
# Stress axis : x y z
#
# Youngs Moduli (GPa) = 109.56388 59.24924 56.18882
#
# Poissons Ratio (x) = 0.31757 0.36398
# Poissons Ratio (y) = 0.58724 0.01205
# Poissons Ratio (z) = 0.70973 0.01271
#
# Static dielectric constant tensor:
#      x y z
#    x 2.136010 0.000000 0.000000 
#    y 0.000000 2.734930 0.000000 
#    z 0.000000 0.000000 2.325260 
# 
# From -- ./inp_files/127.got.cif
#   From: 2010.05.17/outbox.cif.g08.bks.cpg/sg33_1_cif.got.tgz:127.got - 2010.06.03 17:15:25.
