data_PCOD9345601
_publ_section_title
;
Structure prediction by ZEFSAII (Michael W. Deem and Ramdas Pophale) SiO2 
 PCOD9345601
Probable space group: P N A 21
;
_chemical_formula_sum "Si O2"
_cell_formula_units_Z 28
_cell_length_a 4.914318
_cell_length_b 23.948793
_cell_length_c 10.510774
_cell_angle_alpha 90.000000
_cell_angle_beta 90.000000
_cell_angle_gamma 90.000000
_cell_volume 1237.033851
_symmetry_space_group_name_H-M "P N A 21"
_symmetry_group_IT_number 33
_symmetry_cell_setting 'orthorhombic'
loop_
_space_group_symop_operation_xyz
x,y,z
-x,-y,1/2+z
1/2-x,1/2+y,1/2+z
1/2+x,1/2-y,z
loop_
_atom_site_type_symbol
_atom_site_label
_atom_site_fract_x
_atom_site_fract_y
_atom_site_fract_z
Si Si1 0.348448 0.281644 0.879520
Si Si2 0.008121 0.541706 0.876435
Si Si3 0.505522 0.521132 0.705313
Si Si4 0.343928 0.599549 0.080927
Si Si5 0.647224 0.713027 0.071501
Si Si6 0.760468 0.569118 0.473267
Si Si7 0.720177 0.381894 0.863762
O O1 0.042801 0.269661 0.917704
O O2 0.345568 0.285932 0.726053
O O3 0.524716 0.334325 0.919308
O O4 0.201696 0.532659 0.753264
O O5 0.067836 0.487299 0.960123
O O6 0.704761 0.536561 0.824222
O O7 0.126854 0.589726 0.968055
O O8 0.536139 0.461622 0.626477
O O9 0.606874 0.567858 0.605319
O O10 0.551502 0.649520 0.041769
O O11 0.211826 0.622218 0.213687
O O12 0.931767 0.739367 0.029355
O O13 0.508883 0.569281 0.374167
O O14 0.999273 0.611262 0.436444
#
# Coordination Sequence:
#
# PCOD9345601 Si02
#       7
#     4   4   4   4   4   4   4
#     4   9  17  30  48  76 108 136 170 218 274 335
#     4  11  22  37  54  80 109 151 186 220 268 325
#     4  11  23  38  54  80 115 148 190 220 262 330
#     4  10  22  36  59  83 117 147 179 230 280 326
#     4   9  19  33  51  79 109 140 177 221 278 334
#     4  11  21  35  53  78 109 148 182 221 264 325
#     4  11  20  35  55  82 111 144 178 222 282 323
#
# _framework density 22.634786999999999
#
# number of rings (size 3 to 8) (size 9 to 14) (size 15 to 20)
#    0.000    1.714    2.857    1.714    0.000   10.286 
#    0.000    0.000    0.000    0.000    0.000   20.000 
#    0.000    0.000    0.000    0.000    0.000    0.000 
#
# Total GULP energy -155981.533599 kJ/mol
# GULP energy per Si atom -5570.769057 kJ/mol
# Density = 2.258327 g / cm^3
# Si number density = 22.634787 Si / 1000 Ang^3
#
#
#
# Elastic Constant Matrix: (Units=GPa)
#
#
# Indices 1 2 3 4 5 6 
#
# 1 95.5411 5.9096 -7.0669 0.0000 0.0000 0.0000
# 2 5.9096 56.5105 7.9512 0.0000 0.0000 0.0000
# 3 -7.0669 7.9512 40.2415 0.0000 0.0000 0.0000
# 4 0.0000 0.0000 0.0000 17.0129 0.0000 0.0000
# 5 0.0000 0.0000 0.0000 0.0000 25.4317 0.0000
# 6 0.0000 0.0000 0.0000 0.0000 0.0000 23.4317
#
#
#
# Elastic Compliance Matrix: (Units=1/GPa)
#
#
# Indices 1 2 3 4 5 6 
#
# 1 0.010715 -0.001425 0.002163 0.000000 0.000000 0.000000
# 2 -0.001425 0.018391 -0.003884 0.000000 0.000000 0.000000
# 3 0.002163 -0.003884 0.025997 0.000000 0.000000 0.000000
# 4 0.000000 0.000000 0.000000 0.058779 0.000000 0.000000
# 5 0.000000 0.000000 0.000000 0.000000 0.039321 0.000000
# 6 0.000000 0.000000 0.000000 0.000000 0.000000 0.042677
#
#
# Mechanical properties :
#
#
# Convention : Reuss Voigt Hill
#
# Bulk Modulus (GPa) = 20.48681 22.87565 21.68123
# Shear Modulus (GPa) = 22.88927 25.54188 24.21557
#
# Velocity S-wave (km/s) = 3.18345 3.36286 3.27439
# Velocity P-wave (km/s) = 4.75218 5.02064 4.88825
#
# Compressibility (1/GPa) = 0.04881190
#
# Stress axis : x y z
#
# Youngs Moduli (GPa) = 93.32855 54.37340 38.46551
#
# Poissons Ratio (x) = 0.07748 -0.08321
# Poissons Ratio (y) = 0.13298 0.14941
# Poissons Ratio (z) = -0.20189 0.21119
#
# Static dielectric constant tensor:
#      x y z
#    x 1.849130 0.000000 0.000000 
#    y 0.000000 2.228380 0.000000 
#    z 0.000000 0.000000 1.868730 
# 
# From -- ./inp_files/2791.got.cif
#   From: 2010.05.17/outbox.cif.g08.bks.cpg/sg33_2_cif.got.tgz:2791.got - 2010.06.03 17:15:25.
