data_PCOD9345177
_publ_section_title
;
Structure prediction by ZEFSAII (Michael W. Deem and Ramdas Pophale) SiO2 
 PCOD9345177
Probable space group: P N A 21
;
_chemical_formula_sum "Si O2"
_cell_formula_units_Z 24
_cell_length_a 5.160751
_cell_length_b 19.018171
_cell_length_c 12.820364
_cell_angle_alpha 90.000000
_cell_angle_beta 90.000000
_cell_angle_gamma 90.000000
_cell_volume 1258.293663
_symmetry_space_group_name_H-M "P N A 21"
_symmetry_group_IT_number 33
_symmetry_cell_setting 'orthorhombic'
loop_
_space_group_symop_operation_xyz
x,y,z
-x,-y,1/2+z
1/2-x,1/2+y,1/2+z
1/2+x,1/2-y,z
loop_
_atom_site_type_symbol
_atom_site_label
_atom_site_fract_x
_atom_site_fract_y
_atom_site_fract_z
Si Si1 0.792156 0.428629 0.607720
Si Si2 0.705578 0.483120 0.155271
Si Si3 0.292156 0.571371 0.428996
Si Si4 0.431057 0.722902 0.151367
Si Si5 0.568943 0.777098 0.385349
Si Si6 0.705578 0.983120 0.881445
O O1 0.578268 0.482829 0.650452
O O2 0.701760 0.352766 0.646532
O O3 0.771104 0.433578 0.482118
O O4 0.076142 0.455503 0.641133
O O5 0.750000 0.450202 0.268358
O O6 0.728896 0.433578 0.054598
O O7 0.201760 0.647234 0.390183
O O8 0.576142 0.544497 0.395583
O O9 0.078269 0.517171 0.386263
O O10 0.216694 0.774602 0.101670
O O11 0.500000 0.750000 0.268358
O O12 0.283306 0.774602 0.435046
#
# Coordination Sequence:
#
# PCOD9345177 Si02
#       6
#     4   4   4   4   4   4
#     4  10  21  36  51  82 111 136 191 215 276 330
#     4  10  21  34  57  76 106 150 172 237 267 315
#     4  10  21  36  51  82 111 136 191 215 276 330
#     4  10  21  32  50  78 107 146 167 221 274 317
#     4  10  21  32  50  78 107 146 167 221 274 317
#     4  10  21  34  57  76 106 150 172 237 267 315
#
# _framework density 19.073449
#
# number of rings (size 3 to 8) (size 9 to 14) (size 15 to 20)
#    0.000    2.000    0.000    3.000   14.000    0.000 
#    0.000    0.000    0.000    2.000    0.000    0.000 
#    0.000    0.000    0.000    0.000    0.000    0.000 
#
# Total GULP energy -133770.165030 kJ/mol
# GULP energy per Si atom -5573.756876 kJ/mol
# Density = 1.903004 g / cm^3
# Si number density = 19.073449 Si / 1000 Ang^3
#
#
#
# Elastic Constant Matrix: (Units=GPa)
#
#
# Indices 1 2 3 4 5 6 
#
# 1 118.8255 -1.8368 -15.2884 0.0000 0.0000 0.0000
# 2 -1.8368 63.0184 7.1698 0.0000 0.0000 0.0000
# 3 -15.2884 7.1698 105.3840 0.0000 0.0000 0.0000
# 4 0.0000 0.0000 0.0000 12.5107 0.0000 0.0000
# 5 0.0000 0.0000 0.0000 0.0000 19.4765 0.0000
# 6 0.0000 0.0000 0.0000 0.0000 0.0000 22.6446
#
#
#
# Elastic Compliance Matrix: (Units=1/GPa)
#
#
# Indices 1 2 3 4 5 6 
#
# 1 0.008577 0.000109 0.001237 0.000000 0.000000 0.000000
# 2 0.000109 0.015994 -0.001072 0.000000 0.000000 0.000000
# 3 0.001237 -0.001072 0.009741 0.000000 0.000000 0.000000
# 4 0.000000 0.000000 0.000000 0.079931 0.000000 0.000000
# 5 0.000000 0.000000 0.000000 0.000000 0.051344 0.000000
# 6 0.000000 0.000000 0.000000 0.000000 0.000000 0.044161
#
#
# Mechanical properties :
#
#
# Convention : Reuss Voigt Hill
#
# Bulk Modulus (GPa) = 28.68687 29.70188 29.19438
# Shear Modulus (GPa) = 22.64289 30.73857 26.69073
#
# Velocity S-wave (km/s) = 3.44923 4.01882 3.74487
# Velocity P-wave (km/s) = 5.56199 6.09432 5.83423
#
# Compressibility (1/GPa) = 0.03485916
#
# Stress axis : x y z
#
# Youngs Moduli (GPa) = 116.59740 62.52513 102.65372
#
# Poissons Ratio (x) = -0.00683 -0.12696
# Poissons Ratio (y) = -0.01274 0.11007
# Poissons Ratio (z) = -0.14421 0.06704
#
# Static dielectric constant tensor:
#      x y z
#    x 1.806220 0.000000 0.000000 
#    y 0.000000 1.673770 0.000000 
#    z 0.000000 0.000000 1.730520 
# 
# From -- ./inp_files/5455.got.cif
#   From: 2010.05.17/outbox.cif.g08.bks.cpg/sg33_3_cif.got.tgz:5455.got - 2010.06.03 17:15:25.
