data_PCOD9345981
_publ_section_title
;
Structure prediction by ZEFSAII (Michael W. Deem and Ramdas Pophale) SiO2 
 PCOD9345981
Probable space group: P N A 21
;
_chemical_formula_sum "Si O2"
_cell_formula_units_Z 28
_cell_length_a 22.238970
_cell_length_b 7.004290
_cell_length_c 7.973491
_cell_angle_alpha 90.000000
_cell_angle_beta 90.000000
_cell_angle_gamma 90.000000
_cell_volume 1242.016302
_symmetry_space_group_name_H-M "P N A 21"
_symmetry_group_IT_number 33
_symmetry_cell_setting 'orthorhombic'
loop_
_space_group_symop_operation_xyz
x,y,z
-x,-y,1/2+z
1/2-x,1/2+y,1/2+z
1/2+x,1/2-y,z
loop_
_atom_site_type_symbol
_atom_site_label
_atom_site_fract_x
_atom_site_fract_y
_atom_site_fract_z
Si Si1 0.392250 0.093128 0.362830
Si Si2 0.286946 0.879766 0.798337
Si Si3 0.710711 0.759604 0.092055
Si Si4 0.079496 0.163723 0.776535
Si Si5 0.470748 0.396692 0.555864
Si Si6 0.633597 0.459727 0.268615
Si Si7 0.836684 0.126611 0.129544
O O1 0.330106 0.115730 0.465082
O O2 0.440887 0.207721 0.474248
O O3 0.380222 0.203048 0.187928
O O4 0.409142 0.878882 0.326343
O O5 0.347981 0.762858 0.761819
O O6 0.231557 0.820290 0.675409
O O7 0.287329 0.105219 0.756477
O O8 0.267936 0.810177 0.984953
O O9 0.675581 0.568156 0.135319
O O10 0.038527 0.142743 0.610754
O O11 0.141006 0.047593 0.748617
O O12 0.042029 0.059979 0.921188
O O13 0.432356 0.474371 0.714424
O O14 0.652450 0.551324 0.444897
#
# Coordination Sequence:
#
# PCOD9345981 Si02
#       7
#     4   4   4   4   4   4   4
#     4   9  22  42  63  93 126 166 212 267 323 395
#     4  11  22  40  60  93 126 174 211 265 329 382
#     4  10  23  38  62  89 125 167 216 259 329 385
#     4  11  22  43  69  88 137 166 209 278 313 391
#     4  10  23  40  64  97 123 173 217 257 333 385
#     4  11  23  41  62  92 137 161 218 275 308 399
#     4  10  23  40  62 100 122 169 223 255 331 389
#
# _framework density 22.543987000000001
#
# number of rings (size 3 to 8) (size 9 to 14) (size 15 to 20)
#    0.000    1.714    1.429    2.571    2.000    6.857 
#    0.000    2.857    0.000    0.000    0.000    0.000 
#    0.000    0.000    0.000    0.000    0.000    0.000 
#
# Total GULP energy -156364.256050 kJ/mol
# GULP energy per Si atom -5584.437716 kJ/mol
# Density = 2.249268 g / cm^3
# Si number density = 22.543987 Si / 1000 Ang^3
#
#
#
# Elastic Constant Matrix: (Units=GPa)
#
#
# Indices 1 2 3 4 5 6 
#
# 1 48.0586 1.7915 -1.2736 0.0000 0.0000 0.0000
# 2 1.7915 103.8324 5.2712 0.0000 0.0000 0.0000
# 3 -1.2736 5.2712 67.3949 0.0000 0.0000 0.0000
# 4 0.0000 0.0000 0.0000 26.8507 0.0000 0.0000
# 5 0.0000 0.0000 0.0000 0.0000 19.3642 0.0000
# 6 0.0000 0.0000 0.0000 0.0000 0.0000 7.5449
#
#
#
# Elastic Compliance Matrix: (Units=1/GPa)
#
#
# Indices 1 2 3 4 5 6 
#
# 1 0.020833 -0.000381 0.000424 0.000000 0.000000 0.000000
# 2 -0.000381 0.009676 -0.000764 0.000000 0.000000 0.000000
# 3 0.000424 -0.000764 0.014906 0.000000 0.000000 0.000000
# 4 0.000000 0.000000 0.000000 0.037243 0.000000 0.000000
# 5 0.000000 0.000000 0.000000 0.000000 0.051642 0.000000
# 6 0.000000 0.000000 0.000000 0.000000 0.000000 0.132539
#
#
# Mechanical properties :
#
#
# Convention : Reuss Voigt Hill
#
# Bulk Modulus (GPa) = 22.74154 25.65155 24.19655
# Shear Modulus (GPa) = 17.67162 24.98509 21.32836
#
# Velocity S-wave (km/s) = 2.80281 3.33270 3.07917
# Velocity P-wave (km/s) = 4.53694 5.11980 4.83716
#
# Compressibility (1/GPa) = 0.04397239
#
# Stress axis : x y z
#
# Youngs Moduli (GPa) = 47.99996 103.34569 67.08850
#
# Poissons Ratio (x) = 0.03937 -0.02841
# Poissons Ratio (y) = 0.01829 0.05126
# Poissons Ratio (z) = -0.02033 0.07896
#
# Static dielectric constant tensor:
#      x y z
#    x 1.866090 0.000000 0.000000 
#    y 0.000000 1.813960 0.000000 
#    z 0.000000 0.000000 1.880570 
# 
# From -- ./inp_files/5139.got.cif
#   From: 2010.05.17/outbox.cif.g08.bks.cpg/sg33_3_cif.got.tgz:5139.got - 2010.06.03 17:15:25.
