data_PCOD9345720
_publ_section_title
;
Structure prediction by ZEFSAII (Michael W. Deem and Ramdas Pophale) SiO2 
 PCOD9345720
Probable space group: P N A 21
;
_chemical_formula_sum "Si O2"
_cell_formula_units_Z 28
_cell_length_a 8.104682
_cell_length_b 24.269421
_cell_length_c 5.681425
_cell_angle_alpha 90.000000
_cell_angle_beta 90.000000
_cell_angle_gamma 90.000000
_cell_volume 1117.513228
_symmetry_space_group_name_H-M "P N A 21"
_symmetry_group_IT_number 33
_symmetry_cell_setting 'orthorhombic'
loop_
_space_group_symop_operation_xyz
x,y,z
-x,-y,1/2+z
1/2-x,1/2+y,1/2+z
1/2+x,1/2-y,z
loop_
_atom_site_type_symbol
_atom_site_label
_atom_site_fract_x
_atom_site_fract_y
_atom_site_fract_z
Si Si1 0.471865 0.780069 0.604450
Si Si2 0.903751 0.370856 0.464779
Si Si3 0.148238 0.543789 0.585913
Si Si4 0.506477 0.465463 0.911424
Si Si5 0.339961 0.925253 0.274043
Si Si6 0.296364 0.282318 0.775633
Si Si7 0.593399 0.302917 0.489653
O O1 0.549755 0.823680 0.777931
O O2 0.598895 0.766239 0.399048
O O3 0.437891 0.720434 0.727103
O O4 0.307523 0.805744 0.491999
O O5 0.064322 0.378028 0.628161
O O6 0.860971 0.428505 0.340671
O O7 0.725777 0.349274 0.544524
O O8 0.314899 0.562649 0.453564
O O9 0.162132 0.478389 0.602466
O O10 0.977784 0.560674 0.467427
O O11 0.518299 0.500778 0.663327
O O12 0.345249 0.426509 0.877929
O O13 0.423044 0.316225 0.619250
O O14 0.172413 0.251861 0.602421
#
# Coordination Sequence:
#
# PCOD9345720 Si02
#       7
#     4   4   4   4   4   4   4
#     4  11  22  44  69 105 143 188 246 313 373 459
#     4  12  26  42  77 109 150 202 256 308 398 462
#     4  11  24  46  76 107 152 202 254 319 382 463
#     4  10  24  46  83 109 150 205 260 322 397 456
#     4  11  24  46  76 107 152 202 254 319 382 463
#     4  10  22  40  76  92 144 189 236 308 383 430
#     4  11  22  44  69 105 143 188 246 313 373 459
#
# _framework density 25.055631000000002
#
# number of rings (size 3 to 8) (size 9 to 14) (size 15 to 20)
#    0.000    1.143    4.286    0.857    6.000    0.000 
#    0.000    8.571    0.000    0.000    0.000    0.000 
#    0.000    0.000    0.000    0.000    0.000    0.000 
#
# Total GULP energy -156407.183647 kJ/mol
# GULP energy per Si atom -5585.970845 kJ/mol
# Density = 2.499860 g / cm^3
# Si number density = 25.055631 Si / 1000 Ang^3
#
#
#
# Elastic Constant Matrix: (Units=GPa)
#
#
# Indices 1 2 3 4 5 6 
#
# 1 100.1607 7.9268 20.4968 0.0000 0.0000 0.0000
# 2 7.9268 37.6783 3.3900 0.0000 0.0000 0.0000
# 3 20.4968 3.3900 73.7928 0.0000 0.0000 0.0000
# 4 0.0000 0.0000 0.0000 36.7572 0.0000 0.0000
# 5 0.0000 0.0000 0.0000 0.0000 53.9960 0.0000
# 6 0.0000 0.0000 0.0000 0.0000 0.0000 30.1322
#
#
#
# Elastic Compliance Matrix: (Units=1/GPa)
#
#
# Indices 1 2 3 4 5 6 
#
# 1 0.010733 -0.001998 -0.002890 0.000000 0.000000 0.000000
# 2 -0.001998 0.027023 -0.000686 0.000000 0.000000 0.000000
# 3 -0.002890 -0.000686 0.014386 0.000000 0.000000 0.000000
# 4 0.000000 0.000000 0.000000 0.027206 0.000000 0.000000
# 5 0.000000 0.000000 0.000000 0.000000 0.018520 0.000000
# 6 0.000000 0.000000 0.000000 0.000000 0.000000 0.033187
#
#
# Mechanical properties :
#
#
# Convention : Reuss Voigt Hill
#
# Bulk Modulus (GPa) = 24.39413 30.58434 27.48923
# Shear Modulus (GPa) = 32.07870 36.16498 34.12184
#
# Velocity S-wave (km/s) = 3.58201 3.80332 3.69432
# Velocity P-wave (km/s) = 5.18313 5.61427 5.40300
#
# Compressibility (1/GPa) = 0.04099346
#
# Stress axis : x y z
#
# Youngs Moduli (GPa) = 93.16713 37.00606 69.51403
#
# Poissons Ratio (x) = 0.07394 0.20086
# Poissons Ratio (y) = 0.18616 0.04772
# Poissons Ratio (z) = 0.26921 0.02540
#
# Static dielectric constant tensor:
#      x y z
#    x 1.995420 0.000000 0.000000 
#    y 0.000000 2.078170 0.000000 
#    z 0.000000 0.000000 2.016940 
# 
# From -- ./inp_files/468.got.cif
#   From: 2010.05.17/outbox.cif.g08.bks.cpg/sg33_1_cif.got.tgz:468.got - 2010.06.03 17:15:25.
