data_PCOD9345990
_publ_section_title
;
Structure prediction by ZEFSAII (Michael W. Deem and Ramdas Pophale) SiO2 
 PCOD9345990
Probable space group: P N A 21
;
_chemical_formula_sum "Si O2"
_cell_formula_units_Z 28
_cell_length_a 14.026754
_cell_length_b 7.374364
_cell_length_c 11.929880
_cell_angle_alpha 90.000000
_cell_angle_beta 90.000000
_cell_angle_gamma 90.000000
_cell_volume 1234.007577
_symmetry_space_group_name_H-M "P N A 21"
_symmetry_group_IT_number 33
_symmetry_cell_setting 'orthorhombic'
loop_
_space_group_symop_operation_xyz
x,y,z
-x,-y,1/2+z
1/2-x,1/2+y,1/2+z
1/2+x,1/2-y,z
loop_
_atom_site_type_symbol
_atom_site_label
_atom_site_fract_x
_atom_site_fract_y
_atom_site_fract_z
Si Si1 0.757013 0.198435 0.181710
Si Si2 0.923134 0.153712 0.023158
Si Si3 0.659562 0.872155 0.256068
Si Si4 0.541065 0.024504 0.443195
Si Si5 0.480052 0.317190 0.599551
Si Si6 0.198213 0.992851 0.332915
Si Si7 0.137069 0.728607 0.895297
O O1 0.825794 0.230804 0.077596
O O2 0.696499 0.017347 0.168098
O O3 0.695155 0.368672 0.227352
O O4 0.827416 0.160463 0.288462
O O5 0.971262 0.010560 0.105499
O O6 0.985222 0.328475 0.993030
O O7 0.893709 0.043474 0.910483
O O8 0.631386 0.987285 0.365597
O O9 0.566401 0.770650 0.208097
O O10 0.727233 0.705466 0.288296
O O11 0.550839 0.169813 0.542668
O O12 0.456990 0.110167 0.368530
O O13 0.394385 0.331424 0.507083
O O14 0.276927 0.087371 0.410647
#
# Coordination Sequence:
#
# PCOD9345990 Si02
#       7
#     4   4   4   4   4   4   4
#     4  10  23  40  64  91 124 170 203 271 310 384
#     4  11  22  40  66  93 125 171 213 254 333 369
#     4  11  22  40  64  91 124 169 212 257 323 372
#     4   9  23  41  62  90 128 165 204 272 309 378
#     4  10  23  39  62  95 122 164 211 269 306 394
#     4   9  22  43  60  96 122 167 213 262 307 395
#     4   8  21  41  58  90 123 160 204 263 312 356
#
# _framework density 22.690300000000001
#
# number of rings (size 3 to 8) (size 9 to 14) (size 15 to 20)
#    1.714    0.571    0.000    1.714    2.000    6.857 
#    5.143    0.000    0.000    0.000    0.000    0.000 
#    0.000    0.000    0.000    0.000    0.000    0.000 
#
# Total GULP energy -155929.832758 kJ/mol
# GULP energy per Si atom -5568.922598 kJ/mol
# Density = 2.263866 g / cm^3
# Si number density = 22.690300 Si / 1000 Ang^3
#
#
#
# Elastic Constant Matrix: (Units=GPa)
#
#
# Indices 1 2 3 4 5 6 
#
# 1 24.0100 22.7051 6.2390 0.0000 0.0000 0.0000
# 2 22.7051 73.4504 4.8339 0.0000 0.0000 0.0000
# 3 6.2390 4.8339 65.4571 0.0000 0.0000 0.0000
# 4 0.0000 0.0000 0.0000 18.6934 0.0000 0.0000
# 5 0.0000 0.0000 0.0000 0.0000 23.4794 0.0000
# 6 0.0000 0.0000 0.0000 0.0000 0.0000 21.9590
#
#
#
# Elastic Compliance Matrix: (Units=1/GPa)
#
#
# Indices 1 2 3 4 5 6 
#
# 1 0.060075 -0.018282 -0.004376 0.000000 0.000000 0.000000
# 2 -0.018282 0.019245 0.000321 0.000000 0.000000 0.000000
# 3 -0.004376 0.000321 0.015671 0.000000 0.000000 0.000000
# 4 0.000000 0.000000 0.000000 0.053495 0.000000 0.000000
# 5 0.000000 0.000000 0.000000 0.000000 0.042591 0.000000
# 6 0.000000 0.000000 0.000000 0.000000 0.000000 0.045539
#
#
# Mechanical properties :
#
#
# Convention : Reuss Voigt Hill
#
# Bulk Modulus (GPa) = 19.87417 25.60818 22.74117
# Shear Modulus (GPa) = 16.77506 21.43567 19.10536
#
# Velocity S-wave (km/s) = 2.72197 3.07694 2.90488
# Velocity P-wave (km/s) = 4.31934 4.89223 4.61468
#
# Compressibility (1/GPa) = 0.05031657
#
# Stress axis : x y z
#
# Youngs Moduli (GPa) = 16.64583 51.96161 63.81405
#
# Poissons Ratio (x) = 0.94999 0.27925
# Poissons Ratio (y) = 0.30433 -0.02051
# Poissons Ratio (z) = 0.07284 -0.01670
#
# Static dielectric constant tensor:
#      x y z
#    x 1.866960 0.000000 0.000000 
#    y 0.000000 1.855540 0.000000 
#    z 0.000000 0.000000 1.898710 
# 
# From -- ./inp_files/8118.got.cif
#   From: 2010.05.17/outbox.cif.g08.bks.cpg/sg33_5_cif.got.tgz:8118.got - 2010.06.03 17:15:25.
