data_PCOD9345680
_publ_section_title
;
Structure prediction by ZEFSAII (Michael W. Deem and Ramdas Pophale) SiO2 
 PCOD9345680
Probable space group: P N A 21
;
_chemical_formula_sum "Si O2"
_cell_formula_units_Z 28
_cell_length_a 9.057425
_cell_length_b 28.874837
_cell_length_c 5.196570
_cell_angle_alpha 90.000000
_cell_angle_beta 90.000000
_cell_angle_gamma 90.000000
_cell_volume 1359.067633
_symmetry_space_group_name_H-M "P N A 21"
_symmetry_group_IT_number 33
_symmetry_cell_setting 'orthorhombic'
loop_
_space_group_symop_operation_xyz
x,y,z
-x,-y,1/2+z
1/2-x,1/2+y,1/2+z
1/2+x,1/2-y,z
loop_
_atom_site_type_symbol
_atom_site_label
_atom_site_fract_x
_atom_site_fract_y
_atom_site_fract_z
Si Si1 0.090612 0.486235 0.885840
Si Si2 0.073827 0.885732 0.898316
Si Si3 0.911871 0.707530 0.309914
Si Si4 0.321954 0.236526 0.103006
Si Si5 0.770539 0.610925 0.382343
Si Si6 0.578172 0.479073 0.288107
Si Si7 0.573237 0.290018 0.412113
O O1 0.123927 0.432191 0.940137
O O2 0.250229 0.509187 0.828914
O O3 0.988279 0.492368 0.635457
O O4 0.176378 0.878475 0.642922
O O5 0.956515 0.924775 0.822078
O O6 0.997693 0.838245 0.995795
O O7 0.166536 0.903308 0.143411
O O8 0.799376 0.725922 0.525114
O O9 0.859280 0.655413 0.272683
O O10 0.083233 0.711014 0.385579
O O11 0.888625 0.748702 0.106747
O O12 0.444699 0.266061 0.247539
O O13 0.224960 0.200436 0.262273
O O14 0.484334 0.505025 0.511531
#
# Coordination Sequence:
#
# PCOD9345680 Si02
#       7
#     4   4   4   4   4   4   4
#     4  12  26  47  72 107 147 180 235 310 373 428
#     4  12  24  44  74 102 133 188 248 290 353 444
#     4  11  23  42  65  95 139 184 233 290 356 419
#     4  10  22  40  62  91 134 176 227 288 348 409
#     4  12  25  45  73 100 139 192 238 290 372 437
#     4  12  23  47  75 102 139 186 238 299 352 439
#     4  11  23  41  65  97 135 182 235 291 348 424
#
# _framework density 20.602359
#
# number of rings (size 3 to 8) (size 9 to 14) (size 15 to 20)
#    0.000    0.571    4.286    4.286    4.000    1.143 
#    5.143    0.000    0.000    0.000    0.000    0.000 
#    0.000    0.000    0.000    0.000    0.000    0.000 
#
# Total GULP energy -156236.647876 kJ/mol
# GULP energy per Si atom -5579.880281 kJ/mol
# Density = 2.055547 g / cm^3
# Si number density = 20.602359 Si / 1000 Ang^3
#
#
#
# Elastic Constant Matrix: (Units=GPa)
#
#
# Indices 1 2 3 4 5 6 
#
# 1 112.6503 24.1147 21.2002 0.0000 0.0000 0.0000
# 2 24.1147 105.8814 -4.3069 0.0000 0.0000 0.0000
# 3 21.2002 -4.3069 77.9992 0.0000 0.0000 0.0000
# 4 0.0000 0.0000 0.0000 25.5724 0.0000 0.0000
# 5 0.0000 0.0000 0.0000 0.0000 29.1152 0.0000
# 6 0.0000 0.0000 0.0000 0.0000 0.0000 31.3193
#
#
#
# Elastic Compliance Matrix: (Units=1/GPa)
#
#
# Indices 1 2 3 4 5 6 
#
# 1 0.009917 -0.002374 -0.002827 0.000000 0.000000 0.000000
# 2 -0.002374 0.010034 0.001199 0.000000 0.000000 0.000000
# 3 -0.002827 0.001199 0.013655 0.000000 0.000000 0.000000
# 4 0.000000 0.000000 0.000000 0.039105 0.000000 0.000000
# 5 0.000000 0.000000 0.000000 0.000000 0.034346 0.000000
# 6 0.000000 0.000000 0.000000 0.000000 0.000000 0.031929
#
#
# Mechanical properties :
#
#
# Convention : Reuss Voigt Hill
#
# Bulk Modulus (GPa) = 39.05610 42.06078 40.55844
# Shear Modulus (GPa) = 32.14959 34.23622 33.19290
#
# Velocity S-wave (km/s) = 3.95458 4.08089 4.01823
# Velocity P-wave (km/s) = 6.31267 6.53183 6.42318
#
# Compressibility (1/GPa) = 0.02560420
#
# Stress axis : x y z
#
# Youngs Moduli (GPa) = 100.83614 99.66213 73.23264
#
# Poissons Ratio (x) = 0.23656 0.20699
# Poissons Ratio (y) = 0.23935 -0.08782
# Poissons Ratio (z) = 0.28502 -0.11951
#
# Static dielectric constant tensor:
#      x y z
#    x 1.688180 0.000000 0.000000 
#    y 0.000000 1.792170 0.000000 
#    z 0.000000 0.000000 1.766730 
# 
# From -- ./inp_files/524.got.cif
#   From: 2010.05.17/outbox.cif.g08.bks.cpg/sg33_1_cif.got.tgz:524.got - 2010.06.03 17:15:25.
