data_PCOD9345172
_publ_section_title
;
Structure prediction by ZEFSAII (Michael W. Deem and Ramdas Pophale) SiO2 
 PCOD9345172
Probable space group: P N A 21
;
_chemical_formula_sum "Si O2"
_cell_formula_units_Z 28
_cell_length_a 16.309924
_cell_length_b 9.224996
_cell_length_c 6.969698
_cell_angle_alpha 90.000000
_cell_angle_beta 90.000000
_cell_angle_gamma 90.000000
_cell_volume 1048.653677
_symmetry_space_group_name_H-M "P N A 21"
_symmetry_group_IT_number 33
_symmetry_cell_setting 'orthorhombic'
loop_
_space_group_symop_operation_xyz
x,y,z
-x,-y,1/2+z
1/2-x,1/2+y,1/2+z
1/2+x,1/2-y,z
loop_
_atom_site_type_symbol
_atom_site_label
_atom_site_fract_x
_atom_site_fract_y
_atom_site_fract_z
Si Si1 0.822560 0.375827 0.215360
Si Si2 0.854895 0.819823 0.274832
Si Si3 0.477922 0.395558 0.568134
Si Si4 0.705781 0.619304 0.236916
Si Si5 0.027016 0.774558 0.640045
Si Si6 0.735096 0.582406 0.696425
Si Si7 0.891877 0.569526 0.547611
O O1 0.757846 0.489713 0.136604
O O2 0.769542 0.240693 0.286834
O O3 0.877264 0.458174 0.374769
O O4 0.884020 0.286071 0.079685
O O5 0.768133 0.753463 0.199684
O O6 0.864151 0.726965 0.465471
O O7 0.942411 0.816525 0.165667
O O8 0.834735 0.986936 0.289241
O O9 0.389511 0.374903 0.674420
O O10 0.473447 0.320567 0.361895
O O11 0.498801 0.569655 0.548838
O O12 0.716459 0.575413 0.464411
O O13 0.978228 0.622681 0.617499
O O14 0.828340 0.528734 0.711768
#
# Coordination Sequence:
#
# PCOD9345172 Si02
#       7
#     4   4   4   4   4   4   4
#     4  10  23  45  72 105 155 199 249 325 387 458
#     4  10  22  45  78 109 145 202 264 312 389 469
#     4  12  25  45  79 111 151 212 263 321 393 475
#     4  10  26  45  72 115 158 197 260 326 392 467
#     4  12  26  46  76 111 156 205 264 324 390 474
#     4  10  20  45  72 107 150 200 251 317 384 468
#     4  10  26  47  69 114 157 189 259 325 389 465
#
# _framework density 26.700904999999999
#
# number of rings (size 3 to 8) (size 9 to 14) (size 15 to 20)
#    0.000    1.714    1.429    2.571    6.000    4.571 
#    0.000    2.857    0.000    0.000    0.000    0.000 
#    0.000    0.000    0.000    0.000    0.000    0.000 
#
# Total GULP energy -156184.417032 kJ/mol
# GULP energy per Si atom -5578.014894 kJ/mol
# Density = 2.664013 g / cm^3
# Si number density = 26.700905 Si / 1000 Ang^3
#
#
#
# Elastic Constant Matrix: (Units=GPa)
#
#
# Indices 1 2 3 4 5 6 
#
# 1 162.3371 40.6068 15.2802 0.0000 0.0000 0.0000
# 2 40.6068 109.8539 4.9728 0.0000 0.0000 0.0000
# 3 15.2802 4.9728 85.8134 0.0000 0.0000 0.0000
# 4 0.0000 0.0000 0.0000 30.9418 0.0000 0.0000
# 5 0.0000 0.0000 0.0000 0.0000 33.3641 0.0000
# 6 0.0000 0.0000 0.0000 0.0000 0.0000 61.7583
#
#
#
# Elastic Compliance Matrix: (Units=1/GPa)
#
#
# Indices 1 2 3 4 5 6 
#
# 1 0.006886 -0.002497 -0.001082 0.000000 0.000000 0.000000
# 2 -0.002497 0.010032 -0.000137 0.000000 0.000000 0.000000
# 3 -0.001082 -0.000137 0.011854 0.000000 0.000000 0.000000
# 4 0.000000 0.000000 0.000000 0.032319 0.000000 0.000000
# 5 0.000000 0.000000 0.000000 0.000000 0.029972 0.000000
# 6 0.000000 0.000000 0.000000 0.000000 0.000000 0.016192
#
#
# Mechanical properties :
#
#
# Convention : Reuss Voigt Hill
#
# Bulk Modulus (GPa) = 46.85528 53.30266 50.07897
# Shear Modulus (GPa) = 41.05120 45.02246 43.03683
#
# Velocity S-wave (km/s) = 3.92528 4.11076 4.01909
# Velocity P-wave (km/s) = 6.17496 6.52207 6.35088
#
# Compressibility (1/GPa) = 0.02134231
#
# Stress axis : x y z
#
# Youngs Moduli (GPa) = 145.21591 99.68086 84.36180
#
# Poissons Ratio (x) = 0.24885 0.09124
# Poissons Ratio (y) = 0.36253 0.01154
# Poissons Ratio (z) = 0.15705 0.01364
#
# Static dielectric constant tensor:
#      x y z
#    x 2.241740 0.000000 0.000000 
#    y 0.000000 2.171210 0.000000 
#    z 0.000000 0.000000 2.179290 
# 
# From -- ./inp_files/4711.got.cif
#   From: 2010.05.17/outbox.cif.g08.bks.cpg/sg33_3_cif.got.tgz:4711.got - 2010.06.03 17:15:25.
