data_PCOD9345706
_publ_section_title
;
Structure prediction by ZEFSAII (Michael W. Deem and Ramdas Pophale) SiO2 
 PCOD9345706
Probable space group: P N A 21
;
_chemical_formula_sum "Si O2"
_cell_formula_units_Z 28
_cell_length_a 4.974363
_cell_length_b 20.007809
_cell_length_c 10.781445
_cell_angle_alpha 90.000000
_cell_angle_beta 90.000000
_cell_angle_gamma 90.000000
_cell_volume 1073.035225
_symmetry_space_group_name_H-M "P N A 21"
_symmetry_group_IT_number 33
_symmetry_cell_setting 'orthorhombic'
loop_
_space_group_symop_operation_xyz
x,y,z
-x,-y,1/2+z
1/2-x,1/2+y,1/2+z
1/2+x,1/2-y,z
loop_
_atom_site_type_symbol
_atom_site_label
_atom_site_fract_x
_atom_site_fract_y
_atom_site_fract_z
Si Si1 0.305805 0.483713 0.226310
Si Si2 0.805805 0.016287 0.954077
Si Si3 0.616600 0.296579 0.948461
Si Si4 0.991626 0.387892 0.378888
Si Si5 0.228862 0.296020 0.590193
Si Si6 0.116600 0.203421 0.231926
Si Si7 0.991626 0.387892 0.801498
O O1 0.500000 0.500000 0.340193
O O2 0.158773 0.414928 0.261348
O O3 0.095526 0.544870 0.230432
O O4 0.432261 0.481174 0.090193
O O5 0.658773 0.085072 0.919038
O O6 0.595526 0.955130 0.949955
O O7 0.323011 0.265704 0.933308
O O8 0.728620 0.350307 0.852541
O O9 0.645245 0.320706 0.090193
O O10 0.153478 0.340694 0.471774
O O11 0.728620 0.350307 0.327846
O O12 0.530153 0.268196 0.590193
O O13 0.153478 0.340694 0.708613
O O14 0.323011 0.265704 0.247078
#
# Coordination Sequence:
#
# PCOD9345706 Si02
#       7
#     4   4   4   4   4   4   4
#     4  11  27  46  75 107 152 209 264 337 388 475
#     4  11  27  46  75 107 152 209 264 337 388 475
#     4  10  22  40  66  99 140 186 242 308 380 461
#     4  11  25  45  70 104 152 193 270 308 409 459
#     4  12  28  46  82 116 160 206 260 332 408 484
#     4  10  22  40  66  99 140 186 242 308 380 461
#     4  11  25  45  70 104 152 193 270 308 409 459
#
# _framework density 26.094204000000001
#
# number of rings (size 3 to 8) (size 9 to 14) (size 15 to 20)
#    0.000    1.143    1.429    2.571   10.000    2.286 
#    0.000    0.000    0.000    0.000    0.000    0.000 
#    0.000    0.000    0.000    0.000    0.000    0.000 
#
# Total GULP energy -157197.500727 kJ/mol
# GULP energy per Si atom -5614.196455 kJ/mol
# Density = 2.603481 g / cm^3
# Si number density = 26.094204 Si / 1000 Ang^3
#
#
#
# Elastic Constant Matrix: (Units=GPa)
#
#
# Indices 1 2 3 4 5 6 
#
# 1 63.8915 7.5951 30.1591 0.0000 0.0000 0.0000
# 2 7.5951 123.5555 44.3653 0.0000 0.0000 0.0000
# 3 30.1591 44.3653 189.2023 0.0000 0.0000 0.0000
# 4 0.0000 0.0000 0.0000 25.1990 0.0000 0.0000
# 5 0.0000 0.0000 0.0000 0.0000 27.6515 0.0000
# 6 0.0000 0.0000 0.0000 0.0000 0.0000 39.2620
#
#
#
# Elastic Compliance Matrix: (Units=1/GPa)
#
#
# Indices 1 2 3 4 5 6 
#
# 1 0.016926 -0.000078 -0.002680 0.000000 0.000000 0.000000
# 2 -0.000078 0.008838 -0.002060 0.000000 0.000000 0.000000
# 3 -0.002680 -0.002060 0.006196 0.000000 0.000000 0.000000
# 4 0.000000 0.000000 0.000000 0.039684 0.000000 0.000000
# 5 0.000000 0.000000 0.000000 0.000000 0.036164 0.000000
# 6 0.000000 0.000000 0.000000 0.000000 0.000000 0.025470
#
#
# Mechanical properties :
#
#
# Convention : Reuss Voigt Hill
#
# Bulk Modulus (GPa) = 44.79564 60.09869 52.44716
# Shear Modulus (GPa) = 33.25475 38.05782 35.65629
#
# Velocity S-wave (km/s) = 3.57376 3.82315 3.70056
# Velocity P-wave (km/s) = 5.85091 6.52457 6.19690
#
# Compressibility (1/GPa) = 0.02232360
#
# Stress axis : x y z
#
# Youngs Moduli (GPa) = 59.08173 113.14785 161.40739
#
# Poissons Ratio (x) = 0.00886 0.43251
# Poissons Ratio (y) = 0.00462 0.33248
# Poissons Ratio (z) = 0.15832 0.23307
#
# Static dielectric constant tensor:
#      x y z
#    x 2.055330 0.000000 0.000000 
#    y 0.000000 2.034150 0.000000 
#    z 0.000000 0.000000 2.036150 
# 
# From -- ./inp_files/5492.got.cif
#   From: 2010.05.17/outbox.cif.g08.bks.cpg/sg33_3_cif.got.tgz:5492.got - 2010.06.03 17:15:25.
