data_PCOD9345110
_publ_section_title
;
Structure prediction by ZEFSAII (Michael W. Deem and Ramdas Pophale) SiO2 
 PCOD9345110
Probable space group: P N A 21
;
_chemical_formula_sum "Si O2"
_cell_formula_units_Z 28
_cell_length_a 10.914164
_cell_length_b 6.398640
_cell_length_c 16.117289
_cell_angle_alpha 90.000000
_cell_angle_beta 90.000000
_cell_angle_gamma 90.000000
_cell_volume 1125.563873
_symmetry_space_group_name_H-M "P N A 21"
_symmetry_group_IT_number 33
_symmetry_cell_setting 'orthorhombic'
loop_
_space_group_symop_operation_xyz
x,y,z
-x,-y,1/2+z
1/2-x,1/2+y,1/2+z
1/2+x,1/2-y,z
loop_
_atom_site_type_symbol
_atom_site_label
_atom_site_fract_x
_atom_site_fract_y
_atom_site_fract_z
Si Si1 0.423278 0.227397 0.397580
Si Si2 0.249714 0.955707 0.298306
Si Si3 0.146251 0.041290 0.752540
Si Si4 0.909551 0.424758 0.977688
Si Si5 0.054966 0.416504 0.662784
Si Si6 0.628617 0.400180 0.006167
Si Si7 0.155194 0.257974 0.189652
O O1 0.319649 0.054958 0.375721
O O2 0.404704 0.399743 0.326118
O O3 0.547005 0.094783 0.409854
O O4 0.396273 0.360969 0.480100
O O5 0.142688 0.108309 0.270047
O O6 0.257593 0.706620 0.295259
O O7 0.947925 0.818465 0.199098
O O8 0.170603 0.496420 0.714713
O O9 0.221406 0.896785 0.690538
O O10 0.924711 0.543504 0.066195
O O11 0.012790 0.240423 0.974491
O O12 0.768225 0.352272 0.975075
O O13 0.945741 0.560267 0.692156
O O14 0.633476 0.361995 0.104109
#
# Coordination Sequence:
#
# PCOD9345110 Si02
#       7
#     4   4   4   4   4   4   4
#     4  11  24  43  67 104 152 192 242 305 382 435
#     4   9  20  44  64  97 141 181 243 294 360 442
#     4   9  21  44  64 102 144 185 245 299 365 447
#     4  11  25  46  74 110 149 195 250 309 377 448
#     4   9  21  42  68 102 139 180 254 291 370 433
#     4  11  25  46  70 109 148 194 247 307 376 453
#     4  10  20  41  71  98 137 191 237 307 366 444
#
# _framework density 24.876421000000001
#
# number of rings (size 3 to 8) (size 9 to 14) (size 15 to 20)
#    0.857    1.143    1.429    0.857    0.000    9.143 
#   10.286    0.000    0.000    0.000    0.000    0.000 
#    0.000    0.000    0.000    0.000    0.000    0.000 
#
# Total GULP energy -156207.106197 kJ/mol
# GULP energy per Si atom -5578.825221 kJ/mol
# Density = 2.481980 g / cm^3
# Si number density = 24.876421 Si / 1000 Ang^3
#
#
#
# Elastic Constant Matrix: (Units=GPa)
#
#
# Indices 1 2 3 4 5 6 
#
# 1 94.4329 38.0328 1.5623 0.0000 0.0000 0.0000
# 2 38.0328 121.5173 30.8472 0.0000 0.0000 0.0000
# 3 1.5623 30.8472 51.7518 0.0000 0.0000 0.0000
# 4 0.0000 0.0000 0.0000 386.8086 0.0000 0.0000
# 5 0.0000 0.0000 0.0000 0.0000 32.6260 0.0000
# 6 0.0000 0.0000 0.0000 0.0000 0.0000 52.5300
#
#
#
# Elastic Compliance Matrix: (Units=1/GPa)
#
#
# Indices 1 2 3 4 5 6 
#
# 1 0.012340 -0.004439 0.002274 0.000000 0.000000 0.000000
# 2 -0.004439 0.011294 -0.006598 0.000000 0.000000 0.000000
# 3 0.002274 -0.006598 0.023187 0.000000 0.000000 0.000000
# 4 0.000000 0.000000 0.000000 0.002585 0.000000 0.000000
# 5 0.000000 0.000000 0.000000 0.000000 0.030650 0.000000
# 6 0.000000 0.000000 0.000000 0.000000 0.000000 0.019037
#
#
# Mechanical properties :
#
#
# Convention : Reuss Voigt Hill
#
# Bulk Modulus (GPa) = 34.13711 45.39850 39.76780
# Shear Modulus (GPa) = 39.56199 107.54355 73.55277
#
# Velocity S-wave (km/s) = 3.99223 6.58217 5.44348
# Velocity P-wave (km/s) = 5.91634 8.72100 7.45181
#
# Compressibility (1/GPa) = 0.02929364
#
# Stress axis : x y z
#
# Youngs Moduli (GPa) = 81.03831 88.54639 43.12773
#
# Poissons Ratio (x) = 0.39308 -0.09805
# Poissons Ratio (y) = 0.35975 0.28454
# Poissons Ratio (z) = -0.18425 0.58419
#
# Static dielectric constant tensor:
#      x y z
#    x 2.172060 0.000000 0.000000 
#    y 0.000000 -1.563340 0.000000 
#    z 0.000000 0.000000 1.943500 
# 
# From -- ./inp_files/8658.got.cif
#   From: 2010.05.17/outbox.cif.g08.bks.cpg/sg33_5_cif.got.tgz:8658.got - 2010.06.03 17:15:25.
