data_PCOD9345815
_publ_section_title
;
Structure prediction by ZEFSAII (Michael W. Deem and Ramdas Pophale) SiO2 
 PCOD9345815
Probable space group: P N A 21
;
_chemical_formula_sum "Si O2"
_cell_formula_units_Z 28
_cell_length_a 12.564296
_cell_length_b 11.298332
_cell_length_c 7.360886
_cell_angle_alpha 90.000000
_cell_angle_beta 90.000000
_cell_angle_gamma 90.000000
_cell_volume 1044.918897
_symmetry_space_group_name_H-M "P N A 21"
_symmetry_group_IT_number 33
_symmetry_cell_setting 'orthorhombic'
loop_
_space_group_symop_operation_xyz
x,y,z
-x,-y,1/2+z
1/2-x,1/2+y,1/2+z
1/2+x,1/2-y,z
loop_
_atom_site_type_symbol
_atom_site_label
_atom_site_fract_x
_atom_site_fract_y
_atom_site_fract_z
Si Si1 0.412011 0.390875 0.884210
Si Si2 0.614794 0.707834 0.783295
Si Si3 0.000358 0.529276 0.571487
Si Si4 0.151545 0.044055 0.888751
Si Si5 0.632134 0.855835 0.244841
Si Si6 0.080804 0.317885 0.414734
Si Si7 0.284230 0.610187 0.789067
O O1 0.529804 0.434547 0.827527
O O2 0.374794 0.284397 0.756034
O O3 0.322259 0.492636 0.889843
O O4 0.420117 0.338264 0.086144
O O5 0.676702 0.594341 0.862355
O O6 0.518633 0.728588 0.921445
O O7 0.668999 0.835854 0.742205
O O8 0.901058 0.434944 0.570187
O O9 0.089282 0.421140 0.565958
O O10 0.043050 0.601133 0.396641
O O11 0.951528 0.615608 0.724959
O O12 0.247346 0.111336 0.790673
O O13 0.159987 0.088771 0.095114
O O14 0.174114 0.225262 0.395698
#
# Coordination Sequence:
#
# PCOD9345815 Si02
#       7
#     4   4   4   4   4   4   4
#     4  12  25  48  73 110 154 201 258 326 384 469
#     4  12  25  45  73 105 148 198 251 319 386 456
#     4  10  22  42  71 103 154 192 253 317 371 455
#     4  12  24  48  76 106 149 202 258 310 393 456
#     4  11  24  47  74 115 150 204 259 322 392 464
#     4  11  22  44  68 106 146 198 248 315 375 451
#     4  12  26  46  73 105 151 195 255 317 379 459
#
# _framework density 26.796337999999999
#
# number of rings (size 3 to 8) (size 9 to 14) (size 15 to 20)
#    0.000    0.571    5.714    1.714    2.000    3.429 
#    7.714    0.000    0.000    0.000    0.000    0.000 
#    0.000    0.000    0.000    0.000    0.000    0.000 
#
# Total GULP energy -156179.298169 kJ/mol
# GULP energy per Si atom -5577.832077 kJ/mol
# Density = 2.673535 g / cm^3
# Si number density = 26.796338 Si / 1000 Ang^3
#
#
#
# Elastic Constant Matrix: (Units=GPa)
#
#
# Indices 1 2 3 4 5 6 
#
# 1 58.6213 28.9260 21.0499 0.0000 0.0000 0.0000
# 2 28.9260 186.4686 38.8709 0.0000 0.0000 0.0000
# 3 21.0499 38.8709 86.9129 0.0000 0.0000 0.0000
# 4 0.0000 0.0000 0.0000 58.1234 0.0000 0.0000
# 5 0.0000 0.0000 0.0000 0.0000 31.1420 0.0000
# 6 0.0000 0.0000 0.0000 0.0000 0.0000 43.8577
#
#
#
# Elastic Compliance Matrix: (Units=1/GPa)
#
#
# Indices 1 2 3 4 5 6 
#
# 1 0.019504 -0.002251 -0.003717 0.000000 0.000000 0.000000
# 2 -0.002251 0.006174 -0.002216 0.000000 0.000000 0.000000
# 3 -0.003717 -0.002216 0.013397 0.000000 0.000000 0.000000
# 4 0.000000 0.000000 0.000000 0.017205 0.000000 0.000000
# 5 0.000000 0.000000 0.000000 0.000000 0.032111 0.000000
# 6 0.000000 0.000000 0.000000 0.000000 0.000000 0.022801
#
#
# Mechanical properties :
#
#
# Convention : Reuss Voigt Hill
#
# Bulk Modulus (GPa) = 44.03901 56.63295 50.33598
# Shear Modulus (GPa) = 37.00171 42.83503 39.91837
#
# Velocity S-wave (km/s) = 3.72001 4.00251 3.86384
# Velocity P-wave (km/s) = 5.90946 6.52232 6.22344
#
# Compressibility (1/GPa) = 0.02270714
#
# Stress axis : x y z
#
# Youngs Moduli (GPa) = 51.27152 161.97106 74.64250
#
# Poissons Ratio (x) = 0.36455 0.27746
# Poissons Ratio (y) = 0.11540 0.16542
# Poissons Ratio (z) = 0.19059 0.35895
#
# Static dielectric constant tensor:
#      x y z
#    x 2.218240 0.000000 0.000000 
#    y 0.000000 2.129490 0.000000 
#    z 0.000000 0.000000 2.286970 
# 
# From -- ./inp_files/3826.got.cif
#   From: 2010.05.17/outbox.cif.g08.bks.cpg/sg33_2_cif.got.tgz:3826.got - 2010.06.03 17:15:25.
