data_PCOD9345327
_publ_section_title
;
Structure prediction by ZEFSAII (Michael W. Deem and Ramdas Pophale) SiO2 
 PCOD9345327
Probable space group: P N A 21
;
_chemical_formula_sum "Si O2"
_cell_formula_units_Z 32
_cell_length_a 17.164796
_cell_length_b 15.671155
_cell_length_c 5.033301
_cell_angle_alpha 90.000000
_cell_angle_beta 90.000000
_cell_angle_gamma 90.000000
_cell_volume 1353.918602
_symmetry_space_group_name_H-M "P N A 21"
_symmetry_group_IT_number 33
_symmetry_cell_setting 'orthorhombic'
loop_
_space_group_symop_operation_xyz
x,y,z
-x,-y,1/2+z
1/2-x,1/2+y,1/2+z
1/2+x,1/2-y,z
loop_
_atom_site_type_symbol
_atom_site_label
_atom_site_fract_x
_atom_site_fract_y
_atom_site_fract_z
Si Si1 0.916238 0.575993 0.656500
Si Si2 0.026031 0.047305 0.965609
Si Si3 0.121594 0.883659 0.577475
Si Si4 0.507705 0.888647 0.165582
Si Si5 0.760745 0.614560 0.950411
Si Si6 0.355939 0.201332 0.960597
Si Si7 0.236899 0.688874 0.983781
Si Si8 0.815976 0.968077 0.719282
O O1 0.943550 0.477363 0.673444
O O2 0.827905 0.592440 0.739275
O O3 0.932800 0.602586 0.355878
O O4 0.973917 0.622920 0.869718
O O5 0.117785 0.055698 0.003700
O O6 0.971564 0.121984 0.084870
O O7 0.001206 0.029743 0.663287
O O8 0.171517 0.885108 0.842996
O O9 0.152732 0.802446 0.421609
O O10 0.142344 0.969611 0.427787
O O11 0.563554 0.824608 0.324189
O O12 0.772179 0.715619 0.009740
O O13 0.756017 0.529177 0.131529
O O14 0.290942 0.159393 0.773548
O O15 0.336359 0.188087 0.271454
O O16 0.292085 0.618852 0.858540
#
# Coordination Sequence:
#
# PCOD9345327 Si02
#       8
#     4   4   4   4   4   4   4   4
#     4  10  23  38  65  89 127 165 217 269 324 386
#     4  10  21  39  63  95 125 170 225 261 331 409
#     4  10  23  41  68  92 136 171 223 268 344 394
#     4  10  22  41  60  94 121 169 220 262 323 393
#     4  11  23  43  63  97 132 173 215 282 335 394
#     4  11  23  44  64  95 132 174 218 275 327 406
#     4  11  26  39  66  99 130 167 228 262 335 406
#     4  11  23  41  67  95 133 179 216 285 331 400
#
# _framework density 23.635097999999999
#
# number of rings (size 3 to 8) (size 9 to 14) (size 15 to 20)
#    0.000    1.500    2.500    1.500    5.250    2.000 
#    0.000    5.000    0.000    0.000    0.000    0.000 
#    0.000    0.000    0.000    0.000    0.000    0.000 
#
# Total GULP energy -178432.768695 kJ/mol
# GULP energy per Si atom -5576.024022 kJ/mol
# Density = 2.358130 g / cm^3
# Si number density = 23.635098 Si / 1000 Ang^3
#
#
#
# Elastic Constant Matrix: (Units=GPa)
#
#
# Indices 1 2 3 4 5 6 
#
# 1 53.6525 18.0608 -7.0333 0.0000 0.0000 0.0000
# 2 18.0608 69.9231 0.7762 0.0000 0.0000 0.0000
# 3 -7.0333 0.7762 71.2505 0.0000 0.0000 0.0000
# 4 0.0000 0.0000 0.0000 19.0641 0.0000 0.0000
# 5 0.0000 0.0000 0.0000 0.0000 31.9558 0.0000
# 6 0.0000 0.0000 0.0000 0.0000 0.0000 30.7093
#
#
#
# Elastic Compliance Matrix: (Units=1/GPa)
#
#
# Indices 1 2 3 4 5 6 
#
# 1 0.020724 -0.005376 0.002104 0.000000 0.000000 0.000000
# 2 -0.005376 0.015698 -0.000702 0.000000 0.000000 0.000000
# 3 0.002104 -0.000702 0.014250 0.000000 0.000000 0.000000
# 4 0.000000 0.000000 0.000000 0.052455 0.000000 0.000000
# 5 0.000000 0.000000 0.000000 0.000000 0.031293 0.000000
# 6 0.000000 0.000000 0.000000 0.000000 0.000000 0.032563
#
#
# Mechanical properties :
#
#
# Convention : Reuss Voigt Hill
#
# Bulk Modulus (GPa) = 23.40557 24.27041 23.83799
# Shear Modulus (GPa) = 26.43087 28.54732 27.48910
#
# Velocity S-wave (km/s) = 3.34771 3.47916 3.41407
# Velocity P-wave (km/s) = 4.98671 5.14106 5.06447
#
# Compressibility (1/GPa) = 0.04272487
#
# Stress axis : x y z
#
# Youngs Moduli (GPa) = 48.25299 63.70287 70.17373
#
# Poissons Ratio (x) = 0.34249 -0.14767
# Poissons Ratio (y) = 0.25942 0.04924
# Poissons Ratio (z) = -0.10154 0.04470
#
# Static dielectric constant tensor:
#      x y z
#    x 1.995940 0.000000 0.000000 
#    y 0.000000 1.919540 0.000000 
#    z 0.000000 0.000000 1.943000 
# 
# From -- ./inp_files/1827.got.cif
#   From: 2010.05.17/outbox.cif.g08.bks.cpg/sg33_1_cif.got.tgz:1827.got - 2010.06.03 17:15:25.
