data_PCOD9345030
_publ_section_title
;
Structure prediction by ZEFSAII (Michael W. Deem and Ramdas Pophale) SiO2 
 PCOD9345030
Probable space group: P N A 21
;
_chemical_formula_sum "Si O2"
_cell_formula_units_Z 24
_cell_length_a 8.449435
_cell_length_b 13.198248
_cell_length_c 8.613158
_cell_angle_alpha 90.000000
_cell_angle_beta 90.000000
_cell_angle_gamma 90.000000
_cell_volume 960.519902
_symmetry_space_group_name_H-M "P N A 21"
_symmetry_group_IT_number 33
_symmetry_cell_setting 'orthorhombic'
loop_
_space_group_symop_operation_xyz
x,y,z
-x,-y,1/2+z
1/2-x,1/2+y,1/2+z
1/2+x,1/2-y,z
loop_
_atom_site_type_symbol
_atom_site_label
_atom_site_fract_x
_atom_site_fract_y
_atom_site_fract_z
Si Si1 0.821807 0.973261 0.524790
Si Si2 0.100564 0.404611 0.346512
Si Si3 0.949135 0.312316 0.074182
Si Si4 0.813900 0.441365 0.571245
Si Si5 0.515503 0.391729 0.723838
Si Si6 0.255481 0.350395 0.918763
O O1 0.671095 0.907695 0.579029
O O2 0.906429 0.909741 0.391252
O O3 0.758304 0.077452 0.446078
O O4 0.943496 0.003752 0.656845
O O5 0.118631 0.501918 0.226820
O O6 0.056892 0.315966 0.227166
O O7 0.958857 0.402017 0.470460
O O8 0.844593 0.214816 0.048647
O O9 0.071098 0.322873 0.930127
O O10 0.666702 0.369087 0.615626
O O11 0.743907 0.532380 0.465779
O O12 0.355464 0.330391 0.763213
#
# Coordination Sequence:
#
# PCOD9345030 Si02
#       6
#     4   4   4   4   4   4
#     4  11  22  38  67 102 130 174 222 269 317 397
#     4  10  20  39  66  99 128 173 220 270 316 397
#     4  11  24  40  67  94 133 172 222 266 336 389
#     4  10  21  39  67 102 128 171 226 263 323 388
#     4  11  23  37  66 102 132 169 224 268 318 400
#     4  11  22  41  61  97 129 175 212 270 326 395
#
# _framework density 24.986469
#
# number of rings (size 3 to 8) (size 9 to 14) (size 15 to 20)
#    0.000    1.333    5.000    2.000    0.000    0.000 
#    0.000    0.000    0.000   42.000    0.000    0.000 
#    0.000    0.000    0.000    0.000    0.000    0.000 
#
# Total GULP energy -133880.680454 kJ/mol
# GULP energy per Si atom -5578.361686 kJ/mol
# Density = 2.492960 g / cm^3
# Si number density = 24.986469 Si / 1000 Ang^3
#
#
#
# Elastic Constant Matrix: (Units=GPa)
#
#
# Indices 1 2 3 4 5 6 
#
# 1 117.4271 -1.4542 19.1868 0.0000 0.0000 0.0000
# 2 -1.4542 17.4528 -7.1708 0.0000 0.0000 0.0000
# 3 19.1868 -7.1708 71.4945 0.0000 0.0000 0.0000
# 4 0.0000 0.0000 0.0000 13.2036 0.0000 0.0000
# 5 0.0000 0.0000 0.0000 0.0000 63.7350 0.0000
# 6 0.0000 0.0000 0.0000 0.0000 0.0000 27.2128
#
#
#
# Elastic Compliance Matrix: (Units=1/GPa)
#
#
# Indices 1 2 3 4 5 6 
#
# 1 0.008908 -0.000250 -0.002416 0.000000 0.000000 0.000000
# 2 -0.000250 0.059767 0.006062 0.000000 0.000000 0.000000
# 3 -0.002416 0.006062 0.015243 0.000000 0.000000 0.000000
# 4 0.000000 0.000000 0.000000 0.075737 0.000000 0.000000
# 5 0.000000 0.000000 0.000000 0.000000 0.015690 0.000000
# 6 0.000000 0.000000 0.000000 0.000000 0.000000 0.036747
#
#
# Mechanical properties :
#
#
# Convention : Reuss Voigt Hill
#
# Bulk Modulus (GPa) = 11.02422 25.27758 18.15090
# Shear Modulus (GPa) = 21.22812 33.88447 27.55629
#
# Velocity S-wave (km/s) = 2.91793 3.68654 3.32452
# Velocity P-wave (km/s) = 3.97165 5.31594 4.69219
#
# Compressibility (1/GPa) = 0.09070934
#
# Stress axis : x y z
#
# Youngs Moduli (GPa) = 112.26476 16.73167 65.60248
#
# Poissons Ratio (x) = 0.00419 0.15847
# Poissons Ratio (y) = 0.02810 -0.39766
# Poissons Ratio (z) = 0.27119 -0.10142
#
# Static dielectric constant tensor:
#      x y z
#    x 1.993780 0.000000 0.000000 
#    y 0.000000 2.016350 0.000000 
#    z 0.000000 0.000000 2.012450 
# 
# From -- ./inp_files/3287.got.cif
#   From: 2010.05.17/outbox.cif.g08.bks.cpg/sg33_2_cif.got.tgz:3287.got - 2010.06.03 17:15:25.
