data_PCOD9345116
_publ_section_title
;
Structure prediction by ZEFSAII (Michael W. Deem and Ramdas Pophale) SiO2 
 PCOD9345116
Probable space group: P N A 21
;
_chemical_formula_sum "Si O2"
_cell_formula_units_Z 28
_cell_length_a 14.560407
_cell_length_b 7.349832
_cell_length_c 11.465094
_cell_angle_alpha 90.000000
_cell_angle_beta 90.000000
_cell_angle_gamma 90.000000
_cell_volume 1226.954751
_symmetry_space_group_name_H-M "P N A 21"
_symmetry_group_IT_number 33
_symmetry_cell_setting 'orthorhombic'
loop_
_space_group_symop_operation_xyz
x,y,z
-x,-y,1/2+z
1/2-x,1/2+y,1/2+z
1/2+x,1/2-y,z
loop_
_atom_site_type_symbol
_atom_site_label
_atom_site_fract_x
_atom_site_fract_y
_atom_site_fract_z
Si Si1 0.123178 0.373278 0.911530
Si Si2 0.700314 0.576574 0.727571
Si Si3 0.516964 0.567688 0.627616
Si Si4 0.757632 0.152976 0.725044
Si Si5 0.050388 0.767492 0.298910
Si Si6 0.892957 0.581504 0.654628
Si Si7 0.850622 0.026239 0.484501
O O1 0.173083 0.439049 0.794601
O O2 0.017307 0.312475 0.895486
O O3 0.127536 0.495596 0.025057
O O4 0.170793 0.185560 0.955099
O O5 0.624103 0.615018 0.629484
O O6 0.723687 0.361253 0.714091
O O7 0.799439 0.662429 0.707322
O O8 0.667217 0.618286 0.859478
O O9 0.507010 0.421881 0.732217
O O10 0.463503 0.753115 0.653207
O O11 0.458106 0.472206 0.524436
O O12 0.847501 0.150254 0.809664
O O13 0.791507 0.085882 0.597827
O O14 0.069098 0.588428 0.223457
#
# Coordination Sequence:
#
# PCOD9345116 Si02
#       7
#     4   4   4   4   4   4   4
#     4  10  20  42  63  92 139 173 217 288 336 399
#     4  10  20  44  61  95 146 167 225 298 323 411
#     4  10  20  43  66  92 131 178 221 276 341 401
#     4   9  19  38  66  95 122 180 218 275 353 394
#     4  10  20  43  63  91 133 170 223 276 336 399
#     4  10  24  42  61 103 133 171 232 275 334 421
#     4   9  19  38  66  94 126 169 228 272 335 411
#
# _framework density 22.820730000000001
#
# number of rings (size 3 to 8) (size 9 to 14) (size 15 to 20)
#    0.000    2.286    2.857    0.000    0.000    2.286 
#   25.714    0.000    0.000    0.000    0.000    0.000 
#    0.000    0.000    0.000    0.000    0.000    0.000 
#
# Total GULP energy -156046.794137 kJ/mol
# GULP energy per Si atom -5573.099791 kJ/mol
# Density = 2.276879 g / cm^3
# Si number density = 22.820730 Si / 1000 Ang^3
#
#
#
# Elastic Constant Matrix: (Units=GPa)
#
#
# Indices 1 2 3 4 5 6 
#
# 1 100.0211 25.4227 45.9295 0.0000 0.0000 0.0000
# 2 25.4227 42.8180 12.0958 0.0000 0.0000 0.0000
# 3 45.9295 12.0958 120.5890 0.0000 0.0000 0.0000
# 4 0.0000 0.0000 0.0000 36.5038 0.0000 0.0000
# 5 0.0000 0.0000 0.0000 0.0000 40.7556 0.0000
# 6 0.0000 0.0000 0.0000 0.0000 0.0000 20.9773
#
#
#
# Elastic Compliance Matrix: (Units=1/GPa)
#
#
# Indices 1 2 3 4 5 6 
#
# 1 0.013867 -0.006938 -0.004586 0.000000 0.000000 0.000000
# 2 -0.006938 0.027507 -0.000117 0.000000 0.000000 0.000000
# 3 -0.004586 -0.000117 0.010051 0.000000 0.000000 0.000000
# 4 0.000000 0.000000 0.000000 0.027394 0.000000 0.000000
# 5 0.000000 0.000000 0.000000 0.000000 0.024536 0.000000
# 6 0.000000 0.000000 0.000000 0.000000 0.000000 0.047671
#
#
# Mechanical properties :
#
#
# Convention : Reuss Voigt Hill
#
# Bulk Modulus (GPa) = 35.53110 47.81378 41.67244
# Shear Modulus (GPa) = 27.21997 31.64601 29.43299
#
# Velocity S-wave (km/s) = 3.45740 3.72791 3.59520
# Velocity P-wave (km/s) = 5.61619 6.28706 5.96107
#
# Compressibility (1/GPa) = 0.02814436
#
# Stress axis : x y z
#
# Youngs Moduli (GPa) = 72.11304 36.35440 99.49334
#
# Poissons Ratio (x) = 0.25223 0.45625
# Poissons Ratio (y) = 0.50032 0.01160
# Poissons Ratio (z) = 0.33069 0.00424
#
# Static dielectric constant tensor:
#      x y z
#    x 1.902430 0.000000 0.000000 
#    y 0.000000 1.885250 0.000000 
#    z 0.000000 0.000000 1.955950 
# 
# From -- ./inp_files/6710.got.cif
#   From: 2010.05.17/outbox.cif.g08.bks.cpg/sg33_4_cif.got.tgz:6710.got - 2010.06.03 17:15:25.
