data_PCOD9345139
_publ_section_title
;
Structure prediction by ZEFSAII (Michael W. Deem and Ramdas Pophale) SiO2 
 PCOD9345139
Probable space group: P N A 21
;
_chemical_formula_sum "Si O2"
_cell_formula_units_Z 20
_cell_length_a 8.055165
_cell_length_b 6.873145
_cell_length_c 13.589000
_cell_angle_alpha 90.000000
_cell_angle_beta 90.000000
_cell_angle_gamma 90.000000
_cell_volume 752.345704
_symmetry_space_group_name_H-M "P N A 21"
_symmetry_group_IT_number 33
_symmetry_cell_setting 'orthorhombic'
loop_
_space_group_symop_operation_xyz
x,y,z
-x,-y,1/2+z
1/2-x,1/2+y,1/2+z
1/2+x,1/2-y,z
loop_
_atom_site_type_symbol
_atom_site_label
_atom_site_fract_x
_atom_site_fract_y
_atom_site_fract_z
Si Si1 0.215312 0.796770 0.479380
Si Si2 0.738115 0.136819 0.299318
Si Si3 0.586001 0.536838 0.266369
Si Si4 0.536616 0.893503 0.937312
Si Si5 0.066492 0.960217 0.059343
O O1 0.281950 0.579187 0.505458
O O2 0.082361 0.881071 0.556488
O O3 0.148904 0.866047 0.368662
O O4 0.381022 0.926554 0.489187
O O5 0.657538 0.317805 0.241012
O O6 0.581016 0.036318 0.349381
O O7 0.824502 0.267358 0.382630
O O8 0.886162 0.993455 0.270615
O O9 0.625337 0.632530 0.162375
O O10 0.476235 0.722908 0.007419
#
# Coordination Sequence:
#
# PCOD9345139 Si02
#       5
#     4   4   4   4   4
#     4  11  26  43  70 102 141 189 231 300 349 424
#     4   9  17  40  69  88 133 179 216 281 351 403
#     4  10  21  42  68 104 139 185 232 290 362 419
#     4  10  20  42  71  92 138 181 220 290 351 406
#     4  12  24  43  70 104 141 180 243 287 357 432
#
# _framework density 26.583523
#
# number of rings (size 3 to 8) (size 9 to 14) (size 15 to 20)
#    0.000    1.600    6.000    1.200    2.800    0.000 
#    3.600    0.000    0.000    0.000    0.000    0.000 
#    0.000    0.000    0.000    0.000    0.000    0.000 
#
# Total GULP energy -111359.812637 kJ/mol
# GULP energy per Si atom -5567.990632 kJ/mol
# Density = 2.652302 g / cm^3
# Si number density = 26.583523 Si / 1000 Ang^3
#
#
#
# Elastic Constant Matrix: (Units=GPa)
#
#
# Indices 1 2 3 4 5 6 
#
# 1 70.3372 27.5549 17.9480 0.0000 0.0000 0.0000
# 2 27.5549 111.6922 26.1218 0.0000 0.0000 0.0000
# 3 17.9480 26.1218 104.5412 0.0000 0.0000 0.0000
# 4 0.0000 0.0000 0.0000 2.9812 0.0000 0.0000
# 5 0.0000 0.0000 0.0000 0.0000 17.9109 0.0000
# 6 0.0000 0.0000 0.0000 0.0000 0.0000 39.7674
#
#
#
# Elastic Compliance Matrix: (Units=1/GPa)
#
#
# Indices 1 2 3 4 5 6 
#
# 1 0.016078 -0.003527 -0.001879 0.000000 0.000000 0.000000
# 2 -0.003527 0.010283 -0.001964 0.000000 0.000000 0.000000
# 3 -0.001879 -0.001964 0.010379 0.000000 0.000000 0.000000
# 4 0.000000 0.000000 0.000000 0.335431 0.000000 0.000000
# 5 0.000000 0.000000 0.000000 0.000000 0.055832 0.000000
# 6 0.000000 0.000000 0.000000 0.000000 0.000000 0.025146
#
#
# Mechanical properties :
#
#
# Convention : Reuss Voigt Hill
#
# Bulk Modulus (GPa) = 45.45456 47.75778 46.60617
# Shear Modulus (GPa) = 10.52137 26.46163 18.49150
#
# Velocity S-wave (km/s) = 1.99159 3.15844 2.64028
# Velocity P-wave (km/s) = 4.73545 5.59510 5.18313
#
# Compressibility (1/GPa) = 0.02199999
#
# Stress axis : x y z
#
# Youngs Moduli (GPa) = 62.19492 97.25153 96.34928
#
# Poissons Ratio (x) = 0.34302 0.18105
# Poissons Ratio (y) = 0.21937 0.18921
# Poissons Ratio (z) = 0.11687 0.19098
#
# Static dielectric constant tensor:
#      x y z
#    x 2.195290 0.000000 0.000000 
#    y 0.000000 2.455940 0.000000 
#    z 0.000000 0.000000 2.254230 
# 
# From -- ./inp_files/7523.got.cif
#   From: 2010.05.17/outbox.cif.g08.bks.cpg/sg33_4_cif.got.tgz:7523.got - 2010.06.03 17:15:25.
