data_PCOD9345216
_publ_section_title
;
Structure prediction by ZEFSAII (Michael W. Deem and Ramdas Pophale) SiO2 
 PCOD9345216
Probable space group: P N A 21
;
_chemical_formula_sum "Si O2"
_cell_formula_units_Z 24
_cell_length_a 21.640996
_cell_length_b 9.157606
_cell_length_c 4.907904
_cell_angle_alpha 90.000000
_cell_angle_beta 90.000000
_cell_angle_gamma 90.000000
_cell_volume 972.647015
_symmetry_space_group_name_H-M "P N A 21"
_symmetry_group_IT_number 33
_symmetry_cell_setting 'orthorhombic'
loop_
_space_group_symop_operation_xyz
x,y,z
-x,-y,1/2+z
1/2-x,1/2+y,1/2+z
1/2+x,1/2-y,z
loop_
_atom_site_type_symbol
_atom_site_label
_atom_site_fract_x
_atom_site_fract_y
_atom_site_fract_z
Si Si1 0.712231 0.634808 0.996390
Si Si2 0.986418 0.032582 0.733929
Si Si3 0.693776 0.932410 0.192275
Si Si4 0.081828 0.464084 0.881832
Si Si5 0.864442 0.170357 0.976031
Si Si6 0.022989 0.308403 0.384934
O O1 0.764452 0.537394 0.867883
O O2 0.655553 0.646359 0.783497
O O3 0.732309 0.802088 0.050700
O O4 0.684478 0.584497 0.284115
O O5 0.017751 0.136630 0.463981
O O6 0.931853 0.121223 0.887633
O O7 0.039634 0.056503 0.968651
O O8 0.647818 0.837697 0.386960
O O9 0.651821 0.014664 0.973358
O O10 0.067559 0.389811 0.596290
O O11 0.045122 0.618780 0.903498
O O12 0.047985 0.360038 0.097757
#
# Coordination Sequence:
#
# PCOD9345216 Si02
#       6
#     4   4   4   4   4   4
#     4  10  24  40  71  92 131 176 233 270 346 401
#     4  12  24  43  66  95 139 175 215 270 346 419
#     4  10  24  44  67  96 130 181 221 290 336 405
#     4  10  21  36  68  86 132 158 218 269 328 386
#     4  10  24  44  65  92 133 175 216 281 346 395
#     4  10  21  39  59 101 117 169 213 262 326 410
#
# _framework density 24.674931000000001
#
# number of rings (size 3 to 8) (size 9 to 14) (size 15 to 20)
#    1.000    0.667    1.667    2.000    4.667    1.333 
#    9.000    0.000    0.000    0.000    0.000    0.000 
#    0.000    0.000    0.000    0.000    0.000    0.000 
#
# Total GULP energy -133945.130482 kJ/mol
# GULP energy per Si atom -5581.047103 kJ/mol
# Density = 2.461877 g / cm^3
# Si number density = 24.674931 Si / 1000 Ang^3
#
#
#
# Elastic Constant Matrix: (Units=GPa)
#
#
# Indices 1 2 3 4 5 6 
#
# 1 58.1011 49.8727 -20.1544 0.0000 0.0000 0.0000
# 2 49.8727 137.9266 23.3055 0.0000 0.0000 0.0000
# 3 -20.1544 23.3055 105.4483 0.0000 0.0000 0.0000
# 4 0.0000 0.0000 0.0000 24.8892 0.0000 0.0000
# 5 0.0000 0.0000 0.0000 0.0000 33.1876 0.0000
# 6 0.0000 0.0000 0.0000 0.0000 0.0000 39.8882
#
#
#
# Elastic Compliance Matrix: (Units=1/GPa)
#
#
# Indices 1 2 3 4 5 6 
#
# 1 0.031230 -0.012778 0.008793 0.000000 0.000000 0.000000
# 2 -0.012778 0.012760 -0.005262 0.000000 0.000000 0.000000
# 3 0.008793 -0.005262 0.012327 0.000000 0.000000 0.000000
# 4 0.000000 0.000000 0.000000 0.040178 0.000000 0.000000
# 5 0.000000 0.000000 0.000000 0.000000 0.030132 0.000000
# 6 0.000000 0.000000 0.000000 0.000000 0.000000 0.025070
#
#
# Mechanical properties :
#
#
# Convention : Reuss Voigt Hill
#
# Bulk Modulus (GPa) = 26.43952 45.28040 35.85996
# Shear Modulus (GPa) = 27.35237 36.15647 31.75442
#
# Velocity S-wave (km/s) = 3.33304 3.83209 3.59124
# Velocity P-wave (km/s) = 5.05476 6.16202 5.63565
#
# Compressibility (1/GPa) = 0.03782217
#
# Stress axis : x y z
#
# Youngs Moduli (GPa) = 32.02028 78.37042 81.12243
#
# Poissons Ratio (x) = 1.00144 -0.71333
# Poissons Ratio (y) = 0.40916 0.42690
# Poissons Ratio (z) = -0.28156 0.41242
#
# Static dielectric constant tensor:
#      x y z
#    x 1.908710 0.000000 0.000000 
#    y 0.000000 2.280540 0.000000 
#    z 0.000000 0.000000 2.311320 
# 
# From -- ./inp_files/2176.got.cif
#   From: 2010.05.17/outbox.cif.g08.bks.cpg/sg33_2_cif.got.tgz:2176.got - 2010.06.03 17:15:25.
