data_PCOD9345336
_publ_section_title
;
Structure prediction by ZEFSAII (Michael W. Deem and Ramdas Pophale) SiO2 
 PCOD9345336
Probable space group: P N A 21
;
_chemical_formula_sum "Si O2"
_cell_formula_units_Z 24
_cell_length_a 13.719896
_cell_length_b 14.626680
_cell_length_c 5.001405
_cell_angle_alpha 90.000000
_cell_angle_beta 90.000000
_cell_angle_gamma 90.000000
_cell_volume 1003.664593
_symmetry_space_group_name_H-M "P N A 21"
_symmetry_group_IT_number 33
_symmetry_cell_setting 'orthorhombic'
loop_
_space_group_symop_operation_xyz
x,y,z
-x,-y,1/2+z
1/2-x,1/2+y,1/2+z
1/2+x,1/2-y,z
loop_
_atom_site_type_symbol
_atom_site_label
_atom_site_fract_x
_atom_site_fract_y
_atom_site_fract_z
Si Si1 0.614042 0.820231 0.471430
Si Si2 0.289476 0.545894 0.474032
Si Si3 0.188197 0.865950 0.344309
Si Si4 0.497758 0.557627 0.602029
Si Si5 0.347868 0.952316 0.607715
Si Si6 0.484475 0.109105 0.459347
O O1 0.703474 0.886233 0.556063
O O2 0.662648 0.739166 0.298375
O O3 0.553965 0.815125 0.748206
O O4 0.536986 0.861185 0.260120
O O5 0.304669 0.449191 0.631652
O O6 0.393937 0.594446 0.498924
O O7 0.246209 0.513983 0.189166
O O8 0.295290 0.867967 0.471974
O O9 0.095068 0.888024 0.534986
O O10 0.491538 0.532819 0.913169
O O11 0.408287 0.919321 0.864680
O O12 0.419043 0.016622 0.439159
#
# Coordination Sequence:
#
# PCOD9345336 Si02
#       6
#     4   4   4   4   4   4
#     4  11  26  43  66 105 143 180 244 304 355 436
#     4  10  22  43  66  98 137 186 233 290 361 433
#     4  11  24  42  71  99 142 190 240 294 370 434
#     4  10  21  39  64  93 128 177 229 280 347 427
#     4  11  22  44  72  98 135 194 237 292 368 434
#     4  11  25  43  67 103 141 179 241 300 357 428
#
# _framework density 23.912372000000001
#
# number of rings (size 3 to 8) (size 9 to 14) (size 15 to 20)
#    0.000    1.333    3.333    2.000    4.667    1.333 
#    0.000    3.333    0.000    0.000    0.000    0.000 
#    0.000    0.000    0.000    0.000    0.000    0.000 
#
# Total GULP energy -133700.191932 kJ/mol
# GULP energy per Si atom -5570.841331 kJ/mol
# Density = 2.385795 g / cm^3
# Si number density = 23.912372 Si / 1000 Ang^3
#
#
#
# Elastic Constant Matrix: (Units=GPa)
#
#
# Indices 1 2 3 4 5 6 
#
# 1 125.5001 0.7813 36.2809 0.0000 0.0000 0.0000
# 2 0.7813 55.5969 10.7451 0.0000 0.0000 0.0000
# 3 36.2809 10.7451 80.1177 0.0000 0.0000 0.0000
# 4 0.0000 0.0000 0.0000 12.1663 0.0000 0.0000
# 5 0.0000 0.0000 0.0000 0.0000 47.7586 0.0000
# 6 0.0000 0.0000 0.0000 0.0000 0.0000 29.3422
#
#
#
# Elastic Compliance Matrix: (Units=1/GPa)
#
#
# Indices 1 2 3 4 5 6 
#
# 1 0.009194 0.000693 -0.004257 0.000000 0.000000 0.000000
# 2 0.000693 0.018518 -0.002798 0.000000 0.000000 0.000000
# 3 -0.004257 -0.002798 0.014784 0.000000 0.000000 0.000000
# 4 0.000000 0.000000 0.000000 0.082194 0.000000 0.000000
# 5 0.000000 0.000000 0.000000 0.000000 0.020939 0.000000
# 6 0.000000 0.000000 0.000000 0.000000 0.000000 0.034081
#
#
# Mechanical properties :
#
#
# Convention : Reuss Voigt Hill
#
# Bulk Modulus (GPa) = 33.58530 39.64770 36.61650
# Shear Modulus (GPa) = 24.70889 32.08058 28.39474
#
# Velocity S-wave (km/s) = 3.21800 3.66674 3.44968
# Velocity P-wave (km/s) = 5.28044 5.87734 5.58686
#
# Compressibility (1/GPa) = 0.02977493
#
# Stress axis : x y z
#
# Youngs Moduli (GPa) = 108.76244 54.00281 67.63877
#
# Poissons Ratio (x) = -0.03745 0.28791
# Poissons Ratio (y) = -0.07542 0.18922
# Poissons Ratio (z) = 0.46296 0.15107
#
# Static dielectric constant tensor:
#      x y z
#    x 1.949170 0.000000 0.000000 
#    y 0.000000 2.006700 0.000000 
#    z 0.000000 0.000000 1.965520 
# 
# From -- ./inp_files/868.got.cif
#   From: 2010.05.17/outbox.cif.g08.bks.cpg/sg33_1_cif.got.tgz:868.got - 2010.06.03 17:15:25.
