data_PCOD9345439
_publ_section_title
;
Structure prediction by ZEFSAII (Michael W. Deem and Ramdas Pophale) SiO2 
 PCOD9345439
Probable space group: P N A 21
;
_chemical_formula_sum "Si O2"
_cell_formula_units_Z 24
_cell_length_a 9.286049
_cell_length_b 15.345986
_cell_length_c 8.156429
_cell_angle_alpha 90.000000
_cell_angle_beta 90.000000
_cell_angle_gamma 90.000000
_cell_volume 1162.320316
_symmetry_space_group_name_H-M "P N A 21"
_symmetry_group_IT_number 33
_symmetry_cell_setting 'orthorhombic'
loop_
_space_group_symop_operation_xyz
x,y,z
-x,-y,1/2+z
1/2-x,1/2+y,1/2+z
1/2+x,1/2-y,z
loop_
_atom_site_type_symbol
_atom_site_label
_atom_site_fract_x
_atom_site_fract_y
_atom_site_fract_z
Si Si1 0.760436 0.692251 0.387210
Si Si2 0.585325 0.097444 0.308621
Si Si3 0.815946 0.200098 0.514497
Si Si4 0.827262 0.501723 0.487166
Si Si5 0.126958 0.144848 0.394125
Si Si6 0.485210 0.728652 0.594232
O O1 0.702970 0.709769 0.207700
O O2 0.813147 0.593139 0.393889
O O3 0.644479 0.706877 0.533059
O O4 0.892279 0.754238 0.432776
O O5 0.711946 0.128324 0.430416
O O6 0.457932 0.053739 0.411627
O O7 0.530942 0.182650 0.203937
O O8 0.642770 0.028532 0.174624
O O9 0.755989 0.288224 0.432753
O O10 0.980988 0.178382 0.478507
O O11 0.682096 0.447302 0.457287
O O12 0.085483 0.152631 0.202944
#
# Coordination Sequence:
#
# PCOD9345439 Si02
#       6
#     4   4   4   4   4   4
#     4  11  23  39  61  90 120 160 205 251 303 365
#     4  10  22  41  62  88 124 165 203 252 308 364
#     4  11  23  40  62  89 124 166 205 245 303 373
#     4  11  23  39  62  91 122 159 204 258 309 354
#     4  11  22  40  64  90 122 163 205 253 304 361
#     4  10  21  41  63  86 120 163 204 245 303 371
#
# _framework density 20.648354000000001
#
# number of rings (size 3 to 8) (size 9 to 14) (size 15 to 20)
#    0.000    1.333    0.000    8.000    0.000    5.333 
#    0.000    6.667    0.000    0.000    0.000    0.000 
#    0.000    0.000    0.000    0.000    0.000    0.000 
#
# Total GULP energy -134128.838846 kJ/mol
# GULP energy per Si atom -5588.701619 kJ/mol
# Density = 2.060136 g / cm^3
# Si number density = 20.648354 Si / 1000 Ang^3
#
#
#
# Elastic Constant Matrix: (Units=GPa)
#
#
# Indices 1 2 3 4 5 6 
#
# 1 87.3566 24.8766 19.6443 0.0000 0.0000 0.0000
# 2 24.8766 42.4689 21.4369 0.0000 0.0000 0.0000
# 3 19.6443 21.4369 88.7533 0.0000 0.0000 0.0000
# 4 0.0000 0.0000 0.0000 26.7060 0.0000 0.0000
# 5 0.0000 0.0000 0.0000 0.0000 35.7638 0.0000
# 6 0.0000 0.0000 0.0000 0.0000 0.0000 31.0071
#
#
#
# Elastic Compliance Matrix: (Units=1/GPa)
#
#
# Indices 1 2 3 4 5 6 
#
# 1 0.013862 -0.007483 -0.001261 0.000000 0.000000 0.000000
# 2 -0.007483 0.030856 -0.005796 0.000000 0.000000 0.000000
# 3 -0.001261 -0.005796 0.012946 0.000000 0.000000 0.000000
# 4 0.000000 0.000000 0.000000 0.037445 0.000000 0.000000
# 5 0.000000 0.000000 0.000000 0.000000 0.027961 0.000000
# 6 0.000000 0.000000 0.000000 0.000000 0.000000 0.032251
#
#
# Mechanical properties :
#
#
# Convention : Reuss Voigt Hill
#
# Bulk Modulus (GPa) = 34.98560 38.94380 36.96470
# Shear Modulus (GPa) = 25.78259 28.87013 27.32636
#
# Velocity S-wave (km/s) = 3.53746 3.74328 3.64183
# Velocity P-wave (km/s) = 5.80217 6.13060 5.96865
#
# Compressibility (1/GPa) = 0.02858319
#
# Stress axis : x y z
#
# Youngs Moduli (GPa) = 72.14032 32.40864 77.24259
#
# Poissons Ratio (x) = 0.24253 0.09737
# Poissons Ratio (y) = 0.53986 0.44773
# Poissons Ratio (z) = 0.09094 0.18785
#
# Static dielectric constant tensor:
#      x y z
#    x 1.729720 0.000000 0.000000 
#    y 0.000000 1.731500 0.000000 
#    z 0.000000 0.000000 1.732010 
# 
# From -- ./inp_files/3109.got.cif
#   From: 2010.05.17/outbox.cif.g08.bks.cpg/sg33_2_cif.got.tgz:3109.got - 2010.06.03 17:15:25.
