data_PCOD9345029
_publ_section_title
;
Structure prediction by ZEFSAII (Michael W. Deem and Ramdas Pophale) SiO2 
 PCOD9345029
Probable space group: P N A 21
;
_chemical_formula_sum "Si O2"
_cell_formula_units_Z 28
_cell_length_a 10.109923
_cell_length_b 20.579082
_cell_length_c 6.455169
_cell_angle_alpha 90.000000
_cell_angle_beta 90.000000
_cell_angle_gamma 90.000000
_cell_volume 1343.016853
_symmetry_space_group_name_H-M "P N A 21"
_symmetry_group_IT_number 33
_symmetry_cell_setting 'orthorhombic'
loop_
_space_group_symop_operation_xyz
x,y,z
-x,-y,1/2+z
1/2-x,1/2+y,1/2+z
1/2+x,1/2-y,z
loop_
_atom_site_type_symbol
_atom_site_label
_atom_site_fract_x
_atom_site_fract_y
_atom_site_fract_z
Si Si1 0.102349 0.618462 0.859620
Si Si2 0.573209 0.579001 0.200594
Si Si3 0.362680 0.563684 0.846110
Si Si4 0.340371 0.858059 0.117234
Si Si5 0.231182 0.719579 0.157283
Si Si6 0.934463 0.831063 0.502136
Si Si7 0.505250 0.805884 0.477118
O O1 0.381110 0.617812 0.668127
O O2 0.073665 0.643426 0.629300
O O3 0.203603 0.558371 0.877004
O O4 0.188746 0.673241 0.973717
O O5 0.450886 0.584666 0.042231
O O6 0.579863 0.505503 0.278773
O O7 0.713950 0.596068 0.100172
O O8 0.551691 0.629977 0.387311
O O9 0.036843 0.383504 0.481262
O O10 0.288026 0.785832 0.064217
O O11 0.392688 0.844744 0.351637
O O12 0.333746 0.687858 0.317930
O O13 0.100017 0.724189 0.299352
O O14 0.964346 0.759895 0.597786
#
# Coordination Sequence:
#
# PCOD9345029 Si02
#       7
#     4   4   4   4   4   4   4
#     4  11  24  41  66 102 129 171 220 265 332 391
#     4  12  25  47  64  94 129 175 228 269 322 388
#     4  12  26  43  69  92 126 179 225 272 317 395
#     4  10  25  42  63  97 137 169 210 275 331 386
#     4  10  20  39  65  96 135 164 204 273 325 384
#     4  11  22  39  65  96 128 167 216 266 326 385
#     4  10  22  39  66  99 132 169 207 266 339 389
#
# _framework density 20.848585
#
# number of rings (size 3 to 8) (size 9 to 14) (size 15 to 20)
#    0.000    1.143    5.714    0.000    4.000    1.143 
#    2.571    0.000    0.000    0.000    0.000    0.000 
#    0.000    0.000    0.000    0.000    0.000    0.000 
#
# Total GULP energy -156207.612378 kJ/mol
# GULP energy per Si atom -5578.843299 kJ/mol
# Density = 2.080113 g / cm^3
# Si number density = 20.848585 Si / 1000 Ang^3
#
#
#
# Elastic Constant Matrix: (Units=GPa)
#
#
# Indices 1 2 3 4 5 6 
#
# 1 87.7565 4.9431 0.4628 0.0000 0.0000 0.0000
# 2 4.9431 43.2310 10.1405 0.0000 0.0000 0.0000
# 3 0.4628 10.1405 25.9292 0.0000 0.0000 0.0000
# 4 0.0000 0.0000 0.0000 17.8479 0.0000 0.0000
# 5 0.0000 0.0000 0.0000 0.0000 30.5899 0.0000
# 6 0.0000 0.0000 0.0000 0.0000 0.0000 24.3203
#
#
#
# Elastic Compliance Matrix: (Units=1/GPa)
#
#
# Indices 1 2 3 4 5 6 
#
# 1 0.011472 -0.001391 0.000339 0.000000 0.000000 0.000000
# 2 -0.001391 0.025637 -0.010001 0.000000 0.000000 0.000000
# 3 0.000339 -0.010001 0.042472 0.000000 0.000000 0.000000
# 4 0.000000 0.000000 0.000000 0.056029 0.000000 0.000000
# 5 0.000000 0.000000 0.000000 0.000000 0.032690 0.000000
# 6 0.000000 0.000000 0.000000 0.000000 0.000000 0.041118
#
#
# Mechanical properties :
#
#
# Convention : Reuss Voigt Hill
#
# Bulk Modulus (GPa) = 17.39924 20.88995 19.14459
# Shear Modulus (GPa) = 19.94561 23.97632 21.96097
#
# Velocity S-wave (km/s) = 3.09639 3.39488 3.24906
# Velocity P-wave (km/s) = 4.59861 5.04068 4.82471
#
# Compressibility (1/GPa) = 0.05747379
#
# Stress axis : x y z
#
# Youngs Moduli (GPa) = 87.17069 39.00680 23.54501
#
# Poissons Ratio (x) = 0.05427 -0.00799
# Poissons Ratio (y) = 0.12128 0.23548
# Poissons Ratio (z) = -0.02958 0.39012
#
# Static dielectric constant tensor:
#      x y z
#    x 1.829880 0.000000 0.000000 
#    y 0.000000 1.742010 0.000000 
#    z 0.000000 0.000000 1.751560 
# 
# From -- ./inp_files/977.got.cif
#   From: 2010.05.17/outbox.cif.g08.bks.cpg/sg33_1_cif.got.tgz:977.got - 2010.06.03 17:15:25.
