data_PCOD9345774
_publ_section_title
;
Structure prediction by ZEFSAII (Michael W. Deem and Ramdas Pophale) SiO2 
 PCOD9345774
Probable space group: P N A 21
;
_chemical_formula_sum "Si O2"
_cell_formula_units_Z 32
_cell_length_a 11.299748
_cell_length_b 8.788951
_cell_length_c 15.252545
_cell_angle_alpha 90.000000
_cell_angle_beta 90.000000
_cell_angle_gamma 90.000000
_cell_volume 1514.774957
_symmetry_space_group_name_H-M "P N A 21"
_symmetry_group_IT_number 33
_symmetry_cell_setting 'orthorhombic'
loop_
_space_group_symop_operation_xyz
x,y,z
-x,-y,1/2+z
1/2-x,1/2+y,1/2+z
1/2+x,1/2-y,z
loop_
_atom_site_type_symbol
_atom_site_label
_atom_site_fract_x
_atom_site_fract_y
_atom_site_fract_z
Si Si1 0.543058 0.234661 0.058310
Si Si2 0.503279 0.428101 0.565094
Si Si3 0.742275 0.009135 0.125644
Si Si4 0.257725 0.509135 0.824948
Si Si5 0.456942 0.734661 0.892282
Si Si6 0.897680 0.250000 0.725296
Si Si7 0.374593 0.250000 0.225296
Si Si8 0.003279 0.428101 0.885498
O O1 0.568399 0.414740 0.053564
O O2 0.455587 0.220233 0.141030
O O3 0.652443 0.123496 0.077683
O O4 0.483790 0.182131 0.967571
O O5 0.642809 0.468921 0.568512
O O6 0.483790 0.317869 0.483021
O O7 0.472921 0.351611 0.657847
O O8 0.678921 0.861080 0.163756
O O9 0.793678 0.105358 0.206882
O O10 0.347557 0.623496 0.872909
O O11 0.321078 0.361079 0.786837
O O12 0.206322 0.605359 0.743710
O O13 0.142809 0.468921 0.882080
O O14 0.544413 0.720233 0.809563
O O15 0.431601 0.914740 0.897028
O O16 0.972921 0.351611 0.792746
#
# Coordination Sequence:
#
# PCOD9345774 Si02
#       8
#     4   4   4   4   4   4   4   4
#     4  11  23  42  65  91 127 164 206 256 308 366
#     4  11  25  42  64  93 126 163 207 257 307 368
#     4  11  22  41  64  91 124 165 205 252 308 366
#     4  11  22  41  64  91 124 165 205 252 308 366
#     4  11  23  42  65  91 127 164 206 256 308 366
#     4  12  24  42  64  92 126 164 206 256 308 366
#     4  10  22  42  64  90 122 162 206 256 306 364
#     4  11  25  42  64  93 126 163 207 257 307 368
#
# _framework density 21.125250999999999
#
# number of rings (size 3 to 8) (size 9 to 14) (size 15 to 20)
#    0.000    1.000    0.000    8.250    0.000    4.000 
#    0.000    7.500    0.000    0.000    0.000    0.000 
#    0.000    0.000    0.000    0.000    0.000    0.000 
#
# Total GULP energy -178946.672872 kJ/mol
# GULP energy per Si atom -5592.083527 kJ/mol
# Density = 2.107717 g / cm^3
# Si number density = 21.125251 Si / 1000 Ang^3
#
#
#
# Elastic Constant Matrix: (Units=GPa)
#
#
# Indices 1 2 3 4 5 6 
#
# 1 63.6643 32.1847 5.8116 0.0000 0.0000 0.0000
# 2 32.1847 133.7694 42.0345 0.0000 0.0000 0.0000
# 3 5.8116 42.0345 103.3131 0.0000 0.0000 0.0000
# 4 0.0000 0.0000 0.0000 38.1937 0.0000 0.0000
# 5 0.0000 0.0000 0.0000 0.0000 4.0690 0.0000
# 6 0.0000 0.0000 0.0000 0.0000 0.0000 -121.5355
#
#
#
# Elastic Compliance Matrix: (Units=1/GPa)
#
#
# Indices 1 2 3 4 5 6 
#
# 1 0.017948 -0.004588 0.000857 0.000000 0.000000 0.000000
# 2 -0.004588 0.009744 -0.003706 0.000000 0.000000 0.000000
# 3 0.000857 -0.003706 0.011139 0.000000 0.000000 0.000000
# 4 0.000000 0.000000 0.000000 0.026182 0.000000 0.000000
# 5 0.000000 0.000000 0.000000 0.000000 0.245764 0.000000
# 6 0.000000 0.000000 0.000000 0.000000 0.000000 -0.008228
#
#
# Mechanical properties :
#
#
# Convention : Reuss Voigt Hill
#
# Bulk Modulus (GPa) = 41.74107 51.20093 46.47100
# Shear Modulus (GPa) = 15.36526 -1.14016 7.11255
#
# Velocity S-wave (km/s) = 2.69985 -0.73545 1.83689
# Velocity P-wave (km/s) = 5.43329 4.85472 5.15213
#
# Compressibility (1/GPa) = 0.02395722
#
# Stress axis : x y z
#
# Youngs Moduli (GPa) = 55.71536 102.62726 89.77367
#
# Poissons Ratio (x) = 0.47081 -0.07693
# Poissons Ratio (y) = 0.25560 0.33274
# Poissons Ratio (z) = -0.04774 0.38038
#
# Static dielectric constant tensor:
#      x y z
#    x 1.755810 0.000000 0.000000 
#    y 0.000000 0.807300 0.000000 
#    z 0.000000 0.000000 1.737830 
# 
# From -- ./inp_files/7951.got.cif
#   From: 2010.05.17/outbox.cif.g08.bks.cpg/sg33_4_cif.got.tgz:7951.got - 2010.06.03 17:15:25.
