data_PCOD9345873
_publ_section_title
;
Structure prediction by ZEFSAII (Michael W. Deem and Ramdas Pophale) SiO2 
 PCOD9345873
Probable space group: P N A 21
;
_chemical_formula_sum "Si O2"
_cell_formula_units_Z 28
_cell_length_a 14.834000
_cell_length_b 8.543935
_cell_length_c 10.941465
_cell_angle_alpha 90.000000
_cell_angle_beta 90.000000
_cell_angle_gamma 90.000000
_cell_volume 1386.729281
_symmetry_space_group_name_H-M "P N A 21"
_symmetry_group_IT_number 33
_symmetry_cell_setting 'orthorhombic'
loop_
_space_group_symop_operation_xyz
x,y,z
-x,-y,1/2+z
1/2-x,1/2+y,1/2+z
1/2+x,1/2-y,z
loop_
_atom_site_type_symbol
_atom_site_label
_atom_site_fract_x
_atom_site_fract_y
_atom_site_fract_z
Si Si1 0.614549 0.190935 0.755560
Si Si2 0.168160 0.809543 0.709657
Si Si3 0.098551 0.061853 0.540148
Si Si4 0.670457 0.173797 0.390718
Si Si5 0.073390 0.154281 0.018797
Si Si6 0.000292 0.629362 0.732958
Si Si7 0.749940 0.508676 0.124444
O O1 0.583582 0.309920 0.647966
O O2 0.717999 0.129219 0.731713
O O3 0.552288 0.036169 0.738157
O O4 0.604203 0.274302 0.887860
O O5 0.244634 0.846113 0.804727
O O6 0.198597 0.650817 0.648143
O O7 0.071651 0.766695 0.768620
O O8 0.162402 0.939431 0.607371
O O9 0.146853 0.148444 0.428434
O O10 0.010669 0.963886 0.502854
O O11 0.581082 0.113163 0.326869
O O12 0.700938 0.086396 0.510649
O O13 0.041286 0.299406 0.106452
O O14 0.149803 0.049888 0.088727
#
# Coordination Sequence:
#
# PCOD9345873 Si02
#       7
#     4   4   4   4   4   4   4
#     4  10  24  44  65  99 136 172 229 279 336 412
#     4  10  22  44  62  97 136 167 226 276 323 407
#     4  10  25  41  68 100 129 175 230 272 336 405
#     4  11  23  43  67  95 136 174 219 280 331 399
#     4  11  23  45  72  95 139 180 219 289 339 393
#     4  10  24  42  67  98 132 178 227 269 346 397
#     4  10  23  43  63  98 130 176 228 269 341 403
#
# _framework density 20.191396000000001
#
# number of rings (size 3 to 8) (size 9 to 14) (size 15 to 20)
#    0.000    1.714    1.429    0.857   14.000    2.286 
#    7.714    0.000    0.000    0.000    0.000    0.000 
#    0.000    0.000    0.000    0.000    0.000    0.000 
#
# Total GULP energy -156040.245172 kJ/mol
# GULP energy per Si atom -5572.865899 kJ/mol
# Density = 2.014544 g / cm^3
# Si number density = 20.191396 Si / 1000 Ang^3
#
#
#
# Elastic Constant Matrix: (Units=GPa)
#
#
# Indices 1 2 3 4 5 6 
#
# 1 100.2239 -34.4692 -89.5911 0.0000 0.0000 0.0000
# 2 -34.4692 -220.7945 -568.9479 0.0000 0.0000 0.0000
# 3 -89.5911 -568.9479-1036.9730 0.0000 0.0000 0.0000
# 4 0.0000 0.0000 0.0000 36.6221 0.0000 0.0000
# 5 0.0000 0.0000 0.0000 0.0000 266.4432 0.0000
# 6 0.0000 0.0000 0.0000 0.0000 0.0000 29.4671
#
#
#
# Elastic Compliance Matrix: (Units=1/GPa)
#
#
# Indices 1 2 3 4 5 6 
#
# 1 0.009469 -0.001522 0.000017 0.000000 0.000000 0.000000
# 2 -0.001522 0.011190 -0.006008 0.000000 0.000000 0.000000
# 3 0.000017 -0.006008 0.002330 0.000000 0.000000 0.000000
# 4 0.000000 0.000000 0.000000 0.027306 0.000000 0.000000
# 5 0.000000 0.000000 0.000000 0.000000 0.003753 0.000000
# 6 0.000000 0.000000 0.000000 0.000000 0.000000 0.033936
#
#
# Mechanical properties :
#
#
# Convention : Reuss Voigt Hill
#
# Bulk Modulus (GPa) = 125.57111 -282.61778 -78.52333
# Shear Modulus (GPa) = 47.31926 35.53745 41.42835
#
# Velocity S-wave (km/s) = 4.84626 4.19982 4.53457
# Velocity P-wave (km/s) = 9.67680 10.80534 3.39962
#
# Compressibility (1/GPa) = 0.00796361
#
# Stress axis : x y z
#
# Youngs Moduli (GPa) = 105.60366 89.36799 429.09802
#
# Poissons Ratio (x) = 0.13603 -0.00729
# Poissons Ratio (y) = 0.16074 2.57796
# Poissons Ratio (z) = -0.00179 0.53691
#
# Static dielectric constant tensor:
#      x y z
#    x 1.803700 0.000000 0.000000 
#    y 0.000000 1.720620 0.000000 
#    z 0.000000 0.000000 1.970940 
# 
# From -- ./inp_files/6705.got.cif
#   From: 2010.05.17/outbox.cif.g08.bks.cpg/sg33_4_cif.got.tgz:6705.got - 2010.06.03 17:15:25.
