data_PCOD9345998
_publ_section_title
;
Structure prediction by ZEFSAII (Michael W. Deem and Ramdas Pophale) SiO2 
 PCOD9345998
Probable space group: P N A 21
;
_chemical_formula_sum "Si O2"
_cell_formula_units_Z 28
_cell_length_a 4.916037
_cell_length_b 20.558694
_cell_length_c 11.520409
_cell_angle_alpha 90.000000
_cell_angle_beta 90.000000
_cell_angle_gamma 90.000000
_cell_volume 1164.336637
_symmetry_space_group_name_H-M "P N A 21"
_symmetry_group_IT_number 33
_symmetry_cell_setting 'orthorhombic'
loop_
_space_group_symop_operation_xyz
x,y,z
-x,-y,1/2+z
1/2-x,1/2+y,1/2+z
1/2+x,1/2-y,z
loop_
_atom_site_type_symbol
_atom_site_label
_atom_site_fract_x
_atom_site_fract_y
_atom_site_fract_z
Si Si1 0.241601 0.581884 0.967600
Si Si2 0.431809 0.707454 0.549998
Si Si3 0.658072 0.638614 0.772333
Si Si4 0.594480 0.703779 0.296323
Si Si5 0.930730 0.506716 0.786339
Si Si6 0.944454 0.065610 0.694852
Si Si7 0.904157 0.706842 0.975515
O O1 0.439008 0.613715 0.868994
O O2 0.062305 0.525977 0.908941
O O3 0.839888 0.530069 0.213737
O O4 0.427498 0.555028 0.069122
O O5 0.616448 0.773172 0.552811
O O6 0.510143 0.666480 0.661328
O O7 0.525649 0.678535 0.426646
O O8 0.839659 0.576858 0.738007
O O9 0.847988 0.691465 0.838221
O O10 0.885537 0.736954 0.281342
O O11 0.573119 0.642278 0.214565
O O12 0.660957 0.463788 0.786044
O O13 0.462246 0.138679 0.513312
O O14 0.615496 0.736933 0.008673
#
# Coordination Sequence:
#
# PCOD9345998 Si02
#       7
#     4   4   4   4   4   4   4
#     4  11  27  46  70 106 145 180 248 294 346 438
#     4  10  23  39  68  99 137 184 229 286 342 412
#     4  11  23  44  65 106 143 182 239 293 346 421
#     4  10  23  49  70 102 138 177 237 285 345 425
#     4  11  27  47  67 104 140 186 240 293 350 425
#     4  12  27  48  76 100 141 190 229 300 363 413
#     4  11  22  37  64 101 144 183 220 281 352 412
#
# _framework density 24.048027000000001
#
# number of rings (size 3 to 8) (size 9 to 14) (size 15 to 20)
#    0.000    1.143    2.857    1.714    8.000    2.286 
#    2.571    0.000    0.000    0.000    0.000    0.000 
#    0.000    0.000    0.000    0.000    0.000    0.000 
#
# Total GULP energy -156791.767876 kJ/mol
# GULP energy per Si atom -5599.705996 kJ/mol
# Density = 2.399329 g / cm^3
# Si number density = 24.048027 Si / 1000 Ang^3
#
#
#
# Elastic Constant Matrix: (Units=GPa)
#
#
# Indices 1 2 3 4 5 6 
#
# 1 109.6244 26.2962 13.4540 0.0000 0.0000 0.0000
# 2 26.2962 79.3770 41.3039 0.0000 0.0000 0.0000
# 3 13.4540 41.3039 62.5824 0.0000 0.0000 0.0000
# 4 0.0000 0.0000 0.0000 21.0290 0.0000 0.0000
# 5 0.0000 0.0000 0.0000 0.0000 28.5216 0.0000
# 6 0.0000 0.0000 0.0000 0.0000 0.0000 35.0549
#
#
#
# Elastic Compliance Matrix: (Units=1/GPa)
#
#
# Indices 1 2 3 4 5 6 
#
# 1 0.009910 -0.003312 0.000055 0.000000 0.000000 0.000000
# 2 -0.003312 0.020294 -0.012682 0.000000 0.000000 0.000000
# 3 0.000055 -0.012682 0.024337 0.000000 0.000000 0.000000
# 4 0.000000 0.000000 0.000000 0.047553 0.000000 0.000000
# 5 0.000000 0.000000 0.000000 0.000000 0.035061 0.000000
# 6 0.000000 0.000000 0.000000 0.000000 0.000000 0.028527
#
#
# Mechanical properties :
#
#
# Convention : Reuss Voigt Hill
#
# Bulk Modulus (GPa) = 44.12263 45.96577 45.04420
# Shear Modulus (GPa) = 24.37665 28.28975 26.33320
#
# Velocity S-wave (km/s) = 3.18727 3.43357 3.31271
# Velocity P-wave (km/s) = 5.65088 5.90549 5.77959
#
# Compressibility (1/GPa) = 0.02266411
#
# Stress axis : x y z
#
# Youngs Moduli (GPa) = 100.91164 49.27472 41.08939
#
# Poissons Ratio (x) = 0.16318 -0.00227
# Poissons Ratio (y) = 0.33418 0.52110
# Poissons Ratio (z) = -0.00558 0.62491
#
# Static dielectric constant tensor:
#      x y z
#    x 1.908190 0.000000 0.000000 
#    y 0.000000 1.889440 0.000000 
#    z 0.000000 0.000000 1.975640 
# 
# From -- ./inp_files/5541.got.cif
#   From: 2010.05.17/outbox.cif.g08.bks.cpg/sg33_3_cif.got.tgz:5541.got - 2010.06.03 17:15:25.
