data_PCOD9345499
_publ_section_title
;
Structure prediction by ZEFSAII (Michael W. Deem and Ramdas Pophale) SiO2 
 PCOD9345499
Probable space group: P N A 21
;
_chemical_formula_sum "Si O2"
_cell_formula_units_Z 32
_cell_length_a 13.947825
_cell_length_b 6.877677
_cell_length_c 13.819683
_cell_angle_alpha 90.000000
_cell_angle_beta 90.000000
_cell_angle_gamma 90.000000
_cell_volume 1325.703329
_symmetry_space_group_name_H-M "P N A 21"
_symmetry_group_IT_number 33
_symmetry_cell_setting 'orthorhombic'
loop_
_space_group_symop_operation_xyz
x,y,z
-x,-y,1/2+z
1/2-x,1/2+y,1/2+z
1/2+x,1/2-y,z
loop_
_atom_site_type_symbol
_atom_site_label
_atom_site_fract_x
_atom_site_fract_y
_atom_site_fract_z
Si Si1 0.247894 0.993679 0.861490
Si Si2 0.439490 0.235618 0.156062
Si Si3 0.525864 0.457649 0.800512
Si Si4 0.672413 0.291283 0.031337
Si Si5 0.931759 0.435943 0.537542
Si Si6 0.980529 0.968954 0.007792
Si Si7 0.257497 0.641740 0.738327
Si Si8 0.131532 0.742334 0.221088
O O1 0.139523 0.044913 0.822468
O O2 0.328547 0.090261 0.796540
O O3 0.260377 0.766017 0.837235
O O4 0.249053 0.089351 0.967608
O O5 0.494303 0.343718 0.242954
O O6 0.412653 0.420808 0.085030
O O7 0.352655 0.127244 0.207066
O O8 0.499731 0.082898 0.095687
O O9 0.481168 0.287460 0.736565
O O10 0.467101 0.454114 0.899859
O O11 0.583325 0.439684 0.037530
O O12 0.701783 0.250635 0.141620
O O13 0.633972 0.092774 0.980156
O O14 0.860145 0.330986 0.612170
O O15 0.998663 0.261624 0.498486
O O16 0.309687 0.437605 0.740573
#
# Coordination Sequence:
#
# PCOD9345499 Si02
#       8
#     4   4   4   4   4   4   4   4
#     4  10  25  42  65  96 134 171 226 281 339 407
#     4  10  23  40  64  95 133 170 222 273 339 406
#     4  10  23  44  65  92 137 170 219 285 330 409
#     4  10  21  42  65  94 131 169 220 285 335 404
#     4  11  21  42  71  90 129 180 221 275 346 404
#     4  10  21  43  64  95 126 174 220 277 339 402
#     4  11  23  42  62  95 135 177 221 281 340 414
#     4  12  23  41  68  95 129 179 227 271 348 410
#
# _framework density 24.138128999999999
#
# number of rings (size 3 to 8) (size 9 to 14) (size 15 to 20)
#    0.000    1.500    3.750    0.750    3.500    3.000 
#    6.750    0.000    0.000    0.000    0.000    0.000 
#    0.000    0.000    0.000    0.000    0.000    0.000 
#
# Total GULP energy -178530.027830 kJ/mol
# GULP energy per Si atom -5579.063370 kJ/mol
# Density = 2.408319 g / cm^3
# Si number density = 24.138129 Si / 1000 Ang^3
#
#
#
# Elastic Constant Matrix: (Units=GPa)
#
#
# Indices 1 2 3 4 5 6 
#
# 1 29.4714 3.9443 -13.5930 0.0000 0.0000 0.0000
# 2 3.9443 105.7465 4.1068 0.0000 0.0000 0.0000
# 3 -13.5930 4.1068 54.5361 0.0000 0.0000 0.0000
# 4 0.0000 0.0000 0.0000 35.3847 0.0000 0.0000
# 5 0.0000 0.0000 0.0000 0.0000 29.2199 0.0000
# 6 0.0000 0.0000 0.0000 0.0000 0.0000 23.6863
#
#
#
# Elastic Compliance Matrix: (Units=1/GPa)
#
#
# Indices 1 2 3 4 5 6 
#
# 1 0.038686 -0.001823 0.009780 0.000000 0.000000 0.000000
# 2 -0.001823 0.009570 -0.001175 0.000000 0.000000 0.000000
# 3 0.009780 -0.001175 0.020863 0.000000 0.000000 0.000000
# 4 0.000000 0.000000 0.000000 0.028261 0.000000 0.000000
# 5 0.000000 0.000000 0.000000 0.000000 0.034223 0.000000
# 6 0.000000 0.000000 0.000000 0.000000 0.000000 0.042219
#
#
# Mechanical properties :
#
#
# Convention : Reuss Voigt Hill
#
# Bulk Modulus (GPa) = 12.09450 19.85224 15.97337
# Shear Modulus (GPa) = 26.62150 30.67791 28.64971
#
# Velocity S-wave (km/s) = 3.32457 3.56888 3.44889
# Velocity P-wave (km/s) = 4.44505 5.02243 4.74253
#
# Compressibility (1/GPa) = 0.08268221
#
# Stress axis : x y z
#
# Youngs Moduli (GPa) = 25.84928 104.49105 47.93286
#
# Poissons Ratio (x) = 0.19046 -0.46876
# Poissons Ratio (y) = 0.04712 0.05632
# Poissons Ratio (z) = -0.25280 0.12278
#
# Static dielectric constant tensor:
#      x y z
#    x 1.999750 0.000000 0.000000 
#    y 0.000000 1.936080 0.000000 
#    z 0.000000 0.000000 1.992700 
# 
# From -- ./inp_files/8272.got.cif
#   From: 2010.05.17/outbox.cif.g08.bks.cpg/sg33_5_cif.got.tgz:8272.got - 2010.06.03 17:15:25.
