data_PCOD9345008
_publ_section_title
;
Structure prediction by ZEFSAII (Michael W. Deem and Ramdas Pophale) SiO2 
 PCOD9345008
Probable space group: P N A 21
;
_chemical_formula_sum "Si O2"
_cell_formula_units_Z 28
_cell_length_a 15.133974
_cell_length_b 16.109812
_cell_length_c 5.325042
_cell_angle_alpha 90.000000
_cell_angle_beta 90.000000
_cell_angle_gamma 90.000000
_cell_volume 1298.274399
_symmetry_space_group_name_H-M "P N A 21"
_symmetry_group_IT_number 33
_symmetry_cell_setting 'orthorhombic'
loop_
_space_group_symop_operation_xyz
x,y,z
-x,-y,1/2+z
1/2-x,1/2+y,1/2+z
1/2+x,1/2-y,z
loop_
_atom_site_type_symbol
_atom_site_label
_atom_site_fract_x
_atom_site_fract_y
_atom_site_fract_z
Si Si1 0.890327 0.571102 0.397420
Si Si2 0.793840 0.082278 0.729521
Si Si3 0.433672 0.095291 0.605551
Si Si4 0.462683 0.788966 0.711476
Si Si5 0.894939 0.238023 0.804907
Si Si6 0.532298 0.366167 0.470671
Si Si7 0.392275 0.481635 0.231288
O O1 0.810734 0.572686 0.203931
O O2 0.878087 0.484952 0.541260
O O3 0.894560 0.656267 0.552251
O O4 0.988931 0.565767 0.289826
O O5 0.811320 0.179289 0.789370
O O6 0.838908 0.042002 0.483661
O O7 0.838160 0.043545 0.981208
O O8 0.488997 0.143096 0.388534
O O9 0.376064 0.168636 0.721942
O O10 0.543371 0.749526 0.548977
O O11 0.416366 0.709181 0.837516
O O12 0.958397 0.188297 0.612874
O O13 0.483071 0.428558 0.275580
O O14 0.580871 0.423667 0.673482
#
# Coordination Sequence:
#
# PCOD9345008 Si02
#       7
#     4   4   4   4   4   4   4
#     4  11  23  41  69  96 132 184 242 288 344 417
#     4  11  25  42  66 101 146 176 219 301 361 394
#     4  10  21  40  69  90 123 183 243 272 332 430
#     4  10  20  39  67  92 125 175 240 286 325 424
#     4   9  20  39  64  96 127 176 221 283 347 404
#     4  10  20  38  69  95 130 179 230 267 335 434
#     4  11  23  39  68 100 139 183 225 277 350 425
#
# _framework density 21.567087999999998
#
# number of rings (size 3 to 8) (size 9 to 14) (size 15 to 20)
#    0.000    1.714    2.857    1.714    4.000    0.000 
#    0.000    5.714    0.000    0.000    0.000    0.000 
#    0.000    0.000    0.000    0.000    0.000    0.000 
#
# Total GULP energy -156025.793685 kJ/mol
# GULP energy per Si atom -5572.349774 kJ/mol
# Density = 2.151800 g / cm^3
# Si number density = 21.567088 Si / 1000 Ang^3
#
#
#
# Elastic Constant Matrix: (Units=GPa)
#
#
# Indices 1 2 3 4 5 6 
#
# 1 27.3226 30.7688 -8.0543 0.0000 0.0000 0.0000
# 2 30.7688 146.9537 33.5318 0.0000 0.0000 0.0000
# 3 -8.0543 33.5318 79.0225 0.0000 0.0000 0.0000
# 4 0.0000 0.0000 0.0000 36.1670 0.0000 0.0000
# 5 0.0000 0.0000 0.0000 0.0000 19.0427 0.0000
# 6 0.0000 0.0000 0.0000 0.0000 0.0000 13.9297
#
#
#
# Elastic Compliance Matrix: (Units=1/GPa)
#
#
# Indices 1 2 3 4 5 6 
#
# 1 0.056509 -0.014555 0.011936 0.000000 0.000000 0.000000
# 2 -0.014555 0.011283 -0.006271 0.000000 0.000000 0.000000
# 3 0.011936 -0.006271 0.016532 0.000000 0.000000 0.000000
# 4 0.000000 0.000000 0.000000 0.027650 0.000000 0.000000
# 5 0.000000 0.000000 0.000000 0.000000 0.052514 0.000000
# 6 0.000000 0.000000 0.000000 0.000000 0.000000 0.071789
#
#
# Mechanical properties :
#
#
# Convention : Reuss Voigt Hill
#
# Bulk Modulus (GPa) = 15.02774 40.64350 27.83562
# Shear Modulus (GPa) = 18.10019 26.96471 22.53245
#
# Velocity S-wave (km/s) = 2.90012 3.53975 3.23578
# Velocity P-wave (km/s) = 4.26583 5.96595 5.18603
#
# Compressibility (1/GPa) = 0.06654358
#
# Stress axis : x y z
#
# Youngs Moduli (GPa) = 17.69614 88.62532 60.48737
#
# Poissons Ratio (x) = 1.28997 -0.72198
# Poissons Ratio (y) = 0.25757 0.37935
# Poissons Ratio (z) = -0.21122 0.55581
#
# Static dielectric constant tensor:
#      x y z
#    x 1.790100 0.000000 0.000000 
#    y 0.000000 1.882430 0.000000 
#    z 0.000000 0.000000 1.930190 
# 
# From -- ./inp_files/1418.got.cif
#   From: 2010.05.17/outbox.cif.g08.bks.cpg/sg33_1_cif.got.tgz:1418.got - 2010.06.03 17:15:25.
