data_PCOD9345458
_publ_section_title
;
Structure prediction by ZEFSAII (Michael W. Deem and Ramdas Pophale) SiO2 
 PCOD9345458
Probable space group: P N A 21
;
_chemical_formula_sum "Si O2"
_cell_formula_units_Z 32
_cell_length_a 22.500821
_cell_length_b 11.266779
_cell_length_c 5.147102
_cell_angle_alpha 90.000000
_cell_angle_beta 90.000000
_cell_angle_gamma 90.000000
_cell_volume 1304.850977
_symmetry_space_group_name_H-M "P N A 21"
_symmetry_group_IT_number 33
_symmetry_cell_setting 'orthorhombic'
loop_
_space_group_symop_operation_xyz
x,y,z
-x,-y,1/2+z
1/2-x,1/2+y,1/2+z
1/2+x,1/2-y,z
loop_
_atom_site_type_symbol
_atom_site_label
_atom_site_fract_x
_atom_site_fract_y
_atom_site_fract_z
Si Si1 0.512465 0.693281 0.288340
Si Si2 0.124694 0.810106 0.545456
Si Si3 0.357369 0.961253 0.607456
Si Si4 0.766601 0.050827 0.884203
Si Si5 0.681264 0.357475 0.775367
Si Si6 0.418063 0.499661 0.450874
Si Si7 0.908033 0.650823 0.111701
Si Si8 0.201190 0.619315 0.503582
O O1 0.563672 0.751555 0.458712
O O2 0.466125 0.604734 0.427923
O O3 0.472739 0.790316 0.144155
O O4 0.552509 0.600571 0.125524
O O5 0.175973 0.863400 0.352706
O O6 0.099401 0.924460 0.695584
O O7 0.163543 0.707852 0.685097
O O8 0.290582 0.910935 0.559410
O O9 0.392546 0.947171 0.334607
O O10 0.395261 0.891458 0.822093
O O11 0.340702 0.081784 0.762686
O O12 0.795480 0.942456 0.047280
O O13 0.730617 0.995882 0.639598
O O14 0.643336 0.430258 0.991322
O O15 0.638493 0.256674 0.669817
O O16 0.741395 0.313557 0.899889
#
# Coordination Sequence:
#
# PCOD9345458 Si02
#       8
#     4   4   4   4   4   4   4   4
#     4  11  23  41  69 100 138 186 237 289 359 419
#     4  11  24  41  68 107 139 187 226 299 359 428
#     4  11  24  46  67  98 139 186 238 291 343 426
#     4  10  22  42  69 106 145 177 229 297 368 428
#     4   9  22  37  65 106 135 183 225 287 358 428
#     4  10  21  41  65  99 142 175 229 293 347 426
#     4  11  25  42  73  97 138 192 238 287 350 424
#     4  11  23  42  70 101 140 184 234 291 358 429
#
# _framework density 24.523872000000001
#
# number of rings (size 3 to 8) (size 9 to 14) (size 15 to 20)
#    0.000    1.500    2.500    1.500    5.250    2.000 
#    0.000    1.250    0.000    0.000    0.000    0.000 
#    0.000    0.000    0.000    0.000    0.000    0.000 
#
# Total GULP energy -178334.194525 kJ/mol
# GULP energy per Si atom -5572.943579 kJ/mol
# Density = 2.446805 g / cm^3
# Si number density = 24.523872 Si / 1000 Ang^3
#
#
#
# Elastic Constant Matrix: (Units=GPa)
#
#
# Indices 1 2 3 4 5 6 
#
# 1 144.1632 25.4016 12.2206 0.0000 0.0000 0.0000
# 2 25.4016 36.6036 -0.9897 0.0000 0.0000 0.0000
# 3 12.2206 -0.9897 59.3630 0.0000 0.0000 0.0000
# 4 0.0000 0.0000 0.0000 -124.7008 0.0000 0.0000
# 5 0.0000 0.0000 0.0000 0.0000 67.6913 0.0000
# 6 0.0000 0.0000 0.0000 0.0000 0.0000 50.5564
#
#
#
# Elastic Compliance Matrix: (Units=1/GPa)
#
#
# Indices 1 2 3 4 5 6 
#
# 1 0.008082 -0.005656 -0.001758 0.000000 0.000000 0.000000
# 2 -0.005656 0.031291 0.001686 0.000000 0.000000 0.000000
# 3 -0.001758 0.001686 0.017236 0.000000 0.000000 0.000000
# 4 0.000000 0.000000 0.000000 -0.008019 0.000000 0.000000
# 5 0.000000 0.000000 0.000000 0.000000 0.014773 0.000000
# 6 0.000000 0.000000 0.000000 0.000000 0.000000 0.019780
#
#
# Mechanical properties :
#
#
# Convention : Reuss Voigt Hill
#
# Bulk Modulus (GPa) = 22.14757 34.82165 28.48461
# Shear Modulus (GPa) = 45.59993 12.27587 28.93790
#
# Velocity S-wave (km/s) = 4.31677 2.23977 3.43882
# Velocity P-wave (km/s) = 5.82208 4.57369 5.23523
#
# Compressibility (1/GPa) = 0.04515169
#
# Stress axis : x y z
#
# Youngs Moduli (GPa) = 123.72766 31.95850 58.01961
#
# Poissons Ratio (x) = 0.18077 0.10201
# Poissons Ratio (y) = 0.69985 -0.09783
# Poissons Ratio (z) = 0.21753 -0.05389
#
# Static dielectric constant tensor:
#      x y z
#    x 1.508260 0.000000 0.000000 
#    y 0.000000 2.182590 0.000000 
#    z 0.000000 0.000000 2.053780 
# 
# From -- ./inp_files/2094.got.cif
#   From: 2010.05.17/outbox.cif.g08.bks.cpg/sg33_2_cif.got.tgz:2094.got - 2010.06.03 17:15:25.
