data_PCOD9345447
_publ_section_title
;
Structure prediction by ZEFSAII (Michael W. Deem and Ramdas Pophale) SiO2 
 PCOD9345447
Probable space group: P N A 21
;
_chemical_formula_sum "Si O2"
_cell_formula_units_Z 32
_cell_length_a 8.338122
_cell_length_b 9.376893
_cell_length_c 16.430202
_cell_angle_alpha 90.000000
_cell_angle_beta 90.000000
_cell_angle_gamma 90.000000
_cell_volume 1284.606480
_symmetry_space_group_name_H-M "P N A 21"
_symmetry_group_IT_number 33
_symmetry_cell_setting 'orthorhombic'
loop_
_space_group_symop_operation_xyz
x,y,z
-x,-y,1/2+z
1/2-x,1/2+y,1/2+z
1/2+x,1/2-y,z
loop_
_atom_site_type_symbol
_atom_site_label
_atom_site_fract_x
_atom_site_fract_y
_atom_site_fract_z
Si Si1 0.444806 0.964974 0.864420
Si Si2 0.430047 0.420910 0.920867
Si Si3 0.719168 0.728889 0.075024
Si Si4 0.042177 0.175421 0.092591
Si Si5 0.394916 0.049215 0.053015
Si Si6 0.253447 0.199240 0.393893
Si Si7 0.271103 0.691812 0.326385
Si Si8 0.574628 0.414036 0.666277
O O1 0.611475 0.888922 0.847810
O O2 0.315207 0.840007 0.853900
O O3 0.440358 0.028985 0.957231
O O4 0.387516 0.096679 0.811866
O O5 0.435386 0.371040 0.014042
O O6 0.387242 0.585948 0.911657
O O7 0.607415 0.382439 0.889750
O O8 0.298150 0.334071 0.867597
O O9 0.580914 0.658671 0.127210
O O10 0.778689 0.880035 0.106464
O O11 0.864327 0.613222 0.080173
O O12 0.677505 0.749269 0.980817
O O13 0.019803 0.345157 0.096502
O O14 0.222310 0.124751 0.071119
O O15 0.972930 0.080874 0.167448
O O16 0.373165 0.673482 0.245202
#
# Coordination Sequence:
#
# PCOD9345447 Si02
#       8
#     4   4   4   4   4   4   4   4
#     4  11  22  39  60  96 126 167 217 269 337 384
#     4  12  22  41  66  96 130 173 226 267 327 391
#     4  10  21  41  63  95 124 169 215 268 333 385
#     4  11  21  40  61  97 121 169 218 274 313 384
#     4  10  22  35  63  93 127 156 218 274 318 375
#     4  11  23  38  69  94 126 166 223 283 316 388
#     4  12  25  42  64  96 137 176 214 274 339 396
#     4  11  24  42  64  93 137 170 215 271 333 397
#
# _framework density 24.910353000000001
#
# number of rings (size 3 to 8) (size 9 to 14) (size 15 to 20)
#    0.000    1.000    3.750    3.750    3.500    1.000 
#    0.000    6.250    0.000    0.000    0.000    0.000 
#    0.000    0.000    0.000    0.000    0.000    0.000 
#
# Total GULP energy -178941.077642 kJ/mol
# GULP energy per Si atom -5591.908676 kJ/mol
# Density = 2.485366 g / cm^3
# Si number density = 24.910353 Si / 1000 Ang^3
#
#
#
# Elastic Constant Matrix: (Units=GPa)
#
#
# Indices 1 2 3 4 5 6 
#
# 1 63.3078 35.0491 -1.7629 0.0000 0.0000 0.0000
# 2 35.0491 136.5869 -3.7583 0.0000 0.0000 0.0000
# 3 -1.7629 -3.7583 16.1796 0.0000 0.0000 0.0000
# 4 0.0000 0.0000 0.0000 15.9217 0.0000 0.0000
# 5 0.0000 0.0000 0.0000 0.0000 10.2059 0.0000
# 6 0.0000 0.0000 0.0000 0.0000 0.0000 51.6930
#
#
#
# Elastic Compliance Matrix: (Units=1/GPa)
#
#
# Indices 1 2 3 4 5 6 
#
# 1 0.018425 -0.004703 0.000915 0.000000 0.000000 0.000000
# 2 -0.004703 0.008569 0.001478 0.000000 0.000000 0.000000
# 3 0.000915 0.001478 0.062249 0.000000 0.000000 0.000000
# 4 0.000000 0.000000 0.000000 0.062808 0.000000 0.000000
# 5 0.000000 0.000000 0.000000 0.000000 0.097982 0.000000
# 6 0.000000 0.000000 0.000000 0.000000 0.000000 0.019345
#
#
# Mechanical properties :
#
#
# Convention : Reuss Voigt Hill
#
# Bulk Modulus (GPa) = 11.81701 30.57000 21.19351
# Shear Modulus (GPa) = 16.54507 28.00055 22.27281
#
# Velocity S-wave (km/s) = 2.57997 3.35633 2.99343
# Velocity P-wave (km/s) = 3.69177 5.22672 4.52480
#
# Compressibility (1/GPa) = 0.08462376
#
# Stress axis : x y z
#
# Youngs Moduli (GPa) = 54.27432 116.70276 16.06446
#
# Poissons Ratio (x) = 0.54883 -0.01470
# Poissons Ratio (y) = 0.25524 -0.02374
# Poissons Ratio (z) = -0.04967 -0.17249
#
# Static dielectric constant tensor:
#      x y z
#    x 2.018520 0.000000 0.000000 
#    y 0.000000 1.975040 0.000000 
#    z 0.000000 0.000000 2.019150 
# 
# From -- ./inp_files/8966.got.cif
#   From: 2010.05.17/outbox.cif.g08.bks.cpg/sg33_5_cif.got.tgz:8966.got - 2010.06.03 17:15:25.
