data_PCOD9345204
_publ_section_title
;
Structure prediction by ZEFSAII (Michael W. Deem and Ramdas Pophale) SiO2 
 PCOD9345204
Probable space group: P N A 21
;
_chemical_formula_sum "Si O2"
_cell_formula_units_Z 28
_cell_length_a 10.471633
_cell_length_b 21.341341
_cell_length_c 5.472245
_cell_angle_alpha 90.000000
_cell_angle_beta 90.000000
_cell_angle_gamma 90.000000
_cell_volume 1222.930148
_symmetry_space_group_name_H-M "P N A 21"
_symmetry_group_IT_number 33
_symmetry_cell_setting 'orthorhombic'
loop_
_space_group_symop_operation_xyz
x,y,z
-x,-y,1/2+z
1/2-x,1/2+y,1/2+z
1/2+x,1/2-y,z
loop_
_atom_site_type_symbol
_atom_site_label
_atom_site_fract_x
_atom_site_fract_y
_atom_site_fract_z
Si Si1 0.666415 0.002068 0.968010
Si Si2 0.101437 0.568192 0.468050
Si Si3 0.632119 0.653090 0.484955
Si Si4 0.329679 0.315487 0.484236
Si Si5 0.041821 0.967687 0.509352
Si Si6 0.419159 0.759995 0.985787
Si Si7 0.535557 0.795968 0.485885
O O1 0.656562 0.964323 0.711915
O O2 0.550000 0.051462 0.972370
O O3 0.650500 0.959295 0.210940
O O4 0.805720 0.030920 0.984063
O O5 0.121408 0.642577 0.480564
O O6 0.696718 0.645030 0.224530
O O7 0.510911 0.606480 0.492393
O O8 0.603490 0.728030 0.485472
O O9 0.698721 0.645246 0.744122
O O10 0.480434 0.297741 0.484847
O O11 0.234655 0.255446 0.484282
O O12 0.991238 0.003986 0.272418
O O13 0.456749 0.795935 0.737779
O O14 0.454412 0.795139 0.236586
#
# Coordination Sequence:
#
# PCOD9345204 Si02
#       7
#     4   4   4   4   4   4   4
#     4  10  23  41  68  94 135 173 221 274 328 401
#     4  10  21  42  66 103 128 168 222 278 344 387
#     4  10  23  43  65  98 126 175 224 268 330 395
#     4  10  21  39  61  94 133 172 216 268 328 410
#     4  12  26  47  69  96 135 183 233 271 327 408
#     4  10  21  36  60  93 136 174 214 261 340 400
#     4  10  21  40  65 100 135 165 214 282 335 401
#
# _framework density 22.895827000000001
#
# number of rings (size 3 to 8) (size 9 to 14) (size 15 to 20)
#    0.000    1.714    0.000    3.429    4.000    0.000 
#    0.000   34.286    0.000    0.000    0.000    0.000 
#    0.000    0.000    0.000    0.000    0.000    0.000 
#
# Total GULP energy -156120.292170 kJ/mol
# GULP energy per Si atom -5575.724720 kJ/mol
# Density = 2.284372 g / cm^3
# Si number density = 22.895827 Si / 1000 Ang^3
#
#
#
# Elastic Constant Matrix: (Units=GPa)
#
#
# Indices 1 2 3 4 5 6 
#
# 1 44.3743 0.0972 -6.8636 0.0000 0.0000 0.0000
# 2 0.0972 87.9183 5.8688 0.0000 0.0000 0.0000
# 3 -6.8636 5.8688 191.0920 0.0000 0.0000 0.0000
# 4 0.0000 0.0000 0.0000 30.6193 0.0000 0.0000
# 5 0.0000 0.0000 0.0000 0.0000 12.8648 0.0000
# 6 0.0000 0.0000 0.0000 0.0000 0.0000 18.2637
#
#
#
# Elastic Compliance Matrix: (Units=1/GPa)
#
#
# Indices 1 2 3 4 5 6 
#
# 1 0.022662 -0.000080 0.000816 0.000000 0.000000 0.000000
# 2 -0.000080 0.011398 -0.000353 0.000000 0.000000 0.000000
# 3 0.000816 -0.000353 0.005273 0.000000 0.000000 0.000000
# 4 0.000000 0.000000 0.000000 0.032659 0.000000 0.000000
# 5 0.000000 0.000000 0.000000 0.000000 0.077731 0.000000
# 6 0.000000 0.000000 0.000000 0.000000 0.000000 0.054753
#
#
# Mechanical properties :
#
#
# Convention : Reuss Voigt Hill
#
# Bulk Modulus (GPa) = 24.93702 35.73214 30.33458
# Shear Modulus (GPa) = 23.03339 33.96838 28.50088
#
# Velocity S-wave (km/s) = 3.17520 3.85594 3.53201
# Velocity P-wave (km/s) = 4.93535 5.95522 5.46911
#
# Compressibility (1/GPa) = 0.04010103
#
# Stress axis : x y z
#
# Youngs Moduli (GPa) = 44.12672 87.73590 189.63662
#
# Poissons Ratio (x) = 0.00698 -0.15482
# Poissons Ratio (y) = 0.00351 0.06692
# Poissons Ratio (z) = -0.03603 0.03096
#
# Static dielectric constant tensor:
#      x y z
#    x 1.849620 0.000000 0.000000 
#    y 0.000000 1.953160 0.000000 
#    z 0.000000 0.000000 1.940760 
# 
# From -- ./inp_files/981.got.cif
#   From: 2010.05.17/outbox.cif.g08.bks.cpg/sg33_1_cif.got.tgz:981.got - 2010.06.03 17:15:25.
