data_PCOD9345654
_publ_section_title
;
Structure prediction by ZEFSAII (Michael W. Deem and Ramdas Pophale) SiO2 
 PCOD9345654
Probable space group: P N A 21
;
_chemical_formula_sum "Si O2"
_cell_formula_units_Z 32
_cell_length_a 29.400703
_cell_length_b 9.512198
_cell_length_c 5.071986
_cell_angle_alpha 90.000000
_cell_angle_beta 90.000000
_cell_angle_gamma 90.000000
_cell_volume 1418.458528
_symmetry_space_group_name_H-M "P N A 21"
_symmetry_group_IT_number 33
_symmetry_cell_setting 'orthorhombic'
loop_
_space_group_symop_operation_xyz
x,y,z
-x,-y,1/2+z
1/2-x,1/2+y,1/2+z
1/2+x,1/2-y,z
loop_
_atom_site_type_symbol
_atom_site_label
_atom_site_fract_x
_atom_site_fract_y
_atom_site_fract_z
Si Si1 0.633552 0.260173 0.513140
Si Si2 0.238882 0.213563 0.638885
Si Si3 0.369358 0.438376 0.841053
Si Si4 0.226680 0.880813 0.630641
Si Si5 0.449605 0.682782 0.421268
Si Si6 0.424389 0.381506 0.352389
Si Si7 0.932953 0.569092 0.828591
Si Si8 0.981302 0.333846 0.580643
O O1 0.685196 0.260364 0.598691
O O2 0.631806 0.391479 0.308802
O O3 0.594720 0.293120 0.731801
O O4 0.617168 0.106356 0.422220
O O5 0.266534 0.301707 0.412974
O O6 0.245209 0.042981 0.637978
O O7 0.248801 0.279957 0.922214
O O8 0.382588 0.367689 0.563288
O O9 0.323386 0.396022 0.996310
O O10 0.407360 0.406796 0.059135
O O11 0.449378 0.518298 0.470564
O O12 0.444374 0.792351 0.657408
O O13 0.495784 0.723254 0.274399
O O14 0.459218 0.254101 0.348631
O O15 0.939565 0.426836 0.677195
O O16 0.975133 0.566087 0.031800
#
# Coordination Sequence:
#
# PCOD9345654 Si02
#       8
#     4   4   4   4   4   4   4   4
#     4   9  22  40  67  91 121 179 217 260 316 415
#     4  11  24  45  73 104 136 179 226 277 347 411
#     4  10  22  44  66  93 132 167 217 267 333 383
#     4  11  24  45  72 102 140 177 221 282 345 412
#     4  10  22  39  63  86 127 165 226 260 316 384
#     4  11  24  40  66  96 121 174 223 269 315 386
#     4  11  21  42  57  89 128 171 216 259 331 382
#     4  11  25  37  62  91 129 172 210 278 323 377
#
# _framework density 22.559701
#
# number of rings (size 3 to 8) (size 9 to 14) (size 15 to 20)
#    0.000    1.500    2.500    1.500    5.250    2.000 
#    6.750    0.000    0.000    0.000    0.000    0.000 
#    0.000    0.000    0.000    0.000    0.000    0.000 
#
# Total GULP energy -178493.662917 kJ/mol
# GULP energy per Si atom -5577.926966 kJ/mol
# Density = 2.250835 g / cm^3
# Si number density = 22.559701 Si / 1000 Ang^3
#
#
#
# Elastic Constant Matrix: (Units=GPa)
#
#
# Indices 1 2 3 4 5 6 
#
# 1 33.4593 17.6469 -3.1391 0.0000 0.0000 0.0000
# 2 17.6469 81.8652 2.3785 0.0000 0.0000 0.0000
# 3 -3.1391 2.3785 51.5406 0.0000 0.0000 0.0000
# 4 0.0000 0.0000 0.0000 26.2723 0.0000 0.0000
# 5 0.0000 0.0000 0.0000 0.0000 28.6408 0.0000
# 6 0.0000 0.0000 0.0000 0.0000 0.0000 19.4896
#
#
#
# Elastic Compliance Matrix: (Units=1/GPa)
#
#
# Indices 1 2 3 4 5 6 
#
# 1 0.034018 -0.007403 0.002414 0.000000 0.000000 0.000000
# 2 -0.007403 0.013843 -0.001090 0.000000 0.000000 0.000000
# 3 0.002414 -0.001090 0.019599 0.000000 0.000000 0.000000
# 4 0.000000 0.000000 0.000000 0.038063 0.000000 0.000000
# 5 0.000000 0.000000 0.000000 0.000000 0.034915 0.000000
# 6 0.000000 0.000000 0.000000 0.000000 0.000000 0.051309
#
#
# Mechanical properties :
#
#
# Convention : Reuss Voigt Hill
#
# Bulk Modulus (GPa) = 18.08264 22.29307 20.18785
# Shear Modulus (GPa) = 22.48809 24.87913 23.68361
#
# Velocity S-wave (km/s) = 3.16068 3.32447 3.24361
# Velocity P-wave (km/s) = 4.62090 4.96380 4.79542
#
# Compressibility (1/GPa) = 0.05530167
#
# Stress axis : x y z
#
# Youngs Moduli (GPa) = 29.39625 72.24044 51.02178
#
# Poissons Ratio (x) = 0.53480 -0.12314
# Poissons Ratio (y) = 0.21762 0.05560
# Poissons Ratio (z) = -0.07095 0.07872
#
# Static dielectric constant tensor:
#      x y z
#    x 1.865790 0.000000 0.000000 
#    y 0.000000 1.852710 0.000000 
#    z 0.000000 0.000000 1.920500 
# 
# From -- ./inp_files/2552.got.cif
#   From: 2010.05.17/outbox.cif.g08.bks.cpg/sg33_2_cif.got.tgz:2552.got - 2010.06.03 17:15:25.
