data_PCOD9345800
_publ_section_title
;
Structure prediction by ZEFSAII (Michael W. Deem and Ramdas Pophale) SiO2 
 PCOD9345800
Probable space group: P N A 21
;
_chemical_formula_sum "Si O2"
_cell_formula_units_Z 24
_cell_length_a 17.921507
_cell_length_b 7.429276
_cell_length_c 8.287686
_cell_angle_alpha 90.000000
_cell_angle_beta 90.000000
_cell_angle_gamma 90.000000
_cell_volume 1103.454188
_symmetry_space_group_name_H-M "P N A 21"
_symmetry_group_IT_number 33
_symmetry_cell_setting 'orthorhombic'
loop_
_space_group_symop_operation_xyz
x,y,z
-x,-y,1/2+z
1/2-x,1/2+y,1/2+z
1/2+x,1/2-y,z
loop_
_atom_site_type_symbol
_atom_site_label
_atom_site_fract_x
_atom_site_fract_y
_atom_site_fract_z
Si Si1 0.222441 0.934554 0.521480
Si Si2 0.233106 0.537285 0.390760
Si Si3 0.951220 0.053705 0.948506
Si Si4 0.923395 0.399492 0.753678
Si Si5 0.168276 0.710984 0.938276
Si Si6 0.477523 0.245676 0.260579
O O1 0.244643 0.729982 0.476383
O O2 0.240231 0.003160 0.703851
O O3 0.136108 0.966489 0.485314
O O4 0.271733 0.057965 0.403902
O O5 0.142852 0.528364 0.372746
O O6 0.282379 0.386251 0.480199
O O7 0.955433 0.210809 0.815327
O O8 0.991896 0.140492 0.100659
O O9 0.986149 0.865173 0.900273
O O10 0.883130 0.358303 0.584696
O O11 0.986046 0.551119 0.745261
O O12 0.110810 0.738572 0.792995
#
# Coordination Sequence:
#
# PCOD9345800 Si02
#       6
#     4   4   4   4   4   4
#     4  10  23  44  66 100 135 178 227 284 340 407
#     4  10  22  42  68  97 134 175 230 281 343 407
#     4  11  24  45  66  99 139 176 223 276 342 399
#     4  10  24  43  64  99 134 175 221 282 337 405
#     4  11  23  42  69  99 130 181 226 280 340 405
#     4  12  24  42  67 100 136 179 221 275 338 405
#
# _framework density 21.749884000000002
#
# number of rings (size 3 to 8) (size 9 to 14) (size 15 to 20)
#    0.000    1.333    1.667    3.000    0.000   10.667 
#    6.000    0.000    0.000    0.000    0.000    0.000 
#    0.000    0.000    0.000    0.000    0.000    0.000 
#
# Total GULP energy -134054.299458 kJ/mol
# GULP energy per Si atom -5585.595811 kJ/mol
# Density = 2.170038 g / cm^3
# Si number density = 21.749884 Si / 1000 Ang^3
#
#
#
# Elastic Constant Matrix: (Units=GPa)
#
#
# Indices 1 2 3 4 5 6 
#
# 1 62.9712 41.1040 -4.5929 0.0000 0.0000 0.0000
# 2 41.1040 82.8897 0.6654 0.0000 0.0000 0.0000
# 3 -4.5929 0.6654 45.1539 0.0000 0.0000 0.0000
# 4 0.0000 0.0000 0.0000 32.8919 0.0000 0.0000
# 5 0.0000 0.0000 0.0000 0.0000 17.1346 0.0000
# 6 0.0000 0.0000 0.0000 0.0000 0.0000 43.2445
#
#
#
# Elastic Compliance Matrix: (Units=1/GPa)
#
#
# Indices 1 2 3 4 5 6 
#
# 1 0.023780 -0.011813 0.002593 0.000000 0.000000 0.000000
# 2 -0.011813 0.017934 -0.001466 0.000000 0.000000 0.000000
# 3 0.002593 -0.001466 0.022432 0.000000 0.000000 0.000000
# 4 0.000000 0.000000 0.000000 0.030403 0.000000 0.000000
# 5 0.000000 0.000000 0.000000 0.000000 0.058361 0.000000
# 6 0.000000 0.000000 0.000000 0.000000 0.000000 0.023124
#
#
# Mechanical properties :
#
#
# Convention : Reuss Voigt Hill
#
# Bulk Modulus (GPa) = 23.37871 29.48530 26.43201
# Shear Modulus (GPa) = 23.62223 28.91009 26.26616
#
# Velocity S-wave (km/s) = 3.29916 3.64978 3.47889
# Velocity P-wave (km/s) = 5.02840 5.59886 5.32128
#
# Compressibility (1/GPa) = 0.04277396
#
# Stress axis : x y z
#
# Youngs Moduli (GPa) = 42.05137 55.75981 44.57950
#
# Poissons Ratio (x) = 0.65871 -0.11559
# Poissons Ratio (y) = 0.49676 0.06535
# Poissons Ratio (z) = -0.10904 0.08174
#
# Static dielectric constant tensor:
#      x y z
#    x 1.773080 0.000000 0.000000 
#    y 0.000000 1.773590 0.000000 
#    z 0.000000 0.000000 1.914190 
# 
# From -- ./inp_files/4621.got.cif
#   From: 2010.05.17/outbox.cif.g08.bks.cpg/sg33_3_cif.got.tgz:4621.got - 2010.06.03 17:15:25.
