data_PCOD9345927
_publ_section_title
;
Structure prediction by ZEFSAII (Michael W. Deem and Ramdas Pophale) SiO2 
 PCOD9345927
Probable space group: P N A 21
;
_chemical_formula_sum "Si O2"
_cell_formula_units_Z 28
_cell_length_a 17.389275
_cell_length_b 7.323660
_cell_length_c 9.297198
_cell_angle_alpha 90.000000
_cell_angle_beta 90.000000
_cell_angle_gamma 90.000000
_cell_volume 1184.027338
_symmetry_space_group_name_H-M "P N A 21"
_symmetry_group_IT_number 33
_symmetry_cell_setting 'orthorhombic'
loop_
_space_group_symop_operation_xyz
x,y,z
-x,-y,1/2+z
1/2-x,1/2+y,1/2+z
1/2+x,1/2-y,z
loop_
_atom_site_type_symbol
_atom_site_label
_atom_site_fract_x
_atom_site_fract_y
_atom_site_fract_z
Si Si1 0.613531 0.958345 0.718830
Si Si2 0.740833 0.440073 0.009745
Si Si3 0.495029 0.276355 0.662993
Si Si4 0.141916 0.204883 0.259829
Si Si5 0.720004 0.853775 0.952907
Si Si6 0.165963 0.625124 0.260941
Si Si7 0.470868 0.389496 0.327282
O O1 0.685844 0.979106 0.612785
O O2 0.652776 0.969647 0.876947
O O3 0.579240 0.754959 0.736765
O O4 0.545672 0.091022 0.667442
O O5 0.677956 0.341766 0.105989
O O6 0.708550 0.630707 0.944540
O O7 0.778000 0.315453 0.887409
O O8 0.410760 0.237657 0.730186
O O9 0.478059 0.347440 0.499253
O O10 0.544720 0.408487 0.767555
O O11 0.199587 0.116165 0.374970
O O12 0.140053 0.419199 0.293194
O O13 0.057309 0.134826 0.271760
O O14 0.717559 0.888683 0.119857
#
# Coordination Sequence:
#
# PCOD9345927 Si02
#       7
#     4   4   4   4   4   4   4
#     4  11  25  49  74 106 152 194 247 309 384 450
#     4  10  24  45  72 105 146 196 252 307 376 454
#     4  12  27  45  74 108 151 201 249 321 379 456
#     4  10  23  45  69  99 146 194 246 314 371 450
#     4  10  22  45  68 102 141 191 248 299 371 454
#     4  11  22  43  71 100 144 193 246 310 374 444
#     4  12  27  48  74 110 152 197 262 310 387 458
#
# _framework density 23.648102999999999
#
# number of rings (size 3 to 8) (size 9 to 14) (size 15 to 20)
#    0.000    1.143    2.857    2.571    2.000    4.571 
#   12.857    0.000    0.000    0.000    0.000    0.000 
#    0.000    0.000    0.000    0.000    0.000    0.000 
#
# Total GULP energy -156504.940040 kJ/mol
# GULP energy per Si atom -5589.462144 kJ/mol
# Density = 2.359428 g / cm^3
# Si number density = 23.648103 Si / 1000 Ang^3
#
#
#
# Elastic Constant Matrix: (Units=GPa)
#
#
# Indices 1 2 3 4 5 6 
#
# 1 75.1894 -0.7173 22.3208 0.0000 0.0000 0.0000
# 2 -0.7173 74.3801 19.7916 0.0000 0.0000 0.0000
# 3 22.3208 19.7916 123.5763 0.0000 0.0000 0.0000
# 4 0.0000 0.0000 0.0000 25.7896 0.0000 0.0000
# 5 0.0000 0.0000 0.0000 0.0000 24.7416 0.0000
# 6 0.0000 0.0000 0.0000 0.0000 0.0000 28.3307
#
#
#
# Elastic Compliance Matrix: (Units=1/GPa)
#
#
# Indices 1 2 3 4 5 6 
#
# 1 0.014105 0.000850 -0.002684 0.000000 0.000000 0.000000
# 2 0.000850 0.014094 -0.002411 0.000000 0.000000 0.000000
# 3 -0.002684 -0.002411 0.008963 0.000000 0.000000 0.000000
# 4 0.000000 0.000000 0.000000 0.038775 0.000000 0.000000
# 5 0.000000 0.000000 0.000000 0.000000 0.040418 0.000000
# 6 0.000000 0.000000 0.000000 0.000000 0.000000 0.035297
#
#
# Mechanical properties :
#
#
# Convention : Reuss Voigt Hill
#
# Bulk Modulus (GPa) = 34.87624 39.54844 37.21234
# Shear Modulus (GPa) = 29.46396 31.22241 30.34318
#
# Velocity S-wave (km/s) = 3.53361 3.63752 3.58594
# Velocity P-wave (km/s) = 5.60612 5.86533 5.73719
#
# Compressibility (1/GPa) = 0.02867282
#
# Stress axis : x y z
#
# Youngs Moduli (GPa) = 70.89904 70.95144 111.56936
#
# Poissons Ratio (x) = -0.06032 0.29943
# Poissons Ratio (y) = -0.06027 0.26898
# Poissons Ratio (z) = 0.19028 0.17105
#
# Static dielectric constant tensor:
#      x y z
#    x 1.893460 0.000000 0.000000 
#    y 0.000000 2.058630 0.000000 
#    z 0.000000 0.000000 1.901880 
# 
# From -- ./inp_files/4695.got.cif
#   From: 2010.05.17/outbox.cif.g08.bks.cpg/sg33_3_cif.got.tgz:4695.got - 2010.06.03 17:15:25.
