data_PCOD9345202
_publ_section_title
;
Structure prediction by ZEFSAII (Michael W. Deem and Ramdas Pophale) SiO2 
 PCOD9345202
Probable space group: P N A 21
;
_chemical_formula_sum "Si O2"
_cell_formula_units_Z 28
_cell_length_a 20.748217
_cell_length_b 11.049526
_cell_length_c 4.922517
_cell_angle_alpha 90.000000
_cell_angle_beta 90.000000
_cell_angle_gamma 90.000000
_cell_volume 1128.526221
_symmetry_space_group_name_H-M "P N A 21"
_symmetry_group_IT_number 33
_symmetry_cell_setting 'orthorhombic'
loop_
_space_group_symop_operation_xyz
x,y,z
-x,-y,1/2+z
1/2-x,1/2+y,1/2+z
1/2+x,1/2-y,z
loop_
_atom_site_type_symbol
_atom_site_label
_atom_site_fract_x
_atom_site_fract_y
_atom_site_fract_z
Si Si1 0.186479 0.532900 0.587010
Si Si2 0.568715 0.914267 0.271358
Si Si3 0.483753 0.422401 0.181128
Si Si4 0.155493 0.951100 0.507191
Si Si5 0.993252 0.664816 0.768261
Si Si6 0.826387 0.888077 0.521301
Si Si7 0.298758 0.876221 0.576171
O O1 0.135617 0.611213 0.418687
O O2 0.252232 0.604793 0.619488
O O3 0.201356 0.419942 0.386460
O O4 0.169682 0.477764 0.879479
O O5 0.514457 0.852504 0.457858
O O6 0.558324 0.058925 0.315092
O O7 0.551785 0.870737 0.971380
O O8 0.486763 0.528635 0.401856
O O9 0.409286 0.388216 0.115556
O O10 0.520142 0.305745 0.300848
O O11 0.222464 0.876461 0.491121
O O12 0.140135 0.016279 0.222196
O O13 0.169159 0.059519 0.720131
O O14 0.838718 0.746180 0.536742
#
# Coordination Sequence:
#
# PCOD9345202 Si02
#       7
#     4   4   4   4   4   4   4
#     4  10  21  36  60  93 120 157 212 251 312 386
#     4  10  21  41  64  93 122 161 212 269 320 366
#     4  12  26  44  65  95 127 176 220 255 319 387
#     4  10  23  41  59  91 127 158 211 258 304 378
#     4  10  23  41  63  92 127 163 214 265 315 370
#     4  10  21  39  60  90 126 166 201 257 318 379
#     4  10  21  38  59  90 123 159 202 251 320 368
#
# _framework density 24.811118
#
# number of rings (size 3 to 8) (size 9 to 14) (size 15 to 20)
#    0.000    1.714    0.000    3.429    2.000    3.429 
#    5.143    0.000    0.000    0.000    0.000    0.000 
#    0.000    0.000    0.000    0.000    0.000    0.000 
#
# Total GULP energy -156571.813675 kJ/mol
# GULP energy per Si atom -5591.850488 kJ/mol
# Density = 2.475465 g / cm^3
# Si number density = 24.811118 Si / 1000 Ang^3
#
#
#
# Elastic Constant Matrix: (Units=GPa)
#
#
# Indices 1 2 3 4 5 6 
#
# 1 78.4734 3.3185 -1.3095 0.0000 0.0000 0.0000
# 2 3.3185 81.6081 6.5228 0.0000 0.0000 0.0000
# 3 -1.3095 6.5228 107.0276 0.0000 0.0000 0.0000
# 4 0.0000 0.0000 0.0000 21.2919 0.0000 0.0000
# 5 0.0000 0.0000 0.0000 0.0000 34.7687 0.0000
# 6 0.0000 0.0000 0.0000 0.0000 0.0000 23.2155
#
#
#
# Elastic Compliance Matrix: (Units=1/GPa)
#
#
# Indices 1 2 3 4 5 6 
#
# 1 0.012769 -0.000534 0.000189 0.000000 0.000000 0.000000
# 2 -0.000534 0.012336 -0.000758 0.000000 0.000000 0.000000
# 3 0.000189 -0.000758 0.009392 0.000000 0.000000 0.000000
# 4 0.000000 0.000000 0.000000 0.046966 0.000000 0.000000
# 5 0.000000 0.000000 0.000000 0.000000 0.028762 0.000000
# 6 0.000000 0.000000 0.000000 0.000000 0.000000 0.043075
#
#
# Mechanical properties :
#
#
# Convention : Reuss Voigt Hill
#
# Bulk Modulus (GPa) = 30.97021 31.57474 31.27247
# Shear Modulus (GPa) = 30.07157 33.09372 31.58264
#
# Velocity S-wave (km/s) = 3.48518 3.65612 3.57168
# Velocity P-wave (km/s) = 5.35769 5.52961 5.44433
#
# Compressibility (1/GPa) = 0.03228909
#
# Stress axis : x y z
#
# Youngs Moduli (GPa) = 78.31517 81.06337 106.47461
#
# Poissons Ratio (x) = 0.04331 -0.02010
# Poissons Ratio (y) = 0.04185 0.08075
# Poissons Ratio (z) = -0.01479 0.06147
#
# Static dielectric constant tensor:
#      x y z
#    x 2.031900 0.000000 0.000000 
#    y 0.000000 1.941300 0.000000 
#    z 0.000000 0.000000 1.859950 
# 
# From -- ./inp_files/1995.got.cif
#   From: 2010.05.17/outbox.cif.g08.bks.cpg/sg33_1_cif.got.tgz:1995.got - 2010.06.03 17:15:25.
