data_PCOD9345048
_publ_section_title
;
Structure prediction by ZEFSAII (Michael W. Deem and Ramdas Pophale) SiO2 
 PCOD9345048
Probable space group: P N A 21
;
_chemical_formula_sum "Si O2"
_cell_formula_units_Z 32
_cell_length_a 13.561820
_cell_length_b 5.016448
_cell_length_c 19.150551
_cell_angle_alpha 90.000000
_cell_angle_beta 90.000000
_cell_angle_gamma 90.000000
_cell_volume 1302.853442
_symmetry_space_group_name_H-M "P N A 21"
_symmetry_group_IT_number 33
_symmetry_cell_setting 'orthorhombic'
loop_
_space_group_symop_operation_xyz
x,y,z
-x,-y,1/2+z
1/2-x,1/2+y,1/2+z
1/2+x,1/2-y,z
loop_
_atom_site_type_symbol
_atom_site_label
_atom_site_fract_x
_atom_site_fract_y
_atom_site_fract_z
Si Si1 0.120401 0.879735 0.084590
Si Si2 0.254693 0.383614 0.107221
Si Si3 0.336306 0.506770 0.440118
Si Si4 0.076034 0.680610 0.826169
Si Si5 0.258791 0.794555 0.760280
Si Si6 0.959216 0.983551 0.720278
Si Si7 0.202570 0.999904 0.458005
Si Si8 0.906078 0.334628 0.843532
O O1 0.162435 0.586670 0.098827
O O2 0.035862 0.942431 0.140116
O O3 0.212453 0.085748 0.095263
O O4 0.094225 0.927531 0.004743
O O5 0.286735 0.414348 0.188257
O O6 0.322650 0.454576 0.040133
O O7 0.394099 0.442304 0.370174
O O8 0.297183 0.804670 0.446717
O O9 0.242940 0.299980 0.447653
O O10 0.185229 0.597269 0.801628
O O11 0.993053 0.528472 0.870119
O O12 0.027965 0.763649 0.753118
O O13 0.349275 0.624800 0.732197
O O14 0.311100 0.008688 0.811782
O O15 0.960776 0.221938 0.774890
O O16 0.127075 0.885361 0.400121
#
# Coordination Sequence:
#
# PCOD9345048 Si02
#       8
#     4   4   4   4   4   4   4   4
#     4   9  18  37  63  86 118 161 208 253 318 368
#     4   9  18  36  63  90 112 163 213 253 310 384
#     4  10  21  39  64  90 120 169 209 257 316 390
#     4  11  24  37  59  96 126 164 215 259 328 386
#     4  10  20  40  62  85 125 167 211 263 322 386
#     4  10  22  38  61  90 124 165 211 267 314 379
#     4  10  21  38  65  89 121 164 213 258 320 376
#     4  11  22  37  61  88 128 165 208 274 314 381
#
# _framework density 24.561474
#
# number of rings (size 3 to 8) (size 9 to 14) (size 15 to 20)
#    0.000    2.000    2.500    0.750    3.500    1.000 
#    0.000    2.500    0.000    0.000    0.000    0.000 
#    0.000    0.000    0.000    0.000    0.000    0.000 
#
# Total GULP energy -178493.959732 kJ/mol
# GULP energy per Si atom -5577.936242 kJ/mol
# Density = 2.450557 g / cm^3
# Si number density = 24.561474 Si / 1000 Ang^3
#
#
#
# Elastic Constant Matrix: (Units=GPa)
#
#
# Indices 1 2 3 4 5 6 
#
# 1 69.7181 7.1364 18.5928 0.0000 0.0000 0.0000
# 2 7.1364 71.8015 -3.6779 0.0000 0.0000 0.0000
# 3 18.5928 -3.6779 102.8501 0.0000 0.0000 0.0000
# 4 0.0000 0.0000 0.0000 31.8961 0.0000 0.0000
# 5 0.0000 0.0000 0.0000 0.0000 29.7121 0.0000
# 6 0.0000 0.0000 0.0000 0.0000 0.0000 13.5815
#
#
#
# Elastic Compliance Matrix: (Units=1/GPa)
#
#
# Indices 1 2 3 4 5 6 
#
# 1 0.015265 -0.001662 -0.002819 0.000000 0.000000 0.000000
# 2 -0.001662 0.014134 0.000806 0.000000 0.000000 0.000000
# 3 -0.002819 0.000806 0.010261 0.000000 0.000000 0.000000
# 4 0.000000 0.000000 0.000000 0.031352 0.000000 0.000000
# 5 0.000000 0.000000 0.000000 0.000000 0.033656 0.000000
# 6 0.000000 0.000000 0.000000 0.000000 0.000000 0.073630
#
#
# Mechanical properties :
#
#
# Convention : Reuss Voigt Hill
#
# Bulk Modulus (GPa) = 30.94953 32.05247 31.50100
# Shear Modulus (GPa) = 25.45589 29.85916 27.65753
#
# Velocity S-wave (km/s) = 3.22283 3.49046 3.35931
# Velocity P-wave (km/s) = 5.14559 5.41504 5.28203
#
# Compressibility (1/GPa) = 0.03231067
#
# Stress axis : x y z
#
# Youngs Moduli (GPa) = 65.50783 70.75277 97.45339
#
# Poissons Ratio (x) = 0.11757 0.27472
# Poissons Ratio (y) = 0.10885 -0.07853
# Poissons Ratio (z) = 0.18467 -0.05701
#
# Static dielectric constant tensor:
#      x y z
#    x 1.990710 0.000000 0.000000 
#    y 0.000000 2.007890 0.000000 
#    z 0.000000 0.000000 2.101020 
# 
# From -- ./inp_files/8795.got.cif
#   From: 2010.05.17/outbox.cif.g08.bks.cpg/sg33_5_cif.got.tgz:8795.got - 2010.06.03 17:15:25.
