data_PCOD9345878
_publ_section_title
;
Structure prediction by ZEFSAII (Michael W. Deem and Ramdas Pophale) SiO2 
 PCOD9345878
Probable space group: P N A 21
;
_chemical_formula_sum "Si O2"
_cell_formula_units_Z 24
_cell_length_a 14.691863
_cell_length_b 12.562018
_cell_length_c 5.145988
_cell_angle_alpha 90.000000
_cell_angle_beta 90.000000
_cell_angle_gamma 90.000000
_cell_volume 949.740702
_symmetry_space_group_name_H-M "P N A 21"
_symmetry_group_IT_number 33
_symmetry_cell_setting 'orthorhombic'
loop_
_space_group_symop_operation_xyz
x,y,z
-x,-y,1/2+z
1/2-x,1/2+y,1/2+z
1/2+x,1/2-y,z
loop_
_atom_site_type_symbol
_atom_site_label
_atom_site_fract_x
_atom_site_fract_y
_atom_site_fract_z
Si Si1 0.325636 0.201608 0.618740
Si Si2 0.083051 0.897816 0.163569
Si Si3 0.915930 0.889040 0.454704
Si Si4 0.000391 0.427386 0.754935
Si Si5 0.171505 0.308275 0.987385
Si Si6 0.223899 0.003289 0.562101
O O1 0.370659 0.306509 0.486426
O O2 0.407476 0.141585 0.768304
O O3 0.249570 0.253139 0.809224
O O4 0.280855 0.104945 0.457934
O O5 0.160194 0.947608 0.350044
O O6 0.997808 0.839843 0.292383
O O7 0.038490 0.007383 0.073060
O O8 0.875263 0.793597 0.625787
O O9 0.836982 0.945670 0.287237
O O10 0.093078 0.363297 0.814984
O O11 0.004832 0.480118 0.471223
O O12 0.211815 0.405996 0.151218
#
# Coordination Sequence:
#
# PCOD9345878 Si02
#       6
#     4   4   4   4   4   4
#     4  10  23  45  68 103 141 180 246 297 364 429
#     4  11  22  40  65  95 138 179 232 282 360 430
#     4  11  22  40  65  95 138 179 232 282 360 430
#     4  12  26  52  78 108 150 200 250 306 376 446
#     4  10  23  45  68 103 141 180 246 297 364 429
#     4  10  22  44  64  98 130 180 238 296 358 424
#
# _framework density 25.270056
#
# number of rings (size 3 to 8) (size 9 to 14) (size 15 to 20)
#    0.000    1.333    5.000    0.000    0.000    6.667 
#   15.000    0.000    0.000    0.000    0.000    0.000 
#    0.000    0.000    0.000    0.000    0.000    0.000 
#
# Total GULP energy -133801.076204 kJ/mol
# GULP energy per Si atom -5575.044842 kJ/mol
# Density = 2.521254 g / cm^3
# Si number density = 25.270056 Si / 1000 Ang^3
#
#
#
# Elastic Constant Matrix: (Units=GPa)
#
#
# Indices 1 2 3 4 5 6 
#
# 1 127.5638 56.0628 3.4554 0.0000 0.0000 0.0000
# 2 56.0628 178.7159 1.2090 0.0000 0.0000 0.0000
# 3 3.4554 1.2090 15.1317 0.0000 0.0000 0.0000
# 4 0.0000 0.0000 0.0000 16.7896 0.0000 0.0000
# 5 0.0000 0.0000 0.0000 0.0000 30.9730 0.0000
# 6 0.0000 0.0000 0.0000 0.0000 0.0000 36.8591
#
#
#
# Elastic Compliance Matrix: (Units=1/GPa)
#
#
# Indices 1 2 3 4 5 6 
#
# 1 0.009145 -0.002856 -0.001860 0.000000 0.000000 0.000000
# 2 -0.002856 0.006491 0.000134 0.000000 0.000000 0.000000
# 3 -0.001860 0.000134 0.066500 0.000000 0.000000 0.000000
# 4 0.000000 0.000000 0.000000 0.059561 0.000000 0.000000
# 5 0.000000 0.000000 0.000000 0.000000 0.032286 0.000000
# 6 0.000000 0.000000 0.000000 0.000000 0.000000 0.027130
#
#
# Mechanical properties :
#
#
# Convention : Reuss Voigt Hill
#
# Bulk Modulus (GPa) = 13.70413 49.20731 31.45572
# Shear Modulus (GPa) = 21.31273 34.30330 27.80801
#
# Velocity S-wave (km/s) = 2.90728 3.68838 3.32088
# Velocity P-wave (km/s) = 4.08712 6.13626 5.21336
#
# Compressibility (1/GPa) = 0.07297072
#
# Stress axis : x y z
#
# Youngs Moduli (GPa) = 109.35140 154.07062 15.03748
#
# Poissons Ratio (x) = 0.44005 0.02797
# Poissons Ratio (y) = 0.31232 -0.00201
# Poissons Ratio (z) = 0.20340 -0.02058
#
# Static dielectric constant tensor:
#      x y z
#    x 2.062130 0.000000 0.000000 
#    y 0.000000 2.009360 0.000000 
#    z 0.000000 0.000000 2.327680 
# 
# From -- ./inp_files/1275.got.cif
#   From: 2010.05.17/outbox.cif.g08.bks.cpg/sg33_1_cif.got.tgz:1275.got - 2010.06.03 17:15:25.
