data_PCOD9345333
_publ_section_title
;
Structure prediction by ZEFSAII (Michael W. Deem and Ramdas Pophale) SiO2 
 PCOD9345333
Probable space group: P N A 21
;
_chemical_formula_sum "Si O2"
_cell_formula_units_Z 32
_cell_length_a 31.368691
_cell_length_b 5.323988
_cell_length_c 8.623671
_cell_angle_alpha 90.000000
_cell_angle_beta 90.000000
_cell_angle_gamma 90.000000
_cell_volume 1440.209408
_symmetry_space_group_name_H-M "P N A 21"
_symmetry_group_IT_number 33
_symmetry_cell_setting 'orthorhombic'
loop_
_space_group_symop_operation_xyz
x,y,z
-x,-y,1/2+z
1/2-x,1/2+y,1/2+z
1/2+x,1/2-y,z
loop_
_atom_site_type_symbol
_atom_site_label
_atom_site_fract_x
_atom_site_fract_y
_atom_site_fract_z
Si Si1 0.019151 0.782535 0.847880
Si Si2 0.256616 0.695524 0.691509
Si Si3 0.851323 0.655655 0.604744
Si Si4 0.376959 0.756211 0.946369
Si Si5 0.282716 0.684068 0.051178
Si Si6 0.541042 0.027347 0.573735
Si Si7 0.445876 0.372395 0.815074
Si Si8 0.397591 0.325268 0.516319
O O1 0.026759 0.539339 0.743672
O O2 0.985244 0.956644 0.761027
O O3 0.066882 0.870160 0.884399
O O4 0.991148 0.721616 0.997771
O O5 0.228845 0.941043 0.652692
O O6 0.301900 0.765054 0.610958
O O7 0.264679 0.660803 0.875195
O O8 0.236264 0.440480 0.623541
O O9 0.863314 0.605061 0.786455
O O10 0.864365 0.407686 0.506337
O O11 0.875970 0.906557 0.549676
O O12 0.333641 0.693685 0.032668
O O13 0.405869 0.528179 0.883821
O O14 0.409769 0.897615 0.057740
O O15 0.538060 0.794302 0.456001
O O16 0.426360 0.242025 0.664420
#
# Coordination Sequence:
#
# PCOD9345333 Si02
#       8
#     4   4   4   4   4   4   4   4
#     4  11  25  37  61  93 129 176 216 281 327 393
#     4  11  24  45  72 103 140 180 231 286 350 421
#     4  10  22  43  69  92 130 173 224 265 338 407
#     4   9  22  40  65  95 125 179 217 273 328 415
#     4  11  24  45  73 104 139 184 229 284 353 420
#     4  11  22  42  61  91 131 170 227 269 333 391
#     4  10  21  39  64  88 126 170 230 265 327 391
#     4  11  22  41  65  94 124 174 222 273 324 398
#
# _framework density 22.218990999999999
#
# number of rings (size 3 to 8) (size 9 to 14) (size 15 to 20)
#    0.000    1.500    1.250    3.000    7.000    3.000 
#    6.750    0.000    0.000    0.000    0.000    0.000 
#    0.000    0.000    0.000    0.000    0.000    0.000 
#
# Total GULP energy -178650.081314 kJ/mol
# GULP energy per Si atom -5582.815041 kJ/mol
# Density = 2.216842 g / cm^3
# Si number density = 22.218991 Si / 1000 Ang^3
#
#
#
# Elastic Constant Matrix: (Units=GPa)
#
#
# Indices 1 2 3 4 5 6 
#
# 1 84.8723 13.0981 32.0962 0.0000 0.0000 0.0000
# 2 13.0981 58.3299 14.3454 0.0000 0.0000 0.0000
# 3 32.0962 14.3454 39.9602 0.0000 0.0000 0.0000
# 4 0.0000 0.0000 0.0000 28.4432 0.0000 0.0000
# 5 0.0000 0.0000 0.0000 0.0000 14.2500 0.0000
# 6 0.0000 0.0000 0.0000 0.0000 0.0000 22.0625
#
#
#
# Elastic Compliance Matrix: (Units=1/GPa)
#
#
# Indices 1 2 3 4 5 6 
#
# 1 0.016936 -0.000502 -0.013423 0.000000 0.000000 0.000000
# 2 -0.000502 0.018819 -0.006353 0.000000 0.000000 0.000000
# 3 -0.013423 -0.006353 0.038087 0.000000 0.000000 0.000000
# 4 0.000000 0.000000 0.000000 0.035158 0.000000 0.000000
# 5 0.000000 0.000000 0.000000 0.000000 0.070175 0.000000
# 6 0.000000 0.000000 0.000000 0.000000 0.000000 0.045326
#
#
# Mechanical properties :
#
#
# Convention : Reuss Voigt Hill
#
# Bulk Modulus (GPa) = 30.04202 33.58243 31.81222
# Shear Modulus (GPa) = 18.10602 21.19267 19.64934
#
# Velocity S-wave (km/s) = 2.85772 3.09173 2.97703
# Velocity P-wave (km/s) = 4.94358 5.28130 5.11523
#
# Compressibility (1/GPa) = 0.03328671
#
# Stress axis : x y z
#
# Youngs Moduli (GPa) = 59.04585 53.13796 26.25580
#
# Poissons Ratio (x) = 0.02667 0.35243
# Poissons Ratio (y) = 0.02963 0.16680
# Poissons Ratio (z) = 0.79257 0.33757
#
# Static dielectric constant tensor:
#      x y z
#    x 1.803510 0.000000 0.000000 
#    y 0.000000 1.867440 0.000000 
#    z 0.000000 0.000000 1.832810 
# 
# From -- ./inp_files/5353.got.cif
#   From: 2010.05.17/outbox.cif.g08.bks.cpg/sg33_3_cif.got.tgz:5353.got - 2010.06.03 17:15:25.
