data_PCOD9345606
_publ_section_title
;
Structure prediction by ZEFSAII (Michael W. Deem and Ramdas Pophale) SiO2 
 PCOD9345606
Probable space group: P N A 21
;
_chemical_formula_sum "Si O2"
_cell_formula_units_Z 32
_cell_length_a 18.268323
_cell_length_b 16.732133
_cell_length_c 5.140102
_cell_angle_alpha 90.000000
_cell_angle_beta 90.000000
_cell_angle_gamma 90.000000
_cell_volume 1571.164750
_symmetry_space_group_name_H-M "P N A 21"
_symmetry_group_IT_number 33
_symmetry_cell_setting 'orthorhombic'
loop_
_space_group_symop_operation_xyz
x,y,z
-x,-y,1/2+z
1/2-x,1/2+y,1/2+z
1/2+x,1/2-y,z
loop_
_atom_site_type_symbol
_atom_site_label
_atom_site_fract_x
_atom_site_fract_y
_atom_site_fract_z
Si Si1 0.228879 0.403325 0.387650
Si Si2 0.206967 0.980516 0.398183
Si Si3 0.669831 0.730521 0.964168
Si Si4 0.831290 0.412233 0.493521
Si Si5 0.424356 0.291391 0.983081
Si Si6 0.035876 0.617749 0.375479
Si Si7 0.585137 0.033807 0.617900
Si Si8 0.534498 0.537654 0.371086
O O1 0.272042 0.457606 0.601553
O O2 0.252232 0.313346 0.458615
O O3 0.145282 0.431247 0.418825
O O4 0.257749 0.416941 0.097325
O O5 0.120208 0.980529 0.417104
O O6 0.247404 0.059915 0.505622
O O7 0.670874 0.823090 0.878580
O O8 0.615865 0.690660 0.753952
O O9 0.634116 0.719091 0.247873
O O10 0.885240 0.398635 0.738187
O O11 0.867446 0.484913 0.331903
O O12 0.462797 0.204721 0.001007
O O13 0.473691 0.366923 0.909200
O O14 0.029738 0.538187 0.546958
O O15 0.966295 0.607816 0.191098
O O16 0.488263 0.490642 0.586020
#
# Coordination Sequence:
#
# PCOD9345606 Si02
#       8
#     4   4   4   4   4   4   4   4
#     4  11  21  38  64  90 125 163 213 260 315 375
#     4  11  22  40  63  92 118 158 213 266 307 391
#     4  11  20  39  64  91 120 166 214 266 309 379
#     4  10  22  36  63  89 123 167 216 254 324 380
#     4  11  23  40  65  92 122 168 218 263 315 393
#     4  11  21  38  61  96 132 170 214 263 321 401
#     4  11  21  36  62  94 130 175 206 263 327 384
#     4  12  24  43  68  90 124 171 214 269 334 385
#
# _framework density 20.367055000000001
#
# number of rings (size 3 to 8) (size 9 to 14) (size 15 to 20)
#    0.000    1.000    6.250    1.500    0.000    0.000 
#    2.250    0.000    5.500    0.000    0.000    0.000 
#    0.000    0.000    0.000    0.000    0.000    0.000 
#
# Total GULP energy -178326.234099 kJ/mol
# GULP energy per Si atom -5572.694816 kJ/mol
# Density = 2.032070 g / cm^3
# Si number density = 20.367055 Si / 1000 Ang^3
#
#
#
# Elastic Constant Matrix: (Units=GPa)
#
#
# Indices 1 2 3 4 5 6 
#
# 1 72.9838 14.2377 -1.7130 0.0000 0.0000 0.0000
# 2 14.2377 92.1432 -12.9835 0.0000 0.0000 0.0000
# 3 -1.7130 -12.9835 48.4787 0.0000 0.0000 0.0000
# 4 0.0000 0.0000 0.0000 25.3410 0.0000 0.0000
# 5 0.0000 0.0000 0.0000 0.0000 25.8016 0.0000
# 6 0.0000 0.0000 0.0000 0.0000 0.0000 32.4528
#
#
#
# Elastic Compliance Matrix: (Units=1/GPa)
#
#
# Indices 1 2 3 4 5 6 
#
# 1 0.014128 -0.002196 -0.000089 0.000000 0.000000 0.000000
# 2 -0.002196 0.011619 0.003034 0.000000 0.000000 0.000000
# 3 -0.000089 0.003034 0.021437 0.000000 0.000000 0.000000
# 4 0.000000 0.000000 0.000000 0.039462 0.000000 0.000000
# 5 0.000000 0.000000 0.000000 0.000000 0.038757 0.000000
# 6 0.000000 0.000000 0.000000 0.000000 0.000000 0.030814
#
#
# Mechanical properties :
#
#
# Convention : Reuss Voigt Hill
#
# Bulk Modulus (GPa) = 20.54042 23.63202 22.08622
# Shear Modulus (GPa) = 29.24908 30.99005 30.11957
#
# Velocity S-wave (km/s) = 3.79370 3.90497 3.84974
# Velocity P-wave (km/s) = 5.41263 5.65332 5.53428
#
# Compressibility (1/GPa) = 0.04868451
#
# Stress axis : x y z
#
# Youngs Moduli (GPa) = 70.78199 86.06250 46.64809
#
# Poissons Ratio (x) = 0.18895 0.00414
# Poissons Ratio (y) = 0.15540 -0.14155
# Poissons Ratio (z) = 0.00628 -0.26114
#
# Static dielectric constant tensor:
#      x y z
#    x 1.755970 0.000000 0.000000 
#    y 0.000000 1.762100 0.000000 
#    z 0.000000 0.000000 1.815370 
# 
# From -- ./inp_files/1825.got.cif
#   From: 2010.05.17/outbox.cif.g08.bks.cpg/sg33_1_cif.got.tgz:1825.got - 2010.06.03 17:15:25.
