data_PCOD9345125
_publ_section_title
;
Structure prediction by ZEFSAII (Michael W. Deem and Ramdas Pophale) SiO2 
 PCOD9345125
Probable space group: P N A 21
;
_chemical_formula_sum "Si O2"
_cell_formula_units_Z 32
_cell_length_a 9.888836
_cell_length_b 12.125212
_cell_length_c 13.460274
_cell_angle_alpha 90.000000
_cell_angle_beta 90.000000
_cell_angle_gamma 90.000000
_cell_volume 1613.943829
_symmetry_space_group_name_H-M "P N A 21"
_symmetry_group_IT_number 33
_symmetry_cell_setting 'orthorhombic'
loop_
_space_group_symop_operation_xyz
x,y,z
-x,-y,1/2+z
1/2-x,1/2+y,1/2+z
1/2+x,1/2-y,z
loop_
_atom_site_type_symbol
_atom_site_label
_atom_site_fract_x
_atom_site_fract_y
_atom_site_fract_z
Si Si1 0.361378 0.783561 0.825860
Si Si2 0.470901 0.488417 0.148450
Si Si3 0.370972 0.155574 0.211242
Si Si4 0.250460 0.743365 0.394877
Si Si5 0.728878 0.556190 0.270557
Si Si6 0.407926 0.574942 0.949460
Si Si7 0.185525 0.988643 0.853308
Si Si8 0.001151 0.761012 0.528419
O O1 0.507786 0.801226 0.779445
O O2 0.261690 0.725314 0.744610
O O3 0.374943 0.697436 0.914851
O O4 0.303102 0.899543 0.861058
O O5 0.604637 0.546775 0.192867
O O6 0.377567 0.471736 0.243962
O O7 0.506405 0.373141 0.093418
O O8 0.390153 0.555359 0.065177
O O9 0.423071 0.175587 0.100305
O O10 0.340811 0.027778 0.230494
O O11 0.275074 0.822013 0.300270
O O12 0.270539 0.614460 0.370466
O O13 0.100679 0.770665 0.434335
O O14 0.356143 0.769861 0.483748
O O15 0.677813 0.501713 0.374726
O O16 0.563987 0.544017 0.927041
#
# Coordination Sequence:
#
# PCOD9345125 Si02
#       8
#     4   4   4   4   4   4   4   4
#     4  11  21  40  65  95 134 167 222 276 332 382
#     4  11  20  44  68  92 128 184 224 257 346 420
#     4  11  22  38  66 100 127 169 227 283 319 390
#     4  12  25  43  66  97 141 173 216 281 345 398
#     4  10  23  41  64  98 136 172 218 284 339 390
#     4  10  20  42  66  92 128 178 224 267 333 404
#     4  11  23  40  66  95 134 175 215 279 336 392
#     4  12  22  40  71  99 122 178 238 273 318 404
#
# _framework density 19.827209
#
# number of rings (size 3 to 8) (size 9 to 14) (size 15 to 20)
#    0.000    1.000    5.000    3.750    1.750    0.000 
#    2.250    0.000    0.000    0.000    0.000    0.000 
#    0.000    0.000    0.000    0.000    0.000    0.000 
#
# Total GULP energy -178762.218421 kJ/mol
# GULP energy per Si atom -5586.319326 kJ/mol
# Density = 1.978208 g / cm^3
# Si number density = 19.827209 Si / 1000 Ang^3
#
#
#
# Elastic Constant Matrix: (Units=GPa)
#
#
# Indices 1 2 3 4 5 6 
#
# 1 57.0897 20.8067 0.6860 0.0000 0.0000 0.0000
# 2 20.8067 129.4025 21.9477 0.0000 0.0000 0.0000
# 3 0.6860 21.9477 53.1831 0.0000 0.0000 0.0000
# 4 0.0000 0.0000 0.0000 36.6956 0.0000 0.0000
# 5 0.0000 0.0000 0.0000 0.0000 16.8642 0.0000
# 6 0.0000 0.0000 0.0000 0.0000 0.0000 20.7099
#
#
#
# Elastic Compliance Matrix: (Units=1/GPa)
#
#
# Indices 1 2 3 4 5 6 
#
# 1 0.018663 -0.003183 0.001073 0.000000 0.000000 0.000000
# 2 -0.003183 0.008852 -0.003612 0.000000 0.000000 0.000000
# 3 0.001073 -0.003612 0.020280 0.000000 0.000000 0.000000
# 4 0.000000 0.000000 0.000000 0.027251 0.000000 0.000000
# 5 0.000000 0.000000 0.000000 0.000000 0.059297 0.000000
# 6 0.000000 0.000000 0.000000 0.000000 0.000000 0.048286
#
#
# Mechanical properties :
#
#
# Convention : Reuss Voigt Hill
#
# Bulk Modulus (GPa) = 27.50951 36.28402 31.89677
# Shear Modulus (GPa) = 24.24929 27.93624 26.09276
#
# Velocity S-wave (km/s) = 3.50098 3.75772 3.63162
# Velocity P-wave (km/s) = 5.49975 6.09648 5.80579
#
# Compressibility (1/GPa) = 0.03635106
#
# Stress axis : x y z
#
# Youngs Moduli (GPa) = 53.58070 112.96570 49.31017
#
# Poissons Ratio (x) = 0.35955 -0.05290
# Poissons Ratio (y) = 0.17054 0.17811
# Poissons Ratio (z) = -0.05748 0.40804
#
# Static dielectric constant tensor:
#      x y z
#    x 1.697730 0.000000 0.000000 
#    y 0.000000 1.722510 0.000000 
#    z 0.000000 0.000000 1.716890 
# 
# From -- ./inp_files/7625.got.cif
#   From: 2010.05.17/outbox.cif.g08.bks.cpg/sg33_4_cif.got.tgz:7625.got - 2010.06.03 17:15:25.
