data_PCOD9345714
_publ_section_title
;
Structure prediction by ZEFSAII (Michael W. Deem and Ramdas Pophale) SiO2 
 PCOD9345714
Probable space group: P N A 21
;
_chemical_formula_sum "Si O2"
_cell_formula_units_Z 28
_cell_length_a 9.839569
_cell_length_b 8.426601
_cell_length_c 15.921333
_cell_angle_alpha 90.000000
_cell_angle_beta 90.000000
_cell_angle_gamma 90.000000
_cell_volume 1320.103346
_symmetry_space_group_name_H-M "P N A 21"
_symmetry_group_IT_number 33
_symmetry_cell_setting 'orthorhombic'
loop_
_space_group_symop_operation_xyz
x,y,z
-x,-y,1/2+z
1/2-x,1/2+y,1/2+z
1/2+x,1/2-y,z
loop_
_atom_site_type_symbol
_atom_site_label
_atom_site_fract_x
_atom_site_fract_y
_atom_site_fract_z
Si Si1 0.800625 0.700337 0.895790
Si Si2 0.017935 0.108719 0.639376
Si Si3 0.173504 0.609710 0.311392
Si Si4 0.705346 0.048734 0.128224
Si Si5 0.186053 0.131023 0.223788
Si Si6 0.932983 0.337059 0.503232
Si Si7 0.379614 0.865472 0.273939
O O1 0.754254 0.526203 0.865488
O O2 0.853239 0.786072 0.811517
O O3 0.680819 0.804413 0.934033
O O4 0.919486 0.672940 0.962429
O O5 0.076457 0.249571 0.697710
O O6 0.926829 0.191147 0.569031
O O7 0.144982 0.011792 0.602540
O O8 0.928064 0.991852 0.695045
O O9 0.175777 0.546941 0.214977
O O10 0.254181 0.773593 0.317070
O O11 0.013337 0.619063 0.331126
O O12 0.703006 0.231609 0.154690
O O13 0.601311 0.993221 0.056910
O O14 0.324068 0.031860 0.239610
#
# Coordination Sequence:
#
# PCOD9345714 Si02
#       7
#     4   4   4   4   4   4   4
#     4  11  27  42  70 102 144 184 223 296 360 408
#     4  11  22  42  72 100 130 189 234 283 346 423
#     4  10  22  40  68  98 131 183 234 272 343 420
#     4  10  23  40  67  99 132 182 235 280 341 422
#     4  11  25  42  73 102 138 180 245 287 341 427
#     4  12  23  47  67  99 144 185 233 287 366 412
#     4  11  20  41  71  98 133 173 242 283 327 412
#
# _framework density 21.210460999999999
#
# number of rings (size 3 to 8) (size 9 to 14) (size 15 to 20)
#    0.000    1.143    4.286    1.714   10.000    0.000 
#    0.000    4.286    0.000    0.000    0.000    0.000 
#    0.000    0.000    0.000    0.000    0.000    0.000 
#
# Total GULP energy -156517.321599 kJ/mol
# GULP energy per Si atom -5589.904343 kJ/mol
# Density = 2.116219 g / cm^3
# Si number density = 21.210461 Si / 1000 Ang^3
#
#
#
# Elastic Constant Matrix: (Units=GPa)
#
#
# Indices 1 2 3 4 5 6 
#
# 1 61.8828 17.6472 -5.1961 0.0000 0.0000 0.0000
# 2 17.6472 109.3470 26.3204 0.0000 0.0000 0.0000
# 3 -5.1961 26.3204 42.8310 0.0000 0.0000 0.0000
# 4 0.0000 0.0000 0.0000 31.2488 0.0000 0.0000
# 5 0.0000 0.0000 0.0000 0.0000 22.7307 0.0000
# 6 0.0000 0.0000 0.0000 0.0000 0.0000 30.0810
#
#
#
# Elastic Compliance Matrix: (Units=1/GPa)
#
#
# Indices 1 2 3 4 5 6 
#
# 1 0.017671 -0.003952 0.004573 0.000000 0.000000 0.000000
# 2 -0.003952 0.011617 -0.007618 0.000000 0.000000 0.000000
# 3 0.004573 -0.007618 0.028584 0.000000 0.000000 0.000000
# 4 0.000000 0.000000 0.000000 0.032001 0.000000 0.000000
# 5 0.000000 0.000000 0.000000 0.000000 0.043993 0.000000
# 6 0.000000 0.000000 0.000000 0.000000 0.000000 0.033244
#
#
# Mechanical properties :
#
#
# Convention : Reuss Voigt Hill
#
# Bulk Modulus (GPa) = 22.79198 32.40042 27.59620
# Shear Modulus (GPa) = 25.54532 28.49807 27.02169
#
# Velocity S-wave (km/s) = 3.47417 3.66947 3.57316
# Velocity P-wave (km/s) = 5.18287 5.76734 5.48290
#
# Compressibility (1/GPa) = 0.04387509
#
# Stress axis : x y z
#
# Youngs Moduli (GPa) = 56.59102 86.08207 34.98483
#
# Poissons Ratio (x) = 0.34024 -0.15997
# Poissons Ratio (y) = 0.22367 0.26652
# Poissons Ratio (z) = -0.25877 0.65579
#
# Static dielectric constant tensor:
#      x y z
#    x 1.806530 0.000000 0.000000 
#    y 0.000000 1.758020 0.000000 
#    z 0.000000 0.000000 1.762790 
# 
# From -- ./inp_files/8470.got.cif
#   From: 2010.05.17/outbox.cif.g08.bks.cpg/sg33_5_cif.got.tgz:8470.got - 2010.06.03 17:15:25.
