data_PCOD9345620
_publ_section_title
;
Structure prediction by ZEFSAII (Michael W. Deem and Ramdas Pophale) SiO2 
 PCOD9345620
Probable space group: P N A 21
;
_chemical_formula_sum "Si O2"
_cell_formula_units_Z 32
_cell_length_a 5.003406
_cell_length_b 15.167675
_cell_length_c 18.163813
_cell_angle_alpha 90.000000
_cell_angle_beta 90.000000
_cell_angle_gamma 90.000000
_cell_volume 1378.452424
_symmetry_space_group_name_H-M "P N A 21"
_symmetry_group_IT_number 33
_symmetry_cell_setting 'orthorhombic'
loop_
_space_group_symop_operation_xyz
x,y,z
-x,-y,1/2+z
1/2-x,1/2+y,1/2+z
1/2+x,1/2-y,z
loop_
_atom_site_type_symbol
_atom_site_label
_atom_site_fract_x
_atom_site_fract_y
_atom_site_fract_z
Si Si1 0.708765 0.968807 0.546150
Si Si2 0.252472 0.438249 0.396755
Si Si3 0.852932 0.965088 0.772488
Si Si4 0.982689 0.689562 0.789857
Si Si5 0.202547 0.001095 0.636139
Si Si6 0.513636 0.887449 0.319720
Si Si7 0.079597 0.302794 0.971195
Si Si8 0.254675 0.192469 0.678585
O O1 0.560031 0.885472 0.509983
O O2 0.741149 0.043278 0.483054
O O3 0.509201 0.992202 0.612647
O O4 0.003607 0.955756 0.578215
O O5 0.535137 0.435387 0.353050
O O6 0.081562 0.354125 0.370148
O O7 0.141742 0.528745 0.360915
O O8 0.195218 0.767229 0.774511
O O9 0.725704 0.062662 0.777045
O O10 0.096054 0.966929 0.714858
O O11 0.627369 0.893633 0.751308
O O12 0.162858 0.106206 0.635562
O O13 0.422988 0.822786 0.383998
O O14 0.711879 0.839812 0.263480
O O15 0.882199 0.221805 0.989444
O O16 0.547483 0.230197 0.663878
#
# Coordination Sequence:
#
# PCOD9345620 Si02
#       8
#     4   4   4   4   4   4   4   4
#     4  11  27  45  71  96 140 192 234 277 350 424
#     4  10  23  42  73  99 133 183 241 279 344 431
#     4  11  23  43  75 101 134 185 242 284 348 433
#     4  11  23  41  67 104 136 166 232 309 349 382
#     4  12  26  47  68  98 140 191 232 282 344 428
#     4  10  22  37  69 106 138 175 219 284 351 428
#     4  11  24  42  68 103 142 174 224 286 345 416
#     4  12  24  41  67 101 139 172 220 283 347 414
#
# _framework density 23.214438999999999
#
# number of rings (size 3 to 8) (size 9 to 14) (size 15 to 20)
#    0.000    1.000    2.500    3.750   10.500    0.000 
#    0.000    7.500    0.000    0.000    0.000    0.000 
#    0.000    0.000    0.000    0.000    0.000    0.000 
#
# Total GULP energy -178600.821240 kJ/mol
# GULP energy per Si atom -5581.275664 kJ/mol
# Density = 2.316160 g / cm^3
# Si number density = 23.214439 Si / 1000 Ang^3
#
#
#
# Elastic Constant Matrix: (Units=GPa)
#
#
# Indices 1 2 3 4 5 6 
#
# 1 118.9199 20.8572 17.9848 0.0000 0.0000 0.0000
# 2 20.8572 79.5489 18.4742 0.0000 0.0000 0.0000
# 3 17.9848 18.4742 75.8838 0.0000 0.0000 0.0000
# 4 0.0000 0.0000 0.0000 21.6132 0.0000 0.0000
# 5 0.0000 0.0000 0.0000 0.0000 29.3002 0.0000
# 6 0.0000 0.0000 0.0000 0.0000 0.0000 43.9689
#
#
#
# Elastic Compliance Matrix: (Units=1/GPa)
#
#
# Indices 1 2 3 4 5 6 
#
# 1 0.009006 -0.001977 -0.001653 0.000000 0.000000 0.000000
# 2 -0.001977 0.013758 -0.002881 0.000000 0.000000 0.000000
# 3 -0.001653 -0.002881 0.014271 0.000000 0.000000 0.000000
# 4 0.000000 0.000000 0.000000 0.046268 0.000000 0.000000
# 5 0.000000 0.000000 0.000000 0.000000 0.034129 0.000000
# 6 0.000000 0.000000 0.000000 0.000000 0.000000 0.022743
#
#
# Mechanical properties :
#
#
# Convention : Reuss Voigt Hill
#
# Bulk Modulus (GPa) = 41.64441 43.22056 42.43249
# Shear Modulus (GPa) = 31.01680 33.44556 32.23118
#
# Velocity S-wave (km/s) = 3.65924 3.79980 3.73018
# Velocity P-wave (km/s) = 5.98592 6.15709 6.07211
#
# Compressibility (1/GPa) = 0.02401282
#
# Stress axis : x y z
#
# Youngs Moduli (GPa) = 111.03924 72.68295 70.07132
#
# Poissons Ratio (x) = 0.14372 0.11583
# Poissons Ratio (y) = 0.21957 0.20187
# Poissons Ratio (z) = 0.18355 0.20939
#
# Static dielectric constant tensor:
#      x y z
#    x 1.893190 0.000000 0.000000 
#    y 0.000000 1.880010 0.000000 
#    z 0.000000 0.000000 1.900080 
# 
# From -- ./inp_files/8370.got.cif
#   From: 2010.05.17/outbox.cif.g08.bks.cpg/sg33_5_cif.got.tgz:8370.got - 2010.06.03 17:15:25.
