data_PCOD9345280
_publ_section_title
;
Structure prediction by ZEFSAII (Michael W. Deem and Ramdas Pophale) SiO2 
 PCOD9345280
Probable space group: P N A 21
;
_chemical_formula_sum "Si O2"
_cell_formula_units_Z 24
_cell_length_a 17.835805
_cell_length_b 5.006993
_cell_length_c 10.720886
_cell_angle_alpha 90.000000
_cell_angle_beta 90.000000
_cell_angle_gamma 90.000000
_cell_volume 957.415332
_symmetry_space_group_name_H-M "P N A 21"
_symmetry_group_IT_number 33
_symmetry_cell_setting 'orthorhombic'
loop_
_space_group_symop_operation_xyz
x,y,z
-x,-y,1/2+z
1/2-x,1/2+y,1/2+z
1/2+x,1/2-y,z
loop_
_atom_site_type_symbol
_atom_site_label
_atom_site_fract_x
_atom_site_fract_y
_atom_site_fract_z
Si Si1 0.346506 0.966646 0.308630
Si Si2 0.417950 0.288015 0.540241
Si Si3 0.708586 0.398825 0.426595
Si Si4 0.498719 0.057495 0.233150
Si Si5 0.712830 0.390018 0.001530
Si Si6 0.961260 0.057861 0.884099
O O1 0.410799 0.992336 0.205940
O O2 0.332906 0.676846 0.370926
O O3 0.382971 0.141177 0.420043
O O4 0.261347 0.071694 0.302179
O O5 0.446453 0.056728 0.629436
O O6 0.350316 0.476267 0.586595
O O7 0.487910 0.466154 0.498826
O O8 0.722109 0.102603 0.475407
O O9 0.624976 0.492176 0.407077
O O10 0.748762 0.605078 0.523422
O O11 0.521509 0.862095 0.348843
O O12 0.512143 0.361488 0.271989
#
# Coordination Sequence:
#
# PCOD9345280 Si02
#       6
#     4   4   4   4   4   4
#     4   8  19  38  58  83 113 158 187 236 298 347
#     4  10  21  38  62  85 121 154 204 241 293 358
#     4   9  18  34  61  79 117 151 189 245 298 342
#     4  11  23  35  63  86 119 156 199 244 298 352
#     4   9  17  35  60  77 111 160 184 232 306 338
#     4  11  22  38  58  94 113 153 201 252 289 351
#
# _framework density 25.067489999999999
#
# number of rings (size 3 to 8) (size 9 to 14) (size 15 to 20)
#    1.000    1.333    1.667    1.000    2.333    0.000 
#    0.000    3.333    3.667    0.000    0.000    0.000 
#    0.000    0.000    0.000    0.000    0.000    0.000 
#
# Total GULP energy -133966.534593 kJ/mol
# GULP energy per Si atom -5581.938941 kJ/mol
# Density = 2.501044 g / cm^3
# Si number density = 25.067490 Si / 1000 Ang^3
#
#
#
# Elastic Constant Matrix: (Units=GPa)
#
#
# Indices 1 2 3 4 5 6 
#
# 1 174.1436 6.6269 13.8336 0.0000 0.0000 0.0000
# 2 6.6269 102.4225 5.0923 0.0000 0.0000 0.0000
# 3 13.8336 5.0923 40.3223 0.0000 0.0000 0.0000
# 4 0.0000 0.0000 0.0000 18.3500 0.0000 0.0000
# 5 0.0000 0.0000 0.0000 0.0000 24.7094 0.0000
# 6 0.0000 0.0000 0.0000 0.0000 0.0000 41.1143
#
#
#
# Elastic Compliance Matrix: (Units=1/GPa)
#
#
# Indices 1 2 3 4 5 6 
#
# 1 0.005911 -0.000283 -0.001992 0.000000 0.000000 0.000000
# 2 -0.000283 0.009839 -0.001145 0.000000 0.000000 0.000000
# 3 -0.001992 -0.001145 0.025628 0.000000 0.000000 0.000000
# 4 0.000000 0.000000 0.000000 0.054496 0.000000 0.000000
# 5 0.000000 0.000000 0.000000 0.000000 0.040470 0.000000
# 6 0.000000 0.000000 0.000000 0.000000 0.000000 0.024322
#
#
# Mechanical properties :
#
#
# Convention : Reuss Voigt Hill
#
# Bulk Modulus (GPa) = 28.95489 40.88824 34.92156
# Shear Modulus (GPa) = 27.92961 36.25711 32.09336
#
# Velocity S-wave (km/s) = 3.34155 3.80726 3.58198
# Velocity P-wave (km/s) = 5.14430 5.97274 5.57393
#
# Compressibility (1/GPa) = 0.03453649
#
# Stress axis : x y z
#
# Youngs Moduli (GPa) = 169.16364 101.63880 39.01933
#
# Poissons Ratio (x) = 0.02881 0.07774
# Poissons Ratio (y) = 0.04795 0.04469
# Poissons Ratio (z) = 0.33702 0.11641
#
# Static dielectric constant tensor:
#      x y z
#    x 2.052630 0.000000 0.000000 
#    y 0.000000 1.924180 0.000000 
#    z 0.000000 0.000000 2.129870 
# 
# From -- ./inp_files/6901.got.cif
#   From: 2010.05.17/outbox.cif.g08.bks.cpg/sg33_4_cif.got.tgz:6901.got - 2010.06.03 17:15:25.
