data_PCOD9345703
_publ_section_title
;
Structure prediction by ZEFSAII (Michael W. Deem and Ramdas Pophale) SiO2 
 PCOD9345703
Probable space group: P N A 21
;
_chemical_formula_sum "Si O2"
_cell_formula_units_Z 28
_cell_length_a 19.423519
_cell_length_b 6.128229
_cell_length_c 11.480627
_cell_angle_alpha 90.000000
_cell_angle_beta 90.000000
_cell_angle_gamma 90.000000
_cell_volume 1366.559380
_symmetry_space_group_name_H-M "P N A 21"
_symmetry_group_IT_number 33
_symmetry_cell_setting 'orthorhombic'
loop_
_space_group_symop_operation_xyz
x,y,z
-x,-y,1/2+z
1/2-x,1/2+y,1/2+z
1/2+x,1/2-y,z
loop_
_atom_site_type_symbol
_atom_site_label
_atom_site_fract_x
_atom_site_fract_y
_atom_site_fract_z
Si Si1 0.364730 0.499999 0.178550
Si Si2 0.672145 0.859533 0.852726
Si Si3 0.922484 0.267828 0.971340
Si Si4 0.816868 0.005242 0.816198
Si Si5 0.422483 0.767826 0.385760
Si Si6 0.672145 0.140469 0.504374
Si Si7 0.816868 0.994760 0.540902
O O1 0.321837 0.317069 0.248740
O O2 0.411051 0.613406 0.275446
O O3 0.321837 0.682929 0.108360
O O4 0.411052 0.386592 0.081654
O O5 0.735086 0.029851 0.841072
O O6 0.602027 0.993030 0.847227
O O7 0.671845 0.724580 0.972992
O O8 0.868328 0.178046 0.874871
O O9 0.000000 0.262703 0.928550
O O10 0.897973 0.506972 0.009872
O O11 0.827932 0.000001 0.678550
O O12 0.828155 0.775422 0.884108
O O13 0.368328 0.678044 0.482229
O O14 0.735086 0.970151 0.516027
#
# Coordination Sequence:
#
# PCOD9345703 Si02
#       7
#     4   4   4   4   4   4   4
#     4  10  22  42  64  88 126 166 208 266 312 380
#     4  10  22  42  66  93 125 168 211 262 320 365
#     4  11  24  40  63  92 129 167 208 258 322 382
#     4  10  22  40  66  95 127 159 216 266 306 374
#     4  11  24  40  63  92 129 167 208 258 322 382
#     4  10  22  42  66  93 125 168 211 262 320 365
#     4  10  22  40  66  95 127 159 216 266 306 374
#
# _framework density 20.489414
#
# number of rings (size 3 to 8) (size 9 to 14) (size 15 to 20)
#    0.000    1.714    0.000    3.429    2.000   10.286 
#    5.143    0.000    0.000    0.000    0.000    0.000 
#    0.000    0.000    0.000    0.000    0.000    0.000 
#
# Total GULP energy -156351.215177 kJ/mol
# GULP energy per Si atom -5583.971971 kJ/mol
# Density = 2.044278 g / cm^3
# Si number density = 20.489414 Si / 1000 Ang^3
#
#
#
# Elastic Constant Matrix: (Units=GPa)
#
#
# Indices 1 2 3 4 5 6 
#
# 1 125.2020 40.9181 45.7359 0.0000 0.0000 0.0000
# 2 40.9181 59.8239 47.5196 0.0000 0.0000 0.0000
# 3 45.7359 47.5196 157.2175 0.0000 0.0000 0.0000
# 4 0.0000 0.0000 0.0000 22.7246 0.0000 0.0000
# 5 0.0000 0.0000 0.0000 0.0000 26.6430 0.0000
# 6 0.0000 0.0000 0.0000 0.0000 0.0000 13.1468
#
#
#
# Elastic Compliance Matrix: (Units=1/GPa)
#
#
# Indices 1 2 3 4 5 6 
#
# 1 0.010444 -0.006224 -0.001157 0.000000 0.000000 0.000000
# 2 -0.006224 0.025707 -0.005959 0.000000 0.000000 0.000000
# 3 -0.001157 -0.005959 0.008498 0.000000 0.000000 0.000000
# 4 0.000000 0.000000 0.000000 0.044005 0.000000 0.000000
# 5 0.000000 0.000000 0.000000 0.000000 0.037533 0.000000
# 6 0.000000 0.000000 0.000000 0.000000 0.000000 0.076064
#
#
# Mechanical properties :
#
#
# Convention : Reuss Voigt Hill
#
# Bulk Modulus (GPa) = 55.65482 67.84340 61.74911
# Shear Modulus (GPa) = 21.28367 26.37420 23.82894
#
# Velocity S-wave (km/s) = 3.22648 3.59166 3.41396
# Velocity P-wave (km/s) = 6.41108 7.09813 6.76333
#
# Compressibility (1/GPa) = 0.01796789
#
# Stress axis : x y z
#
# Youngs Moduli (GPa) = 95.74911 38.90039 117.66995
#
# Poissons Ratio (x) = 0.24214 0.13613
# Poissons Ratio (y) = 0.59599 0.70122
# Poissons Ratio (z) = 0.11077 0.23181
#
# Static dielectric constant tensor:
#      x y z
#    x 1.720430 0.000000 0.000000 
#    y 0.000000 1.767750 0.000000 
#    z 0.000000 0.000000 1.723210 
# 
# From -- ./inp_files/6965.got.cif
#   From: 2010.05.17/outbox.cif.g08.bks.cpg/sg33_4_cif.got.tgz:6965.got - 2010.06.03 17:15:25.
