data_PCOD9345480
_publ_section_title
;
Structure prediction by ZEFSAII (Michael W. Deem and Ramdas Pophale) SiO2 
 PCOD9345480
Probable space group: P N A 21
;
_chemical_formula_sum "Si O2"
_cell_formula_units_Z 20
_cell_length_a 8.480985
_cell_length_b 10.037310
_cell_length_c 8.779031
_cell_angle_alpha 90.000000
_cell_angle_beta 90.000000
_cell_angle_gamma 90.000000
_cell_volume 747.326212
_symmetry_space_group_name_H-M "P N A 21"
_symmetry_group_IT_number 33
_symmetry_cell_setting 'orthorhombic'
loop_
_space_group_symop_operation_xyz
x,y,z
-x,-y,1/2+z
1/2-x,1/2+y,1/2+z
1/2+x,1/2-y,z
loop_
_atom_site_type_symbol
_atom_site_label
_atom_site_fract_x
_atom_site_fract_y
_atom_site_fract_z
Si Si1 0.182314 0.887472 0.298180
Si Si2 0.487868 0.475795 0.524712
Si Si3 0.689059 0.078146 0.315914
Si Si4 0.982725 0.548332 0.105156
Si Si5 0.874926 0.245547 0.092268
O O1 0.192142 0.772698 0.422538
O O2 0.346907 0.896128 0.213602
O O3 0.047008 0.878850 0.167357
O O4 0.134553 0.014558 0.407020
O O5 0.333093 0.463300 0.422866
O O6 0.500056 0.623605 0.596263
O O7 0.646720 0.961274 0.194937
O O8 0.751982 0.203858 0.221755
O O9 0.544775 0.102528 0.434785
O O10 0.945099 0.390260 0.099978
#
# Coordination Sequence:
#
# PCOD9345480 Si02
#       5
#     4   4   4   4   4
#     4   9  19  38  64  96 125 177 222 266 323 400
#     4   9  18  39  67  88 126 174 221 265 319 400
#     4  11  23  41  67  99 133 168 223 279 323 394
#     4  11  25  41  67 100 137 172 216 287 328 382
#     4  10  21  41  69  89 133 181 216 255 349 394
#
# _framework density 26.762073999999998
#
# number of rings (size 3 to 8) (size 9 to 14) (size 15 to 20)
#    1.200    0.800    2.000    1.200    5.600    0.000 
#    0.000   10.000    0.000    0.000    0.000    0.000 
#    0.000    0.000    0.000    0.000    0.000    0.000 
#
# Total GULP energy -111709.337675 kJ/mol
# GULP energy per Si atom -5585.466884 kJ/mol
# Density = 2.670116 g / cm^3
# Si number density = 26.762074 Si / 1000 Ang^3
#
#
#
# Elastic Constant Matrix: (Units=GPa)
#
#
# Indices 1 2 3 4 5 6 
#
# 1 48.3906 14.6894 42.7152 0.0000 0.0000 0.0000
# 2 14.6894 65.0634 31.4157 0.0000 0.0000 0.0000
# 3 42.7152 31.4157 188.1468 0.0000 0.0000 0.0000
# 4 0.0000 0.0000 0.0000 31.8408 0.0000 0.0000
# 5 0.0000 0.0000 0.0000 0.0000 73.0449 0.0000
# 6 0.0000 0.0000 0.0000 0.0000 0.0000 33.2874
#
#
#
# Elastic Compliance Matrix: (Units=1/GPa)
#
#
# Indices 1 2 3 4 5 6 
#
# 1 0.026498 -0.003348 -0.005457 0.000000 0.000000 0.000000
# 2 -0.003348 0.017140 -0.002102 0.000000 0.000000 0.000000
# 3 -0.005457 -0.002102 0.006905 0.000000 0.000000 0.000000
# 4 0.000000 0.000000 0.000000 0.031406 0.000000 0.000000
# 5 0.000000 0.000000 0.000000 0.000000 0.013690 0.000000
# 6 0.000000 0.000000 0.000000 0.000000 0.000000 0.030041
#
#
# Mechanical properties :
#
#
# Convention : Reuss Voigt Hill
#
# Bulk Modulus (GPa) = 34.80641 53.24905 44.02773
# Shear Modulus (GPa) = 31.83264 41.81999 36.82631
#
# Velocity S-wave (km/s) = 3.45261 3.95734 3.71356
# Velocity P-wave (km/s) = 5.37849 6.38914 5.90547
#
# Compressibility (1/GPa) = 0.02873034
#
# Stress axis : x y z
#
# Youngs Moduli (GPa) = 37.73817 58.34185 144.82509
#
# Poissons Ratio (x) = 0.19531 0.79031
# Poissons Ratio (y) = 0.12634 0.30442
# Poissons Ratio (z) = 0.20594 0.12263
#
# Static dielectric constant tensor:
#      x y z
#    x 2.174260 0.000000 0.000000 
#    y 0.000000 2.044950 0.000000 
#    z 0.000000 0.000000 2.146080 
# 
# From -- ./inp_files/3093.got.cif
#   From: 2010.05.17/outbox.cif.g08.bks.cpg/sg33_2_cif.got.tgz:3093.got - 2010.06.03 17:15:25.
