data_PCOD9345151
_publ_section_title
;
Structure prediction by ZEFSAII (Michael W. Deem and Ramdas Pophale) SiO2 
 PCOD9345151
Probable space group: P N A 21
;
_chemical_formula_sum "Si O2"
_cell_formula_units_Z 32
_cell_length_a 11.629298
_cell_length_b 22.143586
_cell_length_c 5.121392
_cell_angle_alpha 90.000000
_cell_angle_beta 90.000000
_cell_angle_gamma 90.000000
_cell_volume 1318.831985
_symmetry_space_group_name_H-M "P N A 21"
_symmetry_group_IT_number 33
_symmetry_cell_setting 'orthorhombic'
loop_
_space_group_symop_operation_xyz
x,y,z
-x,-y,1/2+z
1/2-x,1/2+y,1/2+z
1/2+x,1/2-y,z
loop_
_atom_site_type_symbol
_atom_site_label
_atom_site_fract_x
_atom_site_fract_y
_atom_site_fract_z
Si Si1 0.783928 0.938079 0.032980
Si Si2 0.032920 0.666115 0.347360
Si Si3 0.727360 0.045669 0.707875
Si Si4 0.543504 0.583275 0.976156
Si Si5 0.203159 0.856583 0.596598
Si Si6 0.997553 0.197578 0.852377
Si Si7 0.420275 0.886268 0.853134
Si Si8 0.228647 0.136623 0.033908
O O1 0.769519 0.920902 0.334931
O O2 0.920627 0.947351 0.990258
O O3 0.758188 0.883214 0.832563
O O4 0.711074 0.993200 0.917214
O O5 0.976600 0.732171 0.311683
O O6 0.165821 0.673886 0.420109
O O7 0.007078 0.634107 0.075867
O O8 0.985841 0.623653 0.581885
O O9 0.857736 0.043069 0.605765
O O10 0.637160 0.052747 0.471982
O O11 0.731762 0.109271 0.863801
O O12 0.526789 0.649347 0.117501
O O13 0.604436 0.597641 0.701877
O O14 0.122978 0.802945 0.508348
O O15 0.302444 0.846687 0.808736
O O16 0.106950 0.169372 0.999050
#
# Coordination Sequence:
#
# PCOD9345151 Si02
#       8
#     4   4   4   4   4   4   4   4
#     4  11  24  43  68 101 143 180 223 287 360 400
#     4  12  27  46  74  94 141 191 230 291 343 400
#     4  10  23  40  73  98 140 185 226 287 351 410
#     4   9  21  37  65 107 144 165 228 280 346 435
#     4  10  20  43  68 104 139 169 230 285 333 433
#     4  10  24  43  68 106 137 183 218 287 360 408
#     4  11  25  46  68 102 134 177 246 278 327 426
#     4  11  26  46  66 104 142 174 239 285 338 436
#
# _framework density 24.263891000000001
#
# number of rings (size 3 to 8) (size 9 to 14) (size 15 to 20)
#    0.000    1.500    2.500    0.750    8.750    0.000 
#    0.000    2.500    0.000    0.000    0.000    0.000 
#    0.000    0.000    0.000    0.000    0.000    0.000 
#
# Total GULP energy -178556.034140 kJ/mol
# GULP energy per Si atom -5579.876067 kJ/mol
# Density = 2.420867 g / cm^3
# Si number density = 24.263891 Si / 1000 Ang^3
#
#
#
# Elastic Constant Matrix: (Units=GPa)
#
#
# Indices 1 2 3 4 5 6 
#
# 1 81.5169 3.7022 14.1931 0.0000 0.0000 0.0000
# 2 3.7022 51.2532 9.3495 0.0000 0.0000 0.0000
# 3 14.1931 9.3495 99.4705 0.0000 0.0000 0.0000
# 4 0.0000 0.0000 0.0000 5.8443 0.0000 0.0000
# 5 0.0000 0.0000 0.0000 0.0000 45.2026 0.0000
# 6 0.0000 0.0000 0.0000 0.0000 0.0000 11.5371
#
#
#
# Elastic Compliance Matrix: (Units=1/GPa)
#
#
# Indices 1 2 3 4 5 6 
#
# 1 0.012598 -0.000592 -0.001742 0.000000 0.000000 0.000000
# 2 -0.000592 0.019879 -0.001784 0.000000 0.000000 0.000000
# 3 -0.001742 -0.001784 0.010469 0.000000 0.000000 0.000000
# 4 0.000000 0.000000 0.000000 0.171108 0.000000 0.000000
# 5 0.000000 0.000000 0.000000 0.000000 0.022123 0.000000
# 6 0.000000 0.000000 0.000000 0.000000 0.000000 0.086677
#
#
# Mechanical properties :
#
#
# Convention : Reuss Voigt Hill
#
# Bulk Modulus (GPa) = 28.81004 31.85889 30.33447
# Shear Modulus (GPa) = 14.59173 26.18319 20.38746
#
# Velocity S-wave (km/s) = 2.45496 3.28853 2.90183
# Velocity P-wave (km/s) = 4.46488 5.25147 4.87407
#
# Compressibility (1/GPa) = 0.03471012
#
# Stress axis : x y z
#
# Youngs Moduli (GPa) = 79.38047 50.30383 95.51604
#
# Poissons Ratio (x) = 0.02979 0.16637
# Poissons Ratio (y) = 0.04701 0.17040
# Poissons Ratio (z) = 0.13827 0.08974
#
# Static dielectric constant tensor:
#      x y z
#    x 1.939840 0.000000 0.000000 
#    y 0.000000 1.975450 0.000000 
#    z 0.000000 0.000000 1.972340 
# 
# From -- ./inp_files/1089.got.cif
#   From: 2010.05.17/outbox.cif.g08.bks.cpg/sg33_1_cif.got.tgz:1089.got - 2010.06.03 17:15:25.
