data_PCOD9345245
_publ_section_title
;
Structure prediction by ZEFSAII (Michael W. Deem and Ramdas Pophale) SiO2 
 PCOD9345245
Probable space group: P N A 21
;
_chemical_formula_sum "Si O2"
_cell_formula_units_Z 20
_cell_length_a 18.964304
_cell_length_b 8.863689
_cell_length_c 5.142101
_cell_angle_alpha 90.000000
_cell_angle_beta 90.000000
_cell_angle_gamma 90.000000
_cell_volume 864.354746
_symmetry_space_group_name_H-M "P N A 21"
_symmetry_group_IT_number 33
_symmetry_cell_setting 'orthorhombic'
loop_
_space_group_symop_operation_xyz
x,y,z
-x,-y,1/2+z
1/2-x,1/2+y,1/2+z
1/2+x,1/2-y,z
loop_
_atom_site_type_symbol
_atom_site_label
_atom_site_fract_x
_atom_site_fract_y
_atom_site_fract_z
Si Si1 0.800154 0.918534 0.298440
Si Si2 0.593003 0.029726 0.127728
Si Si3 0.953872 0.023496 0.306773
Si Si4 0.568898 0.859415 0.626733
Si Si5 0.722827 0.230761 0.282726
O O1 0.765085 0.849930 0.554599
O O2 0.885015 0.919145 0.322104
O O3 0.775394 0.090400 0.271085
O O4 0.778143 0.817609 0.054016
O O5 0.595787 0.895581 0.339218
O O6 0.513857 0.094713 0.131931
O O7 0.647156 0.155345 0.220802
O O8 0.606708 0.964328 0.841375
O O9 0.928920 0.187553 0.212572
O O10 0.992369 0.033348 0.584564
#
# Coordination Sequence:
#
# PCOD9345245 Si02
#       5
#     4   4   4   4   4
#     4  12  28  46  75 105 143 193 237 292 368 416
#     4  10  21  38  65  93 137 167 223 278 341 405
#     4  12  25  43  70 100 143 182 244 294 355 421
#     4  10  21  37  64  99 125 179 219 276 341 409
#     4  12  27  48  72 103 146 185 241 292 355 439
#
# _framework density 23.138646999999999
#
# number of rings (size 3 to 8) (size 9 to 14) (size 15 to 20)
#    0.000    0.800    0.000    7.200    5.600    3.200 
#    0.000    0.000    0.000    0.000    0.000    0.000 
#    0.000    0.000    0.000    0.000    0.000    0.000 
#
# Total GULP energy -112131.190195 kJ/mol
# GULP energy per Si atom -5606.559510 kJ/mol
# Density = 2.308598 g / cm^3
# Si number density = 23.138647 Si / 1000 Ang^3
#
#
#
# Elastic Constant Matrix: (Units=GPa)
#
#
# Indices 1 2 3 4 5 6 
#
# 1 82.1238 11.4116 30.2743 0.0000 0.0000 0.0000
# 2 11.4116 80.5690 1.6894 0.0000 0.0000 0.0000
# 3 30.2743 1.6894 86.7816 0.0000 0.0000 0.0000
# 4 0.0000 0.0000 0.0000 47.3085 0.0000 0.0000
# 5 0.0000 0.0000 0.0000 0.0000 6.4642 0.0000
# 6 0.0000 0.0000 0.0000 0.0000 0.0000 24.9001
#
#
#
# Elastic Compliance Matrix: (Units=1/GPa)
#
#
# Indices 1 2 3 4 5 6 
#
# 1 0.014264 -0.001917 -0.004939 0.000000 0.000000 0.000000
# 2 -0.001917 0.012674 0.000422 0.000000 0.000000 0.000000
# 3 -0.004939 0.000422 0.013238 0.000000 0.000000 0.000000
# 4 0.000000 0.000000 0.000000 0.021138 0.000000 0.000000
# 5 0.000000 0.000000 0.000000 0.000000 0.154698 0.000000
# 6 0.000000 0.000000 0.000000 0.000000 0.000000 0.040160
#
#
# Mechanical properties :
#
#
# Convention : Reuss Voigt Hill
#
# Bulk Modulus (GPa) = 36.61800 37.35834 36.98817
# Shear Modulus (GPa) = 17.97642 29.47450 23.72546
#
# Velocity S-wave (km/s) = 2.79032 3.57294 3.20560
# Velocity P-wave (km/s) = 5.12260 5.76209 5.45173
#
# Compressibility (1/GPa) = 0.02730897
#
# Stress axis : x y z
#
# Youngs Moduli (GPa) = 70.10815 78.89946 75.54094
#
# Poissons Ratio (x) = 0.15123 0.37307
# Poissons Ratio (y) = 0.13438 -0.03187
# Poissons Ratio (z) = 0.34624 -0.03329
#
# Static dielectric constant tensor:
#      x y z
#    x 1.911820 0.000000 0.000000 
#    y 0.000000 1.827510 0.000000 
#    z 0.000000 0.000000 1.806410 
# 
# From -- ./inp_files/1620.got.cif
#   From: 2010.05.17/outbox.cif.g08.bks.cpg/sg33_1_cif.got.tgz:1620.got - 2010.06.03 17:15:25.
