data_PCOD9345150
_publ_section_title
;
Structure prediction by ZEFSAII (Michael W. Deem and Ramdas Pophale) SiO2 
 PCOD9345150
Probable space group: P N A 21
;
_chemical_formula_sum "Si O2"
_cell_formula_units_Z 20
_cell_length_a 7.665070
_cell_length_b 17.033431
_cell_length_c 6.574277
_cell_angle_alpha 90.000000
_cell_angle_beta 90.000000
_cell_angle_gamma 90.000000
_cell_volume 858.353653
_symmetry_space_group_name_H-M "P N A 21"
_symmetry_group_IT_number 33
_symmetry_cell_setting 'orthorhombic'
loop_
_space_group_symop_operation_xyz
x,y,z
-x,-y,1/2+z
1/2-x,1/2+y,1/2+z
1/2+x,1/2-y,z
loop_
_atom_site_type_symbol
_atom_site_label
_atom_site_fract_x
_atom_site_fract_y
_atom_site_fract_z
Si Si1 0.727864 0.300403 0.482350
Si Si2 0.290600 0.433758 0.976185
Si Si3 0.924960 0.812384 0.549205
Si Si4 0.436848 0.826193 0.229651
Si Si5 0.122830 0.067939 0.737839
O O1 0.680519 0.291491 0.249140
O O2 0.710600 0.217982 0.597259
O O3 0.592395 0.365378 0.567733
O O4 0.909724 0.334641 0.564968
O O5 0.132172 0.402861 0.842450
O O6 0.439852 0.466016 0.820253
O O7 0.392872 0.359450 0.075258
O O8 0.262128 0.499317 0.145267
O O9 0.968718 0.738129 0.407961
O O10 0.811834 0.877325 0.423129
#
# Coordination Sequence:
#
# PCOD9345150 Si02
#       5
#     4   4   4   4   4
#     4  11  21  39  64  95 138 176 238 301 366 423
#     4  10  20  43  67  94 138 184 247 288 364 431
#     4   9  22  37  67  94 135 182 238 299 359 434
#     4  11  22  40  64 101 134 185 242 304 360 441
#     4   9  21  39  64  92 131 183 235 296 353 441
#
# _framework density 23.300419999999999
#
# number of rings (size 3 to 8) (size 9 to 14) (size 15 to 20)
#    1.200    0.800    2.000    1.200    2.800    0.000 
#    3.600    2.000    0.000    0.000    0.000    0.000 
#    0.000    0.000    0.000    0.000    0.000    0.000 
#
# Total GULP energy -111469.574196 kJ/mol
# GULP energy per Si atom -5573.478710 kJ/mol
# Density = 2.324739 g / cm^3
# Si number density = 23.300420 Si / 1000 Ang^3
#
#
#
# Elastic Constant Matrix: (Units=GPa)
#
#
# Indices 1 2 3 4 5 6 
#
# 1 70.0748 14.9727 34.2184 0.0000 0.0000 0.0000
# 2 14.9727 67.0469 36.9511 0.0000 0.0000 0.0000
# 3 34.2184 36.9511 127.7920 0.0000 0.0000 0.0000
# 4 0.0000 0.0000 0.0000 34.4190 0.0000 0.0000
# 5 0.0000 0.0000 0.0000 0.0000 41.8213 0.0000
# 6 0.0000 0.0000 0.0000 0.0000 0.0000 26.3995
#
#
#
# Elastic Compliance Matrix: (Units=1/GPa)
#
#
# Indices 1 2 3 4 5 6 
#
# 1 0.016541 -0.001490 -0.003998 0.000000 0.000000 0.000000
# 2 -0.001490 0.017877 -0.004770 0.000000 0.000000 0.000000
# 3 -0.003998 -0.004770 0.010275 0.000000 0.000000 0.000000
# 4 0.000000 0.000000 0.000000 0.029054 0.000000 0.000000
# 5 0.000000 0.000000 0.000000 0.000000 0.023911 0.000000
# 6 0.000000 0.000000 0.000000 0.000000 0.000000 0.037879
#
#
# Mechanical properties :
#
#
# Convention : Reuss Voigt Hill
#
# Bulk Modulus (GPa) = 41.36381 48.57756 44.97069
# Shear Modulus (GPa) = 30.46678 32.44606 31.45642
#
# Velocity S-wave (km/s) = 3.61995 3.73568 3.67827
# Velocity P-wave (km/s) = 5.93826 6.28496 6.11407
#
# Compressibility (1/GPa) = 0.02417573
#
# Stress axis : x y z
#
# Youngs Moduli (GPa) = 60.45471 55.93912 97.32314
#
# Poissons Ratio (x) = 0.08337 0.38912
# Poissons Ratio (y) = 0.09010 0.46423
# Poissons Ratio (z) = 0.24171 0.26683
#
# Static dielectric constant tensor:
#      x y z
#    x 2.001450 0.000000 0.000000 
#    y 0.000000 1.907800 0.000000 
#    z 0.000000 0.000000 1.904750 
# 
# From -- ./inp_files/368.got.cif
#   From: 2010.05.17/outbox.cif.g08.bks.cpg/sg33_1_cif.got.tgz:368.got - 2010.06.03 17:15:25.
