data_PCOD9345315
_publ_section_title
;
Structure prediction by ZEFSAII (Michael W. Deem and Ramdas Pophale) SiO2 
 PCOD9345315
Probable space group: P N A 21
;
_chemical_formula_sum "Si O2"
_cell_formula_units_Z 28
_cell_length_a 9.081549
_cell_length_b 17.451780
_cell_length_c 8.327174
_cell_angle_alpha 90.000000
_cell_angle_beta 90.000000
_cell_angle_gamma 90.000000
_cell_volume 1319.767106
_symmetry_space_group_name_H-M "P N A 21"
_symmetry_group_IT_number 33
_symmetry_cell_setting 'orthorhombic'
loop_
_space_group_symop_operation_xyz
x,y,z
-x,-y,1/2+z
1/2-x,1/2+y,1/2+z
1/2+x,1/2-y,z
loop_
_atom_site_type_symbol
_atom_site_label
_atom_site_fract_x
_atom_site_fract_y
_atom_site_fract_z
Si Si1 0.786069 0.865623 0.298990
Si Si2 0.884120 0.869154 0.644638
Si Si3 0.097489 0.824846 0.894597
Si Si4 0.357634 0.770994 0.071354
Si Si5 0.680951 0.950839 0.870040
Si Si6 0.530809 0.469049 0.569168
Si Si7 0.988726 0.578609 0.182356
O O1 0.828969 0.838958 0.475475
O O2 0.779469 0.794711 0.175992
O O3 0.908171 0.923391 0.224851
O O4 0.629800 0.908311 0.296612
O O5 0.754027 0.878999 0.776310
O O6 0.020884 0.824681 0.722212
O O7 0.942179 0.955572 0.612444
O O8 0.263305 0.800153 0.920129
O O9 0.004144 0.768007 0.006132
O O10 0.067706 0.909579 0.967264
O O11 0.392204 0.844781 0.177921
O O12 0.607823 0.008066 0.743297
O O13 0.821045 0.985824 0.966397
O O14 0.560535 0.931189 0.005446
#
# Coordination Sequence:
#
# PCOD9345315 Si02
#       7
#     4   4   4   4   4   4   4
#     4  10  21  39  61  92 127 168 216 261 311 387
#     4  11  21  39  63  97 128 155 220 269 311 376
#     4  10  22  39  63  88 123 171 209 253 313 381
#     4  11  22  42  62  84 125 182 209 248 323 381
#     4  10  22  37  64  96 123 165 207 265 320 371
#     4   9  20  39  64  89 127 160 210 259 317 372
#     4  11  22  41  65  90 133 163 213 261 325 376
#
# _framework density 21.215866999999999
#
# number of rings (size 3 to 8) (size 9 to 14) (size 15 to 20)
#    0.000    1.714    1.429    4.286    0.000    3.429 
#    2.571    1.429    0.000    0.000    0.000    0.000 
#    0.000    0.000    0.000    0.000    0.000    0.000 
#
# Total GULP energy -156463.679331 kJ/mol
# GULP energy per Si atom -5587.988548 kJ/mol
# Density = 2.116758 g / cm^3
# Si number density = 21.215867 Si / 1000 Ang^3
#
#
#
# Elastic Constant Matrix: (Units=GPa)
#
#
# Indices 1 2 3 4 5 6 
#
# 1 40.8000 12.7638 5.8806 0.0000 0.0000 0.0000
# 2 12.7638 53.8055 -2.9862 0.0000 0.0000 0.0000
# 3 5.8806 -2.9862 94.3172 0.0000 0.0000 0.0000
# 4 0.0000 0.0000 0.0000 8.7923 0.0000 0.0000
# 5 0.0000 0.0000 0.0000 0.0000 30.5454 0.0000
# 6 0.0000 0.0000 0.0000 0.0000 0.0000 7.0952
#
#
#
# Elastic Compliance Matrix: (Units=1/GPa)
#
#
# Indices 1 2 3 4 5 6 
#
# 1 0.026802 -0.006462 -0.001876 0.000000 0.000000 0.000000
# 2 -0.006462 0.020176 0.001042 0.000000 0.000000 0.000000
# 3 -0.001876 0.001042 0.010752 0.000000 0.000000 0.000000
# 4 0.000000 0.000000 0.000000 0.113735 0.000000 0.000000
# 5 0.000000 0.000000 0.000000 0.000000 0.032738 0.000000
# 6 0.000000 0.000000 0.000000 0.000000 0.000000 0.140940
#
#
# Mechanical properties :
#
#
# Convention : Reuss Voigt Hill
#
# Bulk Modulus (GPa) = 23.18121 24.47101 23.82611
# Shear Modulus (GPa) = 13.36485 20.83755 17.10120
#
# Velocity S-wave (km/s) = 2.51260 3.13736 2.84219
# Velocity P-wave (km/s) = 4.40086 4.96823 4.69313
#
# Compressibility (1/GPa) = 0.04313839
#
# Stress axis : x y z
#
# Youngs Moduli (GPa) = 37.31103 49.56329 93.00201
#
# Poissons Ratio (x) = 0.32028 0.17444
# Poissons Ratio (y) = 0.24111 -0.09688
# Poissons Ratio (z) = 0.06998 -0.05163
#
# Static dielectric constant tensor:
#      x y z
#    x 1.754020 0.000000 0.000000 
#    y 0.000000 1.746740 0.000000 
#    z 0.000000 0.000000 1.788980 
# 
# From -- ./inp_files/3349.got.cif
#   From: 2010.05.17/outbox.cif.g08.bks.cpg/sg33_2_cif.got.tgz:3349.got - 2010.06.03 17:15:25.
