data_PCOD9345407
_publ_section_title
;
Structure prediction by ZEFSAII (Michael W. Deem and Ramdas Pophale) SiO2 
 PCOD9345407
Probable space group: P N A 21
;
_chemical_formula_sum "Si O2"
_cell_formula_units_Z 32
_cell_length_a 13.523492
_cell_length_b 5.210071
_cell_length_c 18.452567
_cell_angle_alpha 90.000000
_cell_angle_beta 90.000000
_cell_angle_gamma 90.000000
_cell_volume 1300.137488
_symmetry_space_group_name_H-M "P N A 21"
_symmetry_group_IT_number 33
_symmetry_cell_setting 'orthorhombic'
loop_
_space_group_symop_operation_xyz
x,y,z
-x,-y,1/2+z
1/2-x,1/2+y,1/2+z
1/2+x,1/2-y,z
loop_
_atom_site_type_symbol
_atom_site_label
_atom_site_fract_x
_atom_site_fract_y
_atom_site_fract_z
Si Si1 0.486558 0.812222 0.509670
Si Si2 0.146118 0.137840 0.375909
Si Si3 0.020795 0.646837 0.347135
Si Si4 0.189327 0.393195 0.787163
Si Si5 0.843419 0.332900 0.600681
Si Si6 0.516040 0.426262 0.633553
Si Si7 0.198799 0.881151 0.703923
Si Si8 0.660174 0.140382 0.533307
O O1 0.466274 0.811275 0.425116
O O2 0.477548 0.572474 0.562111
O O3 0.416380 0.024544 0.545440
O O4 0.603706 0.882436 0.512850
O O5 0.097066 0.406951 0.349035
O O6 0.145494 0.178092 0.463037
O O7 0.078619 0.913817 0.341951
O O8 0.254618 0.031872 0.353974
O O9 0.929292 0.599866 0.294253
O O10 0.221499 0.591519 0.724860
O O11 0.213913 0.099464 0.766129
O O12 0.769796 0.531969 0.639017
O O13 0.772732 0.140006 0.556984
O O14 0.917542 0.211644 0.660234
O O15 0.582267 0.604067 0.683758
O O16 0.597911 0.231846 0.602917
#
# Coordination Sequence:
#
# PCOD9345407 Si02
#       8
#     4   4   4   4   4   4   4   4
#     4  10  21  40  68 100 132 172 222 286 358 404
#     4  11  23  45  71 100 135 177 226 285 346 414
#     4  11  24  45  73 101 138 177 229 291 349 412
#     4  12  27  48  67 101 135 192 234 285 338 414
#     4  10  23  40  66 100 127 183 220 281 341 420
#     4  10  22  41  67  96 133 178 221 284 350 407
#     4  11  28  45  67  94 144 178 237 282 331 410
#     4   9  20  40  63 100 136 161 217 284 349 405
#
# _framework density 24.612781999999999
#
# number of rings (size 3 to 8) (size 9 to 14) (size 15 to 20)
#    0.000    1.500    1.250    2.250    7.000    4.000 
#    6.750    0.000    0.000    0.000    0.000    0.000 
#    0.000    0.000    0.000    0.000    0.000    0.000 
#
# Total GULP energy -178689.700699 kJ/mol
# GULP energy per Si atom -5584.053147 kJ/mol
# Density = 2.455676 g / cm^3
# Si number density = 24.612782 Si / 1000 Ang^3
#
#
#
# Elastic Constant Matrix: (Units=GPa)
#
#
# Indices 1 2 3 4 5 6 
#
# 1 128.4166 28.1781 8.0973 0.0000 0.0000 0.0000
# 2 28.1781 106.2901 13.4200 0.0000 0.0000 0.0000
# 3 8.0973 13.4200 41.8161 0.0000 0.0000 0.0000
# 4 0.0000 0.0000 0.0000 30.4327 0.0000 0.0000
# 5 0.0000 0.0000 0.0000 0.0000 32.6858 0.0000
# 6 0.0000 0.0000 0.0000 0.0000 0.0000 19.9105
#
#
#
# Elastic Compliance Matrix: (Units=1/GPa)
#
#
# Indices 1 2 3 4 5 6 
#
# 1 0.008303 -0.002083 -0.000939 0.000000 0.000000 0.000000
# 2 -0.002083 0.010328 -0.002911 0.000000 0.000000 0.000000
# 3 -0.000939 -0.002911 0.025030 0.000000 0.000000 0.000000
# 4 0.000000 0.000000 0.000000 0.032859 0.000000 0.000000
# 5 0.000000 0.000000 0.000000 0.000000 0.030594 0.000000
# 6 0.000000 0.000000 0.000000 0.000000 0.000000 0.050225
#
#
# Mechanical properties :
#
#
# Convention : Reuss Voigt Hill
#
# Bulk Modulus (GPa) = 31.45149 41.76815 36.60982
# Shear Modulus (GPa) = 27.80786 31.72763 29.76775
#
# Velocity S-wave (km/s) = 3.36492 3.59426 3.48148
# Velocity P-wave (km/s) = 5.28234 5.85080 5.57382
#
# Compressibility (1/GPa) = 0.03179499
#
# Stress axis : x y z
#
# Youngs Moduli (GPa) = 120.43281 96.82501 39.95133
#
# Poissons Ratio (x) = 0.20165 0.03753
# Poissons Ratio (y) = 0.25082 0.11631
# Poissons Ratio (z) = 0.11314 0.28188
#
# Static dielectric constant tensor:
#      x y z
#    x 1.963560 0.000000 0.000000 
#    y 0.000000 1.958730 0.000000 
#    z 0.000000 0.000000 2.097100 
# 
# From -- ./inp_files/9106.got.cif
#   From: 2010.05.17/outbox.cif.g08.bks.cpg/sg33_5_cif.got.tgz:9106.got - 2010.06.03 17:15:25.
