data_PCOD9345021
_publ_section_title
;
Structure prediction by ZEFSAII (Michael W. Deem and Ramdas Pophale) SiO2 
 PCOD9345021
Probable space group: P N A 21
;
_chemical_formula_sum "Si O2"
_cell_formula_units_Z 32
_cell_length_a 11.454697
_cell_length_b 8.239917
_cell_length_c 13.463935
_cell_angle_alpha 90.000000
_cell_angle_beta 90.000000
_cell_angle_gamma 90.000000
_cell_volume 1270.803637
_symmetry_space_group_name_H-M "P N A 21"
_symmetry_group_IT_number 33
_symmetry_cell_setting 'orthorhombic'
loop_
_space_group_symop_operation_xyz
x,y,z
-x,-y,1/2+z
1/2-x,1/2+y,1/2+z
1/2+x,1/2-y,z
loop_
_atom_site_type_symbol
_atom_site_label
_atom_site_fract_x
_atom_site_fract_y
_atom_site_fract_z
Si Si1 0.812043 0.486234 0.943780
Si Si2 0.748864 0.822373 0.941254
Si Si3 0.069825 0.420990 0.962019
Si Si4 0.906878 0.957047 0.790975
Si Si5 0.315837 0.204469 0.746285
Si Si6 0.374493 0.258840 0.235544
Si Si7 0.924200 0.619217 0.225736
Si Si8 0.689054 0.278849 0.100661
O O1 0.750490 0.645776 0.986184
O O2 0.795968 0.437784 0.828232
O O3 0.948155 0.511735 0.962535
O O4 0.762671 0.343042 0.008897
O O5 0.873087 0.868087 0.893632
O O6 0.678073 0.791113 0.840408
O O7 0.679974 0.967303 0.990522
O O8 0.080207 0.364561 0.847284
O O9 0.073894 0.284111 0.046232
O O10 0.841182 0.902156 0.689395
O O11 0.033700 0.897643 0.761352
O O12 0.863283 0.138185 0.807044
O O13 0.191164 0.268603 0.699355
O O14 0.442128 0.164886 0.692065
O O15 0.278618 0.332408 0.161571
O O16 0.413638 0.074880 0.200984
#
# Coordination Sequence:
#
# PCOD9345021 Si02
#       8
#     4   4   4   4   4   4   4   4
#     4  11  23  38  65  92 126 164 206 280 328 375
#     4  10  20  39  63  89 123 156 218 258 323 380
#     4  10  20  40  62  91 123 165 211 265 325 391
#     4  11  21  39  62  92 123 168 212 264 317 401
#     4  11  21  39  67  96 126 165 219 272 325 388
#     4  10  22  40  62  89 128 168 211 268 320 390
#     4  10  20  41  63  97 127 162 219 274 320 387
#     4  11  21  40  62  86 130 162 214 251 336 388
#
# _framework density 25.180917000000001
#
# number of rings (size 3 to 8) (size 9 to 14) (size 15 to 20)
#    0.000    1.500    5.000    3.000    1.750    0.000 
#    0.000   10.000    0.000    0.000    0.000    0.000 
#    0.000    0.000    0.000    0.000    0.000    0.000 
#
# Total GULP energy -178265.048655 kJ/mol
# GULP energy per Si atom -5570.782770 kJ/mol
# Density = 2.512360 g / cm^3
# Si number density = 25.180917 Si / 1000 Ang^3
#
#
#
# Elastic Constant Matrix: (Units=GPa)
#
#
# Indices 1 2 3 4 5 6 
#
# 1 88.6371 5.3858 22.8867 0.0000 0.0000 0.0000
# 2 5.3858 46.1421 20.5181 0.0000 0.0000 0.0000
# 3 22.8867 20.5181 68.0399 0.0000 0.0000 0.0000
# 4 0.0000 0.0000 0.0000 18.4397 0.0000 0.0000
# 5 0.0000 0.0000 0.0000 0.0000 17.7419 0.0000
# 6 0.0000 0.0000 0.0000 0.0000 0.0000 39.8848
#
#
#
# Elastic Compliance Matrix: (Units=1/GPa)
#
#
# Indices 1 2 3 4 5 6 
#
# 1 0.012364 0.000469 -0.004300 0.000000 0.000000 0.000000
# 2 0.000469 0.025046 -0.007711 0.000000 0.000000 0.000000
# 3 -0.004300 -0.007711 0.018469 0.000000 0.000000 0.000000
# 4 0.000000 0.000000 0.000000 0.054231 0.000000 0.000000
# 5 0.000000 0.000000 0.000000 0.000000 0.056364 0.000000
# 6 0.000000 0.000000 0.000000 0.000000 0.000000 0.025072
#
#
# Mechanical properties :
#
#
# Convention : Reuss Voigt Hill
#
# Bulk Modulus (GPa) = 30.49231 33.37782 31.93506
# Shear Modulus (GPa) = 22.16691 25.48184 23.82438
#
# Velocity S-wave (km/s) = 2.97021 3.18457 3.07926
# Velocity P-wave (km/s) = 4.88861 5.17745 5.03510
#
# Compressibility (1/GPa) = 0.03279516
#
# Stress axis : x y z
#
# Youngs Moduli (GPa) = 80.88116 39.92625 54.14479
#
# Poissons Ratio (x) = -0.01873 0.23284
# Poissons Ratio (y) = -0.03794 0.41749
# Poissons Ratio (z) = 0.34781 0.30786
#
# Static dielectric constant tensor:
#      x y z
#    x 2.166630 0.000000 0.000000 
#    y 0.000000 2.101170 0.000000 
#    z 0.000000 0.000000 1.951910 
# 
# From -- ./inp_files/7961.got.cif
#   From: 2010.05.17/outbox.cif.g08.bks.cpg/sg33_4_cif.got.tgz:7961.got - 2010.06.03 17:15:25.
