data_PCOD9345735
_publ_section_title
;
Structure prediction by ZEFSAII (Michael W. Deem and Ramdas Pophale) SiO2 
 PCOD9345735
Probable space group: P N A 21
;
_chemical_formula_sum "Si O2"
_cell_formula_units_Z 32
_cell_length_a 9.427739
_cell_length_b 11.839233
_cell_length_c 13.418769
_cell_angle_alpha 90.000000
_cell_angle_beta 90.000000
_cell_angle_gamma 90.000000
_cell_volume 1497.765406
_symmetry_space_group_name_H-M "P N A 21"
_symmetry_group_IT_number 33
_symmetry_cell_setting 'orthorhombic'
loop_
_space_group_symop_operation_xyz
x,y,z
-x,-y,1/2+z
1/2-x,1/2+y,1/2+z
1/2+x,1/2-y,z
loop_
_atom_site_type_symbol
_atom_site_label
_atom_site_fract_x
_atom_site_fract_y
_atom_site_fract_z
Si Si1 0.091995 0.699025 0.041260
Si Si2 0.510742 0.889314 0.247561
Si Si3 0.603081 0.398042 0.578457
Si Si4 0.422470 0.728003 0.417364
Si Si5 0.671153 0.471161 0.794221
Si Si6 0.911077 0.381113 0.318907
Si Si7 0.284518 0.802781 0.750123
Si Si8 0.820900 0.147381 0.028013
O O1 0.258291 0.682861 0.067516
O O2 0.006642 0.639731 0.131567
O O3 0.030807 0.826282 0.040685
O O4 0.068919 0.636465 0.936697
O O5 0.485122 0.782198 0.317123
O O6 0.669122 0.932267 0.269032
O O7 0.410556 0.990447 0.282709
O O8 0.585736 0.438289 0.693707
O O9 0.643389 0.514426 0.522277
O O10 0.377143 0.601997 0.387264
O O11 0.294227 0.807150 0.450511
O O12 0.537577 0.717569 0.504270
O O13 0.689465 0.604385 0.809567
O O14 0.769507 0.317826 0.285195
O O15 0.050124 0.323965 0.268756
O O16 0.242983 0.826504 0.636219
#
# Coordination Sequence:
#
# PCOD9345735 Si02
#       8
#     4   4   4   4   4   4   4   4
#     4  11  22  41  66  92 131 173 215 266 332 387
#     4  10  22  41  64  96 129 165 215 270 318 395
#     4  10  22  42  62  97 132 170 211 278 315 384
#     4  12  21  41  67  97 124 173 216 263 322 396
#     4   9  20  40  62  89 134 166 207 265 324 372
#     4  11  23  41  66  89 129 172 213 263 330 382
#     4  10  23  44  59  92 132 170 211 273 316 387
#     4  11  25  40  68  94 135 169 220 270 331 379
#
# _framework density 21.365162000000002
#
# number of rings (size 3 to 8) (size 9 to 14) (size 15 to 20)
#    0.000    1.500    2.500    3.000    1.750    1.000 
#    0.000    1.250    0.000    0.000    0.000    0.000 
#    0.000    0.000    0.000    0.000    0.000    0.000 
#
# Total GULP energy -178764.938502 kJ/mol
# GULP energy per Si atom -5586.404328 kJ/mol
# Density = 2.131653 g / cm^3
# Si number density = 21.365162 Si / 1000 Ang^3
#
#
#
# Elastic Constant Matrix: (Units=GPa)
#
#
# Indices 1 2 3 4 5 6 
#
# 1 41.8362 13.2494 -3.4624 0.0000 0.0000 0.0000
# 2 13.2494 35.6418 -13.0577 0.0000 0.0000 0.0000
# 3 -3.4624 -13.0577 53.2113 0.0000 0.0000 0.0000
# 4 0.0000 0.0000 0.0000 28.4612 0.0000 0.0000
# 5 0.0000 0.0000 0.0000 0.0000 20.4114 0.0000
# 6 0.0000 0.0000 0.0000 0.0000 0.0000 31.9090
#
#
#
# Elastic Compliance Matrix: (Units=1/GPa)
#
#
# Indices 1 2 3 4 5 6 
#
# 1 0.027122 -0.010368 -0.000779 0.000000 0.000000 0.000000
# 2 -0.010368 0.034792 0.007863 0.000000 0.000000 0.000000
# 3 -0.000779 0.007863 0.020672 0.000000 0.000000 0.000000
# 4 0.000000 0.000000 0.000000 0.035135 0.000000 0.000000
# 5 0.000000 0.000000 0.000000 0.000000 0.048992 0.000000
# 6 0.000000 0.000000 0.000000 0.000000 0.000000 0.031339
#
#
# Mechanical properties :
#
#
# Convention : Reuss Voigt Hill
#
# Bulk Modulus (GPa) = 13.15493 13.79421 13.47457
# Shear Modulus (GPa) = 21.74301 25.08700 23.41500
#
# Velocity S-wave (km/s) = 3.19358 3.43038 3.31409
# Velocity P-wave (km/s) = 4.44625 4.70749 4.57873
#
# Compressibility (1/GPa) = 0.07601710
#
# Stress axis : x y z
#
# Youngs Moduli (GPa) = 36.87092 28.74251 48.37502
#
# Poissons Ratio (x) = 0.29799 0.03770
# Poissons Ratio (y) = 0.38227 -0.38037
# Poissons Ratio (z) = 0.02874 -0.22600
#
# Static dielectric constant tensor:
#      x y z
#    x 1.751370 0.000000 0.000000 
#    y 0.000000 1.818690 0.000000 
#    z 0.000000 0.000000 1.773660 
# 
# From -- ./inp_files/7694.got.cif
#   From: 2010.05.17/outbox.cif.g08.bks.cpg/sg33_4_cif.got.tgz:7694.got - 2010.06.03 17:15:25.
