data_PCOD9345530
_publ_section_title
;
Structure prediction by ZEFSAII (Michael W. Deem and Ramdas Pophale) SiO2 
 PCOD9345530
Probable space group: P N A 21
;
_chemical_formula_sum "Si O2"
_cell_formula_units_Z 32
_cell_length_a 13.652925
_cell_length_b 8.534560
_cell_length_c 12.120791
_cell_angle_alpha 90.000000
_cell_angle_beta 90.000000
_cell_angle_gamma 90.000000
_cell_volume 1412.335265
_symmetry_space_group_name_H-M "P N A 21"
_symmetry_group_IT_number 33
_symmetry_cell_setting 'orthorhombic'
loop_
_space_group_symop_operation_xyz
x,y,z
-x,-y,1/2+z
1/2-x,1/2+y,1/2+z
1/2+x,1/2-y,z
loop_
_atom_site_type_symbol
_atom_site_label
_atom_site_fract_x
_atom_site_fract_y
_atom_site_fract_z
Si Si1 0.246871 0.156861 0.888040
Si Si2 0.643228 0.795663 0.024219
Si Si3 0.895220 0.482759 0.732962
Si Si4 0.490580 0.568074 0.075060
Si Si5 0.185590 0.009434 0.425957
Si Si6 0.570099 0.207052 0.767387
Si Si7 0.117951 0.154855 0.209553
Si Si8 0.780043 0.525656 0.109139
O O1 0.288580 0.328751 0.912687
O O2 0.134316 0.201908 0.858385
O O3 0.292722 0.078701 0.779776
O O4 0.283286 0.039030 0.984139
O O5 0.554021 0.679362 0.992201
O O6 0.707886 0.674590 0.097029
O O7 0.599970 0.926170 0.106161
O O8 0.717011 0.882256 0.940256
O O9 0.902895 0.667223 0.734651
O O10 0.980126 0.400845 0.805339
O O11 0.477495 0.666566 0.186484
O O12 0.549446 0.415211 0.113744
O O13 0.383587 0.534508 0.030260
O O14 0.119538 0.059149 0.322631
O O15 0.634809 0.093138 0.686980
O O16 0.228067 0.120503 0.168190
#
# Coordination Sequence:
#
# PCOD9345530 Si02
#       8
#     4   4   4   4   4   4   4   4
#     4  12  25  43  72  98 138 184 232 288 357 425
#     4  10  21  43  66 100 134 177 226 280 347 420
#     4  11  24  44  68 101 141 179 233 287 349 424
#     4  10  24  42  71  95 138 178 232 284 354 421
#     4  12  22  43  69  98 139 181 231 289 353 423
#     4  11  23  47  68  98 142 182 227 299 348 420
#     4  11  25  44  65 103 138 179 236 294 349 427
#     4  11  22  44  67  97 136 178 227 287 349 414
#
# _framework density 22.657512000000001
#
# number of rings (size 3 to 8) (size 9 to 14) (size 15 to 20)
#    0.000    1.000    3.750    3.000    1.750    5.000 
#    2.250    0.000    0.000    0.000    0.000    0.000 
#    0.000    0.000    0.000    0.000    0.000    0.000 
#
# Total GULP energy -178589.721387 kJ/mol
# GULP energy per Si atom -5580.928793 kJ/mol
# Density = 2.260594 g / cm^3
# Si number density = 22.657512 Si / 1000 Ang^3
#
#
#
# Elastic Constant Matrix: (Units=GPa)
#
#
# Indices 1 2 3 4 5 6 
#
# 1 60.0995 23.1840 2.3486 0.0000 0.0000 0.0000
# 2 23.1840 67.4922 7.7884 0.0000 0.0000 0.0000
# 3 2.3486 7.7884 49.9735 0.0000 0.0000 0.0000
# 4 0.0000 0.0000 0.0000 22.6712 0.0000 0.0000
# 5 0.0000 0.0000 0.0000 0.0000 21.7959 0.0000
# 6 0.0000 0.0000 0.0000 0.0000 0.0000 19.5924
#
#
#
# Elastic Compliance Matrix: (Units=1/GPa)
#
#
# Indices 1 2 3 4 5 6 
#
# 1 0.019182 -0.006604 0.000128 0.000000 0.000000 0.000000
# 2 -0.006604 0.017361 -0.002395 0.000000 0.000000 0.000000
# 3 0.000128 -0.002395 0.020378 0.000000 0.000000 0.000000
# 4 0.000000 0.000000 0.000000 0.044109 0.000000 0.000000
# 5 0.000000 0.000000 0.000000 0.000000 0.045880 0.000000
# 6 0.000000 0.000000 0.000000 0.000000 0.000000 0.051040
#
#
# Mechanical properties :
#
#
# Convention : Reuss Voigt Hill
#
# Bulk Modulus (GPa) = 25.52454 27.13414 26.32934
# Shear Modulus (GPa) = 21.85773 22.42819 22.14296
#
# Velocity S-wave (km/s) = 3.10933 3.14965 3.12956
# Velocity P-wave (km/s) = 4.91736 5.02283 4.97037
#
# Compressibility (1/GPa) = 0.03917799
#
# Stress axis : x y z
#
# Youngs Moduli (GPa) = 52.13344 57.59917 49.07269
#
# Poissons Ratio (x) = 0.38037 -0.00627
# Poissons Ratio (y) = 0.34427 0.11755
# Poissons Ratio (z) = -0.00666 0.13797
#
# Static dielectric constant tensor:
#      x y z
#    x 1.902750 0.000000 0.000000 
#    y 0.000000 1.805290 0.000000 
#    z 0.000000 0.000000 1.980230 
# 
# From -- ./inp_files/6768.got.cif
#   From: 2010.05.17/outbox.cif.g08.bks.cpg/sg33_4_cif.got.tgz:6768.got - 2010.06.03 17:15:25.
