data_PCOD9345360
_publ_section_title
;
Structure prediction by ZEFSAII (Michael W. Deem and Ramdas Pophale) SiO2 
 PCOD9345360
Probable space group: P N A 21
;
_chemical_formula_sum "Si O2"
_cell_formula_units_Z 32
_cell_length_a 13.997532
_cell_length_b 5.520891
_cell_length_c 18.479547
_cell_angle_alpha 90.000000
_cell_angle_beta 90.000000
_cell_angle_gamma 90.000000
_cell_volume 1428.078112
_symmetry_space_group_name_H-M "P N A 21"
_symmetry_group_IT_number 33
_symmetry_cell_setting 'orthorhombic'
loop_
_space_group_symop_operation_xyz
x,y,z
-x,-y,1/2+z
1/2-x,1/2+y,1/2+z
1/2+x,1/2-y,z
loop_
_atom_site_type_symbol
_atom_site_label
_atom_site_fract_x
_atom_site_fract_y
_atom_site_fract_z
Si Si1 0.791998 0.863081 0.041500
Si Si2 0.640134 0.494180 0.242173
Si Si3 0.466495 0.606530 0.334529
Si Si4 0.791999 0.636918 0.355640
Si Si5 0.140134 0.494182 0.154968
Si Si6 0.372773 0.273152 0.456234
Si Si7 0.466495 0.893472 0.062611
Si Si8 0.627229 0.773150 0.440905
O O1 0.716907 0.007654 0.089987
O O2 0.877737 0.762886 0.090274
O O3 0.722427 0.668073 0.002532
O O4 0.843999 0.019129 0.979090
O O5 0.532881 0.486776 0.274683
O O6 0.716908 0.492347 0.307153
O O7 0.650112 0.749998 0.198570
O O8 0.656247 0.249998 0.198571
O O9 0.377738 0.762888 0.306866
O O10 0.414065 0.432521 0.391735
O O11 0.542761 0.755272 0.382456
O O12 0.844000 0.480867 0.418050
O O13 0.722429 0.831926 0.394608
O O14 0.032881 0.486777 0.122457
O O15 0.457240 0.255270 0.514683
O O16 0.414064 0.067484 0.005406
#
# Coordination Sequence:
#
# PCOD9345360 Si02
#       8
#     4   4   4   4   4   4   4   4
#     4  10  23  42  68 101 136 181 221 299 354 416
#     4  11  29  50  67  99 144 193 246 280 330 423
#     4  11  22  41  73  99 139 177 228 296 353 417
#     4  10  23  42  68 101 136 181 221 299 354 416
#     4  11  29  50  67  99 144 193 246 280 330 423
#     4  10  21  39  68 105 132 166 229 289 370 416
#     4  11  22  41  73  99 139 177 228 296 353 417
#     4  10  21  39  68 105 132 166 229 289 370 416
#
# _framework density 22.40774
#
# number of rings (size 3 to 8) (size 9 to 14) (size 15 to 20)
#    0.000    1.500    2.500    0.750    7.000    1.000 
#    0.000    0.000    0.000    0.000    0.000    0.000 
#    0.000    0.000    0.000    0.000    0.000    0.000 
#
# Total GULP energy -178524.425382 kJ/mol
# GULP energy per Si atom -5578.888293 kJ/mol
# Density = 2.235674 g / cm^3
# Si number density = 22.407740 Si / 1000 Ang^3
#
#
#
# Elastic Constant Matrix: (Units=GPa)
#
#
# Indices 1 2 3 4 5 6 
#
# 1 168.1279 29.1843 24.7956 0.0000 0.0000 0.0000
# 2 29.1843 47.5059 24.1202 0.0000 0.0000 0.0000
# 3 24.7956 24.1202 68.7748 0.0000 0.0000 0.0000
# 4 0.0000 0.0000 0.0000 48.9511 0.0000 0.0000
# 5 0.0000 0.0000 0.0000 0.0000 32.2581 0.0000
# 6 0.0000 0.0000 0.0000 0.0000 0.0000 20.7906
#
#
#
# Elastic Compliance Matrix: (Units=1/GPa)
#
#
# Indices 1 2 3 4 5 6 
#
# 1 0.006737 -0.003535 -0.001189 0.000000 0.000000 0.000000
# 2 -0.003535 0.027465 -0.008358 0.000000 0.000000 0.000000
# 3 -0.001189 -0.008358 0.017900 0.000000 0.000000 0.000000
# 4 0.000000 0.000000 0.000000 0.020429 0.000000 0.000000
# 5 0.000000 0.000000 0.000000 0.000000 0.031000 0.000000
# 6 0.000000 0.000000 0.000000 0.000000 0.000000 0.048099
#
#
# Mechanical properties :
#
#
# Convention : Reuss Voigt Hill
#
# Bulk Modulus (GPa) = 38.55306 48.95655 43.75481
# Shear Modulus (GPa) = 26.81837 34.15386 30.48611
#
# Velocity S-wave (km/s) = 3.46328 3.90833 3.69252
# Velocity P-wave (km/s) = 5.76498 6.50094 6.14399
#
# Compressibility (1/GPa) = 0.02593828
#
# Stress axis : x y z
#
# Youngs Moduli (GPa) = 148.43790 36.40968 55.86541
#
# Poissons Ratio (x) = 0.12870 0.06643
# Poissons Ratio (y) = 0.52471 0.46692
# Poissons Ratio (z) = 0.17651 0.30431
#
# Static dielectric constant tensor:
#      x y z
#    x 1.814840 0.000000 0.000000 
#    y 0.000000 1.950740 0.000000 
#    z 0.000000 0.000000 1.881360 
# 
# From -- ./inp_files/8774.got.cif
#   From: 2010.05.17/outbox.cif.g08.bks.cpg/sg33_5_cif.got.tgz:8774.got - 2010.06.03 17:15:25.
