data_PCOD9345616
_publ_section_title
;
Structure prediction by ZEFSAII (Michael W. Deem and Ramdas Pophale) SiO2 
 PCOD9345616
Probable space group: P N A 21
;
_chemical_formula_sum "Si O2"
_cell_formula_units_Z 28
_cell_length_a 8.426278
_cell_length_b 27.676583
_cell_length_c 5.167855
_cell_angle_alpha 90.000000
_cell_angle_beta 90.000000
_cell_angle_gamma 90.000000
_cell_volume 1205.198475
_symmetry_space_group_name_H-M "P N A 21"
_symmetry_group_IT_number 33
_symmetry_cell_setting 'orthorhombic'
loop_
_space_group_symop_operation_xyz
x,y,z
-x,-y,1/2+z
1/2-x,1/2+y,1/2+z
1/2+x,1/2-y,z
loop_
_atom_site_type_symbol
_atom_site_label
_atom_site_fract_x
_atom_site_fract_y
_atom_site_fract_z
Si Si1 0.513394 0.757677 0.366940
Si Si2 0.060479 0.636496 0.184009
Si Si3 0.009268 0.968672 0.612422
Si Si4 0.727621 0.607525 0.368467
Si Si5 0.732443 0.202874 0.177925
Si Si6 0.773634 0.879948 0.690989
Si Si7 0.013461 0.824975 0.034522
O O1 0.520640 0.806313 0.198870
O O2 0.438954 0.775777 0.638891
O O3 0.673799 0.733149 0.462915
O O4 0.428721 0.713252 0.219727
O O5 0.181975 0.629082 0.423586
O O6 0.895345 0.607456 0.220663
O O7 0.145935 0.620936 0.921750
O O8 0.872625 0.929183 0.663625
O O9 0.162437 0.940493 0.499986
O O10 0.958134 0.004662 0.382481
O O11 0.760529 0.647332 0.589972
O O12 0.584774 0.629297 0.190306
O O13 0.831676 0.203580 0.435402
O O14 0.904540 0.841220 0.795196
#
# Coordination Sequence:
#
# PCOD9345616 Si02
#       7
#     4   4   4   4   4   4   4
#     4  10  24  39  58 106 138 203 242 289 337 407
#     4  11  27  44  72 105 157 185 238 293 364 423
#     4  12  26  48  82 109 134 180 246 298 368 464
#     4  10  24  47  68 106 139 193 231 298 371 426
#     4  10  22  37  65  90 142 184 248 283 345 405
#     4  12  26  47  73 109 141 193 235 306 367 421
#     4  11  23  42  72  95 149 196 256 285 340 434
#
# _framework density 23.232689000000001
#
# number of rings (size 3 to 8) (size 9 to 14) (size 15 to 20)
#    0.000    1.143    1.429    3.429   10.000    2.286 
#    0.000    2.857    0.000    1.714    0.000    0.000 
#    0.000    0.000    0.000    0.000    0.000    0.000 
#
# Total GULP energy -156663.291819 kJ/mol
# GULP energy per Si atom -5595.117565 kJ/mol
# Density = 2.317981 g / cm^3
# Si number density = 23.232689 Si / 1000 Ang^3
#
#
#
# Elastic Constant Matrix: (Units=GPa)
#
#
# Indices 1 2 3 4 5 6 
#
# 1 83.7730 37.1211 24.0627 0.0000 0.0000 0.0000
# 2 37.1211 93.1909 26.6758 0.0000 0.0000 0.0000
# 3 24.0627 26.6758 107.7284 0.0000 0.0000 0.0000
# 4 0.0000 0.0000 0.0000 37.3839 0.0000 0.0000
# 5 0.0000 0.0000 0.0000 0.0000 46.2328 0.0000
# 6 0.0000 0.0000 0.0000 0.0000 0.0000 18.4091
#
#
#
# Elastic Compliance Matrix: (Units=1/GPa)
#
#
# Indices 1 2 3 4 5 6 
#
# 1 0.014885 -0.005357 -0.001998 0.000000 0.000000 0.000000
# 2 -0.005357 0.013477 -0.002141 0.000000 0.000000 0.000000
# 3 -0.001998 -0.002141 0.010259 0.000000 0.000000 0.000000
# 4 0.000000 0.000000 0.000000 0.026750 0.000000 0.000000
# 5 0.000000 0.000000 0.000000 0.000000 0.021630 0.000000
# 6 0.000000 0.000000 0.000000 0.000000 0.000000 0.054321
#
#
# Mechanical properties :
#
#
# Convention : Reuss Voigt Hill
#
# Bulk Modulus (GPa) = 50.94468 51.15684 51.05076
# Shear Modulus (GPa) = 29.96592 33.52735 31.74663
#
# Velocity S-wave (km/s) = 3.59530 3.80295 3.70058
# Velocity P-wave (km/s) = 6.26183 6.43043 6.34669
#
# Compressibility (1/GPa) = 0.01962913
#
# Stress axis : x y z
#
# Youngs Moduli (GPa) = 67.18265 74.19856 97.47529
#
# Poissons Ratio (x) = 0.39749 0.19478
# Poissons Ratio (y) = 0.35991 0.20866
# Poissons Ratio (z) = 0.13424 0.15884
#
# Static dielectric constant tensor:
#      x y z
#    x 1.961350 0.000000 0.000000 
#    y 0.000000 1.857880 0.000000 
#    z 0.000000 0.000000 1.866300 
# 
# From -- ./inp_files/567.got.cif
#   From: 2010.05.17/outbox.cif.g08.bks.cpg/sg33_1_cif.got.tgz:567.got - 2010.06.03 17:15:25.
