data_PCOD9345864
_publ_section_title
;
Structure prediction by ZEFSAII (Michael W. Deem and Ramdas Pophale) SiO2 
 PCOD9345864
Probable space group: P N A 21
;
_chemical_formula_sum "Si O2"
_cell_formula_units_Z 24
_cell_length_a 9.458899
_cell_length_b 8.918623
_cell_length_c 11.310858
_cell_angle_alpha 90.000000
_cell_angle_beta 90.000000
_cell_angle_gamma 90.000000
_cell_volume 954.187987
_symmetry_space_group_name_H-M "P N A 21"
_symmetry_group_IT_number 33
_symmetry_cell_setting 'orthorhombic'
loop_
_space_group_symop_operation_xyz
x,y,z
-x,-y,1/2+z
1/2-x,1/2+y,1/2+z
1/2+x,1/2-y,z
loop_
_atom_site_type_symbol
_atom_site_label
_atom_site_fract_x
_atom_site_fract_y
_atom_site_fract_z
Si Si1 0.965411 0.455186 0.953490
Si Si2 0.173495 0.362293 0.263119
Si Si3 0.635137 0.206993 0.640643
Si Si4 0.227921 0.088951 0.430584
Si Si5 0.416482 0.419387 0.743201
Si Si6 0.053598 0.809694 0.622273
O O1 0.863103 0.494564 0.843081
O O2 0.128919 0.493748 0.928121
O O3 0.927666 0.578693 0.055188
O O4 0.943488 0.289315 0.004432
O O5 0.238729 0.235972 0.348546
O O6 0.289814 0.361750 0.160126
O O7 0.024369 0.305276 0.212569
O O8 0.693571 0.338607 0.556108
O O9 0.524236 0.284238 0.727701
O O10 0.762814 0.136825 0.710861
O O11 0.097740 0.999585 0.370056
O O12 0.457512 0.544157 0.644096
#
# Coordination Sequence:
#
# PCOD9345864 Si02
#       6
#     4   4   4   4   4   4
#     4  11  22  43  80 107 153 208 265 318 404 473
#     4  10  22  43  72 107 159 208 253 328 398 461
#     4  11  24  48  75 110 154 210 252 329 395 472
#     4  10  22  45  74 107 149 203 258 316 400 461
#     4  11  26  49  76 109 157 202 263 328 399 471
#     4  11  24  44  75 116 150 213 263 325 396 472
#
# _framework density 25.152277000000002
#
# number of rings (size 3 to 8) (size 9 to 14) (size 15 to 20)
#    0.000    1.333    3.333    2.000    2.333    0.000 
#    3.000    0.000    0.000    0.000    0.000    0.000 
#    0.000    0.000    0.000    0.000    0.000    0.000 
#
# Total GULP energy -134394.242746 kJ/mol
# GULP energy per Si atom -5599.760114 kJ/mol
# Density = 2.509503 g / cm^3
# Si number density = 25.152277 Si / 1000 Ang^3
#
#
#
# Elastic Constant Matrix: (Units=GPa)
#
#
# Indices 1 2 3 4 5 6 
#
# 1 124.8220 53.7560 43.1348 0.0000 0.0000 0.0000
# 2 53.7560 154.3909 57.6101 0.0000 0.0000 0.0000
# 3 43.1348 57.6101 67.5958 0.0000 0.0000 0.0000
# 4 0.0000 0.0000 0.0000 53.8362 0.0000 0.0000
# 5 0.0000 0.0000 0.0000 0.0000 42.0153 0.0000
# 6 0.0000 0.0000 0.0000 0.0000 0.0000 8.3439
#
#
#
# Elastic Compliance Matrix: (Units=1/GPa)
#
#
# Indices 1 2 3 4 5 6 
#
# 1 0.010576 -0.001707 -0.005294 0.000000 0.000000 0.000000
# 2 -0.001707 0.009773 -0.007240 0.000000 0.000000 0.000000
# 3 -0.005294 -0.007240 0.024343 0.000000 0.000000 0.000000
# 4 0.000000 0.000000 0.000000 0.018575 0.000000 0.000000
# 5 0.000000 0.000000 0.000000 0.000000 0.023801 0.000000
# 6 0.000000 0.000000 0.000000 0.000000 0.000000 0.119848
#
#
# Mechanical properties :
#
#
# Convention : Reuss Voigt Hill
#
# Bulk Modulus (GPa) = 61.69208 72.86784 67.27996
# Shear Modulus (GPa) = 20.76406 33.65960 27.21183
#
# Velocity S-wave (km/s) = 2.87633 3.66215 3.29277
# Velocity P-wave (km/s) = 5.96755 6.84948 6.42367
#
# Compressibility (1/GPa) = 0.01620954
#
# Stress axis : x y z
#
# Youngs Moduli (GPa) = 94.55384 102.32345 41.08030
#
# Poissons Ratio (x) = 0.17466 0.21748
# Poissons Ratio (y) = 0.16139 0.29742
# Poissons Ratio (z) = 0.50058 0.74082
#
# Static dielectric constant tensor:
#      x y z
#    x 1.909110 0.000000 0.000000 
#    y 0.000000 1.969030 0.000000 
#    z 0.000000 0.000000 2.026960 
# 
# From -- ./inp_files/5751.got.cif
#   From: 2010.05.17/outbox.cif.g08.bks.cpg/sg33_3_cif.got.tgz:5751.got - 2010.06.03 17:15:25.
