data_PCOD9345332
_publ_section_title
;
Structure prediction by ZEFSAII (Michael W. Deem and Ramdas Pophale) SiO2 
 PCOD9345332
Probable space group: P N A 21
;
_chemical_formula_sum "Si O2"
_cell_formula_units_Z 32
_cell_length_a 20.276454
_cell_length_b 9.025066
_cell_length_c 9.322395
_cell_angle_alpha 90.000000
_cell_angle_beta 90.000000
_cell_angle_gamma 90.000000
_cell_volume 1705.964124
_symmetry_space_group_name_H-M "P N A 21"
_symmetry_group_IT_number 33
_symmetry_cell_setting 'orthorhombic'
loop_
_space_group_symop_operation_xyz
x,y,z
-x,-y,1/2+z
1/2-x,1/2+y,1/2+z
1/2+x,1/2-y,z
loop_
_atom_site_type_symbol
_atom_site_label
_atom_site_fract_x
_atom_site_fract_y
_atom_site_fract_z
Si Si1 0.882481 0.085116 0.090780
Si Si2 0.955936 0.433592 0.717764
Si Si3 0.142363 0.513083 0.970142
Si Si4 0.962099 0.790847 0.050752
Si Si5 0.741519 0.400597 0.677351
Si Si6 0.159425 0.638773 0.435111
Si Si7 0.162583 0.387455 0.661840
Si Si8 0.049820 0.693395 0.800432
O O1 0.925787 0.204685 0.174696
O O2 0.933855 0.955494 0.055022
O O3 0.823694 0.002864 0.177143
O O4 0.848412 0.186666 0.968939
O O5 0.914172 0.514516 0.590594
O O6 0.907413 0.411524 0.852213
O O7 0.983064 0.274977 0.661178
O O8 0.017879 0.537715 0.753077
O O9 0.151498 0.406408 0.833219
O O10 0.113914 0.661285 0.896811
O O11 0.209303 0.538293 0.055786
O O12 0.899740 0.687546 0.084513
O O13 0.993772 0.766293 0.896421
O O14 0.781457 0.396333 0.825708
O O15 0.720411 0.232159 0.642042
O O16 0.171237 0.543605 0.580021
#
# Coordination Sequence:
#
# PCOD9345332 Si02
#       8
#     4   4   4   4   4   4   4   4
#     4  11  24  39  63  91 125 162 201 266 310 351
#     4  10  21  39  65  92 121 163 207 244 307 388
#     4  10  21  39  64  88 119 157 209 253 296 363
#     4  10  22  38  59  93 128 152 198 254 309 366
#     4  10  25  41  59  90 124 158 215 255 306 358
#     4  11  22  40  66  86 122 167 207 250 309 373
#     4  11  20  39  65  84 118 166 201 252 301 372
#     4  11  21  39  63  94 121 165 204 250 310 377
#
# _framework density 18.757721
#
# number of rings (size 3 to 8) (size 9 to 14) (size 15 to 20)
#    0.000    1.500    3.750    0.750    5.250    0.000 
#    2.250    0.000    2.750    0.000    0.000    0.000 
#    0.000    0.000    0.000    0.000    0.000    0.000 
#
# Total GULP energy -178292.204124 kJ/mol
# GULP energy per Si atom -5571.631379 kJ/mol
# Density = 1.871503 g / cm^3
# Si number density = 18.757721 Si / 1000 Ang^3
#
#
#
# Elastic Constant Matrix: (Units=GPa)
#
#
# Indices 1 2 3 4 5 6 
#
# 1 67.7786 25.5188 26.5416 0.0000 0.0000 0.0000
# 2 25.5188 89.8751 25.2706 0.0000 0.0000 0.0000
# 3 26.5416 25.2706 76.6696 0.0000 0.0000 0.0000
# 4 0.0000 0.0000 0.0000 18.6685 0.0000 0.0000
# 5 0.0000 0.0000 0.0000 0.0000 21.0227 0.0000
# 6 0.0000 0.0000 0.0000 0.0000 0.0000 21.7440
#
#
#
# Elastic Compliance Matrix: (Units=1/GPa)
#
#
# Indices 1 2 3 4 5 6 
#
# 1 0.018135 -0.003730 -0.005049 0.000000 0.000000 0.000000
# 2 -0.003730 0.013030 -0.003004 0.000000 0.000000 0.000000
# 3 -0.005049 -0.003004 0.015781 0.000000 0.000000 0.000000
# 4 0.000000 0.000000 0.000000 0.053566 0.000000 0.000000
# 5 0.000000 0.000000 0.000000 0.000000 0.047568 0.000000
# 6 0.000000 0.000000 0.000000 0.000000 0.000000 0.045990
#
#
# Mechanical properties :
#
#
# Convention : Reuss Voigt Hill
#
# Bulk Modulus (GPa) = 42.76801 43.22059 42.99430
# Shear Modulus (GPa) = 22.18007 22.75319 22.46663
#
# Velocity S-wave (km/s) = 3.44241 3.48660 3.46457
# Velocity P-wave (km/s) = 6.21691 6.26897 6.24299
#
# Compressibility (1/GPa) = 0.02338196
#
# Stress axis : x y z
#
# Youngs Moduli (GPa) = 55.14132 76.74547 63.36818
#
# Poissons Ratio (x) = 0.28623 0.31993
# Poissons Ratio (y) = 0.20566 0.19033
# Poissons Ratio (z) = 0.27840 0.23051
#
# Static dielectric constant tensor:
#      x y z
#    x 1.656450 0.000000 0.000000 
#    y 0.000000 1.647620 0.000000 
#    z 0.000000 0.000000 1.661900 
# 
# From -- ./inp_files/4978.got.cif
#   From: 2010.05.17/outbox.cif.g08.bks.cpg/sg33_3_cif.got.tgz:4978.got - 2010.06.03 17:15:25.
