data_PCOD9345830
_publ_section_title
;
Structure prediction by ZEFSAII (Michael W. Deem and Ramdas Pophale) SiO2 
 PCOD9345830
Probable space group: P N A 21
;
_chemical_formula_sum "Si O2"
_cell_formula_units_Z 32
_cell_length_a 12.153556
_cell_length_b 19.850957
_cell_length_c 4.960255
_cell_angle_alpha 90.000000
_cell_angle_beta 90.000000
_cell_angle_gamma 90.000000
_cell_volume 1196.709720
_symmetry_space_group_name_H-M "P N A 21"
_symmetry_group_IT_number 33
_symmetry_cell_setting 'orthorhombic'
loop_
_space_group_symop_operation_xyz
x,y,z
-x,-y,1/2+z
1/2-x,1/2+y,1/2+z
1/2+x,1/2-y,z
loop_
_atom_site_type_symbol
_atom_site_label
_atom_site_fract_x
_atom_site_fract_y
_atom_site_fract_z
Si Si1 0.520230 0.814225 0.210350
Si Si2 0.578419 0.010888 0.130480
Si Si3 0.631959 0.453141 0.372047
Si Si4 0.999541 0.915010 0.374457
Si Si5 0.662218 0.145027 0.335003
Si Si6 0.203548 0.600595 0.463570
Si Si7 0.854545 0.192802 0.622503
Si Si8 0.325884 0.740042 0.484895
O O1 0.591200 0.855915 0.426659
O O2 0.598646 0.765807 0.028027
O O3 0.439021 0.764484 0.361877
O O4 0.439275 0.861224 0.041056
O O5 0.634967 0.085204 0.127868
O O6 0.476506 0.007479 0.344904
O O7 0.669669 0.959944 0.258926
O O8 0.601531 0.436503 0.679221
O O9 0.596220 0.530111 0.340364
O O10 0.747375 0.433140 0.235101
O O11 0.542140 0.415068 0.180607
O O12 0.049307 0.848019 0.260175
O O13 0.787461 0.141399 0.434105
O O14 0.662862 0.226715 0.278687
O O15 0.288711 0.664342 0.437719
O O16 0.767591 0.213867 0.850454
#
# Coordination Sequence:
#
# PCOD9345830 Si02
#       8
#     4   4   4   4   4   4   4   4
#     4  10  22  45  66  99 146 181 243 308 376 446
#     4  12  27  48  75 106 152 198 246 313 384 457
#     4  10  23  41  67 100 136 181 237 293 357 434
#     4  10  22  43  65  99 141 179 234 298 356 430
#     4  11  24  43  70 104 142 190 249 306 381 454
#     4  11  23  46  71 108 141 202 251 311 382 470
#     4  10  23  39  67  95 133 185 230 294 367 433
#     4  10  24  43  69 101 141 188 248 301 379 456
#
# _framework density 26.739985000000001
#
# number of rings (size 3 to 8) (size 9 to 14) (size 15 to 20)
#    0.000    1.500    1.250    2.250    5.250    4.000 
#    6.750    0.000    0.000    0.000    0.000    0.000 
#    0.000    0.000    0.000    0.000    0.000    0.000 
#
# Total GULP energy -178665.206224 kJ/mol
# GULP energy per Si atom -5583.287695 kJ/mol
# Density = 2.667912 g / cm^3
# Si number density = 26.739985 Si / 1000 Ang^3
#
#
#
# Elastic Constant Matrix: (Units=GPa)
#
#
# Indices 1 2 3 4 5 6 
#
# 1 114.7354 43.1950 5.8676 0.0000 0.0000 0.0000
# 2 43.1950 120.0944 5.4289 0.0000 0.0000 0.0000
# 3 5.8676 5.4289 65.7382 0.0000 0.0000 0.0000
# 4 0.0000 0.0000 0.0000 6.8504 0.0000 0.0000
# 5 0.0000 0.0000 0.0000 0.0000 19.5283 0.0000
# 6 0.0000 0.0000 0.0000 0.0000 0.0000 31.7875
#
#
#
# Elastic Compliance Matrix: (Units=1/GPa)
#
#
# Indices 1 2 3 4 5 6 
#
# 1 0.010105 -0.003607 -0.000604 0.000000 0.000000 0.000000
# 2 -0.003607 0.009646 -0.000475 0.000000 0.000000 0.000000
# 3 -0.000604 -0.000475 0.015305 0.000000 0.000000 0.000000
# 4 0.000000 0.000000 0.000000 0.145977 0.000000 0.000000
# 5 0.000000 0.000000 0.000000 0.000000 0.051208 0.000000
# 6 0.000000 0.000000 0.000000 0.000000 0.000000 0.031459
#
#
# Mechanical properties :
#
#
# Convention : Reuss Voigt Hill
#
# Bulk Modulus (GPa) = 38.93514 45.50567 42.22041
# Shear Modulus (GPa) = 17.75373 28.03834 22.89604
#
# Velocity S-wave (km/s) = 2.57950 3.24165 2.92934
# Velocity P-wave (km/s) = 4.84396 5.57368 5.22158
#
# Compressibility (1/GPa) = 0.02568374
#
# Stress axis : x y z
#
# Youngs Moduli (GPa) = 98.96517 103.67416 65.33832
#
# Poissons Ratio (x) = 0.37396 0.03947
# Poissons Ratio (y) = 0.35697 0.03101
# Poissons Ratio (z) = 0.05978 0.04920
#
# Static dielectric constant tensor:
#      x y z
#    x 2.219730 0.000000 0.000000 
#    y 0.000000 2.142760 0.000000 
#    z 0.000000 0.000000 2.171140 
# 
# From -- ./inp_files/1064.got.cif
#   From: 2010.05.17/outbox.cif.g08.bks.cpg/sg33_1_cif.got.tgz:1064.got - 2010.06.03 17:15:25.
