data_PCOD9345825
_publ_section_title
;
Structure prediction by ZEFSAII (Michael W. Deem and Ramdas Pophale) SiO2 
 PCOD9345825
Probable space group: P N A 21
;
_chemical_formula_sum "Si O2"
_cell_formula_units_Z 32
_cell_length_a 9.744297
_cell_length_b 5.713424
_cell_length_c 23.327046
_cell_angle_alpha 90.000000
_cell_angle_beta 90.000000
_cell_angle_gamma 90.000000
_cell_volume 1298.693638
_symmetry_space_group_name_H-M "P N A 21"
_symmetry_group_IT_number 33
_symmetry_cell_setting 'orthorhombic'
loop_
_space_group_symop_operation_xyz
x,y,z
-x,-y,1/2+z
1/2-x,1/2+y,1/2+z
1/2+x,1/2-y,z
loop_
_atom_site_type_symbol
_atom_site_label
_atom_site_fract_x
_atom_site_fract_y
_atom_site_fract_z
Si Si1 0.440254 0.993800 0.750000
Si Si2 0.481192 0.502859 0.228231
Si Si3 0.731211 0.001323 0.140584
Si Si4 0.785074 0.497462 0.857834
Si Si5 0.552578 0.191820 0.919596
Si Si6 0.505993 0.475947 0.511461
Si Si7 0.261212 0.208227 0.458892
Si Si8 0.153654 0.003476 0.118799
O O1 0.512748 0.245083 0.759045
O O2 0.403437 0.991954 0.682240
O O3 0.305072 0.991597 0.790072
O O4 0.514205 0.744563 0.761918
O O5 0.356780 0.501971 0.184050
O O6 0.616400 0.498434 0.186462
O O7 0.721862 0.751495 0.108649
O O8 0.729680 0.249411 0.107344
O O9 0.658523 0.341602 0.880533
O O10 0.765788 0.738930 0.891956
O O11 0.935849 0.417389 0.879467
O O12 0.460871 0.314167 0.968792
O O13 0.648998 0.023162 0.956711
O O14 0.359113 0.399999 0.486578
O O15 0.622299 0.294924 0.494339
O O16 0.480106 0.512788 0.577930
#
# Coordination Sequence:
#
# PCOD9345825 Si02
#       8
#     4   4   4   4   4   4   4   4
#     4  10  24  40  67  97 128 177 224 273 340 402
#     4  10  22  43  64  96 134 167 224 282 331 407
#     4  10  22  44  62  98 133 169 222 284 329 407
#     4  11  25  42  69  98 132 186 222 282 344 402
#     4  11  24  44  65  97 138 169 233 281 332 414
#     4  11  25  42  68  99 128 187 220 287 339 410
#     4  11  24  45  64  98 139 168 232 280 335 411
#     4  10  24  40  67  95 128 173 225 269 346 395
#
# _framework density 24.640146999999999
#
# number of rings (size 3 to 8) (size 9 to 14) (size 15 to 20)
#    0.000    1.500    2.500    0.750    7.000    1.000 
#    0.000    0.000    0.000    0.000    0.000    0.000 
#    0.000    0.000    0.000    0.000    0.000    0.000 
#
# Total GULP energy -178582.470680 kJ/mol
# GULP energy per Si atom -5580.702209 kJ/mol
# Density = 2.458406 g / cm^3
# Si number density = 24.640147 Si / 1000 Ang^3
#
#
#
# Elastic Constant Matrix: (Units=GPa)
#
#
# Indices 1 2 3 4 5 6 
#
# 1 75.3754 21.3388 -1.1645 0.0000 0.0000 0.0000
# 2 21.3388 160.2217 13.3219 0.0000 0.0000 0.0000
# 3 -1.1645 13.3219 90.2315 0.0000 0.0000 0.0000
# 4 0.0000 0.0000 0.0000 13.0667 0.0000 0.0000
# 5 0.0000 0.0000 0.0000 0.0000 47.9986 0.0000
# 6 0.0000 0.0000 0.0000 0.0000 0.0000 -4.1096
#
#
#
# Elastic Compliance Matrix: (Units=1/GPa)
#
#
# Indices 1 2 3 4 5 6 
#
# 1 0.013805 -0.001876 0.000455 0.000000 0.000000 0.000000
# 2 -0.001876 0.006574 -0.000995 0.000000 0.000000 0.000000
# 3 0.000455 -0.000995 0.011235 0.000000 0.000000 0.000000
# 4 0.000000 0.000000 0.000000 0.076531 0.000000 0.000000
# 5 0.000000 0.000000 0.000000 0.000000 0.020834 0.000000
# 6 0.000000 0.000000 0.000000 0.000000 0.000000 -0.243336
#
#
# Mechanical properties :
#
#
# Convention : Reuss Voigt Hill
#
# Bulk Modulus (GPa) = 37.33799 43.64680 40.49240
# Shear Modulus (GPa) = -49.70334 30.87997 -9.41168
#
# Velocity S-wave (km/s) = -4.49616 3.54395 -1.95651
# Velocity P-wave (km/s) = 3.43042 5.87352 3.37124
#
# Compressibility (1/GPa) = 0.02678237
#
# Stress axis : x y z
#
# Youngs Moduli (GPa) = 72.43658 152.11486 89.00476
#
# Poissons Ratio (x) = 0.28544 -0.04052
# Poissons Ratio (y) = 0.13592 0.08854
# Poissons Ratio (z) = -0.03297 0.15132
#
# Static dielectric constant tensor:
#      x y z
#    x 1.952510 0.000000 0.000000 
#    y 0.000000 2.008300 0.000000 
#    z 0.000000 0.000000 1.988140 
# 
# From -- ./inp_files/9288.got.cif
#   From: 2010.05.17/outbox.cif.g08.bks.cpg/sg33_5_cif.got.tgz:9288.got - 2010.06.03 17:15:25.
