data_PCOD9345772
_publ_section_title
;
Structure prediction by ZEFSAII (Michael W. Deem and Ramdas Pophale) SiO2 
 PCOD9345772
Probable space group: P N A 21
;
_chemical_formula_sum "Si O2"
_cell_formula_units_Z 32
_cell_length_a 31.480176
_cell_length_b 5.290874
_cell_length_c 8.458512
_cell_angle_alpha 90.000000
_cell_angle_beta 90.000000
_cell_angle_gamma 90.000000
_cell_volume 1408.829837
_symmetry_space_group_name_H-M "P N A 21"
_symmetry_group_IT_number 33
_symmetry_cell_setting 'orthorhombic'
loop_
_space_group_symop_operation_xyz
x,y,z
-x,-y,1/2+z
1/2-x,1/2+y,1/2+z
1/2+x,1/2-y,z
loop_
_atom_site_type_symbol
_atom_site_label
_atom_site_fract_x
_atom_site_fract_y
_atom_site_fract_z
Si Si1 0.351059 0.346579 0.270070
Si Si2 0.217219 0.674812 0.258631
Si Si3 0.056011 0.389300 0.001626
Si Si4 0.543648 0.513211 0.255710
Si Si5 0.516844 0.221731 0.530850
Si Si6 0.373181 0.270871 0.624683
Si Si7 0.900272 0.671551 0.197622
Si Si8 0.238937 0.685647 0.629060
O O1 0.355731 0.389874 0.459816
O O2 0.367427 0.596516 0.176486
O O3 0.303630 0.269623 0.221726
O O4 0.378133 0.095603 0.229978
O O5 0.167102 0.706685 0.230148
O O6 0.228564 0.652867 0.443713
O O7 0.230229 0.422627 0.163127
O O8 0.241474 0.923614 0.193160
O O9 0.037601 0.231555 0.145670
O O10 0.096791 0.540962 0.067377
O O11 0.018363 0.564773 0.936392
O O12 0.073954 0.235288 0.853757
O O13 0.529639 0.466971 0.432008
O O14 0.511929 0.712169 0.180181
O O15 0.592973 0.571120 0.226386
O O16 0.562999 0.115234 0.570633
#
# Coordination Sequence:
#
# PCOD9345772 Si02
#       8
#     4   4   4   4   4   4   4   4
#     4  11  24  45  71 100 143 178 237 286 362 425
#     4  12  27  48  78 109 148 191 243 299 371 444
#     4  10  22  42  63  96 133 186 233 289 352 418
#     4  11  23  42  65  94 141 179 244 289 355 410
#     4  11  25  38  65  94 135 188 235 293 349 421
#     4  10  24  42  67 103 137 187 229 299 352 430
#     4  11  24  42  67  98 137 183 232 291 350 420
#     4  12  27  49  78 110 148 192 241 302 369 444
#
# _framework density 22.713884
#
# number of rings (size 3 to 8) (size 9 to 14) (size 15 to 20)
#    0.000    1.000    1.250    4.500    8.750    3.000 
#    0.000    0.000    0.000    0.000    0.000    0.000 
#    0.000    0.000    0.000    0.000    0.000    0.000 
#
# Total GULP energy -178749.641358 kJ/mol
# GULP energy per Si atom -5585.926292 kJ/mol
# Density = 2.266219 g / cm^3
# Si number density = 22.713884 Si / 1000 Ang^3
#
#
#
# Elastic Constant Matrix: (Units=GPa)
#
#
# Indices 1 2 3 4 5 6 
#
# 1 93.5113 -1.2855 32.8424 0.0000 0.0000 0.0000
# 2 -1.2855 47.3374 -1.6258 0.0000 0.0000 0.0000
# 3 32.8424 -1.6258 57.2147 0.0000 0.0000 0.0000
# 4 0.0000 0.0000 0.0000 25.8354 0.0000 0.0000
# 5 0.0000 0.0000 0.0000 0.0000 32.3892 0.0000
# 6 0.0000 0.0000 0.0000 0.0000 0.0000 23.3191
#
#
#
# Elastic Compliance Matrix: (Units=1/GPa)
#
#
# Indices 1 2 3 4 5 6 
#
# 1 0.013395 0.000100 -0.007686 0.000000 0.000000 0.000000
# 2 0.000100 0.021146 0.000544 0.000000 0.000000 0.000000
# 3 -0.007686 0.000544 0.021905 0.000000 0.000000 0.000000
# 4 0.000000 0.000000 0.000000 0.038707 0.000000 0.000000
# 5 0.000000 0.000000 0.000000 0.000000 0.030874 0.000000
# 6 0.000000 0.000000 0.000000 0.000000 0.000000 0.042883
#
#
# Mechanical properties :
#
#
# Convention : Reuss Voigt Hill
#
# Bulk Modulus (GPa) = 23.60649 28.65839 26.13244
# Shear Modulus (GPa) = 25.36573 27.51756 26.44165
#
# Velocity S-wave (km/s) = 3.34541 3.48442 3.41562
# Velocity P-wave (km/s) = 5.03367 5.36961 5.20435
#
# Compressibility (1/GPa) = 0.04236123
#
# Stress axis : x y z
#
# Youngs Moduli (GPa) = 74.65650 47.28951 45.65091
#
# Poissons Ratio (x) = -0.00472 0.35087
# Poissons Ratio (y) = -0.00745 -0.02482
# Poissons Ratio (z) = 0.57381 -0.02571
#
# Static dielectric constant tensor:
#      x y z
#    x 1.804270 0.000000 0.000000 
#    y 0.000000 1.917060 0.000000 
#    z 0.000000 0.000000 1.879630 
# 
# From -- ./inp_files/5324.got.cif
#   From: 2010.05.17/outbox.cif.g08.bks.cpg/sg33_3_cif.got.tgz:5324.got - 2010.06.03 17:15:25.
