data_PCOD9345166
_publ_section_title
;
Structure prediction by ZEFSAII (Michael W. Deem and Ramdas Pophale) SiO2 
 PCOD9345166
Probable space group: P N A 21
;
_chemical_formula_sum "Si O2"
_cell_formula_units_Z 32
_cell_length_a 16.475942
_cell_length_b 15.135976
_cell_length_c 6.127483
_cell_angle_alpha 90.000000
_cell_angle_beta 90.000000
_cell_angle_gamma 90.000000
_cell_volume 1528.068418
_symmetry_space_group_name_H-M "P N A 21"
_symmetry_group_IT_number 33
_symmetry_cell_setting 'orthorhombic'
loop_
_space_group_symop_operation_xyz
x,y,z
-x,-y,1/2+z
1/2-x,1/2+y,1/2+z
1/2+x,1/2-y,z
loop_
_atom_site_type_symbol
_atom_site_label
_atom_site_fract_x
_atom_site_fract_y
_atom_site_fract_z
Si Si1 0.805519 0.932727 0.472420
Si Si2 0.131899 0.304347 0.652904
Si Si3 0.170646 0.637531 0.178235
Si Si4 0.501155 0.955388 0.129502
Si Si5 0.057891 0.108830 0.638241
Si Si6 0.728682 0.286439 0.300717
Si Si7 0.296776 0.307841 0.932467
Si Si8 0.109824 0.966171 0.305427
O O1 0.719458 0.920424 0.356374
O O2 0.878193 0.934615 0.303230
O O3 0.815891 0.845161 0.620782
O O4 0.820424 0.013936 0.629012
O O5 0.079403 0.212714 0.661879
O O6 0.177082 0.286942 0.423797
O O7 0.204360 0.313538 0.833709
O O8 0.073914 0.387910 0.649915
O O9 0.086376 0.595800 0.116938
O O10 0.161300 0.736838 0.271517
O O11 0.232964 0.648219 0.978042
O O12 0.504902 0.000514 0.379895
O O13 0.967320 0.083491 0.704591
O O14 0.078013 0.056892 0.413826
O O15 0.797315 0.237648 0.166650
O O16 0.344220 0.398239 0.959766
#
# Coordination Sequence:
#
# PCOD9345166 Si02
#       8
#     4   4   4   4   4   4   4   4
#     4  11  21  41  70  97 143 182 241 293 368 440
#     4  11  24  48  71 103 144 189 241 301 380 437
#     4  10  23  48  71 101 141 194 242 302 377 442
#     4  12  32  51  75 114 149 199 255 315 373 444
#     4  12  23  43  67 102 143 185 229 303 375 426
#     4  10  20  44  72  97 134 197 241 294 368 439
#     4  10  24  43  73 103 136 193 244 299 367 451
#     4  12  25  40  67 109 138 181 241 299 366 443
#
# _framework density 20.941471
#
# number of rings (size 3 to 8) (size 9 to 14) (size 15 to 20)
#    0.000    1.000    6.250    0.750    7.000    3.000 
#    4.500    0.000    0.000    0.000    0.000    0.000 
#    0.000    0.000    0.000    0.000    0.000    0.000 
#
# Total GULP energy -178263.058604 kJ/mol
# GULP energy per Si atom -5570.720581 kJ/mol
# Density = 2.089381 g / cm^3
# Si number density = 20.941471 Si / 1000 Ang^3
#
#
#
# Elastic Constant Matrix: (Units=GPa)
#
#
# Indices 1 2 3 4 5 6 
#
# 1 82.5785 44.0574 22.6217 0.0000 0.0000 0.0000
# 2 44.0574 64.7087 19.0701 0.0000 0.0000 0.0000
# 3 22.6217 19.0701 74.3634 0.0000 0.0000 0.0000
# 4 0.0000 0.0000 0.0000 -8.4959 0.0000 0.0000
# 5 0.0000 0.0000 0.0000 0.0000 8.1486 0.0000
# 6 0.0000 0.0000 0.0000 0.0000 0.0000 33.5609
#
#
#
# Elastic Compliance Matrix: (Units=1/GPa)
#
#
# Indices 1 2 3 4 5 6 
#
# 1 0.019520 -0.012484 -0.002737 0.000000 0.000000 0.000000
# 2 -0.012484 0.024701 -0.002537 0.000000 0.000000 0.000000
# 3 -0.002737 -0.002537 0.014931 0.000000 0.000000 0.000000
# 4 0.000000 0.000000 0.000000 -0.117703 0.000000 0.000000
# 5 0.000000 0.000000 0.000000 0.000000 0.122720 0.000000
# 6 0.000000 0.000000 0.000000 0.000000 0.000000 0.029797
#
#
# Mechanical properties :
#
#
# Convention : Reuss Voigt Hill
#
# Bulk Modulus (GPa) = 42.30646 43.68322 42.99484
# Shear Modulus (GPa) = 36.40120 15.70281 26.05200
#
# Velocity S-wave (km/s) = 4.17374 2.74130 3.53092
# Velocity P-wave (km/s) = 6.59340 5.56099 6.09908
#
# Compressibility (1/GPa) = 0.02363705
#
# Stress axis : x y z
#
# Youngs Moduli (GPa) = 51.23047 40.48405 66.97682
#
# Poissons Ratio (x) = 0.50539 0.18329
# Poissons Ratio (y) = 0.63954 0.16991
# Poissons Ratio (z) = 0.14020 0.10270
#
# Static dielectric constant tensor:
#      x y z
#    x 1.719730 0.000000 0.000000 
#    y 0.000000 1.775840 0.000000 
#    z 0.000000 0.000000 1.820750 
# 
# From -- ./inp_files/1813.got.cif
#   From: 2010.05.17/outbox.cif.g08.bks.cpg/sg33_1_cif.got.tgz:1813.got - 2010.06.03 17:15:25.
