data_PCOD9345471
_publ_section_title
;
Structure prediction by ZEFSAII (Michael W. Deem and Ramdas Pophale) SiO2 
 PCOD9345471
Probable space group: P N A 21
;
_chemical_formula_sum "Si O2"
_cell_formula_units_Z 32
_cell_length_a 31.673501
_cell_length_b 9.348708
_cell_length_c 5.255672
_cell_angle_alpha 90.000000
_cell_angle_beta 90.000000
_cell_angle_gamma 90.000000
_cell_volume 1556.237654
_symmetry_space_group_name_H-M "P N A 21"
_symmetry_group_IT_number 33
_symmetry_cell_setting 'orthorhombic'
loop_
_space_group_symop_operation_xyz
x,y,z
-x,-y,1/2+z
1/2-x,1/2+y,1/2+z
1/2+x,1/2-y,z
loop_
_atom_site_type_symbol
_atom_site_label
_atom_site_fract_x
_atom_site_fract_y
_atom_site_fract_z
Si Si1 0.625858 0.259954 0.787010
Si Si2 0.935795 0.102215 0.047289
Si Si3 0.134128 0.069899 0.291574
Si Si4 0.968162 0.373982 0.809151
Si Si5 0.732703 0.385608 0.325026
Si Si6 0.276617 0.805871 0.326312
Si Si7 0.549203 0.126985 0.056405
Si Si8 0.500169 0.352500 0.402013
O O1 0.621763 0.304962 0.493021
O O2 0.672129 0.193319 0.824913
O O3 0.585599 0.169117 0.866039
O O4 0.624851 0.388608 0.999076
O O5 0.943660 0.267495 0.993320
O O6 0.892377 0.057547 0.917994
O O7 0.952315 0.095293 0.337036
O O8 0.971140 0.991405 0.942021
O O9 0.184302 0.057804 0.318410
O O10 0.935996 0.497531 0.731713
O O11 0.991163 0.259129 0.624682
O O12 0.008665 0.449498 0.932038
O O13 0.737217 0.286098 0.576782
O O14 0.760295 0.530643 0.324569
O O15 0.737794 0.283546 0.076952
O O16 0.527873 0.261836 0.196945
#
# Coordination Sequence:
#
# PCOD9345471 Si02
#       8
#     4   4   4   4   4   4   4   4
#     4  10  22  38  64  88 116 160 203 237 296 374
#     4  11  22  34  55  82 109 148 202 245 287 343
#     4  10  22  39  62  90 119 155 199 248 298 359
#     4  11  23  36  53  79 112 152 201 249 297 347
#     4  10  21  41  68  95 128 163 203 254 315 378
#     4  10  21  41  67  98 124 163 207 251 313 385
#     4  11  22  38  56  76 114 157 199 245 300 347
#     4  11  21  35  55  76 106 152 194 241 288 347
#
# _framework density 20.562411999999998
#
# number of rings (size 3 to 8) (size 9 to 14) (size 15 to 20)
#    0.000    1.500    3.750    1.500    3.500    0.000 
#    2.250    1.250    0.000    0.000    0.000    0.000 
#    0.000    0.000    0.000    0.000    0.000    0.000 
#
# Total GULP energy -178148.295096 kJ/mol
# GULP energy per Si atom -5567.134222 kJ/mol
# Density = 2.051561 g / cm^3
# Si number density = 20.562412 Si / 1000 Ang^3
#
#
#
# Elastic Constant Matrix: (Units=GPa)
#
#
# Indices 1 2 3 4 5 6 
#
# 1 27.7642 5.3959 -7.2168 0.0000 0.0000 0.0000
# 2 5.3959 67.8590 1.6827 0.0000 0.0000 0.0000
# 3 -7.2168 1.6827 66.0553 0.0000 0.0000 0.0000
# 4 0.0000 0.0000 0.0000 27.8152 0.0000 0.0000
# 5 0.0000 0.0000 0.0000 0.0000 18.9934 0.0000
# 6 0.0000 0.0000 0.0000 0.0000 0.0000 25.7191
#
#
#
# Elastic Compliance Matrix: (Units=1/GPa)
#
#
# Indices 1 2 3 4 5 6 
#
# 1 0.037712 -0.003103 0.004199 0.000000 0.000000 0.000000
# 2 -0.003103 0.015001 -0.000721 0.000000 0.000000 0.000000
# 3 0.004199 -0.000721 0.015616 0.000000 0.000000 0.000000
# 4 0.000000 0.000000 0.000000 0.035952 0.000000 0.000000
# 5 0.000000 0.000000 0.000000 0.000000 0.052650 0.000000
# 6 0.000000 0.000000 0.000000 0.000000 0.000000 0.038882
#
#
# Mechanical properties :
#
#
# Convention : Reuss Voigt Hill
#
# Bulk Modulus (GPa) = 14.47605 17.93359 16.20482
# Shear Modulus (GPa) = 22.92649 25.29332 24.10991
#
# Velocity S-wave (km/s) = 3.34274 3.51105 3.42793
# Velocity P-wave (km/s) = 4.68550 5.01768 4.85443
#
# Compressibility (1/GPa) = 0.06907962
#
# Stress axis : x y z
#
# Youngs Moduli (GPa) = 26.51663 66.66202 64.03697
#
# Poissons Ratio (x) = 0.20684 -0.26891
# Poissons Ratio (y) = 0.08228 0.04618
# Poissons Ratio (z) = -0.11135 0.04807
#
# Static dielectric constant tensor:
#      x y z
#    x 1.724260 0.000000 0.000000 
#    y 0.000000 1.744250 0.000000 
#    z 0.000000 0.000000 1.965780 
# 
# From -- ./inp_files/2560.got.cif
#   From: 2010.05.17/outbox.cif.g08.bks.cpg/sg33_2_cif.got.tgz:2560.got - 2010.06.03 17:15:25.
