data_PCOD9345663
_publ_section_title
;
Structure prediction by ZEFSAII (Michael W. Deem and Ramdas Pophale) SiO2 
 PCOD9345663
Probable space group: P N A 21
;
_chemical_formula_sum "Si O2"
_cell_formula_units_Z 24
_cell_length_a 8.812591
_cell_length_b 14.285753
_cell_length_c 8.666361
_cell_angle_alpha 90.000000
_cell_angle_beta 90.000000
_cell_angle_gamma 90.000000
_cell_volume 1091.047170
_symmetry_space_group_name_H-M "P N A 21"
_symmetry_group_IT_number 33
_symmetry_cell_setting 'orthorhombic'
loop_
_space_group_symop_operation_xyz
x,y,z
-x,-y,1/2+z
1/2-x,1/2+y,1/2+z
1/2+x,1/2-y,z
loop_
_atom_site_type_symbol
_atom_site_label
_atom_site_fract_x
_atom_site_fract_y
_atom_site_fract_z
Si Si1 0.318352 0.883995 0.043410
Si Si2 0.126393 0.996549 0.813164
Si Si3 0.528918 0.694410 0.642608
Si Si4 0.823438 0.117589 0.870681
Si Si5 0.753775 0.793100 0.825858
Si Si6 0.164175 0.543862 0.043243
O O1 0.254354 0.856267 0.210585
O O2 0.488257 0.926123 0.051214
O O3 0.305187 0.793945 0.931798
O O4 0.204930 0.961146 0.969829
O O5 0.252920 0.046992 0.708381
O O6 0.973902 0.054668 0.839862
O O7 0.082059 0.904227 0.715707
O O8 0.604597 0.698937 0.476206
O O9 0.589308 0.772421 0.758980
O O10 0.351760 0.696789 0.670679
O O11 0.699482 0.057434 0.967695
O O12 0.750376 0.884064 0.930479
#
# Coordination Sequence:
#
# PCOD9345663 Si02
#       6
#     4   4   4   4   4   4
#     4  11  23  41  65  98 135 169 222 277 330 401
#     4  10  22  39  67  95 126 170 221 266 331 396
#     4  10  22  42  62  92 125 171 213 268 335 397
#     4  11  23  42  66  96 130 173 224 270 331 406
#     4  11  22  42  65  89 131 173 214 273 339 388
#     4  11  22  40  67  94 129 174 220 274 332 390
#
# _framework density 21.997215000000001
#
# number of rings (size 3 to 8) (size 9 to 14) (size 15 to 20)
#    0.000    1.333    3.333    3.000    2.333    0.000 
#    6.000    0.000    0.000    0.000    0.000    0.000 
#    0.000    0.000    0.000    0.000    0.000    0.000 
#
# Total GULP energy -134012.622071 kJ/mol
# GULP energy per Si atom -5583.859253 kJ/mol
# Density = 2.194715 g / cm^3
# Si number density = 21.997215 Si / 1000 Ang^3
#
#
#
# Elastic Constant Matrix: (Units=GPa)
#
#
# Indices 1 2 3 4 5 6 
#
# 1 96.8833 -7.9450 31.2117 0.0000 0.0000 0.0000
# 2 -7.9450 16.4776 8.6643 0.0000 0.0000 0.0000
# 3 31.2117 8.6643 121.4968 0.0000 0.0000 0.0000
# 4 0.0000 0.0000 0.0000 6.2424 0.0000 0.0000
# 5 0.0000 0.0000 0.0000 0.0000 40.7801 0.0000
# 6 0.0000 0.0000 0.0000 0.0000 0.0000 8.2942
#
#
#
# Elastic Compliance Matrix: (Units=1/GPa)
#
#
# Indices 1 2 3 4 5 6 
#
# 1 0.012144 0.007788 -0.003675 0.000000 0.000000 0.000000
# 2 0.007788 0.068047 -0.006853 0.000000 0.000000 0.000000
# 3 -0.003675 -0.006853 0.009664 0.000000 0.000000 0.000000
# 4 0.000000 0.000000 0.000000 0.160194 0.000000 0.000000
# 5 0.000000 0.000000 0.000000 0.000000 0.024522 0.000000
# 6 0.000000 0.000000 0.000000 0.000000 0.000000 0.120566
#
#
# Mechanical properties :
#
#
# Convention : Reuss Voigt Hill
#
# Bulk Modulus (GPa) = 11.85195 33.19108 22.52152
# Shear Modulus (GPa) = 11.66200 24.59180 18.12690
#
# Velocity S-wave (km/s) = 2.30501 3.34720 2.87375
# Velocity P-wave (km/s) = 3.53323 5.48269 4.61214
#
# Compressibility (1/GPa) = 0.08437429
#
# Stress axis : x y z
#
# Youngs Moduli (GPa) = 82.34271 14.69567 103.48181
#
# Poissons Ratio (x) = -0.11445 0.38032
# Poissons Ratio (y) = -0.64130 0.70920
# Poissons Ratio (z) = 0.30263 0.10071
#
# Static dielectric constant tensor:
#      x y z
#    x 1.789120 0.000000 0.000000 
#    y 0.000000 1.801580 0.000000 
#    z 0.000000 0.000000 1.804270 
# 
# From -- ./inp_files/3102.got.cif
#   From: 2010.05.17/outbox.cif.g08.bks.cpg/sg33_2_cif.got.tgz:3102.got - 2010.06.03 17:15:25.
