data_PCOD9345154
_publ_section_title
;
Structure prediction by ZEFSAII (Michael W. Deem and Ramdas Pophale) SiO2 
 PCOD9345154
Probable space group: P N A 21
;
_chemical_formula_sum "Si O2"
_cell_formula_units_Z 32
_cell_length_a 11.026791
_cell_length_b 13.249210
_cell_length_c 10.040394
_cell_angle_alpha 90.000000
_cell_angle_beta 90.000000
_cell_angle_gamma 90.000000
_cell_volume 1466.864109
_symmetry_space_group_name_H-M "P N A 21"
_symmetry_group_IT_number 33
_symmetry_cell_setting 'orthorhombic'
loop_
_space_group_symop_operation_xyz
x,y,z
-x,-y,1/2+z
1/2-x,1/2+y,1/2+z
1/2+x,1/2-y,z
loop_
_atom_site_type_symbol
_atom_site_label
_atom_site_fract_x
_atom_site_fract_y
_atom_site_fract_z
Si Si1 0.602207 0.485112 0.202100
Si Si2 0.459431 0.400820 0.961349
Si Si3 0.197963 0.404873 0.093113
Si Si4 0.367683 0.037186 0.223900
Si Si5 0.380608 0.193949 0.447340
Si Si6 0.134857 0.240756 0.318802
Si Si7 0.460511 0.168282 0.990869
Si Si8 0.891811 0.404336 0.717233
O O1 0.539141 0.555514 0.312291
O O2 0.742430 0.516132 0.186620
O O3 0.615540 0.372139 0.263495
O O4 0.533315 0.471867 0.063071
O O5 0.498613 0.284541 0.977170
O O6 0.321414 0.395489 0.013926
O O7 0.165257 0.317088 0.198652
O O8 0.201655 0.508758 0.175488
O O9 0.083960 0.395943 0.994390
O O10 0.365260 0.087199 0.369623
O O11 0.479744 0.962545 0.208202
O O12 0.390280 0.132816 0.123863
O O13 0.255115 0.248394 0.409605
O O14 0.508492 0.234018 0.391566
O O15 0.388200 0.179733 0.604387
O O16 0.380124 0.138344 0.864361
#
# Coordination Sequence:
#
# PCOD9345154 Si02
#       8
#     4   4   4   4   4   4   4   4
#     4  11  24  43  65  95 136 178 218 272 333 411
#     4  12  25  44  64  98 138 177 217 274 341 400
#     4  11  22  42  73  93 126 176 226 273 334 399
#     4  10  20  43  70  92 126 174 226 266 333 403
#     4  11  22  41  66  98 133 172 219 279 335 397
#     4  11  21  42  69  94 130 181 229 267 338 412
#     4  11  23  42  70  98 127 172 229 272 325 395
#     4  11  23  41  67 102 128 162 226 285 323 383
#
# _framework density 21.815244
#
# number of rings (size 3 to 8) (size 9 to 14) (size 15 to 20)
#    0.000    1.000    3.750    6.000    0.000    2.000 
#    6.750    0.000    0.000    0.000    0.000    0.000 
#    0.000    0.000    0.000    0.000    0.000    0.000 
#
# Total GULP energy -178826.425326 kJ/mol
# GULP energy per Si atom -5588.325791 kJ/mol
# Density = 2.176559 g / cm^3
# Si number density = 21.815244 Si / 1000 Ang^3
#
#
#
# Elastic Constant Matrix: (Units=GPa)
#
#
# Indices 1 2 3 4 5 6 
#
# 1 70.3742 -7.1718 -7.2075 0.0000 0.0000 0.0000
# 2 -7.1718 47.5552 19.4807 0.0000 0.0000 0.0000
# 3 -7.2075 19.4807 77.4303 0.0000 0.0000 0.0000
# 4 0.0000 0.0000 0.0000 34.1528 0.0000 0.0000
# 5 0.0000 0.0000 0.0000 0.0000 8.2461 0.0000
# 6 0.0000 0.0000 0.0000 0.0000 0.0000 12.9124
#
#
#
# Elastic Compliance Matrix: (Units=1/GPa)
#
#
# Indices 1 2 3 4 5 6 
#
# 1 0.014486 0.001820 0.000891 0.000000 0.000000 0.000000
# 2 0.001820 0.023673 -0.005786 0.000000 0.000000 0.000000
# 3 0.000891 -0.005786 0.014454 0.000000 0.000000 0.000000
# 4 0.000000 0.000000 0.000000 0.029280 0.000000 0.000000
# 5 0.000000 0.000000 0.000000 0.000000 0.121269 0.000000
# 6 0.000000 0.000000 0.000000 0.000000 0.000000 0.077445
#
#
# Mechanical properties :
#
#
# Convention : Reuss Voigt Hill
#
# Bulk Modulus (GPa) = 21.52346 22.84028 22.18187
# Shear Modulus (GPa) = 16.54280 23.74615 20.14447
#
# Velocity S-wave (km/s) = 2.75674 3.30284 3.04207
# Velocity P-wave (km/s) = 4.47442 5.00376 4.74648
#
# Compressibility (1/GPa) = 0.04646094
#
# Stress axis : x y z
#
# Youngs Moduli (GPa) = 69.03012 42.24215 69.18705
#
# Poissons Ratio (x) = -0.07687 -0.06162
# Poissons Ratio (y) = -0.12563 0.40035
# Poissons Ratio (z) = -0.06148 0.24443
#
# Static dielectric constant tensor:
#      x y z
#    x 1.808240 0.000000 0.000000 
#    y 0.000000 1.816290 0.000000 
#    z 0.000000 0.000000 1.796620 
# 
# From -- ./inp_files/3986.got.cif
#   From: 2010.05.17/outbox.cif.g08.bks.cpg/sg33_2_cif.got.tgz:3986.got - 2010.06.03 17:15:25.
