data_PCOD9345705
_publ_section_title
;
Structure prediction by ZEFSAII (Michael W. Deem and Ramdas Pophale) SiO2 
 PCOD9345705
Probable space group: P N A 21
;
_chemical_formula_sum "Si O2"
_cell_formula_units_Z 28
_cell_length_a 28.158906
_cell_length_b 5.501402
_cell_length_c 8.311037
_cell_angle_alpha 90.000000
_cell_angle_beta 90.000000
_cell_angle_gamma 90.000000
_cell_volume 1287.491513
_symmetry_space_group_name_H-M "P N A 21"
_symmetry_group_IT_number 33
_symmetry_cell_setting 'orthorhombic'
loop_
_space_group_symop_operation_xyz
x,y,z
-x,-y,1/2+z
1/2-x,1/2+y,1/2+z
1/2+x,1/2-y,z
loop_
_atom_site_type_symbol
_atom_site_label
_atom_site_fract_x
_atom_site_fract_y
_atom_site_fract_z
Si Si1 0.285294 0.739250 0.041440
Si Si2 0.032095 0.035778 0.952610
Si Si3 0.198006 0.502934 0.224038
Si Si4 0.981872 0.346323 0.713468
Si Si5 0.663928 0.768843 0.534257
Si Si6 0.397280 0.908596 0.565557
Si Si7 0.073310 0.670610 0.735171
O O1 0.236910 0.645933 0.121335
O O2 0.319903 0.507173 0.071175
O O3 0.304862 0.001479 0.105288
O O4 0.281174 0.803769 0.850340
O O5 0.992317 0.207223 0.878122
O O6 0.060595 0.936224 0.799293
O O7 0.072251 0.163761 0.058074
O O8 0.010601 0.823103 0.057948
O O9 0.172432 0.691617 0.344987
O O10 0.156974 0.388239 0.114595
O O11 0.022576 0.548702 0.703519
O O12 0.928517 0.438383 0.692677
O O13 0.611129 0.818699 0.594674
O O14 0.403990 0.031547 0.390120
#
# Coordination Sequence:
#
# PCOD9345705 Si02
#       7
#     4   4   4   4   4   4   4
#     4  10  26  46  72 106 140 180 238 294 362 421
#     4  10  22  40  66  98 140 187 229 287 348 417
#     4  10  26  46  74 101 142 183 238 300 361 432
#     4  10  22  41  62 102 139 185 231 283 353 428
#     4  10  26  45  71 107 135 188 227 299 348 437
#     4  10  23  43  65 103 132 186 234 291 357 425
#     4  10  23  41  66  99 142 183 233 288 357 426
#
# _framework density 21.747717000000002
#
# number of rings (size 3 to 8) (size 9 to 14) (size 15 to 20)
#    0.857    1.143    0.000    0.857    8.000    8.000 
#    0.000    0.000    0.000    0.000    0.000    0.000 
#    0.000    0.000    0.000    0.000    0.000    0.000 
#
# Total GULP energy -156135.926142 kJ/mol
# GULP energy per Si atom -5576.283076 kJ/mol
# Density = 2.169822 g / cm^3
# Si number density = 21.747717 Si / 1000 Ang^3
#
#
#
# Elastic Constant Matrix: (Units=GPa)
#
#
# Indices 1 2 3 4 5 6 
#
# 1 92.4617 20.5678 45.4699 0.0000 0.0000 0.0000
# 2 20.5678 87.0274 16.6525 0.0000 0.0000 0.0000
# 3 45.4699 16.6525 57.7437 0.0000 0.0000 0.0000
# 4 0.0000 0.0000 0.0000 30.5347 0.0000 0.0000
# 5 0.0000 0.0000 0.0000 0.0000 41.7485 0.0000
# 6 0.0000 0.0000 0.0000 0.0000 0.0000 16.8066
#
#
#
# Elastic Compliance Matrix: (Units=1/GPa)
#
#
# Indices 1 2 3 4 5 6 
#
# 1 0.017863 -0.001620 -0.013599 0.000000 0.000000 0.000000
# 2 -0.001620 0.012309 -0.002274 0.000000 0.000000 0.000000
# 3 -0.013599 -0.002274 0.028682 0.000000 0.000000 0.000000
# 4 0.000000 0.000000 0.000000 0.032750 0.000000 0.000000
# 5 0.000000 0.000000 0.000000 0.000000 0.023953 0.000000
# 6 0.000000 0.000000 0.000000 0.000000 0.000000 0.059500
#
#
# Mechanical properties :
#
#
# Convention : Reuss Voigt Hill
#
# Bulk Modulus (GPa) = 41.89708 44.73481 43.31595
# Shear Modulus (GPa) = 22.93584 28.12079 25.52832
#
# Velocity S-wave (km/s) = 3.25103 3.59980 3.42985
# Velocity P-wave (km/s) = 5.77920 6.15570 5.97042
#
# Compressibility (1/GPa) = 0.02386801
#
# Stress axis : x y z
#
# Youngs Moduli (GPa) = 55.98089 81.24406 34.86458
#
# Poissons Ratio (x) = 0.13158 0.47413
# Poissons Ratio (y) = 0.09066 0.07929
# Poissons Ratio (z) = 0.76130 0.18478
#
# Static dielectric constant tensor:
#      x y z
#    x 1.744080 0.000000 0.000000 
#    y 0.000000 1.854170 0.000000 
#    z 0.000000 0.000000 1.809300 
# 
# From -- ./inp_files/5252.got.cif
#   From: 2010.05.17/outbox.cif.g08.bks.cpg/sg33_3_cif.got.tgz:5252.got - 2010.06.03 17:15:25.
