data_PCOD9345672
_publ_section_title
;
Structure prediction by ZEFSAII (Michael W. Deem and Ramdas Pophale) SiO2 
 PCOD9345672
Probable space group: P N A 21
;
_chemical_formula_sum "Si O2"
_cell_formula_units_Z 24
_cell_length_a 4.964684
_cell_length_b 27.854810
_cell_length_c 7.899508
_cell_angle_alpha 90.000000
_cell_angle_beta 90.000000
_cell_angle_gamma 90.000000
_cell_volume 1092.425564
_symmetry_space_group_name_H-M "P N A 21"
_symmetry_group_IT_number 33
_symmetry_cell_setting 'orthorhombic'
loop_
_space_group_symop_operation_xyz
x,y,z
-x,-y,1/2+z
1/2-x,1/2+y,1/2+z
1/2+x,1/2-y,z
loop_
_atom_site_type_symbol
_atom_site_label
_atom_site_fract_x
_atom_site_fract_y
_atom_site_fract_z
Si Si1 0.144552 0.971588 0.531750
Si Si2 0.749766 0.779961 0.636684
Si Si3 0.249732 0.220041 0.543382
Si Si4 0.492946 0.127248 0.723102
Si Si5 0.992909 0.872758 0.456948
Si Si6 0.355437 0.971576 0.148205
O O1 0.079401 0.916486 0.578373
O O2 0.379748 0.996174 0.637481
O O3 0.879748 0.003842 0.542455
O O4 0.249989 0.969535 0.339978
O O5 0.449678 0.763867 0.590276
O O6 0.866176 0.827123 0.549902
O O7 0.250012 0.713969 0.840033
O O8 0.949631 0.236128 0.589783
O O9 0.366177 0.172885 0.630176
O O10 0.579427 0.083530 0.601633
O O11 0.750023 0.139776 0.840024
O O12 0.250027 0.107660 0.840026
#
# Coordination Sequence:
#
# PCOD9345672 Si02
#       6
#     4   4   4   4   4   4
#     4  11  23  42  64  91 126 163 206 256 309 367
#     4  10  22  40  61  88 123 160 202 251 302 362
#     4  10  22  40  61  88 123 160 202 251 302 362
#     4  11  23  40  62  91 124 159 205 255 304 364
#     4  11  23  40  62  91 124 159 205 255 304 364
#     4  11  23  42  64  91 126 163 206 256 309 367
#
# _framework density 21.969459000000001
#
# number of rings (size 3 to 8) (size 9 to 14) (size 15 to 20)
#    0.000    1.333    0.000    7.000    0.000    5.333 
#    0.000   13.333    0.000    0.000    0.000    0.000 
#    0.000    0.000    0.000    0.000    0.000    0.000 
#
# Total GULP energy -134250.171702 kJ/mol
# GULP energy per Si atom -5593.757154 kJ/mol
# Density = 2.191946 g / cm^3
# Si number density = 21.969459 Si / 1000 Ang^3
#
#
#
# Elastic Constant Matrix: (Units=GPa)
#
#
# Indices 1 2 3 4 5 6 
#
# 1 133.2982 31.8784 25.3463 0.0000 0.0000 0.0000
# 2 31.8784 135.9117 39.9019 0.0000 0.0000 0.0000
# 3 25.3463 39.9019 29.0964 0.0000 0.0000 0.0000
# 4 0.0000 0.0000 0.0000 28.7989 0.0000 0.0000
# 5 0.0000 0.0000 0.0000 0.0000 41.3884 0.0000
# 6 0.0000 0.0000 0.0000 0.0000 0.0000 42.7886
#
#
#
# Elastic Compliance Matrix: (Units=1/GPa)
#
#
# Indices 1 2 3 4 5 6 
#
# 1 0.009000 0.000319 -0.008278 0.000000 0.000000 0.000000
# 2 0.000319 0.012328 -0.017184 0.000000 0.000000 0.000000
# 3 -0.008278 -0.017184 0.065145 0.000000 0.000000 0.000000
# 4 0.000000 0.000000 0.000000 0.034724 0.000000 0.000000
# 5 0.000000 0.000000 0.000000 0.000000 0.024161 0.000000
# 6 0.000000 0.000000 0.000000 0.000000 0.000000 0.023371
#
#
# Mechanical properties :
#
#
# Convention : Reuss Voigt Hill
#
# Bulk Modulus (GPa) = 27.63373 54.72883 41.18128
# Shear Modulus (GPa) = 21.63793 36.00715 28.82254
#
# Velocity S-wave (km/s) = 3.14173 4.05280 3.62600
# Velocity P-wave (km/s) = 5.07604 6.84585 6.02627
#
# Compressibility (1/GPa) = 0.03618766
#
# Stress axis : x y z
#
# Youngs Moduli (GPa) = 111.11650 81.11693 15.35034
#
# Poissons Ratio (x) = -0.02590 0.12706
# Poissons Ratio (y) = -0.03548 0.26378
# Poissons Ratio (z) = 0.91977 1.39393
#
# Static dielectric constant tensor:
#      x y z
#    x 1.789410 0.000000 0.000000 
#    y 0.000000 1.811410 0.000000 
#    z 0.000000 0.000000 1.806360 
# 
# From -- ./inp_files/2708.got.cif
#   From: 2010.05.17/outbox.cif.g08.bks.cpg/sg33_2_cif.got.tgz:2708.got - 2010.06.03 17:15:25.
