data_PCOD9345311
_publ_section_title
;
Structure prediction by ZEFSAII (Michael W. Deem and Ramdas Pophale) SiO2 
 PCOD9345311
Probable space group: P N A 21
;
_chemical_formula_sum "Si O2"
_cell_formula_units_Z 32
_cell_length_a 12.247481
_cell_length_b 13.894984
_cell_length_c 9.066681
_cell_angle_alpha 90.000000
_cell_angle_beta 90.000000
_cell_angle_gamma 90.000000
_cell_volume 1542.954649
_symmetry_space_group_name_H-M "P N A 21"
_symmetry_group_IT_number 33
_symmetry_cell_setting 'orthorhombic'
loop_
_space_group_symop_operation_xyz
x,y,z
-x,-y,1/2+z
1/2-x,1/2+y,1/2+z
1/2+x,1/2-y,z
loop_
_atom_site_type_symbol
_atom_site_label
_atom_site_fract_x
_atom_site_fract_y
_atom_site_fract_z
Si Si1 0.668559 0.475912 0.109590
Si Si2 0.620269 0.643327 0.923773
Si Si3 0.279167 0.833624 0.670510
Si Si4 0.522807 0.064326 0.009519
Si Si5 0.771320 0.774767 0.127142
Si Si6 0.115722 0.160204 0.357942
Si Si7 0.696073 0.816300 0.450728
Si Si8 0.607002 0.085583 0.681981
O O1 0.618788 0.434258 0.258089
O O2 0.777688 0.534595 0.150022
O O3 0.594581 0.547814 0.016866
O O4 0.709939 0.387718 0.009985
O O5 0.696208 0.616280 0.784254
O O6 0.508748 0.690958 0.874683
O O7 0.684787 0.715628 0.029708
O O8 0.380749 0.896189 0.614078
O O9 0.323629 0.743983 0.767209
O O10 0.217115 0.785683 0.531287
O O11 0.477412 0.962501 0.068073
O O12 0.419528 0.137905 0.999970
O O13 0.568438 0.059001 0.844820
O O14 0.713091 0.808765 0.275772
O O15 0.868130 0.698669 0.166742
O O16 0.824555 0.850929 0.015000
#
# Coordination Sequence:
#
# PCOD9345311 Si02
#       8
#     4   4   4   4   4   4   4   4
#     4   9  22  43  56  84 127 154 208 253 301 376
#     4  10  22  40  61  86 122 162 200 256 307 363
#     4  10  21  41  62  90 124 162 203 257 308 368
#     4  11  23  37  66  90 125 165 204 256 319 372
#     4  10  22  40  61  91 128 153 208 259 302 374
#     4  10  22  40  63  87 120 167 203 250 310 373
#     4  10  21  39  60  92 121 161 203 256 305 376
#     4  10  23  40  59  94 123 158 205 257 308 372
#
# _framework density 20.739429000000001
#
# number of rings (size 3 to 8) (size 9 to 14) (size 15 to 20)
#    0.000    2.000    1.250    0.750    8.750    3.000 
#    2.250    2.500    0.000    0.000    0.000    0.000 
#    0.000    0.000    0.000    0.000    0.000    0.000 
#
# Total GULP energy -178681.576116 kJ/mol
# GULP energy per Si atom -5583.799254 kJ/mol
# Density = 2.069223 g / cm^3
# Si number density = 20.739429 Si / 1000 Ang^3
#
#
#
# Elastic Constant Matrix: (Units=GPa)
#
#
# Indices 1 2 3 4 5 6 
#
# 1 20.4209 -7.1953 24.9898 0.0000 0.0000 0.0000
# 2 -7.1953 28.4936 10.2387 0.0000 0.0000 0.0000
# 3 24.9898 10.2387 122.1319 0.0000 0.0000 0.0000
# 4 0.0000 0.0000 0.0000 19.6896 0.0000 0.0000
# 5 0.0000 0.0000 0.0000 0.0000 29.2323 0.0000
# 6 0.0000 0.0000 0.0000 0.0000 0.0000 -2.3022
#
#
#
# Elastic Compliance Matrix: (Units=1/GPa)
#
#
# Indices 1 2 3 4 5 6 
#
# 1 0.082071 0.027590 -0.019106 0.000000 0.000000 0.000000
# 2 0.027590 0.045461 -0.009456 0.000000 0.000000 0.000000
# 3 -0.019106 -0.009456 0.012890 0.000000 0.000000 0.000000
# 4 0.000000 0.000000 0.000000 0.050788 0.000000 0.000000
# 5 0.000000 0.000000 0.000000 0.000000 0.034209 0.000000
# 6 0.000000 0.000000 0.000000 0.000000 0.000000 -0.434372
#
#
# Mechanical properties :
#
#
# Convention : Reuss Voigt Hill
#
# Bulk Modulus (GPa) = 7.22137 25.23478 16.22807
# Shear Modulus (GPa) = -31.08495 18.85814 -6.11340
#
# Velocity S-wave (km/s) = -3.87568 3.01871 -1.71876
# Velocity P-wave (km/s) = 4.06673 4.93398 1.97558
#
# Compressibility (1/GPa) = 0.13847789
#
# Stress axis : x y z
#
# Youngs Moduli (GPa) = 12.18452 21.99698 77.57975
#
# Poissons Ratio (x) = -0.60690 1.48223
# Poissons Ratio (y) = -0.33617 0.73363
# Poissons Ratio (z) = 0.23280 0.20801
#
# Static dielectric constant tensor:
#      x y z
#    x 1.727210 0.000000 0.000000 
#    y 0.000000 1.758680 0.000000 
#    z 0.000000 0.000000 1.738610 
# 
# From -- ./inp_files/3933.got.cif
#   From: 2010.05.17/outbox.cif.g08.bks.cpg/sg33_2_cif.got.tgz:3933.got - 2010.06.03 17:15:25.
