data_PCOD9345054
_publ_section_title
;
Structure prediction by ZEFSAII (Michael W. Deem and Ramdas Pophale) SiO2 
 PCOD9345054
Probable space group: P N A 21
;
_chemical_formula_sum "Si O2"
_cell_formula_units_Z 32
_cell_length_a 11.813222
_cell_length_b 19.120264
_cell_length_c 5.438616
_cell_angle_alpha 90.000000
_cell_angle_beta 90.000000
_cell_angle_gamma 90.000000
_cell_volume 1228.430656
_symmetry_space_group_name_H-M "P N A 21"
_symmetry_group_IT_number 33
_symmetry_cell_setting 'orthorhombic'
loop_
_space_group_symop_operation_xyz
x,y,z
-x,-y,1/2+z
1/2-x,1/2+y,1/2+z
1/2+x,1/2-y,z
loop_
_atom_site_type_symbol
_atom_site_label
_atom_site_fract_x
_atom_site_fract_y
_atom_site_fract_z
Si Si1 0.858293 0.542636 0.534810
Si Si2 0.443301 0.475713 0.515922
Si Si3 0.267540 0.825321 0.437024
Si Si4 0.770081 0.927844 0.745070
Si Si5 0.957594 0.412696 0.681838
Si Si6 0.778476 0.316157 0.894561
Si Si7 0.596794 0.193232 0.429592
Si Si8 0.557493 0.343461 0.591388
O O1 0.751343 0.595352 0.533341
O O2 0.819521 0.478402 0.366039
O O3 0.914016 0.491815 0.732218
O O4 0.950697 0.590681 0.401935
O O5 0.479949 0.489732 0.234560
O O6 0.329074 0.520508 0.547965
O O7 0.447213 0.393866 0.600312
O O8 0.177660 0.762385 0.430290
O O9 0.314486 0.817471 0.157153
O O10 0.346142 0.798833 0.664987
O O11 0.710156 0.860727 0.637625
O O12 0.864740 0.894763 0.922623
O O13 0.855536 0.358868 0.709256
O O14 0.026029 0.378373 0.454203
O O15 0.645628 0.326584 0.814708
O O16 0.534879 0.266851 0.482276
#
# Coordination Sequence:
#
# PCOD9345054 Si02
#       8
#     4   4   4   4   4   4   4   4
#     4  11  23  41  64 100 139 180 228 285 343 412
#     4  10  21  36  61  94 129 166 223 280 342 401
#     4  10  23  42  64  91 130 175 225 283 334 398
#     4  11  21  38  66  95 129 180 222 282 340 413
#     4  11  23  40  65 100 138 184 231 283 345 420
#     4  11  21  40  66  95 133 179 231 279 345 415
#     4  10  22  41  65  90 127 178 225 277 339 399
#     4  10  20  40  63  93 129 174 219 285 336 404
#
# _framework density 26.049496000000001
#
# number of rings (size 3 to 8) (size 9 to 14) (size 15 to 20)
#    0.000    1.500    3.750    1.500    0.000    3.000 
#    0.000    0.000    0.000    6.000    0.000    0.000 
#    0.000    0.000    0.000    0.000    0.000    0.000 
#
# Total GULP energy -178164.930971 kJ/mol
# GULP energy per Si atom -5567.654093 kJ/mol
# Density = 2.599021 g / cm^3
# Si number density = 26.049496 Si / 1000 Ang^3
#
#
#
# Elastic Constant Matrix: (Units=GPa)
#
#
# Indices 1 2 3 4 5 6 
#
# 1 25.4505 8.1186 -2.4899 0.0000 0.0000 0.0000
# 2 8.1186 170.3880 19.0616 0.0000 0.0000 0.0000
# 3 -2.4899 19.0616 54.0517 0.0000 0.0000 0.0000
# 4 0.0000 0.0000 0.0000 48.7036 0.0000 0.0000
# 5 0.0000 0.0000 0.0000 0.0000 18.8260 0.0000
# 6 0.0000 0.0000 0.0000 0.0000 0.0000 3.7565
#
#
#
# Elastic Compliance Matrix: (Units=1/GPa)
#
#
# Indices 1 2 3 4 5 6 
#
# 1 0.040256 -0.002213 0.002635 0.000000 0.000000 0.000000
# 2 -0.002213 0.006232 -0.002300 0.000000 0.000000 0.000000
# 3 0.002635 -0.002300 0.019433 0.000000 0.000000 0.000000
# 4 0.000000 0.000000 0.000000 0.020532 0.000000 0.000000
# 5 0.000000 0.000000 0.000000 0.000000 0.053118 0.000000
# 6 0.000000 0.000000 0.000000 0.000000 0.000000 0.266207
#
#
# Mechanical properties :
#
#
# Convention : Reuss Voigt Hill
#
# Bulk Modulus (GPa) = 16.08618 33.25230 24.66924
# Shear Modulus (GPa) = 11.62103 29.27052 20.44577
#
# Velocity S-wave (km/s) = 2.11443 3.35573 2.80461
# Velocity P-wave (km/s) = 3.48565 5.27326 4.46973
#
# Compressibility (1/GPa) = 0.06216517
#
# Stress axis : x y z
#
# Youngs Moduli (GPa) = 24.84121 160.47108 51.45852
#
# Poissons Ratio (x) = 0.35510 -0.13558
# Poissons Ratio (y) = 0.05497 0.11833
# Poissons Ratio (z) = -0.06545 0.36901
#
# Static dielectric constant tensor:
#      x y z
#    x 2.486380 0.000000 0.000000 
#    y 0.000000 2.289700 0.000000 
#    z 0.000000 0.000000 3.084950 
# 
# From -- ./inp_files/1517.got.cif
#   From: 2010.05.17/outbox.cif.g08.bks.cpg/sg33_1_cif.got.tgz:1517.got - 2010.06.03 17:15:25.
