data_PCOD9345608
_publ_section_title
;
Structure prediction by ZEFSAII (Michael W. Deem and Ramdas Pophale) SiO2 
 PCOD9345608
Probable space group: P N A 21
;
_chemical_formula_sum "Si O2"
_cell_formula_units_Z 20
_cell_length_a 27.384221
_cell_length_b 5.055809
_cell_length_c 5.574134
_cell_angle_alpha 90.000000
_cell_angle_beta 90.000000
_cell_angle_gamma 90.000000
_cell_volume 771.735458
_symmetry_space_group_name_H-M "P N A 21"
_symmetry_group_IT_number 33
_symmetry_cell_setting 'orthorhombic'
loop_
_space_group_symop_operation_xyz
x,y,z
-x,-y,1/2+z
1/2-x,1/2+y,1/2+z
1/2+x,1/2-y,z
loop_
_atom_site_type_symbol
_atom_site_label
_atom_site_fract_x
_atom_site_fract_y
_atom_site_fract_z
Si Si1 0.873096 0.397459 0.250000
Si Si2 0.311870 0.455800 0.960735
Si Si3 0.539633 0.180651 0.964197
Si Si4 0.053882 0.305276 0.470536
Si Si5 0.298531 0.954089 0.629889
O O1 0.918597 0.451842 0.430297
O O2 0.895686 0.547945 0.021422
O O3 0.826948 0.536141 0.376869
O O4 0.853872 0.116495 0.154082
O O5 0.313396 0.712463 0.797238
O O6 0.311706 0.219271 0.769347
O O7 0.259506 0.447689 0.090913
O O8 0.551395 0.325067 0.212113
O O9 0.487807 0.033880 0.969157
O O10 0.543514 0.348459 0.718800
#
# Coordination Sequence:
#
# PCOD9345608 Si02
#       5
#     4   4   4   4   4
#     4  10  22  36  68 102 144 194 244 310 374 446
#     4  12  26  45  70 104 147 193 248 305 373 444
#     4   8  15  31  57  96 138 180 238 298 366 435
#     4   8  15  31  57  96 138 180 238 298 366 435
#     4  12  26  45  70 104 147 193 248 305 373 444
#
# _framework density 25.915616
#
# number of rings (size 3 to 8) (size 9 to 14) (size 15 to 20)
#    1.200    0.800    2.000    2.400    0.000    0.000 
#    0.000    0.000    0.000    0.000   10.400    0.000 
#    0.000    0.000    0.000    0.000    0.000    0.000 
#
# Total GULP energy -111772.348687 kJ/mol
# GULP energy per Si atom -5588.617434 kJ/mol
# Density = 2.585663 g / cm^3
# Si number density = 25.915616 Si / 1000 Ang^3
#
#
#
# Elastic Constant Matrix: (Units=GPa)
#
#
# Indices 1 2 3 4 5 6 
#
# 1 138.3734 38.4044 28.8627 0.0000 0.0000 0.0000
# 2 38.4044 94.3595 33.1490 0.0000 0.0000 0.0000
# 3 28.8627 33.1490 192.0876 0.0000 0.0000 0.0000
# 4 0.0000 0.0000 0.0000 23.6143 0.0000 0.0000
# 5 0.0000 0.0000 0.0000 0.0000 51.5353 0.0000
# 6 0.0000 0.0000 0.0000 0.0000 0.0000 35.8383
#
#
#
# Elastic Compliance Matrix: (Units=1/GPa)
#
#
# Indices 1 2 3 4 5 6 
#
# 1 0.008235 -0.003105 -0.000701 0.000000 0.000000 0.000000
# 2 -0.003105 0.012453 -0.001682 0.000000 0.000000 0.000000
# 3 -0.000701 -0.001682 0.005602 0.000000 0.000000 0.000000
# 4 0.000000 0.000000 0.000000 0.042347 0.000000 0.000000
# 5 0.000000 0.000000 0.000000 0.000000 0.019404 0.000000
# 6 0.000000 0.000000 0.000000 0.000000 0.000000 0.027903
#
#
# Mechanical properties :
#
#
# Convention : Reuss Voigt Hill
#
# Bulk Modulus (GPa) = 65.31210 69.51698 67.41454
# Shear Modulus (GPa) = 37.87142 43.82454 40.84798
#
# Velocity S-wave (km/s) = 3.82689 4.11670 3.97444
# Velocity P-wave (km/s) = 6.69203 7.03412 6.86521
#
# Compressibility (1/GPa) = 0.01531110
#
# Stress axis : x y z
#
# Youngs Moduli (GPa) = 121.43346 80.30438 178.51726
#
# Poissons Ratio (x) = 0.24936 0.12523
# Poissons Ratio (y) = 0.37707 0.30034
# Poissons Ratio (z) = 0.08519 0.13510
#
# Static dielectric constant tensor:
#      x y z
#    x 2.004710 0.000000 0.000000 
#    y 0.000000 1.956420 0.000000 
#    z 0.000000 0.000000 2.126920 
# 
# From -- ./inp_files/2484.got.cif
#   From: 2010.05.17/outbox.cif.g08.bks.cpg/sg33_2_cif.got.tgz:2484.got - 2010.06.03 17:15:25.
