data_PCOD9345589
_publ_section_title
;
Structure prediction by ZEFSAII (Michael W. Deem and Ramdas Pophale) SiO2 
 PCOD9345589
Probable space group: P N A 21
;
_chemical_formula_sum "Si O2"
_cell_formula_units_Z 28
_cell_length_a 11.653269
_cell_length_b 19.062241
_cell_length_c 5.134119
_cell_angle_alpha 90.000000
_cell_angle_beta 90.000000
_cell_angle_gamma 90.000000
_cell_volume 1140.479959
_symmetry_space_group_name_H-M "P N A 21"
_symmetry_group_IT_number 33
_symmetry_cell_setting 'orthorhombic'
loop_
_space_group_symop_operation_xyz
x,y,z
-x,-y,1/2+z
1/2-x,1/2+y,1/2+z
1/2+x,1/2-y,z
loop_
_atom_site_type_symbol
_atom_site_label
_atom_site_fract_x
_atom_site_fract_y
_atom_site_fract_z
Si Si1 0.482869 0.045441 0.340630
Si Si2 0.831339 0.258447 0.064431
Si Si3 0.071597 0.990832 0.441362
Si Si4 0.462192 0.708362 0.925392
Si Si5 0.753246 0.890787 0.798052
Si Si6 0.348858 0.358645 0.721488
Si Si7 0.847677 0.661924 0.889303
O O1 0.362935 0.080968 0.427071
O O2 0.569389 0.107046 0.255036
O O3 0.531735 0.003786 0.589166
O O4 0.799731 0.340305 0.069428
O O5 0.733783 0.209299 0.204148
O O6 0.955277 0.237543 0.190794
O O7 0.832784 0.223641 0.783582
O O8 0.123311 0.912291 0.448676
O O9 0.164554 0.041304 0.301438
O O10 0.033083 0.009709 0.732778
O O11 0.342484 0.666927 0.903069
O O12 0.424513 0.782235 0.051385
O O13 0.539317 0.647969 0.048144
O O14 0.237169 0.381252 0.571381
#
# Coordination Sequence:
#
# PCOD9345589 Si02
#       7
#     4   4   4   4   4   4   4
#     4  12  29  51  75 107 154 200 248 299 376 459
#     4  10  23  44  74 103 147 188 253 312 375 442
#     4  12  27  47  75 108 153 194 251 310 375 449
#     4  10  21  47  68 106 142 184 254 308 373 440
#     4  11  24  48  74 108 150 199 249 312 378 446
#     4  11  24  42  75 103 144 196 245 314 372 444
#     4  10  24  43  69 103 142 191 244 305 369 444
#
# _framework density 24.551068000000001
#
# number of rings (size 3 to 8) (size 9 to 14) (size 15 to 20)
#    0.000    1.143    2.857    1.714    6.000    5.714 
#    5.143    0.000    0.000    0.000    0.000    0.000 
#    0.000    0.000    0.000    0.000    0.000    0.000 
#
# Total GULP energy -155934.928038 kJ/mol
# GULP energy per Si atom -5569.104573 kJ/mol
# Density = 2.449519 g / cm^3
# Si number density = 24.551068 Si / 1000 Ang^3
#
#
#
# Elastic Constant Matrix: (Units=GPa)
#
#
# Indices 1 2 3 4 5 6 
#
# 1 119.9037 35.6210 9.8403 0.0000 0.0000 0.0000
# 2 35.6210 98.7752 0.6406 0.0000 0.0000 0.0000
# 3 9.8403 0.6406 40.4813 0.0000 0.0000 0.0000
# 4 0.0000 0.0000 0.0000 25.0430 0.0000 0.0000
# 5 0.0000 0.0000 0.0000 0.0000 -0.2468 0.0000
# 6 0.0000 0.0000 0.0000 0.0000 0.0000 -60.0403
#
#
#
# Elastic Compliance Matrix: (Units=1/GPa)
#
#
# Indices 1 2 3 4 5 6 
#
# 1 0.009544 -0.003427 -0.002266 0.000000 0.000000 0.000000
# 2 -0.003427 0.011356 0.000653 0.000000 0.000000 0.000000
# 3 -0.002266 0.000653 0.025243 0.000000 0.000000 0.000000
# 4 0.000000 0.000000 0.000000 0.039931 0.000000 0.000000
# 5 0.000000 0.000000 0.000000 0.000000 -4.051755 0.000000
# 6 0.000000 0.000000 0.000000 0.000000 0.000000 -0.016655
#
#
# Mechanical properties :
#
#
# Convention : Reuss Voigt Hill
#
# Bulk Modulus (GPa) = 27.72856 39.04042 33.38449
# Shear Modulus (GPa) = -1.26255 7.15508 2.94626
#
# Velocity S-wave (km/s) = -0.71789 1.70900 1.09666
# Velocity P-wave (km/s) = 3.26061 4.45314 3.90270
#
# Compressibility (1/GPa) = 0.03606390
#
# Stress axis : x y z
#
# Youngs Moduli (GPa) = 104.77656 88.06161 39.61465
#
# Poissons Ratio (x) = 0.30180 0.08976
# Poissons Ratio (y) = 0.35909 -0.02588
# Poissons Ratio (z) = 0.23740 -0.05754
#
# Static dielectric constant tensor:
#      x y z
#    x 2.084760 0.000000 0.000000 
#    y 0.000000 1.948600 0.000000 
#    z 0.000000 0.000000 2.013830 
# 
# From -- ./inp_files/929.got.cif
#   From: 2010.05.17/outbox.cif.g08.bks.cpg/sg33_1_cif.got.tgz:929.got - 2010.06.03 17:15:25.
