data_PCOD9345207
_publ_section_title
;
Structure prediction by ZEFSAII (Michael W. Deem and Ramdas Pophale) SiO2 
 PCOD9345207
Probable space group: P N A 21
;
_chemical_formula_sum "Si O2"
_cell_formula_units_Z 32
_cell_length_a 8.699706
_cell_length_b 21.917721
_cell_length_c 8.183595
_cell_angle_alpha 90.000000
_cell_angle_beta 90.000000
_cell_angle_gamma 90.000000
_cell_volume 1560.429309
_symmetry_space_group_name_H-M "P N A 21"
_symmetry_group_IT_number 33
_symmetry_cell_setting 'orthorhombic'
loop_
_space_group_symop_operation_xyz
x,y,z
-x,-y,1/2+z
1/2-x,1/2+y,1/2+z
1/2+x,1/2-y,z
loop_
_atom_site_type_symbol
_atom_site_label
_atom_site_fract_x
_atom_site_fract_y
_atom_site_fract_z
Si Si1 0.413419 0.566946 0.761250
Si Si2 0.228549 0.253424 0.194339
Si Si3 0.646245 0.328724 0.814685
Si Si4 0.644135 0.864225 0.622549
Si Si5 0.951719 0.270084 0.700907
Si Si6 0.055224 0.931584 0.395187
Si Si7 0.037922 0.811381 0.879769
Si Si8 0.649517 0.151334 0.922334
O O1 0.235570 0.585643 0.724812
O O2 0.429129 0.500243 0.834874
O O3 0.497630 0.570208 0.584051
O O4 0.487038 0.618204 0.880047
O O5 0.358149 0.200256 0.215029
O O6 0.079219 0.216280 0.246491
O O7 0.287336 0.304568 0.320089
O O8 0.210167 0.290211 0.026134
O O9 0.503297 0.282092 0.831592
O O10 0.566056 0.393643 0.783196
O O11 0.779014 0.296980 0.704644
O O12 0.743047 0.342952 0.976329
O O13 0.482212 0.877773 0.539334
O O14 0.978570 0.230544 0.538911
O O15 0.065792 0.324269 0.757635
O O16 0.215488 0.895424 0.387721
#
# Coordination Sequence:
#
# PCOD9345207 Si02
#       8
#     4   4   4   4   4   4   4   4
#     4  10  24  44  65  91 128 178 227 268 322 396
#     4  11  19  36  61  92 124 159 201 260 335 398
#     4  10  21  36  62  92 131 161 210 269 322 395
#     4   9  20  38  65  93 118 160 217 267 319 394
#     4  11  22  37  62 102 130 160 208 273 344 388
#     4  11  24  44  66  92 126 182 228 264 321 395
#     4  11  23  38  62  96 132 161 206 277 332 388
#     4  11  21  39  69  92 123 171 215 264 333 408
#
# _framework density 20.507176999999999
#
# number of rings (size 3 to 8) (size 9 to 14) (size 15 to 20)
#    0.000    1.500    3.750    1.500    3.500    0.000 
#    0.000    3.750    0.000    0.000    0.000    0.000 
#    0.000    0.000    0.000    0.000    0.000    0.000 
#
# Total GULP energy -178237.183602 kJ/mol
# GULP energy per Si atom -5569.911988 kJ/mol
# Density = 2.046050 g / cm^3
# Si number density = 20.507177 Si / 1000 Ang^3
#
#
#
# Elastic Constant Matrix: (Units=GPa)
#
#
# Indices 1 2 3 4 5 6 
#
# 1 94.0863 69.1569 28.9094 0.0000 0.0000 0.0000
# 2 69.1569 156.9076 36.1021 0.0000 0.0000 0.0000
# 3 28.9094 36.1021 70.3228 0.0000 0.0000 0.0000
# 4 0.0000 0.0000 0.0000 33.1741 0.0000 0.0000
# 5 0.0000 0.0000 0.0000 0.0000 22.5357 0.0000
# 6 0.0000 0.0000 0.0000 0.0000 0.0000 30.4715
#
#
#
# Elastic Compliance Matrix: (Units=1/GPa)
#
#
# Indices 1 2 3 4 5 6 
#
# 1 0.016425 -0.006447 -0.003442 0.000000 0.000000 0.000000
# 2 -0.006447 0.009758 -0.002359 0.000000 0.000000 0.000000
# 3 -0.003442 -0.002359 0.016846 0.000000 0.000000 0.000000
# 4 0.000000 0.000000 0.000000 0.030144 0.000000 0.000000
# 5 0.000000 0.000000 0.000000 0.000000 0.044374 0.000000
# 6 0.000000 0.000000 0.000000 0.000000 0.000000 0.032818
#
#
# Mechanical properties :
#
#
# Convention : Reuss Voigt Hill
#
# Bulk Modulus (GPa) = 53.96104 65.51706 59.73905
# Shear Modulus (GPa) = 27.61828 29.71281 28.66555
#
# Velocity S-wave (km/s) = 3.67381 3.81057 3.74281
# Velocity P-wave (km/s) = 6.66079 7.16787 6.91898
#
# Compressibility (1/GPa) = 0.01853189
#
# Stress axis : x y z
#
# Youngs Moduli (GPa) = 60.88136 102.48423 59.36025
#
# Poissons Ratio (x) = 0.66076 0.20435
# Poissons Ratio (y) = 0.39253 0.14002
# Poissons Ratio (z) = 0.20958 0.24174
#
# Static dielectric constant tensor:
#      x y z
#    x 1.816050 0.000000 0.000000 
#    y 0.000000 1.752260 0.000000 
#    z 0.000000 0.000000 1.842780 
# 
# From -- ./inp_files/3482.got.cif
#   From: 2010.05.17/outbox.cif.g08.bks.cpg/sg33_2_cif.got.tgz:3482.got - 2010.06.03 17:15:25.
