data_PCOD9345956
_publ_section_title
;
Structure prediction by ZEFSAII (Michael W. Deem and Ramdas Pophale) SiO2 
 PCOD9345956
Probable space group: P N A 21
;
_chemical_formula_sum "Si O2"
_cell_formula_units_Z 16
_cell_length_a 5.556667
_cell_length_b 20.038093
_cell_length_c 4.774381
_cell_angle_alpha 90.000000
_cell_angle_beta 90.000000
_cell_angle_gamma 90.000000
_cell_volume 531.603501
_symmetry_space_group_name_H-M "P N A 21"
_symmetry_group_IT_number 33
_symmetry_cell_setting 'orthorhombic'
loop_
_space_group_symop_operation_xyz
x,y,z
-x,-y,1/2+z
1/2-x,1/2+y,1/2+z
1/2+x,1/2-y,z
loop_
_atom_site_type_symbol
_atom_site_label
_atom_site_fract_x
_atom_site_fract_y
_atom_site_fract_z
Si Si1 0.525452 0.098928 0.439960
Si Si2 0.106096 0.958554 0.294909
Si Si3 0.530279 0.361579 0.188852
Si Si4 0.017918 0.253249 0.663123
O O1 0.620094 0.047809 0.679480
O O2 0.280252 0.100745 0.263881
O O3 0.511477 0.170552 0.580143
O O4 0.768818 0.106746 0.259942
O O5 0.994431 0.883558 0.356851
O O6 0.052406 0.005908 0.556658
O O7 0.528169 0.293820 0.382547
O O8 0.267980 0.250785 0.830522
#
# Coordination Sequence:
#
# PCOD9345956 Si02
#       4
#     4   4   4   4
#     4  10  22  46  73 110 149 199 257 321 394 466
#     4  12  26  52  76 112 158 218 264 330 390 486
#     4  10  22  46  73 110 149 199 257 321 394 466
#     4   8  16  36  70 104 144 186 246 314 392 460
#
# _framework density 30.097617
#
# number of rings (size 3 to 8) (size 9 to 14) (size 15 to 20)
#    0.000    2.000    2.500    0.000    0.000    2.000 
#    9.000   22.500    0.000    0.000    0.000    0.000 
#    0.000    0.000    0.000    0.000    0.000    0.000 
#
# Total GULP energy -89199.552165 kJ/mol
# GULP energy per Si atom -5574.972010 kJ/mol
# Density = 3.002911 g / cm^3
# Si number density = 30.097617 Si / 1000 Ang^3
#
#
#
# Elastic Constant Matrix: (Units=GPa)
#
#
# Indices 1 2 3 4 5 6 
#
# 1 256.1943 -12.2478 32.9204 0.0000 0.0000 0.0000
# 2 -12.2478 65.0609 23.4408 0.0000 0.0000 0.0000
# 3 32.9204 23.4408 136.9577 0.0000 0.0000 0.0000
# 4 0.0000 0.0000 0.0000 38.7441 0.0000 0.0000
# 5 0.0000 0.0000 0.0000 0.0000 56.0438 0.0000
# 6 0.0000 0.0000 0.0000 0.0000 0.0000 48.5825
#
#
#
# Elastic Compliance Matrix: (Units=1/GPa)
#
#
# Indices 1 2 3 4 5 6 
#
# 1 0.004114 0.001205 -0.001195 0.000000 0.000000 0.000000
# 2 0.001205 0.016733 -0.003154 0.000000 0.000000 0.000000
# 3 -0.001195 -0.003154 0.008129 0.000000 0.000000 0.000000
# 4 0.000000 0.000000 0.000000 0.025810 0.000000 0.000000
# 5 0.000000 0.000000 0.000000 0.000000 0.017843 0.000000
# 6 0.000000 0.000000 0.000000 0.000000 0.000000 0.020584
#
#
# Mechanical properties :
#
#
# Convention : Reuss Voigt Hill
#
# Bulk Modulus (GPa) = 44.07435 60.71555 52.39495
# Shear Modulus (GPa) = 46.70105 56.28071 51.49088
#
# Velocity S-wave (km/s) = 3.94338 4.32897 4.14066
# Velocity P-wave (km/s) = 5.95056 6.72334 6.34872
#
# Compressibility (1/GPa) = 0.02268894
#
# Stress axis : x y z
#
# Youngs Moduli (GPa) = 243.04323 59.76099 123.02248
#
# Poissons Ratio (x) = -0.07202 0.14705
# Poissons Ratio (y) = -0.29292 0.38797
# Poissons Ratio (z) = 0.29050 0.18847
#
# Static dielectric constant tensor:
#      x y z
#    x 2.330760 0.000000 0.000000 
#    y 0.000000 2.607840 0.000000 
#    z 0.000000 0.000000 3.100150 
# 
# From -- ./inp_files/146.got.cif
#   From: 2010.05.17/outbox.cif.g08.bks.cpg/sg33_1_cif.got.tgz:146.got - 2010.06.03 17:15:25.
