data_PCOD9345684
_publ_section_title
;
Structure prediction by ZEFSAII (Michael W. Deem and Ramdas Pophale) SiO2 
 PCOD9345684
Probable space group: P N A 21
;
_chemical_formula_sum "Si O2"
_cell_formula_units_Z 32
_cell_length_a 26.648006
_cell_length_b 6.379387
_cell_length_c 8.730738
_cell_angle_alpha 90.000000
_cell_angle_beta 90.000000
_cell_angle_gamma 90.000000
_cell_volume 1484.207501
_symmetry_space_group_name_H-M "P N A 21"
_symmetry_group_IT_number 33
_symmetry_cell_setting 'orthorhombic'
loop_
_space_group_symop_operation_xyz
x,y,z
-x,-y,1/2+z
1/2-x,1/2+y,1/2+z
1/2+x,1/2-y,z
loop_
_atom_site_type_symbol
_atom_site_label
_atom_site_fract_x
_atom_site_fract_y
_atom_site_fract_z
Si Si1 0.668045 0.602062 0.172680
Si Si2 0.453742 0.173362 0.346283
Si Si3 0.223102 0.524617 0.291020
Si Si4 0.634034 0.101048 0.703860
Si Si5 0.448598 0.907300 0.644934
Si Si6 0.232004 0.668267 0.617899
Si Si7 0.096088 0.069165 0.925091
Si Si8 0.633645 0.254842 0.374228
O O1 0.717749 0.462247 0.152625
O O2 0.638475 0.494314 0.315685
O O3 0.688109 0.836426 0.182753
O O4 0.631367 0.572385 0.030976
O O5 0.504127 0.115359 0.256349
O O6 0.440206 0.417336 0.332223
O O7 0.408754 0.053022 0.263106
O O8 0.454426 0.100345 0.525591
O O9 0.233910 0.678847 0.432885
O O10 0.264877 0.396758 0.197558
O O11 0.188994 0.344420 0.365529
O O12 0.633765 0.283229 0.830329
O O13 0.617496 0.213794 0.546628
O O14 0.684444 0.966062 0.676696
O O15 0.439337 0.714056 0.529355
O O16 0.400757 0.880097 0.757836
#
# Coordination Sequence:
#
# PCOD9345684 Si02
#       8
#     4   4   4   4   4   4   4   4
#     4  10  22  40  63  87 128 170 215 274 324 390
#     4  11  23  40  66  96 131 174 219 278 337 398
#     4  10  22  41  63  92 124 174 222 266 333 391
#     4  10  23  41  65  97 132 169 224 276 331 407
#     4  10  22  41  64  95 129 170 218 272 335 399
#     4  10  24  39  63  94 127 174 219 275 331 404
#     4  10  24  42  65  97 128 175 220 276 334 401
#     4   9  20  42  61  90 127 168 213 267 327 390
#
# _framework density 21.560327000000001
#
# number of rings (size 3 to 8) (size 9 to 14) (size 15 to 20)
#    0.000    2.000    0.000    1.500    3.500    9.000 
#    0.000    3.750    0.000    0.000    0.000    0.000 
#    0.000    0.000    0.000    0.000    0.000    0.000 
#
# Total GULP energy -178509.236075 kJ/mol
# GULP energy per Si atom -5578.413627 kJ/mol
# Density = 2.151125 g / cm^3
# Si number density = 21.560327 Si / 1000 Ang^3
#
#
#
# Elastic Constant Matrix: (Units=GPa)
#
#
# Indices 1 2 3 4 5 6 
#
# 1 65.6675 17.8876 28.7736 0.0000 0.0000 0.0000
# 2 17.8876 67.0831 35.8608 0.0000 0.0000 0.0000
# 3 28.7736 35.8608 94.0704 0.0000 0.0000 0.0000
# 4 0.0000 0.0000 0.0000 13.3411 0.0000 0.0000
# 5 0.0000 0.0000 0.0000 0.0000 26.8791 0.0000
# 6 0.0000 0.0000 0.0000 0.0000 0.0000 16.7989
#
#
#
# Elastic Compliance Matrix: (Units=1/GPa)
#
#
# Indices 1 2 3 4 5 6 
#
# 1 0.017867 -0.002314 -0.004583 0.000000 0.000000 0.000000
# 2 -0.002314 0.019022 -0.006544 0.000000 0.000000 0.000000
# 3 -0.004583 -0.006544 0.014527 0.000000 0.000000 0.000000
# 4 0.000000 0.000000 0.000000 0.074956 0.000000 0.000000
# 5 0.000000 0.000000 0.000000 0.000000 0.037204 0.000000
# 6 0.000000 0.000000 0.000000 0.000000 0.000000 0.059528
#
#
# Mechanical properties :
#
#
# Convention : Reuss Voigt Hill
#
# Bulk Modulus (GPa) = 40.75963 43.54057 42.15010
# Shear Modulus (GPa) = 19.36769 21.02376 20.19573
#
# Velocity S-wave (km/s) = 3.00042 3.12607 3.06389
# Velocity P-wave (km/s) = 5.56321 5.76787 5.66647
#
# Compressibility (1/GPa) = 0.02453408
#
# Stress axis : x y z
#
# Youngs Moduli (GPa) = 55.97026 52.57077 68.83961
#
# Poissons Ratio (x) = 0.12167 0.31547
# Poissons Ratio (y) = 0.12953 0.45045
# Poissons Ratio (z) = 0.25649 0.34400
#
# Static dielectric constant tensor:
#      x y z
#    x 1.767590 0.000000 0.000000 
#    y 0.000000 1.807970 0.000000 
#    z 0.000000 0.000000 1.832880 
# 
# From -- ./inp_files/5302.got.cif
#   From: 2010.05.17/outbox.cif.g08.bks.cpg/sg33_3_cif.got.tgz:5302.got - 2010.06.03 17:15:25.
