data_PCOD9345647
_publ_section_title
;
Structure prediction by ZEFSAII (Michael W. Deem and Ramdas Pophale) SiO2 
 PCOD9345647
Probable space group: P N A 21
;
_chemical_formula_sum "Si O2"
_cell_formula_units_Z 24
_cell_length_a 9.407516
_cell_length_b 14.140944
_cell_length_c 7.535104
_cell_angle_alpha 90.000000
_cell_angle_beta 90.000000
_cell_angle_gamma 90.000000
_cell_volume 1002.403603
_symmetry_space_group_name_H-M "P N A 21"
_symmetry_group_IT_number 33
_symmetry_cell_setting 'orthorhombic'
loop_
_space_group_symop_operation_xyz
x,y,z
-x,-y,1/2+z
1/2-x,1/2+y,1/2+z
1/2+x,1/2-y,z
loop_
_atom_site_type_symbol
_atom_site_label
_atom_site_fract_x
_atom_site_fract_y
_atom_site_fract_z
Si Si1 0.197836 0.433858 0.951250
Si Si2 0.791077 0.950761 0.475642
Si Si3 0.274442 0.748744 0.595633
Si Si4 0.949677 0.939208 0.104331
Si Si5 0.531220 0.060781 0.318167
Si Si6 0.031273 0.769446 0.845987
O O1 0.098782 0.487336 0.813534
O O2 0.236830 0.323443 0.935267
O O3 0.331874 0.497505 0.003450
O O4 0.095130 0.427146 0.123177
O O5 0.720783 0.854194 0.542867
O O6 0.883925 0.925136 0.299168
O O7 0.665681 0.020202 0.422295
O O8 0.903716 0.001511 0.604911
O O9 0.185876 0.788640 0.763484
O O10 0.429276 0.725385 0.673702
O O11 0.982562 0.843947 0.993390
O O12 0.477792 0.159622 0.401233
#
# Coordination Sequence:
#
# PCOD9345647 Si02
#       6
#     4   4   4   4   4   4
#     4  10  22  39  60  88 121 159 205 256 312 373
#     4  11  23  40  63  93 128 166 211 264 320 381
#     4  11  22  41  64  88 124 168 208 260 321 378
#     4  11  23  40  63  93 126 164 213 264 318 386
#     4  10  22  39  60  87 122 160 204 256 312 372
#     4  11  22  41  64  89 123 167 209 256 319 384
#
# _framework density 23.942453
#
# number of rings (size 3 to 8) (size 9 to 14) (size 15 to 20)
#    0.000    1.333    0.000    8.000    0.000    2.667 
#    0.000    8.333    0.000    0.000    0.000    0.000 
#    0.000    0.000    0.000    0.000    0.000    0.000 
#
# Total GULP energy -134295.193746 kJ/mol
# GULP energy per Si atom -5595.633073 kJ/mol
# Density = 2.388796 g / cm^3
# Si number density = 23.942453 Si / 1000 Ang^3
#
#
#
# Elastic Constant Matrix: (Units=GPa)
#
#
# Indices 1 2 3 4 5 6 
#
# 1 88.9754 13.5560 -2.5765 0.0000 0.0000 0.0000
# 2 13.5560 157.9083 29.3177 0.0000 0.0000 0.0000
# 3 -2.5765 29.3177 62.5089 0.0000 0.0000 0.0000
# 4 0.0000 0.0000 0.0000 30.9007 0.0000 0.0000
# 5 0.0000 0.0000 0.0000 0.0000 21.0927 0.0000
# 6 0.0000 0.0000 0.0000 0.0000 0.0000 25.4805
#
#
#
# Elastic Compliance Matrix: (Units=1/GPa)
#
#
# Indices 1 2 3 4 5 6 
#
# 1 0.011447 -0.001172 0.001022 0.000000 0.000000 0.000000
# 2 -0.001172 0.007057 -0.003358 0.000000 0.000000 0.000000
# 3 0.001022 -0.003358 0.017615 0.000000 0.000000 0.000000
# 4 0.000000 0.000000 0.000000 0.032362 0.000000 0.000000
# 5 0.000000 0.000000 0.000000 0.000000 0.047410 0.000000
# 6 0.000000 0.000000 0.000000 0.000000 0.000000 0.039246
#
#
# Mechanical properties :
#
#
# Convention : Reuss Voigt Hill
#
# Bulk Modulus (GPa) = 34.36260 43.33187 38.84723
# Shear Modulus (GPa) = 29.09440 33.43447 31.26443
#
# Velocity S-wave (km/s) = 3.48973 3.74097 3.61753
# Velocity P-wave (km/s) = 5.53362 6.06609 5.80596
#
# Compressibility (1/GPa) = 0.02910141
#
# Stress axis : x y z
#
# Youngs Moduli (GPa) = 87.35699 141.70491 56.77025
#
# Poissons Ratio (x) = 0.16614 -0.05800
# Poissons Ratio (y) = 0.10242 0.19064
# Poissons Ratio (z) = -0.08925 0.47586
#
# Static dielectric constant tensor:
#      x y z
#    x 1.885970 0.000000 0.000000 
#    y 0.000000 2.001380 0.000000 
#    z 0.000000 0.000000 1.935700 
# 
# From -- ./inp_files/3061.got.cif
#   From: 2010.05.17/outbox.cif.g08.bks.cpg/sg33_2_cif.got.tgz:3061.got - 2010.06.03 17:15:25.
