data_PCOD9345828
_publ_section_title
;
Structure prediction by ZEFSAII (Michael W. Deem and Ramdas Pophale) SiO2 
 PCOD9345828
Probable space group: P N A 21
;
_chemical_formula_sum "Si O2"
_cell_formula_units_Z 32
_cell_length_a 11.901653
_cell_length_b 23.702017
_cell_length_c 5.173377
_cell_angle_alpha 90.000000
_cell_angle_beta 90.000000
_cell_angle_gamma 90.000000
_cell_volume 1459.374378
_symmetry_space_group_name_H-M "P N A 21"
_symmetry_group_IT_number 33
_symmetry_cell_setting 'orthorhombic'
loop_
_space_group_symop_operation_xyz
x,y,z
-x,-y,1/2+z
1/2-x,1/2+y,1/2+z
1/2+x,1/2-y,z
loop_
_atom_site_type_symbol
_atom_site_label
_atom_site_fract_x
_atom_site_fract_y
_atom_site_fract_z
Si Si1 0.228913 0.006799 0.574900
Si Si2 0.829426 0.593451 0.927640
Si Si3 0.535949 0.970751 0.841512
Si Si4 0.866057 0.093752 0.814382
Si Si5 0.850995 0.768778 0.368988
Si Si6 0.026641 0.813177 0.680335
Si Si7 0.752124 0.713709 0.854596
Si Si8 0.405812 0.618840 0.080252
O O1 0.332543 0.025825 0.393645
O O2 0.170191 0.065139 0.639057
O O3 0.279220 0.962661 0.786383
O O4 0.137145 0.967695 0.437709
O O5 0.804010 0.652288 0.789592
O O6 0.962227 0.582206 0.937705
O O7 0.757193 0.599940 0.189419
O O8 0.511159 0.981413 0.540464
O O9 0.966208 0.097147 0.611522
O O10 0.902420 0.142823 0.009381
O O11 0.769383 0.752517 0.603503
O O12 0.861315 0.832957 0.271746
O O13 0.973979 0.763582 0.505561
O O14 0.814635 0.734822 0.112980
O O15 0.117314 0.791742 0.889982
O O16 0.923314 0.846955 0.812570
#
# Coordination Sequence:
#
# PCOD9345828 Si02
#       8
#     4   4   4   4   4   4   4   4
#     4  11  24  41  69 106 148 196 229 305 367 443
#     4  11  23  42  70 110 135 192 247 294 358 432
#     4  10  22  43  65  92 145 182 233 287 342 420
#     4  11  21  38  71 104 142 188 236 291 364 431
#     4  11  27  47  70 104 140 191 243 306 361 434
#     4  11  24  47  71 106 148 186 244 315 360 440
#     4  12  24  45  79  98 141 192 250 301 367 439
#     4  11  25  45  69 108 151 185 238 303 373 441
#
# _framework density 21.927205000000001
#
# number of rings (size 3 to 8) (size 9 to 14) (size 15 to 20)
#    0.000    1.000    5.000    0.750    5.250    1.000 
#    4.500    0.000    0.000    0.000    0.000    0.000 
#    0.000    0.000    0.000    0.000    0.000    0.000 
#
# Total GULP energy -178266.971789 kJ/mol
# GULP energy per Si atom -5570.842868 kJ/mol
# Density = 2.187730 g / cm^3
# Si number density = 21.927205 Si / 1000 Ang^3
#
#
#
# Elastic Constant Matrix: (Units=GPa)
#
#
# Indices 1 2 3 4 5 6 
#
# 1 60.6007 44.2225 20.2624 0.0000 0.0000 0.0000
# 2 44.2225 72.5157 35.2646 0.0000 0.0000 0.0000
# 3 20.2624 35.2646 94.1806 0.0000 0.0000 0.0000
# 4 0.0000 0.0000 0.0000 32.1313 0.0000 0.0000
# 5 0.0000 0.0000 0.0000 0.0000 32.7049 0.0000
# 6 0.0000 0.0000 0.0000 0.0000 0.0000 38.9555
#
#
#
# Elastic Compliance Matrix: (Units=1/GPa)
#
#
# Indices 1 2 3 4 5 6 
#
# 1 0.029751 -0.018377 0.000480 0.000000 0.000000 0.000000
# 2 -0.018377 0.028211 -0.006610 0.000000 0.000000 0.000000
# 3 0.000480 -0.006610 0.012989 0.000000 0.000000 0.000000
# 4 0.000000 0.000000 0.000000 0.031122 0.000000 0.000000
# 5 0.000000 0.000000 0.000000 0.000000 0.030576 0.000000
# 6 0.000000 0.000000 0.000000 0.000000 0.000000 0.025670
#
#
# Mechanical properties :
#
#
# Convention : Reuss Voigt Hill
#
# Bulk Modulus (GPa) = 45.58028 47.42175 46.50101
# Shear Modulus (GPa) = 23.29415 29.26151 26.27783
#
# Velocity S-wave (km/s) = 3.26289 3.65702 3.46556
# Velocity P-wave (km/s) = 5.91840 6.28535 6.10463
#
# Compressibility (1/GPa) = 0.02193931
#
# Stress axis : x y z
#
# Youngs Moduli (GPa) = 33.61225 35.44703 76.98537
#
# Poissons Ratio (x) = 0.65140 -0.03696
# Poissons Ratio (y) = 0.61768 0.50884
# Poissons Ratio (z) = -0.01614 0.23429
#
# Static dielectric constant tensor:
#      x y z
#    x 1.854170 0.000000 0.000000 
#    y 0.000000 1.816830 0.000000 
#    z 0.000000 0.000000 1.921050 
# 
# From -- ./inp_files/1148.got.cif
#   From: 2010.05.17/outbox.cif.g08.bks.cpg/sg33_1_cif.got.tgz:1148.got - 2010.06.03 17:15:25.
