data_PCOD9345317
_publ_section_title
;
Structure prediction by ZEFSAII (Michael W. Deem and Ramdas Pophale) SiO2 
 PCOD9345317
Probable space group: P N A 21
;
_chemical_formula_sum "Si O2"
_cell_formula_units_Z 28
_cell_length_a 9.236285
_cell_length_b 5.506726
_cell_length_c 21.873337
_cell_angle_alpha 90.000000
_cell_angle_beta 90.000000
_cell_angle_gamma 90.000000
_cell_volume 1112.514902
_symmetry_space_group_name_H-M "P N A 21"
_symmetry_group_IT_number 33
_symmetry_cell_setting 'orthorhombic'
loop_
_space_group_symop_operation_xyz
x,y,z
-x,-y,1/2+z
1/2-x,1/2+y,1/2+z
1/2+x,1/2-y,z
loop_
_atom_site_type_symbol
_atom_site_label
_atom_site_fract_x
_atom_site_fract_y
_atom_site_fract_z
Si Si1 0.965077 0.524045 0.678850
Si Si2 0.856594 0.120097 0.950619
Si Si3 0.959659 0.884137 0.832663
Si Si4 0.250736 0.981313 0.865717
Si Si5 0.062411 0.503595 0.541100
Si Si6 0.300665 0.472907 0.718399
Si Si7 0.820393 0.235014 0.494815
O O1 0.002204 0.549924 0.607201
O O2 0.126757 0.492081 0.708976
O O3 0.881099 0.774561 0.696826
O O4 0.869442 0.277745 0.690536
O O5 0.759168 0.271844 0.902629
O O6 0.952614 0.977715 0.901949
O O7 0.958478 0.297086 0.989139
O O8 0.755046 0.996538 0.000945
O O9 0.902499 0.607775 0.836915
O O10 0.849488 0.026203 0.789346
O O11 0.125371 0.938017 0.816391
O O12 0.218101 0.803247 0.923582
O O13 0.233036 0.447620 0.537474
O O14 0.983056 0.264454 0.514803
#
# Coordination Sequence:
#
# PCOD9345317 Si02
#       7
#     4   4   4   4   4   4   4
#     4  12  29  51  79 111 151 205 261 314 376 449
#     4  10  22  36  68 100 136 176 232 296 382 430
#     4  11  24  41  69  95 144 177 244 296 369 442
#     4  10  21  39  61  99 133 179 225 295 373 442
#     4  11  24  41  69  95 144 177 244 296 369 442
#     4  12  29  51  79 111 151 205 261 314 376 449
#     4  10  21  39  61  99 133 179 225 295 373 442
#
# _framework density 25.168202999999998
#
# number of rings (size 3 to 8) (size 9 to 14) (size 15 to 20)
#    0.000    1.143    0.000    6.000    8.000    2.286 
#    0.000    0.000    0.000    0.000    0.000    0.000 
#    0.000    0.000    0.000    0.000    0.000    0.000 
#
# Total GULP energy -156290.465602 kJ/mol
# GULP energy per Si atom -5581.802343 kJ/mol
# Density = 2.511092 g / cm^3
# Si number density = 25.168203 Si / 1000 Ang^3
#
#
#
# Elastic Constant Matrix: (Units=GPa)
#
#
# Indices 1 2 3 4 5 6 
#
# 1 120.7276 39.2355 -7.6921 0.0000 0.0000 0.0000
# 2 39.2355 94.4988 5.7361 0.0000 0.0000 0.0000
# 3 -7.6921 5.7361 94.1722 0.0000 0.0000 0.0000
# 4 0.0000 0.0000 0.0000 28.6522 0.0000 0.0000
# 5 0.0000 0.0000 0.0000 0.0000 29.1577 0.0000
# 6 0.0000 0.0000 0.0000 0.0000 0.0000 13.9165
#
#
#
# Elastic Compliance Matrix: (Units=1/GPa)
#
#
# Indices 1 2 3 4 5 6 
#
# 1 0.009675 -0.004080 0.001039 0.000000 0.000000 0.000000
# 2 -0.004080 0.012342 -0.001085 0.000000 0.000000 0.000000
# 3 0.001039 -0.001085 0.010770 0.000000 0.000000 0.000000
# 4 0.000000 0.000000 0.000000 0.034901 0.000000 0.000000
# 5 0.000000 0.000000 0.000000 0.000000 0.034296 0.000000
# 6 0.000000 0.000000 0.000000 0.000000 0.000000 0.071857
#
#
# Mechanical properties :
#
#
# Convention : Reuss Voigt Hill
#
# Bulk Modulus (GPa) = 40.75918 42.66195 41.71056
# Shear Modulus (GPa) = 26.27802 32.48656 29.38229
#
# Velocity S-wave (km/s) = 3.23475 3.59664 3.42048
# Velocity P-wave (km/s) = 5.49376 5.85109 5.67524
#
# Compressibility (1/GPa) = 0.02453435
#
# Stress axis : x y z
#
# Youngs Moduli (GPa) = 103.35564 81.02358 92.85231
#
# Poissons Ratio (x) = 0.33059 -0.09646
# Poissons Ratio (y) = 0.42171 0.10075
# Poissons Ratio (z) = -0.10737 0.08791
#
# Static dielectric constant tensor:
#      x y z
#    x 2.149310 0.000000 0.000000 
#    y 0.000000 2.175290 0.000000 
#    z 0.000000 0.000000 1.949990 
# 
# From -- ./inp_files/9234.got.cif
#   From: 2010.05.17/outbox.cif.g08.bks.cpg/sg33_5_cif.got.tgz:9234.got - 2010.06.03 17:15:25.
