data_PCOD9345812
_publ_section_title
;
Structure prediction by ZEFSAII (Michael W. Deem and Ramdas Pophale) SiO2 
 PCOD9345812
Probable space group: P N A 21
;
_chemical_formula_sum "Si O2"
_cell_formula_units_Z 24
_cell_length_a 8.238086
_cell_length_b 9.468724
_cell_length_c 11.559124
_cell_angle_alpha 90.000000
_cell_angle_beta 90.000000
_cell_angle_gamma 90.000000
_cell_volume 901.659788
_symmetry_space_group_name_H-M "P N A 21"
_symmetry_group_IT_number 33
_symmetry_cell_setting 'orthorhombic'
loop_
_space_group_symop_operation_xyz
x,y,z
-x,-y,1/2+z
1/2-x,1/2+y,1/2+z
1/2+x,1/2-y,z
loop_
_atom_site_type_symbol
_atom_site_label
_atom_site_fract_x
_atom_site_fract_y
_atom_site_fract_z
Si Si1 0.759135 0.446957 0.071570
Si Si2 0.027238 0.292730 0.537776
Si Si3 0.405470 0.138223 0.852719
Si Si4 0.169740 0.589972 0.830835
Si Si5 0.090066 0.915460 0.458987
Si Si6 0.277306 0.553907 0.150744
O O1 0.810271 0.611176 0.052183
O O2 0.776760 0.387355 0.199944
O O3 0.892782 0.375373 0.990853
O O4 0.589183 0.416540 0.010353
O O5 0.073771 0.152272 0.609287
O O6 0.948642 0.308208 0.407460
O O7 0.889276 0.373401 0.610204
O O8 0.568046 0.056176 0.823152
O O9 0.398493 0.306344 0.851955
O O10 0.258220 0.058106 0.787052
O O11 0.331976 0.558010 0.903381
O O12 0.200273 0.911553 0.576964
#
# Coordination Sequence:
#
# PCOD9345812 Si02
#       6
#     4   4   4   4   4   4
#     4  11  23  43  69 104 145 190 250 311 381 452
#     4  10  22  42  70  98 141 193 238 306 383 436
#     4  11  24  44  73 104 147 198 244 314 381 455
#     4  10  23  46  66 103 149 189 250 316 374 451
#     4  11  25  42  72 110 139 195 259 300 377 458
#     4  11  23  43  72 105 147 191 249 309 368 472
#
# _framework density 26.617578999999999
#
# number of rings (size 3 to 8) (size 9 to 14) (size 15 to 20)
#    0.000    1.333    1.667    3.000    4.667    0.000 
#    6.000    3.333    0.000    0.000    0.000    0.000 
#    0.000    0.000    0.000    0.000    0.000    0.000 
#
# Total GULP energy -133878.927510 kJ/mol
# GULP energy per Si atom -5578.288646 kJ/mol
# Density = 2.655700 g / cm^3
# Si number density = 26.617579 Si / 1000 Ang^3
#
#
#
# Elastic Constant Matrix: (Units=GPa)
#
#
# Indices 1 2 3 4 5 6 
#
# 1 109.9040 15.9775 41.3950 0.0000 0.0000 0.0000
# 2 15.9775 63.9985 4.7959 0.0000 0.0000 0.0000
# 3 41.3950 4.7959 199.3972 0.0000 0.0000 0.0000
# 4 0.0000 0.0000 0.0000 20.1709 0.0000 0.0000
# 5 0.0000 0.0000 0.0000 0.0000 51.7215 0.0000
# 6 0.0000 0.0000 0.0000 0.0000 0.0000 34.3231
#
#
#
# Elastic Compliance Matrix: (Units=1/GPa)
#
#
# Indices 1 2 3 4 5 6 
#
# 1 0.010225 -0.002398 -0.002065 0.000000 0.000000 0.000000
# 2 -0.002398 0.016216 0.000108 0.000000 0.000000 0.000000
# 3 -0.002065 0.000108 0.005441 0.000000 0.000000 0.000000
# 4 0.000000 0.000000 0.000000 0.049576 0.000000 0.000000
# 5 0.000000 0.000000 0.000000 0.000000 0.019334 0.000000
# 6 0.000000 0.000000 0.000000 0.000000 0.000000 0.029135
#
#
# Mechanical properties :
#
#
# Convention : Reuss Voigt Hill
#
# Bulk Modulus (GPa) = 43.15583 55.29295 49.22439
# Shear Modulus (GPa) = 34.16169 41.98518 38.07344
#
# Velocity S-wave (km/s) = 3.58638 3.97589 3.78615
# Velocity P-wave (km/s) = 5.77910 6.47265 6.13568
#
# Compressibility (1/GPa) = 0.02317184
#
# Stress axis : x y z
#
# Youngs Moduli (GPa) = 97.79685 61.66760 183.78171
#
# Poissons Ratio (x) = 0.14788 0.37953
# Poissons Ratio (y) = 0.23452 -0.01981
# Poissons Ratio (z) = 0.20196 -0.00665
#
# Static dielectric constant tensor:
#      x y z
#    x 2.059280 0.000000 0.000000 
#    y 0.000000 2.601040 0.000000 
#    z 0.000000 0.000000 2.250360 
# 
# From -- ./inp_files/5799.got.cif
#   From: 2010.05.17/outbox.cif.g08.bks.cpg/sg33_3_cif.got.tgz:5799.got - 2010.06.03 17:15:25.
