data_PCOD9345067
_publ_section_title
;
Structure prediction by ZEFSAII (Michael W. Deem and Ramdas Pophale) SiO2 
 PCOD9345067
Probable space group: P N A 21
;
_chemical_formula_sum "Si O2"
_cell_formula_units_Z 32
_cell_length_a 8.149946
_cell_length_b 12.477443
_cell_length_c 12.698242
_cell_angle_alpha 90.000000
_cell_angle_beta 90.000000
_cell_angle_gamma 90.000000
_cell_volume 1291.290409
_symmetry_space_group_name_H-M "P N A 21"
_symmetry_group_IT_number 33
_symmetry_cell_setting 'orthorhombic'
loop_
_space_group_symop_operation_xyz
x,y,z
-x,-y,1/2+z
1/2-x,1/2+y,1/2+z
1/2+x,1/2-y,z
loop_
_atom_site_type_symbol
_atom_site_label
_atom_site_fract_x
_atom_site_fract_y
_atom_site_fract_z
Si Si1 0.104234 0.658639 0.063000
Si Si2 0.490822 0.993605 0.405436
Si Si3 0.567166 0.674145 0.236986
Si Si4 0.924365 0.659875 0.763426
Si Si5 0.732259 0.321074 0.876149
Si Si6 0.230075 0.345290 0.041439
Si Si7 0.056305 0.030805 0.571159
Si Si8 0.402393 0.337145 0.389180
O O1 0.269923 0.594215 0.093862
O O2 0.025514 0.726497 0.157014
O O3 0.150988 0.747255 0.975349
O O4 0.983414 0.576499 0.003187
O O5 0.636542 0.915125 0.373965
O O6 0.347795 0.919881 0.450819
O O7 0.451158 0.069427 0.306248
O O8 0.442680 0.647910 0.331199
O O9 0.719201 0.725398 0.296367
O O10 0.567725 0.571980 0.160695
O O11 0.889662 0.656783 0.641023
O O12 0.755106 0.629626 0.822749
O O13 0.979658 0.773950 0.808805
O O14 0.743495 0.271087 0.991778
O O15 0.396571 0.406565 0.072585
O O16 0.989723 0.072366 0.459019
#
# Coordination Sequence:
#
# PCOD9345067 Si02
#       8
#     4   4   4   4   4   4   4   4
#     4   9  19  39  66  99 123 173 224 277 324 406
#     4  10  24  43  66  92 134 175 222 275 337 405
#     4  11  22  38  70  93 132 166 227 277 339 394
#     4  11  24  43  70  99 134 183 222 277 349 402
#     4  12  24  43  61  97 133 176 216 281 336 407
#     4  11  26  42  66  96 139 175 226 276 341 412
#     4  10  20  40  65  98 127 170 225 279 321 402
#     4  10  21  40  68 100 134 168 224 282 331 402
#
# _framework density 24.781413000000001
#
# number of rings (size 3 to 8) (size 9 to 14) (size 15 to 20)
#    0.000    1.500    3.750    0.750    3.500    2.000 
#    0.000    1.250    0.000    0.000    0.000    0.000 
#    0.000    0.000    0.000    0.000    0.000    0.000 
#
# Total GULP energy -178959.492879 kJ/mol
# GULP energy per Si atom -5592.484152 kJ/mol
# Density = 2.472501 g / cm^3
# Si number density = 24.781413 Si / 1000 Ang^3
#
#
#
# Elastic Constant Matrix: (Units=GPa)
#
#
# Indices 1 2 3 4 5 6 
#
# 1 36.7026 5.6608 10.4357 0.0000 0.0000 0.0000
# 2 5.6608 59.6580 47.6990 0.0000 0.0000 0.0000
# 3 10.4357 47.6990 114.0938 0.0000 0.0000 0.0000
# 4 0.0000 0.0000 0.0000 25.7004 0.0000 0.0000
# 5 0.0000 0.0000 0.0000 0.0000 40.2882 0.0000
# 6 0.0000 0.0000 0.0000 0.0000 0.0000 31.4853
#
#
#
# Elastic Compliance Matrix: (Units=1/GPa)
#
#
# Indices 1 2 3 4 5 6 
#
# 1 0.028007 -0.000915 -0.002179 0.000000 0.000000 0.000000
# 2 -0.000915 0.025208 -0.010455 0.000000 0.000000 0.000000
# 3 -0.002179 -0.010455 0.013335 0.000000 0.000000 0.000000
# 4 0.000000 0.000000 0.000000 0.038910 0.000000 0.000000
# 5 0.000000 0.000000 0.000000 0.000000 0.024821 0.000000
# 6 0.000000 0.000000 0.000000 0.000000 0.000000 0.031761
#
#
# Mechanical properties :
#
#
# Convention : Reuss Voigt Hill
#
# Bulk Modulus (GPa) = 25.34771 37.56060 31.45415
# Shear Modulus (GPa) = 24.71685 29.27203 26.99444
#
# Velocity S-wave (km/s) = 3.16158 3.44060 3.30404
# Velocity P-wave (km/s) = 4.85574 5.56537 5.22262
#
# Compressibility (1/GPa) = 0.03945130
#
# Stress axis : x y z
#
# Youngs Moduli (GPa) = 35.70564 39.66944 74.99082
#
# Poissons Ratio (x) = 0.03631 0.16341
# Poissons Ratio (y) = 0.03268 0.78404
# Poissons Ratio (z) = 0.07780 0.41475
#
# Static dielectric constant tensor:
#      x y z
#    x 1.988350 0.000000 0.000000 
#    y 0.000000 1.999590 0.000000 
#    z 0.000000 0.000000 1.977110 
# 
# From -- ./inp_files/5996.got.cif
#   From: 2010.05.17/outbox.cif.g08.bks.cpg/sg33_3_cif.got.tgz:5996.got - 2010.06.03 17:15:25.
