data_PCOD9345960
_publ_section_title
;
Structure prediction by ZEFSAII (Michael W. Deem and Ramdas Pophale) SiO2 
 PCOD9345960
Probable space group: P N A 21
;
_chemical_formula_sum "Si O2"
_cell_formula_units_Z 28
_cell_length_a 28.066176
_cell_length_b 7.782375
_cell_length_c 5.799093
_cell_angle_alpha 90.000000
_cell_angle_beta 90.000000
_cell_angle_gamma 90.000000
_cell_volume 1266.646629
_symmetry_space_group_name_H-M "P N A 21"
_symmetry_group_IT_number 33
_symmetry_cell_setting 'orthorhombic'
loop_
_space_group_symop_operation_xyz
x,y,z
-x,-y,1/2+z
1/2-x,1/2+y,1/2+z
1/2+x,1/2-y,z
loop_
_atom_site_type_symbol
_atom_site_label
_atom_site_fract_x
_atom_site_fract_y
_atom_site_fract_z
Si Si1 0.500916 0.600802 0.986190
Si Si2 0.751719 0.339886 0.003567
Si Si3 0.246797 0.509121 0.924816
Si Si4 0.338229 0.001682 0.774054
Si Si5 0.166429 0.008198 0.780130
Si Si6 0.104963 0.821839 0.111976
Si Si7 0.896095 0.828371 0.921873
O O1 0.506278 0.503775 0.733432
O O2 0.452158 0.705844 0.953005
O O3 0.550417 0.697729 0.033060
O O4 0.751788 0.184675 0.822534
O O5 0.798504 0.453567 0.965989
O O6 0.700413 0.425960 0.981578
O O7 0.752985 0.318386 0.278214
O O8 0.196967 0.493604 0.055411
O O9 0.293589 0.495579 0.082738
O O10 0.373902 0.161513 0.748665
O O11 0.367390 0.828968 0.813475
O O12 0.127236 0.132879 0.670555
O O13 0.137305 0.851033 0.884963
O O14 0.107715 0.996440 0.267823
#
# Coordination Sequence:
#
# PCOD9345960 Si02
#       7
#     4   4   4   4   4   4   4
#     4  10  22  46  76 102 136 188 240 292 372 436
#     4  11  22  37  58  92 131 173 219 274 335 418
#     4  11  22  37  58  92 131 173 219 274 335 418
#     4  11  24  40  64  98 134 174 232 281 352 424
#     4  11  20  36  64  88 124 176 216 267 342 414
#     4  11  23  42  67  95 130 178 226 293 355 424
#     4  11  23  42  67  95 130 178 226 293 355 424
#
# _framework density 22.105612000000001
#
# number of rings (size 3 to 8) (size 9 to 14) (size 15 to 20)
#    0.000    1.143    1.429    6.000    0.000    4.571 
#    0.000    5.714    0.000    0.000    0.000    0.000 
#    0.000    0.000    0.000    0.000    0.000    0.000 
#
# Total GULP energy -155977.842537 kJ/mol
# GULP energy per Si atom -5570.637233 kJ/mol
# Density = 2.205530 g / cm^3
# Si number density = 22.105612 Si / 1000 Ang^3
#
#
#
# Elastic Constant Matrix: (Units=GPa)
#
#
# Indices 1 2 3 4 5 6 
#
# 1 164.5807 47.8581 17.6775 0.0000 0.0000 0.0000
# 2 47.8581 89.7805 20.1503 0.0000 0.0000 0.0000
# 3 17.6775 20.1503 79.9452 0.0000 0.0000 0.0000
# 4 0.0000 0.0000 0.0000 24.8050 0.0000 0.0000
# 5 0.0000 0.0000 0.0000 0.0000 19.4307 0.0000
# 6 0.0000 0.0000 0.0000 0.0000 0.0000 28.5037
#
#
#
# Elastic Compliance Matrix: (Units=1/GPa)
#
#
# Indices 1 2 3 4 5 6 
#
# 1 0.007224 -0.003702 -0.000664 0.000000 0.000000 0.000000
# 2 -0.003702 0.013703 -0.002635 0.000000 0.000000 0.000000
# 3 -0.000664 -0.002635 0.013320 0.000000 0.000000 0.000000
# 4 0.000000 0.000000 0.000000 0.040314 0.000000 0.000000
# 5 0.000000 0.000000 0.000000 0.000000 0.051465 0.000000
# 6 0.000000 0.000000 0.000000 0.000000 0.000000 0.035083
#
#
# Mechanical properties :
#
#
# Convention : Reuss Voigt Hill
#
# Bulk Modulus (GPa) = 49.39764 56.18646 52.79205
# Shear Modulus (GPa) = 27.49377 31.12258 29.30818
#
# Velocity S-wave (km/s) = 3.53050 3.75628 3.64514
# Velocity P-wave (km/s) = 6.24612 6.65472 6.45365
#
# Compressibility (1/GPa) = 0.02024388
#
# Stress axis : x y z
#
# Youngs Moduli (GPa) = 138.43170 72.97724 75.07673
#
# Poissons Ratio (x) = 0.27013 0.04988
# Poissons Ratio (y) = 0.51242 0.19785
# Poissons Ratio (z) = 0.09197 0.19232
#
# Static dielectric constant tensor:
#      x y z
#    x 1.770370 0.000000 0.000000 
#    y 0.000000 1.985820 0.000000 
#    z 0.000000 0.000000 1.942160 
# 
# From -- ./inp_files/2215.got.cif
#   From: 2010.05.17/outbox.cif.g08.bks.cpg/sg33_2_cif.got.tgz:2215.got - 2010.06.03 17:15:25.
