data_PCOD9345742
_publ_section_title
;
Structure prediction by ZEFSAII (Michael W. Deem and Ramdas Pophale) SiO2 
 PCOD9345742
Probable space group: P N A 21
;
_chemical_formula_sum "Si O2"
_cell_formula_units_Z 32
_cell_length_a 10.140605
_cell_length_b 22.934254
_cell_length_c 5.032703
_cell_angle_alpha 90.000000
_cell_angle_beta 90.000000
_cell_angle_gamma 90.000000
_cell_volume 1170.441699
_symmetry_space_group_name_H-M "P N A 21"
_symmetry_group_IT_number 33
_symmetry_cell_setting 'orthorhombic'
loop_
_space_group_symop_operation_xyz
x,y,z
-x,-y,1/2+z
1/2-x,1/2+y,1/2+z
1/2+x,1/2-y,z
loop_
_atom_site_type_symbol
_atom_site_label
_atom_site_fract_x
_atom_site_fract_y
_atom_site_fract_z
Si Si1 0.909127 0.357738 0.451490
Si Si2 0.082458 0.510957 0.924640
Si Si3 0.995371 0.979780 0.077034
Si Si4 0.676735 0.568421 0.557327
Si Si5 0.469552 0.366621 0.358741
Si Si6 0.797731 0.643062 0.085518
Si Si7 0.239409 0.738442 0.259732
Si Si8 0.504826 0.250173 0.117741
O O1 0.865523 0.422779 0.384722
O O2 0.802627 0.321138 0.618399
O O3 0.961189 0.313657 0.220609
O O4 0.048387 0.366283 0.599297
O O5 0.961121 0.510478 0.134093
O O6 0.182294 0.467218 0.067599
O O7 0.959872 0.911301 0.048387
O O8 0.898054 0.016735 0.837957
O O9 0.098204 0.985147 0.806759
O O10 0.521564 0.602069 0.580799
O O11 0.732996 0.618845 0.347679
O O12 0.305296 0.382080 0.362341
O O13 0.497091 0.299421 0.347359
O O14 0.780157 0.712290 0.049133
O O15 0.357114 0.740182 0.471495
O O16 0.109292 0.762226 0.405070
#
# Coordination Sequence:
#
# PCOD9345742 Si02
#       8
#     4   4   4   4   4   4   4   4
#     4  12  28  49  76 112 160 203 271 342 404 495
#     4  12  29  50  77 112 151 211 269 326 398 480
#     4  10  22  41  66 105 145 186 246 309 375 452
#     4  11  24  45  72 104 149 198 253 319 390 477
#     4  11  23  44  73 109 145 201 254 319 403 485
#     4  12  22  47  76 101 148 204 255 315 402 489
#     4  12  27  47  75 111 154 200 259 337 400 484
#     4  12  27  47  75 112 152 203 261 329 410 480
#
# _framework density 27.340102999999999
#
# number of rings (size 3 to 8) (size 9 to 14) (size 15 to 20)
#    0.000    0.500    6.250    1.500    3.500    1.000 
#   11.250    0.000    0.000    0.000    0.000    0.000 
#    0.000    0.000    0.000    0.000    0.000    0.000 
#
# Total GULP energy -178311.057118 kJ/mol
# GULP energy per Si atom -5572.220535 kJ/mol
# Density = 2.727788 g / cm^3
# Si number density = 27.340103 Si / 1000 Ang^3
#
#
#
# Elastic Constant Matrix: (Units=GPa)
#
#
# Indices 1 2 3 4 5 6 
#
# 1 102.0897 28.7370 31.5525 0.0000 0.0000 0.0000
# 2 28.7370 225.1935 56.6633 0.0000 0.0000 0.0000
# 3 31.5525 56.6633 163.0048 0.0000 0.0000 0.0000
# 4 0.0000 0.0000 0.0000 41.2926 0.0000 0.0000
# 5 0.0000 0.0000 0.0000 0.0000 44.4138 0.0000
# 6 0.0000 0.0000 0.0000 0.0000 0.0000 49.2924
#
#
#
# Elastic Compliance Matrix: (Units=1/GPa)
#
#
# Indices 1 2 3 4 5 6 
#
# 1 0.010588 -0.000916 -0.001731 0.000000 0.000000 0.000000
# 2 -0.000916 0.004945 -0.001542 0.000000 0.000000 0.000000
# 3 -0.001731 -0.001542 0.007006 0.000000 0.000000 0.000000
# 4 0.000000 0.000000 0.000000 0.024217 0.000000 0.000000
# 5 0.000000 0.000000 0.000000 0.000000 0.022516 0.000000
# 6 0.000000 0.000000 0.000000 0.000000 0.000000 0.020287
#
#
# Mechanical properties :
#
#
# Convention : Reuss Voigt Hill
#
# Bulk Modulus (GPa) = 70.61132 80.46595 75.53863
# Shear Modulus (GPa) = 48.70565 51.88878 50.29722
#
# Velocity S-wave (km/s) = 4.22533 4.36122 4.29381
# Velocity P-wave (km/s) = 7.04894 7.40646 7.22991
#
# Compressibility (1/GPa) = 0.01416204
#
# Stress axis : x y z
#
# Youngs Moduli (GPa) = 94.44576 202.20686 142.73687
#
# Poissons Ratio (x) = 0.18513 0.24712
# Poissons Ratio (y) = 0.08647 0.22009
# Poissons Ratio (z) = 0.16351 0.31178
#
# Static dielectric constant tensor:
#      x y z
#    x 2.253690 0.000000 0.000000 
#    y 0.000000 2.418470 0.000000 
#    z 0.000000 0.000000 2.268280 
# 
# From -- ./inp_files/1035.got.cif
#   From: 2010.05.17/outbox.cif.g08.bks.cpg/sg33_1_cif.got.tgz:1035.got - 2010.06.03 17:15:25.
