data_PCOD9345737
_publ_section_title
;
Structure prediction by ZEFSAII (Michael W. Deem and Ramdas Pophale) SiO2 
 PCOD9345737
Probable space group: P N A 21
;
_chemical_formula_sum "Si O2"
_cell_formula_units_Z 24
_cell_length_a 12.375362
_cell_length_b 11.499321
_cell_length_c 7.240222
_cell_angle_alpha 90.000000
_cell_angle_beta 90.000000
_cell_angle_gamma 90.000000
_cell_volume 1030.343396
_symmetry_space_group_name_H-M "P N A 21"
_symmetry_group_IT_number 33
_symmetry_cell_setting 'orthorhombic'
loop_
_space_group_symop_operation_xyz
x,y,z
-x,-y,1/2+z
1/2-x,1/2+y,1/2+z
1/2+x,1/2-y,z
loop_
_atom_site_type_symbol
_atom_site_label
_atom_site_fract_x
_atom_site_fract_y
_atom_site_fract_z
Si Si1 0.964592 0.124312 0.278740
Si Si2 0.384642 0.805593 0.939867
Si Si3 0.798842 0.307704 0.216598
Si Si4 0.428172 0.055106 0.510340
Si Si5 0.062486 0.326494 0.816157
Si Si6 0.370807 0.582934 0.477784
O O1 0.899584 0.225417 0.171050
O O2 0.033637 0.194167 0.432806
O O3 0.880965 0.030415 0.354239
O O4 0.053421 0.061259 0.155173
O O5 0.293994 0.775712 0.795761
O O6 0.462373 0.912647 0.895258
O O7 0.348448 0.830723 0.149231
O O8 0.833189 0.386890 0.391005
O O9 0.747166 0.381182 0.051455
O O10 0.458036 0.126350 0.697685
O O11 0.417119 0.917624 0.480366
O O12 0.074247 0.195638 0.884409
#
# Coordination Sequence:
#
# PCOD9345737 Si02
#       6
#     4   4   4   4   4   4
#     4  10  22  43  67  93 135 177 215 284 332 410
#     4   8  20  40  64  90 132 166 216 272 334 395
#     4  10  22  42  65  97 129 169 233 273 333 400
#     4   9  22  40  66  90 130 174 215 279 328 392
#     4  10  22  41  65  92 131 175 219 269 336 389
#     4  11  24  44  67  98 135 179 224 275 345 402
#
# _framework density 23.293203999999999
#
# number of rings (size 3 to 8) (size 9 to 14) (size 15 to 20)
#    1.000    1.333    0.000    1.000    9.333    0.000 
#   12.000    0.000    0.000    0.000    0.000    0.000 
#    0.000    0.000    0.000    0.000    0.000    0.000 
#
# Total GULP energy -133603.635135 kJ/mol
# GULP energy per Si atom -5566.818131 kJ/mol
# Density = 2.324019 g / cm^3
# Si number density = 23.293204 Si / 1000 Ang^3
#
#
#
# Elastic Constant Matrix: (Units=GPa)
#
#
# Indices 1 2 3 4 5 6 
#
# 1 58.9719 17.9698 12.8351 0.0000 0.0000 0.0000
# 2 17.9698 109.9760 17.2470 0.0000 0.0000 0.0000
# 3 12.8351 17.2470 62.8868 0.0000 0.0000 0.0000
# 4 0.0000 0.0000 0.0000 35.4300 0.0000 0.0000
# 5 0.0000 0.0000 0.0000 0.0000 27.7248 0.0000
# 6 0.0000 0.0000 0.0000 0.0000 0.0000 18.1551
#
#
#
# Elastic Compliance Matrix: (Units=1/GPa)
#
#
# Indices 1 2 3 4 5 6 
#
# 1 0.018393 -0.002525 -0.003061 0.000000 0.000000 0.000000
# 2 -0.002525 0.009848 -0.002186 0.000000 0.000000 0.000000
# 3 -0.003061 -0.002186 0.017126 0.000000 0.000000 0.000000
# 4 0.000000 0.000000 0.000000 0.028225 0.000000 0.000000
# 5 0.000000 0.000000 0.000000 0.000000 0.036069 0.000000
# 6 0.000000 0.000000 0.000000 0.000000 0.000000 0.055081
#
#
# Mechanical properties :
#
#
# Convention : Reuss Voigt Hill
#
# Bulk Modulus (GPa) = 33.53154 36.43762 34.98458
# Shear Modulus (GPa) = 26.28440 28.51416 27.39928
#
# Velocity S-wave (km/s) = 3.36283 3.50257 3.43341
# Velocity P-wave (km/s) = 5.43184 5.65988 5.54703
#
# Compressibility (1/GPa) = 0.02982267
#
# Stress axis : x y z
#
# Youngs Moduli (GPa) = 54.36842 101.54073 58.39138
#
# Poissons Ratio (x) = 0.25642 0.17876
# Poissons Ratio (y) = 0.13729 0.12762
# Poissons Ratio (z) = 0.16644 0.22192
#
# Static dielectric constant tensor:
#      x y z
#    x 1.898400 0.000000 0.000000 
#    y 0.000000 1.877910 0.000000 
#    z 0.000000 0.000000 1.971200 
# 
# From -- ./inp_files/3800.got.cif
#   From: 2010.05.17/outbox.cif.g08.bks.cpg/sg33_2_cif.got.tgz:3800.got - 2010.06.03 17:15:25.
