data_PCOD9345175
_publ_section_title
;
Structure prediction by ZEFSAII (Michael W. Deem and Ramdas Pophale) SiO2 
 PCOD9345175
Probable space group: P N A 21
;
_chemical_formula_sum "Si O2"
_cell_formula_units_Z 20
_cell_length_a 14.774506
_cell_length_b 5.338322
_cell_length_c 10.386348
_cell_angle_alpha 90.000000
_cell_angle_beta 90.000000
_cell_angle_gamma 90.000000
_cell_volume 819.182385
_symmetry_space_group_name_H-M "P N A 21"
_symmetry_group_IT_number 33
_symmetry_cell_setting 'orthorhombic'
loop_
_space_group_symop_operation_xyz
x,y,z
-x,-y,1/2+z
1/2-x,1/2+y,1/2+z
1/2+x,1/2-y,z
loop_
_atom_site_type_symbol
_atom_site_label
_atom_site_fract_x
_atom_site_fract_y
_atom_site_fract_z
Si Si1 0.800790 0.207794 0.796720
Si Si2 0.215177 0.787709 0.722959
Si Si3 0.868268 0.924816 0.584481
Si Si4 0.508044 0.769107 0.404894
Si Si5 0.978292 0.387674 0.172603
O O1 0.748342 0.468041 0.797873
O O2 0.889011 0.186834 0.884347
O O3 0.738510 0.962497 0.805003
O O4 0.840072 0.184477 0.648610
O O5 0.276200 0.737269 0.593730
O O6 0.110568 0.779967 0.688963
O O7 0.014180 0.532633 0.523464
O O8 0.933104 0.784165 0.689470
O O9 0.432403 0.580067 0.460947
O O10 0.476378 0.892642 0.273849
#
# Coordination Sequence:
#
# PCOD9345175 Si02
#       5
#     4   4   4   4   4
#     4  10  20  46  65 107 143 190 247 311 355 461
#     4  10  22  44  70 106 146 193 252 304 379 445
#     4   8  22  42  70 103 150 184 251 302 375 445
#     4  10  20  46  73 110 149 199 251 317 382 454
#     4  10  22  44  78 108 150 204 247 320 383 451
#
# _framework density 24.414587000000001
#
# number of rings (size 3 to 8) (size 9 to 14) (size 15 to 20)
#    2.400    0.000    2.000    0.000    0.000    3.200 
#   14.400    4.000    0.000    0.000    0.000    0.000 
#    0.000    0.000    0.000    0.000    0.000    0.000 
#
# Total GULP energy -111473.079721 kJ/mol
# GULP energy per Si atom -5573.653986 kJ/mol
# Density = 2.435902 g / cm^3
# Si number density = 24.414587 Si / 1000 Ang^3
#
#
#
# Elastic Constant Matrix: (Units=GPa)
#
#
# Indices 1 2 3 4 5 6 
#
# 1 107.3957 5.3541 -11.4246 0.0000 0.0000 0.0000
# 2 5.3541 90.1053 4.2934 0.0000 0.0000 0.0000
# 3 -11.4246 4.2934 69.9610 0.0000 0.0000 0.0000
# 4 0.0000 0.0000 0.0000 29.7321 0.0000 0.0000
# 5 0.0000 0.0000 0.0000 0.0000 26.7426 0.0000
# 6 0.0000 0.0000 0.0000 0.0000 0.0000 20.1438
#
#
#
# Elastic Compliance Matrix: (Units=1/GPa)
#
#
# Indices 1 2 3 4 5 6 
#
# 1 0.009513 -0.000641 0.001593 0.000000 0.000000 0.000000
# 2 -0.000641 0.011174 -0.000790 0.000000 0.000000 0.000000
# 3 0.001593 -0.000790 0.014602 0.000000 0.000000 0.000000
# 4 0.000000 0.000000 0.000000 0.033634 0.000000 0.000000
# 5 0.000000 0.000000 0.000000 0.000000 0.037394 0.000000
# 6 0.000000 0.000000 0.000000 0.000000 0.000000 0.049643
#
#
# Mechanical properties :
#
#
# Convention : Reuss Voigt Hill
#
# Bulk Modulus (GPa) = 28.08095 29.32310 28.70203
# Shear Modulus (GPa) = 29.84945 33.27297 31.56121
#
# Velocity S-wave (km/s) = 3.50037 3.69566 3.59934
# Velocity P-wave (km/s) = 5.27859 5.49974 5.39030
#
# Compressibility (1/GPa) = 0.03561133
#
# Stress axis : x y z
#
# Youngs Moduli (GPa) = 105.12197 89.49441 68.48244
#
# Poissons Ratio (x) = 0.05738 -0.10908
# Poissons Ratio (y) = 0.06740 0.05413
# Poissons Ratio (z) = -0.16744 0.07074
#
# Static dielectric constant tensor:
#      x y z
#    x 1.946890 0.000000 0.000000 
#    y 0.000000 1.920030 0.000000 
#    z 0.000000 0.000000 2.036050 
# 
# From -- ./inp_files/6598.got.cif
#   From: 2010.05.17/outbox.cif.g08.bks.cpg/sg33_4_cif.got.tgz:6598.got - 2010.06.03 17:15:25.
