data_PCOD9345041
_publ_section_title
;
Structure prediction by ZEFSAII (Michael W. Deem and Ramdas Pophale) SiO2 
 PCOD9345041
Probable space group: P N A 21
;
_chemical_formula_sum "Si O2"
_cell_formula_units_Z 28
_cell_length_a 25.115542
_cell_length_b 8.811774
_cell_length_c 5.312065
_cell_angle_alpha 90.000000
_cell_angle_beta 90.000000
_cell_angle_gamma 90.000000
_cell_volume 1175.626279
_symmetry_space_group_name_H-M "P N A 21"
_symmetry_group_IT_number 33
_symmetry_cell_setting 'orthorhombic'
loop_
_space_group_symop_operation_xyz
x,y,z
-x,-y,1/2+z
1/2-x,1/2+y,1/2+z
1/2+x,1/2-y,z
loop_
_atom_site_type_symbol
_atom_site_label
_atom_site_fract_x
_atom_site_fract_y
_atom_site_fract_z
Si Si1 0.447229 0.137301 0.164990
Si Si2 0.557688 0.175875 0.947394
Si Si3 0.759791 0.789487 0.586421
Si Si4 0.619717 0.782945 0.153383
Si Si5 0.809273 0.048584 0.833639
Si Si6 0.354941 0.699304 0.190140
Si Si7 0.843328 0.576394 0.799948
O O1 0.416185 0.199543 0.407822
O O2 0.456828 0.960894 0.251685
O O3 0.505131 0.205267 0.107246
O O4 0.413711 0.175865 0.909718
O O5 0.586554 0.314997 0.808288
O O6 0.605406 0.128397 0.137467
O O7 0.759548 0.953484 0.720006
O O8 0.709999 0.691421 0.498634
O O9 0.803715 0.811656 0.367937
O O10 0.790240 0.671997 0.764604
O O11 0.650404 0.624795 0.138873
O O12 0.665229 0.911777 0.184664
O O13 0.844210 0.925978 0.981482
O O14 0.356476 0.873262 0.083223
#
# Coordination Sequence:
#
# PCOD9345041 Si02
#       7
#     4   4   4   4   4   4   4
#     4  11  23  39  73 112 145 196 249 306 365 452
#     4  10  20  39  72 107 144 187 253 303 366 440
#     4  10  25  43  68 101 137 200 246 313 376 471
#     4  11  25  42  69 110 153 188 245 315 370 442
#     4  11  27  44  72 102 152 195 255 313 394 457
#     4  10  22  43  69  99 147 187 243 312 374 450
#     4   9  20  40  65 103 140 185 241 306 367 436
#
# _framework density 23.817091999999999
#
# number of rings (size 3 to 8) (size 9 to 14) (size 15 to 20)
#    0.000    1.714    1.429    1.714    8.000    1.143 
#    0.000    0.000    9.429    0.000    0.000    0.000 
#    0.000    0.000    0.000    0.000    0.000    0.000 
#
# Total GULP energy -156124.455594 kJ/mol
# GULP energy per Si atom -5575.873414 kJ/mol
# Density = 2.376288 g / cm^3
# Si number density = 23.817092 Si / 1000 Ang^3
#
#
#
# Elastic Constant Matrix: (Units=GPa)
#
#
# Indices 1 2 3 4 5 6 
#
# 1 65.4600 44.3368 23.7674 0.0000 0.0000 0.0000
# 2 44.3368 95.1324 30.8283 0.0000 0.0000 0.0000
# 3 23.7674 30.8283 97.2223 0.0000 0.0000 0.0000
# 4 0.0000 0.0000 0.0000 18.5290 0.0000 0.0000
# 5 0.0000 0.0000 0.0000 0.0000 29.1695 0.0000
# 6 0.0000 0.0000 0.0000 0.0000 0.0000 21.4810
#
#
#
# Elastic Compliance Matrix: (Units=1/GPa)
#
#
# Indices 1 2 3 4 5 6 
#
# 1 0.022840 -0.009847 -0.002461 0.000000 0.000000 0.000000
# 2 -0.009847 0.015961 -0.002654 0.000000 0.000000 0.000000
# 3 -0.002461 -0.002654 0.011729 0.000000 0.000000 0.000000
# 4 0.000000 0.000000 0.000000 0.053969 0.000000 0.000000
# 5 0.000000 0.000000 0.000000 0.000000 0.034282 0.000000
# 6 0.000000 0.000000 0.000000 0.000000 0.000000 0.046553
#
#
# Mechanical properties :
#
#
# Convention : Reuss Voigt Hill
#
# Bulk Modulus (GPa) = 48.53054 50.63109 49.58081
# Shear Modulus (GPa) = 22.50974 24.42803 23.46889
#
# Velocity S-wave (km/s) = 3.07760 3.20605 3.14248
# Velocity P-wave (km/s) = 5.74886 5.91688 5.83348
#
# Compressibility (1/GPa) = 0.02060558
#
# Stress axis : x y z
#
# Youngs Moduli (GPa) = 43.78375 62.65334 85.25980
#
# Poissons Ratio (x) = 0.61694 0.20983
# Poissons Ratio (y) = 0.43113 0.22626
# Poissons Ratio (z) = 0.10776 0.16627
#
# Static dielectric constant tensor:
#      x y z
#    x 1.939560 0.000000 0.000000 
#    y 0.000000 1.988200 0.000000 
#    z 0.000000 0.000000 2.046180 
# 
# From -- ./inp_files/2233.got.cif
#   From: 2010.05.17/outbox.cif.g08.bks.cpg/sg33_2_cif.got.tgz:2233.got - 2010.06.03 17:15:25.
