data_PCOD9345991
_publ_section_title
;
Structure prediction by ZEFSAII (Michael W. Deem and Ramdas Pophale) SiO2 
 PCOD9345991
Probable space group: P N A 21
;
_chemical_formula_sum "Si O2"
_cell_formula_units_Z 32
_cell_length_a 14.476406
_cell_length_b 11.366500
_cell_length_c 8.660234
_cell_angle_alpha 90.000000
_cell_angle_beta 90.000000
_cell_angle_gamma 90.000000
_cell_volume 1425.007460
_symmetry_space_group_name_H-M "P N A 21"
_symmetry_group_IT_number 33
_symmetry_cell_setting 'orthorhombic'
loop_
_space_group_symop_operation_xyz
x,y,z
-x,-y,1/2+z
1/2-x,1/2+y,1/2+z
1/2+x,1/2-y,z
loop_
_atom_site_type_symbol
_atom_site_label
_atom_site_fract_x
_atom_site_fract_y
_atom_site_fract_z
Si Si1 0.682793 0.851192 0.447140
Si Si2 0.800861 0.723318 0.897553
Si Si3 0.899764 0.403622 0.619299
Si Si4 0.794570 0.691578 0.259523
Si Si5 0.637649 0.638919 0.678571
Si Si6 0.216159 0.017048 0.446408
Si Si7 0.483709 0.218939 0.372077
Si Si8 0.914474 0.496795 0.177669
O O1 0.622312 0.878893 0.296688
O O2 0.778282 0.803395 0.371103
O O3 0.647185 0.744108 0.553193
O O4 0.667408 0.962936 0.558678
O O5 0.726782 0.654890 0.792616
O O6 0.908185 0.690166 0.875846
O O7 0.777302 0.721625 0.080550
O O8 0.799553 0.862036 0.857745
O O9 0.811116 0.462809 0.541098
O O10 0.935727 0.283820 0.538889
O O11 0.987197 0.488824 0.597824
O O12 0.728129 0.590478 0.328609
O O13 0.890765 0.620796 0.257043
O O14 0.643647 0.520439 0.578722
O O15 0.546702 0.666273 0.777795
O O16 0.429339 0.110588 0.292617
#
# Coordination Sequence:
#
# PCOD9345991 Si02
#       8
#     4   4   4   4   4   4   4   4
#     4  10  23  39  62  96 134 171 218 278 345 402
#     4  12  23  43  69  97 136 177 228 287 347 405
#     4  12  20  38  64  99 132 164 222 288 333 397
#     4  11  22  39  65  95 129 175 218 278 338 400
#     4  10  23  44  62  93 136 176 226 276 337 419
#     4  11  23  41  65  93 135 178 223 274 348 414
#     4  11  22  41  65  97 134 171 224 285 334 403
#     4  11  22  37  64 100 132 168 225 280 336 402
#
# _framework density 22.456023999999999
#
# number of rings (size 3 to 8) (size 9 to 14) (size 15 to 20)
#    0.000    1.000    5.000    2.250    1.750    0.000 
#    2.250    3.750    0.000    0.000    0.000    0.000 
#    0.000    0.000    0.000    0.000    0.000    0.000 
#
# Total GULP energy -178475.652620 kJ/mol
# GULP energy per Si atom -5577.364144 kJ/mol
# Density = 2.240491 g / cm^3
# Si number density = 22.456024 Si / 1000 Ang^3
#
#
#
# Elastic Constant Matrix: (Units=GPa)
#
#
# Indices 1 2 3 4 5 6 
#
# 1 70.1853 22.9501 33.2446 0.0000 0.0000 0.0000
# 2 22.9501 34.7945 4.1323 0.0000 0.0000 0.0000
# 3 33.2446 4.1323 95.3525 0.0000 0.0000 0.0000
# 4 0.0000 0.0000 0.0000 36.5705 0.0000 0.0000
# 5 0.0000 0.0000 0.0000 0.0000 33.0693 0.0000
# 6 0.0000 0.0000 0.0000 0.0000 0.0000 28.1967
#
#
#
# Elastic Compliance Matrix: (Units=1/GPa)
#
#
# Indices 1 2 3 4 5 6 
#
# 1 0.022110 -0.013738 -0.007113 0.000000 0.000000 0.000000
# 2 -0.013738 0.037426 0.003168 0.000000 0.000000 0.000000
# 3 -0.007113 0.003168 0.012830 0.000000 0.000000 0.000000
# 4 0.000000 0.000000 0.000000 0.027344 0.000000 0.000000
# 5 0.000000 0.000000 0.000000 0.000000 0.030239 0.000000
# 6 0.000000 0.000000 0.000000 0.000000 0.000000 0.035465
#
#
# Mechanical properties :
#
#
# Convention : Reuss Voigt Hill
#
# Bulk Modulus (GPa) = 27.02838 35.66516 31.34677
# Shear Modulus (GPa) = 23.46157 28.90100 26.18129
#
# Velocity S-wave (km/s) = 3.23581 3.59138 3.41822
# Velocity P-wave (km/s) = 5.10126 5.75448 5.43769
#
# Compressibility (1/GPa) = 0.03699815
#
# Stress axis : x y z
#
# Youngs Moduli (GPa) = 45.22914 26.71962 77.94169
#
# Poissons Ratio (x) = 0.36709 0.55441
# Poissons Ratio (y) = 0.62138 -0.24692
# Poissons Ratio (z) = 0.32172 -0.08465
#
# Static dielectric constant tensor:
#      x y z
#    x 1.830470 0.000000 0.000000 
#    y 0.000000 1.903330 0.000000 
#    z 0.000000 0.000000 1.927490 
# 
# From -- ./inp_files/4443.got.cif
#   From: 2010.05.17/outbox.cif.g08.bks.cpg/sg33_3_cif.got.tgz:4443.got - 2010.06.03 17:15:25.
