data_PCOD9345710
_publ_section_title
;
Structure prediction by ZEFSAII (Michael W. Deem and Ramdas Pophale) SiO2 
 PCOD9345710
Probable space group: P N A 21
;
_chemical_formula_sum "Si O2"
_cell_formula_units_Z 32
_cell_length_a 13.576149
_cell_length_b 11.457472
_cell_length_c 8.704457
_cell_angle_alpha 90.000000
_cell_angle_beta 90.000000
_cell_angle_gamma 90.000000
_cell_volume 1353.963898
_symmetry_space_group_name_H-M "P N A 21"
_symmetry_group_IT_number 33
_symmetry_cell_setting 'orthorhombic'
loop_
_space_group_symop_operation_xyz
x,y,z
-x,-y,1/2+z
1/2-x,1/2+y,1/2+z
1/2+x,1/2-y,z
loop_
_atom_site_type_symbol
_atom_site_label
_atom_site_fract_x
_atom_site_fract_y
_atom_site_fract_z
Si Si1 0.910962 0.944448 0.365530
Si Si2 0.902760 0.279038 0.154964
Si Si3 0.804886 0.787729 0.615848
Si Si4 0.987563 0.750993 0.146036
Si Si5 0.981605 0.437843 0.897195
Si Si6 0.210825 0.471699 0.224836
Si Si7 0.142647 0.631041 0.976146
Si Si8 0.056886 0.139484 0.349861
O O1 0.865118 0.847794 0.478559
O O2 0.963525 0.867698 0.235931
O O3 0.816583 0.019405 0.307343
O O4 0.998584 0.029722 0.420827
O O5 0.805970 0.263291 0.051541
O O6 0.843535 0.316947 0.308458
O O7 0.979359 0.186675 0.221159
O O8 0.963973 0.370090 0.055889
O O9 0.824419 0.656853 0.676411
O O10 0.843252 0.872821 0.755092
O O11 0.970723 0.644271 0.264545
O O12 0.099410 0.731731 0.086951
O O13 0.929464 0.765401 0.985312
O O14 0.876638 0.478602 0.830772
O O15 0.051944 0.543661 0.940009
O O16 0.218065 0.554664 0.073797
#
# Coordination Sequence:
#
# PCOD9345710 Si02
#       8
#     4   4   4   4   4   4   4   4
#     4  12  24  44  66  99 142 181 228 287 354 414
#     4  11  22  41  68 100 134 177 233 288 349 420
#     4  12  25  44  69  99 137 188 230 292 357 417
#     4  10  23  40  67  96 128 179 222 282 342 411
#     4  11  21  44  69  98 134 178 232 285 349 413
#     4  11  23  42  68  98 134 178 233 287 342 420
#     4  10  22  40  67  98 130 175 228 285 345 413
#     4  11  24  45  68  96 139 184 234 284 348 420
#
# _framework density 23.634309999999999
#
# number of rings (size 3 to 8) (size 9 to 14) (size 15 to 20)
#    0.000    1.000    2.500    6.000    1.750    0.000 
#    0.000    1.250    2.750    0.000    0.000    0.000 
#    0.000    0.000    0.000    0.000    0.000    0.000 
#
# Total GULP energy -178370.359701 kJ/mol
# GULP energy per Si atom -5574.073741 kJ/mol
# Density = 2.358052 g / cm^3
# Si number density = 23.634310 Si / 1000 Ang^3
#
#
#
# Elastic Constant Matrix: (Units=GPa)
#
#
# Indices 1 2 3 4 5 6 
#
# 1 88.1366 23.1426 10.4196 0.0000 0.0000 0.0000
# 2 23.1426 76.5979 27.7086 0.0000 0.0000 0.0000
# 3 10.4196 27.7086 70.3005 0.0000 0.0000 0.0000
# 4 0.0000 0.0000 0.0000 30.6330 0.0000 0.0000
# 5 0.0000 0.0000 0.0000 0.0000 5.2292 0.0000
# 6 0.0000 0.0000 0.0000 0.0000 0.0000 12.8179
#
#
#
# Elastic Compliance Matrix: (Units=1/GPa)
#
#
# Indices 1 2 3 4 5 6 
#
# 1 0.012334 -0.003575 -0.000419 0.000000 0.000000 0.000000
# 2 -0.003575 0.016262 -0.005880 0.000000 0.000000 0.000000
# 3 -0.000419 -0.005880 0.016604 0.000000 0.000000 0.000000
# 4 0.000000 0.000000 0.000000 0.032645 0.000000 0.000000
# 5 0.000000 0.000000 0.000000 0.000000 0.191234 0.000000
# 6 0.000000 0.000000 0.000000 0.000000 0.000000 0.078016
#
#
# Mechanical properties :
#
#
# Convention : Reuss Voigt Hill
#
# Bulk Modulus (GPa) = 39.28798 39.73072 39.50935
# Shear Modulus (GPa) = 13.32169 21.32030 17.32099
#
# Velocity S-wave (km/s) = 2.37673 3.00674 2.71010
# Velocity P-wave (km/s) = 4.91845 5.37597 5.15229
#
# Compressibility (1/GPa) = 0.02545308
#
# Stress axis : x y z
#
# Youngs Moduli (GPa) = 81.07490 61.49201 60.22552
#
# Poissons Ratio (x) = 0.21983 0.02524
# Poissons Ratio (y) = 0.28984 0.35412
# Poissons Ratio (z) = 0.03398 0.36156
#
# Static dielectric constant tensor:
#      x y z
#    x 1.981950 0.000000 0.000000 
#    y 0.000000 1.919480 0.000000 
#    z 0.000000 0.000000 2.003060 
# 
# From -- ./inp_files/4385.got.cif
#   From: 2010.05.17/outbox.cif.g08.bks.cpg/sg33_3_cif.got.tgz:4385.got - 2010.06.03 17:15:25.
