data_PCOD9345314
_publ_section_title
;
Structure prediction by ZEFSAII (Michael W. Deem and Ramdas Pophale) SiO2 
 PCOD9345314
Probable space group: P N A 21
;
_chemical_formula_sum "Si O2"
_cell_formula_units_Z 24
_cell_length_a 7.754889
_cell_length_b 26.255969
_cell_length_c 5.124031
_cell_angle_alpha 90.000000
_cell_angle_beta 90.000000
_cell_angle_gamma 90.000000
_cell_volume 1043.314841
_symmetry_space_group_name_H-M "P N A 21"
_symmetry_group_IT_number 33
_symmetry_cell_setting 'orthorhombic'
loop_
_space_group_symop_operation_xyz
x,y,z
-x,-y,1/2+z
1/2-x,1/2+y,1/2+z
1/2+x,1/2-y,z
loop_
_atom_site_type_symbol
_atom_site_label
_atom_site_fract_x
_atom_site_fract_y
_atom_site_fract_z
Si Si1 0.663777 0.138794 0.924080
Si Si2 0.890225 0.816127 0.934663
Si Si3 0.699977 0.200053 0.422193
Si Si4 0.583435 0.375223 0.934971
Si Si5 0.070636 0.474917 0.941318
Si Si6 0.405344 0.513058 0.235441
O O1 0.628445 0.178272 0.692298
O O2 0.872190 0.127446 0.928880
O O3 0.619373 0.167081 0.191068
O O4 0.566393 0.085400 0.893502
O O5 0.096802 0.810833 0.924089
O O6 0.848651 0.857682 0.714886
O O7 0.820392 0.760020 0.883607
O O8 0.846201 0.836120 0.220263
O O9 0.633452 0.431504 0.848471
O O10 0.248974 0.486577 0.088220
O O11 0.940922 0.496115 0.164116
O O12 0.462287 0.481508 0.491480
#
# Coordination Sequence:
#
# PCOD9345314 Si02
#       6
#     4   4   4   4   4   4
#     4  10  21  41  65  86 123 175 207 248 335 398
#     4  10  21  39  61  91 123 155 209 269 320 381
#     4  10  21  39  64  87 120 163 208 263 322 385
#     4  10  21  39  66  91 118 164 221 264 309 380
#     4  12  26  44  64  99 142 170 216 279 336 393
#     4  12  24  42  72  96 128 177 229 267 316 401
#
# _framework density 23.003599999999999
#
# number of rings (size 3 to 8) (size 9 to 14) (size 15 to 20)
#    0.000    1.333    1.667    4.000    4.667    0.000 
#    9.000    0.000    0.000    0.000    0.000    0.000 
#    0.000    0.000    0.000    0.000    0.000    0.000 
#
# Total GULP energy -134301.679258 kJ/mol
# GULP energy per Si atom -5595.903302 kJ/mol
# Density = 2.295124 g / cm^3
# Si number density = 23.003600 Si / 1000 Ang^3
#
#
#
# Elastic Constant Matrix: (Units=GPa)
#
#
# Indices 1 2 3 4 5 6 
#
# 1 26.0545 -9.4178 8.4681 0.0000 0.0000 0.0000
# 2 -9.4178 78.0440 -16.2965 0.0000 0.0000 0.0000
# 3 8.4681 -16.2965 81.2622 0.0000 0.0000 0.0000
# 4 0.0000 0.0000 0.0000 48.4611 0.0000 0.0000
# 5 0.0000 0.0000 0.0000 0.0000 36.0463 0.0000
# 6 0.0000 0.0000 0.0000 0.0000 0.0000 28.1822
#
#
#
# Elastic Compliance Matrix: (Units=1/GPa)
#
#
# Indices 1 2 3 4 5 6 
#
# 1 0.041025 0.004235 -0.003426 0.000000 0.000000 0.000000
# 2 0.004235 0.013811 0.002328 0.000000 0.000000 0.000000
# 3 -0.003426 0.002328 0.013130 0.000000 0.000000 0.000000
# 4 0.000000 0.000000 0.000000 0.020635 0.000000 0.000000
# 5 0.000000 0.000000 0.000000 0.000000 0.027742 0.000000
# 6 0.000000 0.000000 0.000000 0.000000 0.000000 0.035483
#
#
# Mechanical properties :
#
#
# Convention : Reuss Voigt Hill
#
# Bulk Modulus (GPa) = 13.46960 16.76314 15.11637
# Shear Modulus (GPa) = 29.36033 36.04505 32.70269
#
# Velocity S-wave (km/s) = 3.57646 3.96274 3.77455
# Velocity P-wave (km/s) = 4.78779 5.31420 5.05785
#
# Compressibility (1/GPa) = 0.07424128
#
# Stress axis : x y z
#
# Youngs Moduli (GPa) = 24.37514 72.40847 76.16289
#
# Poissons Ratio (x) = -0.30667 0.26092
# Poissons Ratio (y) = -0.10324 -0.17733
# Poissons Ratio (z) = 0.08350 -0.16858
#
# Static dielectric constant tensor:
#      x y z
#    x 1.673870 0.000000 0.000000 
#    y 0.000000 1.796670 0.000000 
#    z 0.000000 0.000000 1.821960 
# 
# From -- ./inp_files/439.got.cif
#   From: 2010.05.17/outbox.cif.g08.bks.cpg/sg33_1_cif.got.tgz:439.got - 2010.06.03 17:15:25.
