data_PCOD9345701
_publ_section_title
;
Structure prediction by ZEFSAII (Michael W. Deem and Ramdas Pophale) SiO2 
 PCOD9345701
Probable space group: P N A 21
;
_chemical_formula_sum "Si O2"
_cell_formula_units_Z 28
_cell_length_a 9.271331
_cell_length_b 16.393147
_cell_length_c 8.315753
_cell_angle_alpha 90.000000
_cell_angle_beta 90.000000
_cell_angle_gamma 90.000000
_cell_volume 1263.880463
_symmetry_space_group_name_H-M "P N A 21"
_symmetry_group_IT_number 33
_symmetry_cell_setting 'orthorhombic'
loop_
_space_group_symop_operation_xyz
x,y,z
-x,-y,1/2+z
1/2-x,1/2+y,1/2+z
1/2+x,1/2-y,z
loop_
_atom_site_type_symbol
_atom_site_label
_atom_site_fract_x
_atom_site_fract_y
_atom_site_fract_z
Si Si1 0.899654 0.208701 0.688250
Si Si2 0.066663 0.450090 0.782510
Si Si3 0.092676 0.634192 0.781979
Si Si4 0.690917 0.469720 0.469167
Si Si5 0.561455 0.445264 0.808589
Si Si6 0.813475 0.342682 0.937134
Si Si7 0.871523 0.682405 0.026174
O O1 0.821793 0.261783 0.827063
O O2 0.794969 0.203357 0.534874
O O3 0.946257 0.120000 0.743321
O O4 0.043906 0.254191 0.637745
O O5 0.034159 0.543458 0.738778
O O6 0.199737 0.460289 0.906593
O O7 0.109698 0.403472 0.619820
O O8 0.937018 0.401412 0.863182
O O9 0.222501 0.611068 0.907966
O O10 0.151621 0.674852 0.621937
O O11 0.959501 0.679175 0.863179
O O12 0.660524 0.470685 0.657959
O O13 0.534994 0.483792 0.386590
O O14 0.665603 0.394128 0.926280
#
# Coordination Sequence:
#
# PCOD9345701 Si02
#       7
#     4   4   4   4   4   4   4
#     4  11  23  42  65  91 130 188 216 269 349 401
#     4   9  21  39  65  95 128 166 218 266 346 394
#     4  10  22  40  66 101 127 167 231 274 334 408
#     4  10  23  39  66  99 130 170 220 279 349 401
#     4  12  23  43  67  98 140 174 226 287 345 408
#     4  11  23  41  69  94 133 178 223 280 334 414
#     4  11  21  42  66  92 132 173 222 267 335 410
#
# _framework density 22.153991999999999
#
# number of rings (size 3 to 8) (size 9 to 14) (size 15 to 20)
#    0.857    0.571    2.857    3.429    2.000    1.143 
#    2.571    1.429    0.000    0.000    0.000    0.000 
#    0.000    0.000    0.000    0.000    0.000    0.000 
#
# Total GULP energy -156328.164093 kJ/mol
# GULP energy per Si atom -5583.148718 kJ/mol
# Density = 2.210357 g / cm^3
# Si number density = 22.153992 Si / 1000 Ang^3
#
#
#
# Elastic Constant Matrix: (Units=GPa)
#
#
# Indices 1 2 3 4 5 6 
#
# 1 113.7991 2.5639 30.5430 0.0000 0.0000 0.0000
# 2 2.5639 28.8319 -3.3150 0.0000 0.0000 0.0000
# 3 30.5430 -3.3150 82.4482 0.0000 0.0000 0.0000
# 4 0.0000 0.0000 0.0000 7.1875 0.0000 0.0000
# 5 0.0000 0.0000 0.0000 0.0000 28.7872 0.0000
# 6 0.0000 0.0000 0.0000 0.0000 0.0000 13.8103
#
#
#
# Elastic Compliance Matrix: (Units=1/GPa)
#
#
# Indices 1 2 3 4 5 6 
#
# 1 0.009806 -0.001296 -0.003685 0.000000 0.000000 0.000000
# 2 -0.001296 0.035016 0.001888 0.000000 0.000000 0.000000
# 3 -0.003685 0.001888 0.013570 0.000000 0.000000 0.000000
# 4 0.000000 0.000000 0.000000 0.139130 0.000000 0.000000
# 5 0.000000 0.000000 0.000000 0.000000 0.034738 0.000000
# 6 0.000000 0.000000 0.000000 0.000000 0.000000 0.072410
#
#
# Mechanical properties :
#
#
# Convention : Reuss Voigt Hill
#
# Bulk Modulus (GPa) = 19.15464 31.62921 25.39192
# Shear Modulus (GPa) = 15.23206 22.97617 19.10412
#
# Velocity S-wave (km/s) = 2.62497 3.22392 2.93974
# Velocity P-wave (km/s) = 4.22519 5.30718 4.79679
#
# Compressibility (1/GPa) = 0.05220667
#
# Stress axis : x y z
#
# Youngs Moduli (GPa) = 101.98339 28.55833 73.69373
#
# Poissons Ratio (x) = 0.03700 0.27153
# Poissons Ratio (y) = 0.13213 -0.13912
# Poissons Ratio (z) = 0.37576 -0.05391
#
# Static dielectric constant tensor:
#      x y z
#    x 1.813650 0.000000 0.000000 
#    y 0.000000 1.845930 0.000000 
#    z 0.000000 0.000000 1.820300 
# 
# From -- ./inp_files/3352.got.cif
#   From: 2010.05.17/outbox.cif.g08.bks.cpg/sg33_2_cif.got.tgz:3352.got - 2010.06.03 17:15:25.
