data_PCOD9345736
_publ_section_title
;
Structure prediction by ZEFSAII (Michael W. Deem and Ramdas Pophale) SiO2 
 PCOD9345736
Probable space group: P N A 21
;
_chemical_formula_sum "Si O2"
_cell_formula_units_Z 32
_cell_length_a 10.094382
_cell_length_b 16.539240
_cell_length_c 8.430991
_cell_angle_alpha 90.000000
_cell_angle_beta 90.000000
_cell_angle_gamma 90.000000
_cell_volume 1407.582668
_symmetry_space_group_name_H-M "P N A 21"
_symmetry_group_IT_number 33
_symmetry_cell_setting 'orthorhombic'
loop_
_space_group_symop_operation_xyz
x,y,z
-x,-y,1/2+z
1/2-x,1/2+y,1/2+z
1/2+x,1/2-y,z
loop_
_atom_site_type_symbol
_atom_site_label
_atom_site_fract_x
_atom_site_fract_y
_atom_site_fract_z
Si Si1 0.531321 0.910181 0.153860
Si Si2 0.784444 0.679163 0.644992
Si Si3 0.609338 0.046236 0.950989
Si Si4 0.364970 0.676933 0.831026
Si Si5 0.555909 0.492579 0.172760
Si Si6 0.749673 0.099880 0.492399
Si Si7 0.116002 0.745276 0.024043
Si Si8 0.386316 0.404889 0.927472
O O1 0.504814 0.949445 0.323041
O O2 0.398577 0.914122 0.047647
O O3 0.568749 0.816843 0.156920
O O4 0.626559 0.967128 0.054410
O O5 0.896512 0.622162 0.568880
O O6 0.840527 0.767102 0.677330
O O7 0.746798 0.634771 0.811804
O O8 0.661913 0.675272 0.519994
O O9 0.746936 0.061212 0.860714
O O10 0.396239 0.585368 0.777397
O O11 0.225945 0.694117 0.923389
O O12 0.488913 0.718721 0.926356
O O13 0.519480 0.569911 0.283481
O O14 0.659833 0.524386 0.039843
O O15 0.433114 0.459879 0.073466
O O16 0.807058 0.177266 0.587597
#
# Coordination Sequence:
#
# PCOD9345736 Si02
#       8
#     4   4   4   4   4   4   4   4
#     4  12  22  44  69 102 136 183 233 291 350 426
#     4   9  20  43  63  95 138 176 226 291 340 410
#     4  10  24  41  71  98 135 179 231 292 354 406
#     4  11  23  41  71 104 135 192 235 280 360 423
#     4  12  22  41  71 100 136 189 230 287 349 429
#     4  11  22  41  69  96 136 181 229 290 349 404
#     4  11  23  42  70 100 138 188 236 279 354 425
#     4  10  22  41  64  99 138 176 232 288 348 411
#
# _framework density 22.734010999999999
#
# number of rings (size 3 to 8) (size 9 to 14) (size 15 to 20)
#    0.750    0.500    3.750    4.500    0.000    0.000 
#    2.250    0.000    8.250    0.000    0.000    0.000 
#    0.000    0.000    0.000    0.000    0.000    0.000 
#
# Total GULP energy -178143.386734 kJ/mol
# GULP energy per Si atom -5566.980835 kJ/mol
# Density = 2.268227 g / cm^3
# Si number density = 22.734011 Si / 1000 Ang^3
#
#
#
# Elastic Constant Matrix: (Units=GPa)
#
#
# Indices 1 2 3 4 5 6 
#
# 1 42.0599 0.2157 -3.1271 0.0000 0.0000 0.0000
# 2 0.2157 94.3957 21.4594 0.0000 0.0000 0.0000
# 3 -3.1271 21.4594 57.0898 0.0000 0.0000 0.0000
# 4 0.0000 0.0000 0.0000 32.7415 0.0000 0.0000
# 5 0.0000 0.0000 0.0000 0.0000 26.4208 0.0000
# 6 0.0000 0.0000 0.0000 0.0000 0.0000 34.6024
#
#
#
# Elastic Compliance Matrix: (Units=1/GPa)
#
#
# Indices 1 2 3 4 5 6 
#
# 1 0.023886 -0.000385 0.001453 0.000000 0.000000 0.000000
# 2 -0.000385 0.011590 -0.004378 0.000000 0.000000 0.000000
# 3 0.001453 -0.004378 0.019241 0.000000 0.000000 0.000000
# 4 0.000000 0.000000 0.000000 0.030542 0.000000 0.000000
# 5 0.000000 0.000000 0.000000 0.000000 0.037849 0.000000
# 6 0.000000 0.000000 0.000000 0.000000 0.000000 0.028900
#
#
# Mechanical properties :
#
#
# Convention : Reuss Voigt Hill
#
# Bulk Modulus (GPa) = 20.79095 25.62682 23.20888
# Shear Modulus (GPa) = 28.62719 30.41943 29.52331
#
# Velocity S-wave (km/s) = 3.55240 3.66192 3.60757
# Velocity P-wave (km/s) = 5.09816 5.40152 5.25203
#
# Compressibility (1/GPa) = 0.04809785
#
# Stress axis : x y z
#
# Youngs Moduli (GPa) = 41.86620 86.28313 51.97145
#
# Poissons Ratio (x) = 0.03321 -0.07552
# Poissons Ratio (y) = 0.01611 0.22751
# Poissons Ratio (z) = -0.06083 0.37771
#
# Static dielectric constant tensor:
#      x y z
#    x 1.869940 0.000000 0.000000 
#    y 0.000000 1.866370 0.000000 
#    z 0.000000 0.000000 1.927190 
# 
# From -- ./inp_files/4094.got.cif
#   From: 2010.05.17/outbox.cif.g08.bks.cpg/sg33_3_cif.got.tgz:4094.got - 2010.06.03 17:15:25.
