data_PCOD9345964
_publ_section_title
;
Structure prediction by ZEFSAII (Michael W. Deem and Ramdas Pophale) SiO2 
 PCOD9345964
Probable space group: P N A 21
;
_chemical_formula_sum "Si O2"
_cell_formula_units_Z 28
_cell_length_a 14.602567
_cell_length_b 13.594779
_cell_length_c 5.248788
_cell_angle_alpha 90.000000
_cell_angle_beta 90.000000
_cell_angle_gamma 90.000000
_cell_volume 1041.982419
_symmetry_space_group_name_H-M "P N A 21"
_symmetry_group_IT_number 33
_symmetry_cell_setting 'orthorhombic'
loop_
_space_group_symop_operation_xyz
x,y,z
-x,-y,1/2+z
1/2-x,1/2+y,1/2+z
1/2+x,1/2-y,z
loop_
_atom_site_type_symbol
_atom_site_label
_atom_site_fract_x
_atom_site_fract_y
_atom_site_fract_z
Si Si1 0.618883 0.541483 0.065520
Si Si2 0.795057 0.538100 0.866830
Si Si3 0.990514 0.856380 0.402917
Si Si4 0.620826 0.228687 0.549408
Si Si5 0.560143 0.789584 0.760057
Si Si6 0.535269 0.049712 0.016681
Si Si7 0.745399 0.378217 0.235388
O O1 0.569469 0.632353 0.192947
O O2 0.681788 0.477009 0.269083
O O3 0.690075 0.566293 0.843218
O O4 0.546473 0.464258 0.962238
O O5 0.828039 0.623877 0.065549
O O6 0.862084 0.547977 0.627385
O O7 0.787367 0.424657 0.966637
O O8 0.041138 0.817944 0.652421
O O9 0.901274 0.797849 0.291168
O O10 0.520304 0.196086 0.460669
O O11 0.674320 0.294079 0.335802
O O12 0.516340 0.847221 0.515726
O O13 0.658409 0.831893 0.837210
O O14 0.521224 0.000901 0.747015
#
# Coordination Sequence:
#
# PCOD9345964 Si02
#       7
#     4   4   4   4   4   4   4
#     4  10  24  47  66 102 140 200 256 310 397 462
#     4   9  23  44  68 109 149 192 260 321 394 471
#     4  12  26  46  75 100 154 201 260 338 392 487
#     4  11  25  45  73 110 150 195 267 321 402 482
#     4  11  25  43  73 108 151 199 254 329 400 470
#     4  11  23  44  73 114 159 203 248 318 401 471
#     4  10  22  47  70 109 145 196 267 311 400 483
#
# _framework density 26.871853999999999
#
# number of rings (size 3 to 8) (size 9 to 14) (size 15 to 20)
#    0.857    0.571    2.857    0.857    6.000    2.286 
#    0.000    1.429    0.000    0.000    0.000    0.000 
#    0.000    0.000    0.000    0.000    0.000    0.000 
#
# Total GULP energy -155905.202806 kJ/mol
# GULP energy per Si atom -5568.042957 kJ/mol
# Density = 2.681069 g / cm^3
# Si number density = 26.871854 Si / 1000 Ang^3
#
#
#
# Elastic Constant Matrix: (Units=GPa)
#
#
# Indices 1 2 3 4 5 6 
#
# 1 180.6954 44.5392 33.7937 0.0000 0.0000 0.0000
# 2 44.5392 63.5030 23.3120 0.0000 0.0000 0.0000
# 3 33.7937 23.3120 87.7983 0.0000 0.0000 0.0000
# 4 0.0000 0.0000 0.0000 43.4710 0.0000 0.0000
# 5 0.0000 0.0000 0.0000 0.0000 9.3616 0.0000
# 6 0.0000 0.0000 0.0000 0.0000 0.0000 38.0006
#
#
#
# Elastic Compliance Matrix: (Units=1/GPa)
#
#
# Indices 1 2 3 4 5 6 
#
# 1 0.006867 -0.004262 -0.001512 0.000000 0.000000 0.000000
# 2 -0.004262 0.020093 -0.003695 0.000000 0.000000 0.000000
# 3 -0.001512 -0.003695 0.012953 0.000000 0.000000 0.000000
# 4 0.000000 0.000000 0.000000 0.023004 0.000000 0.000000
# 5 0.000000 0.000000 0.000000 0.000000 0.106819 0.000000
# 6 0.000000 0.000000 0.000000 0.000000 0.000000 0.026315
#
#
# Mechanical properties :
#
#
# Convention : Reuss Voigt Hill
#
# Bulk Modulus (GPa) = 47.67218 59.47628 53.57423
# Shear Modulus (GPa) = 22.52467 33.52344 28.02405
#
# Velocity S-wave (km/s) = 2.89835 3.53587 3.23286
# Velocity P-wave (km/s) = 5.38328 6.23307 5.82370
#
# Compressibility (1/GPa) = 0.02097659
#
# Stress axis : x y z
#
# Youngs Moduli (GPa) = 145.61704 49.76966 77.20463
#
# Poissons Ratio (x) = 0.21210 0.11671
# Poissons Ratio (y) = 0.62056 0.28524
# Poissons Ratio (z) = 0.22013 0.18388
#
# Static dielectric constant tensor:
#      x y z
#    x 2.080600 0.000000 0.000000 
#    y 0.000000 2.336540 0.000000 
#    z 0.000000 0.000000 2.222850 
# 
# From -- ./inp_files/1388.got.cif
#   From: 2010.05.17/outbox.cif.g08.bks.cpg/sg33_1_cif.got.tgz:1388.got - 2010.06.03 17:15:25.
