data_PCOD9345007
_publ_section_title
;
Structure prediction by ZEFSAII (Michael W. Deem and Ramdas Pophale) SiO2 
 PCOD9345007
Probable space group: P N A 21
;
_chemical_formula_sum "Si O2"
_cell_formula_units_Z 24
_cell_length_a 13.948558
_cell_length_b 12.569967
_cell_length_c 5.089687
_cell_angle_alpha 90.000000
_cell_angle_beta 90.000000
_cell_angle_gamma 90.000000
_cell_volume 892.389652
_symmetry_space_group_name_H-M "P N A 21"
_symmetry_group_IT_number 33
_symmetry_cell_setting 'orthorhombic'
loop_
_space_group_symop_operation_xyz
x,y,z
-x,-y,1/2+z
1/2-x,1/2+y,1/2+z
1/2+x,1/2-y,z
loop_
_atom_site_type_symbol
_atom_site_label
_atom_site_fract_x
_atom_site_fract_y
_atom_site_fract_z
Si Si1 0.862976 0.307583 0.531820
Si Si2 0.388555 0.472552 0.396764
Si Si3 0.991514 0.817265 0.240028
Si Si4 0.482446 0.927233 0.720615
Si Si5 0.206652 0.039424 0.387644
Si Si6 0.334320 0.775142 0.920574
O O1 0.919421 0.263183 0.784700
O O2 0.943005 0.337215 0.319251
O O3 0.802614 0.418248 0.531238
O O4 0.779316 0.224150 0.461759
O O5 0.458657 0.379923 0.492863
O O6 0.301379 0.485909 0.605971
O O7 0.451805 0.582307 0.398357
O O8 0.348916 0.470360 0.101768
O O9 0.901060 0.739739 0.179636
O O10 0.381268 0.865658 0.745858
O O11 0.508910 0.982927 0.448524
O O12 0.157157 0.153271 0.325202
#
# Coordination Sequence:
#
# PCOD9345007 Si02
#       6
#     4   4   4   4   4   4
#     4   9  22  46  66  96 134 181 215 277 338 395
#     4  11  21  39  65  99 127 166 218 280 321 385
#     4  10  20  38  69  93 132 171 217 270 338 386
#     4  11  25  45  69  96 133 179 224 274 335 400
#     4   9  22  41  62  94 136 165 218 271 329 397
#     4   8  20  43  61  96 130 170 220 268 329 399
#
# _framework density 26.894082000000001
#
# number of rings (size 3 to 8) (size 9 to 14) (size 15 to 20)
#    1.000    1.333    0.000    2.000    0.000    8.000 
#    0.000   10.000    0.000    0.000    0.000    0.000 
#    0.000    0.000    0.000    0.000    0.000    0.000 
#
# Total GULP energy -133727.544275 kJ/mol
# GULP energy per Si atom -5571.981011 kJ/mol
# Density = 2.683287 g / cm^3
# Si number density = 26.894082 Si / 1000 Ang^3
#
#
#
# Elastic Constant Matrix: (Units=GPa)
#
#
# Indices 1 2 3 4 5 6 
#
# 1 135.0130 21.4758 7.6020 0.0000 0.0000 0.0000
# 2 21.4758 133.6482 51.0320 0.0000 0.0000 0.0000
# 3 7.6020 51.0320 93.3568 0.0000 0.0000 0.0000
# 4 0.0000 0.0000 0.0000 34.9570 0.0000 0.0000
# 5 0.0000 0.0000 0.0000 0.0000 -6.4760 0.0000
# 6 0.0000 0.0000 0.0000 0.0000 0.0000 -2.6605
#
#
#
# Elastic Compliance Matrix: (Units=1/GPa)
#
#
# Indices 1 2 3 4 5 6 
#
# 1 0.007601 -0.001245 0.000062 0.000000 0.000000 0.000000
# 2 -0.001245 0.009660 -0.005179 0.000000 0.000000 0.000000
# 3 0.000062 -0.005179 0.013538 0.000000 0.000000 0.000000
# 4 0.000000 0.000000 0.000000 0.028607 0.000000 0.000000
# 5 0.000000 0.000000 0.000000 0.000000 -0.154417 0.000000
# 6 0.000000 0.000000 0.000000 0.000000 0.000000 -0.375876
#
#
# Mechanical properties :
#
#
# Convention : Reuss Voigt Hill
#
# Bulk Modulus (GPa) = 55.32833 58.02638 56.67736
# Shear Modulus (GPa) = -11.05858 23.95800 6.44971
#
# Velocity S-wave (km/s) = -2.02998 2.98791 1.55029
# Velocity P-wave (km/s) = 3.88882 5.79018 4.93199
#
# Compressibility (1/GPa) = 0.01807392
#
# Stress axis : x y z
#
# Youngs Moduli (GPa) = 131.55726 103.52024 73.86811
#
# Poissons Ratio (x) = 0.12888 -0.00455
# Poissons Ratio (y) = 0.16378 0.38257
# Poissons Ratio (z) = -0.00810 0.53614
#
# Static dielectric constant tensor:
#      x y z
#    x 2.250250 0.000000 0.000000 
#    y 0.000000 2.167350 0.000000 
#    z 0.000000 0.000000 2.084760 
# 
# From -- ./inp_files/1365.got.cif
#   From: 2010.05.17/outbox.cif.g08.bks.cpg/sg33_1_cif.got.tgz:1365.got - 2010.06.03 17:15:25.
