data_PCOD9345922
_publ_section_title
;
Structure prediction by ZEFSAII (Michael W. Deem and Ramdas Pophale) SiO2 
 PCOD9345922
Probable space group: P N A 21
;
_chemical_formula_sum "Si O2"
_cell_formula_units_Z 24
_cell_length_a 13.381774
_cell_length_b 4.844191
_cell_length_c 13.715734
_cell_angle_alpha 90.000000
_cell_angle_beta 90.000000
_cell_angle_gamma 90.000000
_cell_volume 889.106946
_symmetry_space_group_name_H-M "P N A 21"
_symmetry_group_IT_number 33
_symmetry_cell_setting 'orthorhombic'
loop_
_space_group_symop_operation_xyz
x,y,z
-x,-y,1/2+z
1/2-x,1/2+y,1/2+z
1/2+x,1/2-y,z
loop_
_atom_site_type_symbol
_atom_site_label
_atom_site_fract_x
_atom_site_fract_y
_atom_site_fract_z
Si Si1 0.234722 0.813592 0.949430
Si Si2 0.006630 0.909149 0.259668
Si Si3 0.960626 0.111307 0.547750
Si Si4 0.585933 0.971403 0.426685
Si Si5 0.821061 0.148925 0.074301
Si Si6 0.628761 0.917862 0.766669
O O1 0.177010 0.611079 0.870391
O O2 0.340094 0.808168 0.879646
O O3 0.258921 0.610894 0.042348
O O4 0.131963 0.983698 0.983405
O O5 0.068620 0.861390 0.161142
O O6 0.905082 0.726741 0.241524
O O7 0.050663 0.761086 0.354343
O O8 0.971022 0.223142 0.271155
O O9 0.006808 0.384069 0.496735
O O10 0.060579 0.920737 0.556239
O O11 0.687019 0.888388 0.491913
O O12 0.809017 0.285242 0.178322
#
# Coordination Sequence:
#
# PCOD9345922 Si02
#       6
#     4   4   4   4   4   4
#     4  11  25  41  69 103 135 181 229 292 349 414
#     4  11  24  44  73  97 135 191 229 282 350 413
#     4  10  22  45  66  94 136 182 226 282 346 411
#     4  11  23  42  67  98 137 177 231 284 341 417
#     4  10  24  44  66 100 139 179 234 287 342 420
#     4  11  24  46  71  98 142 182 231 287 346 411
#
# _framework density 26.993376999999999
#
# number of rings (size 3 to 8) (size 9 to 14) (size 15 to 20)
#    0.000    1.333    3.333    1.000    7.000    1.333 
#    3.000    0.000    0.000    0.000    0.000    0.000 
#    0.000    0.000    0.000    0.000    0.000    0.000 
#
# Total GULP energy -133965.630266 kJ/mol
# GULP energy per Si atom -5581.901261 kJ/mol
# Density = 2.693194 g / cm^3
# Si number density = 26.993377 Si / 1000 Ang^3
#
#
#
# Elastic Constant Matrix: (Units=GPa)
#
#
# Indices 1 2 3 4 5 6 
#
# 1 110.4251 22.7614 29.7750 0.0000 0.0000 0.0000
# 2 22.7614 108.0852 8.1287 0.0000 0.0000 0.0000
# 3 29.7750 8.1287 105.6902 0.0000 0.0000 0.0000
# 4 0.0000 0.0000 0.0000 27.4863 0.0000 0.0000
# 5 0.0000 0.0000 0.0000 0.0000 30.8658 0.0000
# 6 0.0000 0.0000 0.0000 0.0000 0.0000 29.3202
#
#
#
# Elastic Compliance Matrix: (Units=1/GPa)
#
#
# Indices 1 2 3 4 5 6 
#
# 1 0.010190 -0.001941 -0.002721 0.000000 0.000000 0.000000
# 2 -0.001941 0.009676 -0.000197 0.000000 0.000000 0.000000
# 3 -0.002721 -0.000197 0.010243 0.000000 0.000000 0.000000
# 4 0.000000 0.000000 0.000000 0.036382 0.000000 0.000000
# 5 0.000000 0.000000 0.000000 0.000000 0.032398 0.000000
# 6 0.000000 0.000000 0.000000 0.000000 0.000000 0.034106
#
#
# Mechanical properties :
#
#
# Convention : Reuss Voigt Hill
#
# Bulk Modulus (GPa) = 49.04564 49.50341 49.27452
# Shear Modulus (GPa) = 33.44232 35.10350 34.27291
#
# Velocity S-wave (km/s) = 3.52363 3.61009 3.56712
# Velocity P-wave (km/s) = 5.89607 5.97962 5.93799
#
# Compressibility (1/GPa) = 0.02038917
#
# Stress axis : x y z
#
# Youngs Moduli (GPa) = 98.13706 103.35294 97.62332
#
# Poissons Ratio (x) = 0.20063 0.26567
# Poissons Ratio (y) = 0.19050 0.01926
# Poissons Ratio (z) = 0.26707 0.02039
#
# Static dielectric constant tensor:
#      x y z
#    x 2.180230 0.000000 0.000000 
#    y 0.000000 2.246080 0.000000 
#    z 0.000000 0.000000 2.394120 
# 
# From -- ./inp_files/7836.got.cif
#   From: 2010.05.17/outbox.cif.g08.bks.cpg/sg33_4_cif.got.tgz:7836.got - 2010.06.03 17:15:25.
