data_PCOD9345031
_publ_section_title
;
Structure prediction by ZEFSAII (Michael W. Deem and Ramdas Pophale) SiO2 
 PCOD9345031
Probable space group: P N A 21
;
_chemical_formula_sum "Si O2"
_cell_formula_units_Z 32
_cell_length_a 20.158554
_cell_length_b 13.042599
_cell_length_c 6.268262
_cell_angle_alpha 90.000000
_cell_angle_beta 90.000000
_cell_angle_gamma 90.000000
_cell_volume 1648.051045
_symmetry_space_group_name_H-M "P N A 21"
_symmetry_group_IT_number 33
_symmetry_cell_setting 'orthorhombic'
loop_
_space_group_symop_operation_xyz
x,y,z
-x,-y,1/2+z
1/2-x,1/2+y,1/2+z
1/2+x,1/2-y,z
loop_
_atom_site_type_symbol
_atom_site_label
_atom_site_fract_x
_atom_site_fract_y
_atom_site_fract_z
Si Si1 0.846675 0.168285 0.547760
Si Si2 0.556696 0.384712 0.019052
Si Si3 0.385358 0.174934 0.197926
Si Si4 0.488745 0.836757 0.418644
Si Si5 0.916390 0.026161 0.877549
Si Si6 0.693707 0.864161 0.310975
Si Si7 0.431793 0.045063 0.581741
Si Si8 0.824285 0.990906 0.265530
O O1 0.880434 0.229804 0.355421
O O2 0.898822 0.107787 0.693116
O O3 0.812565 0.254913 0.691699
O O4 0.803752 0.083260 0.424824
O O5 0.552843 0.266631 0.946216
O O6 0.485496 0.438755 0.980361
O O7 0.613177 0.436119 0.875713
O O8 0.575178 0.415601 0.262367
O O9 0.409241 0.083574 0.349667
O O10 0.441472 0.193783 0.024627
O O11 0.319195 0.152348 0.063080
O O12 0.510398 0.884215 0.188895
O O13 0.456709 0.929698 0.553170
O O14 0.854944 0.027212 0.041163
O O15 0.633165 0.936052 0.227116
O O16 0.762455 0.915875 0.250981
#
# Coordination Sequence:
#
# PCOD9345031 Si02
#       8
#     4   4   4   4   4   4   4   4
#     4  10  22  40  69  90 123 178 211 261 327 395
#     4  11  23  37  65  93 130 164 214 275 332 375
#     4  10  20  39  67  87 129 166 215 261 317 400
#     4  11  21  38  60 101 125 170 211 271 327 381
#     4  11  22  42  64  97 128 169 214 273 331 390
#     4  10  23  43  61  93 125 178 216 261 324 401
#     4  10  21  39  63  91 134 169 214 261 320 391
#     4  11  24  44  61  94 132 168 219 277 322 395
#
# _framework density 19.416874
#
# number of rings (size 3 to 8) (size 9 to 14) (size 15 to 20)
#    0.000    1.500    2.500    3.750    1.750    5.000 
#    9.000    0.000    0.000    0.000    0.000    0.000 
#    0.000    0.000    0.000    0.000    0.000    0.000 
#
# Total GULP energy -178470.889509 kJ/mol
# GULP energy per Si atom -5577.215297 kJ/mol
# Density = 1.937268 g / cm^3
# Si number density = 19.416874 Si / 1000 Ang^3
#
#
#
# Elastic Constant Matrix: (Units=GPa)
#
#
# Indices 1 2 3 4 5 6 
#
# 1 77.5275 37.5046 27.9635 0.0000 0.0000 0.0000
# 2 37.5046 119.4361 38.6678 0.0000 0.0000 0.0000
# 3 27.9635 38.6678 95.4519 0.0000 0.0000 0.0000
# 4 0.0000 0.0000 0.0000 29.7177 0.0000 0.0000
# 5 0.0000 0.0000 0.0000 0.0000 16.0526 0.0000
# 6 0.0000 0.0000 0.0000 0.0000 0.0000 28.8302
#
#
#
# Elastic Compliance Matrix: (Units=1/GPa)
#
#
# Indices 1 2 3 4 5 6 
#
# 1 0.015941 -0.004021 -0.003041 0.000000 0.000000 0.000000
# 2 -0.004021 0.010651 -0.003137 0.000000 0.000000 0.000000
# 3 -0.003041 -0.003137 0.012638 0.000000 0.000000 0.000000
# 4 0.000000 0.000000 0.000000 0.033650 0.000000 0.000000
# 5 0.000000 0.000000 0.000000 0.000000 0.062295 0.000000
# 6 0.000000 0.000000 0.000000 0.000000 0.000000 0.034686
#
#
# Mechanical properties :
#
#
# Convention : Reuss Voigt Hill
#
# Bulk Modulus (GPa) = 53.10088 55.63193 54.36641
# Shear Modulus (GPa) = 25.44066 27.47207 26.45637
#
# Velocity S-wave (km/s) = 3.62364 3.76554 3.69527
# Velocity P-wave (km/s) = 6.70186 6.90067 6.80199
#
# Compressibility (1/GPa) = 0.01883208
#
# Stress axis : x y z
#
# Youngs Moduli (GPa) = 62.73228 93.88918 79.12610
#
# Poissons Ratio (x) = 0.37753 0.24063
# Poissons Ratio (y) = 0.25225 0.24819
# Poissons Ratio (z) = 0.19077 0.29450
#
# Static dielectric constant tensor:
#      x y z
#    x 1.655470 0.000000 0.000000 
#    y 0.000000 1.730300 0.000000 
#    z 0.000000 0.000000 1.733330 
# 
# From -- ./inp_files/2101.got.cif
#   From: 2010.05.17/outbox.cif.g08.bks.cpg/sg33_2_cif.got.tgz:2101.got - 2010.06.03 17:15:25.
