data_PCOD9345842
_publ_section_title
;
Structure prediction by ZEFSAII (Michael W. Deem and Ramdas Pophale) SiO2 
 PCOD9345842
Probable space group: P N A 21
;
_chemical_formula_sum "Si O2"
_cell_formula_units_Z 20
_cell_length_a 11.920515
_cell_length_b 12.256131
_cell_length_c 5.269156
_cell_angle_alpha 90.000000
_cell_angle_beta 90.000000
_cell_angle_gamma 90.000000
_cell_volume 769.820495
_symmetry_space_group_name_H-M "P N A 21"
_symmetry_group_IT_number 33
_symmetry_cell_setting 'orthorhombic'
loop_
_space_group_symop_operation_xyz
x,y,z
-x,-y,1/2+z
1/2-x,1/2+y,1/2+z
1/2+x,1/2-y,z
loop_
_atom_site_type_symbol
_atom_site_label
_atom_site_fract_x
_atom_site_fract_y
_atom_site_fract_z
Si Si1 0.072833 0.999494 0.855990
Si Si2 0.675538 0.929774 0.802998
Si Si3 0.796222 0.789028 0.187397
Si Si4 0.421291 0.904667 0.949625
Si Si5 0.237374 0.864687 0.573962
O O1 0.148627 0.894165 0.791586
O O2 0.145880 0.108619 0.821920
O O3 0.982417 0.004177 0.629768
O O4 0.741638 0.826270 0.919971
O O5 0.553063 0.920760 0.932890
O O6 0.755469 0.026712 0.902886
O O7 0.637455 0.981039 0.532279
O O8 0.885606 0.692619 0.138215
O O9 0.711489 0.735926 0.391548
O O10 0.361415 0.863904 0.694487
#
# Coordination Sequence:
#
# PCOD9345842 Si02
#       5
#     4   4   4   4   4
#     4  11  28  49  74 107 158 200 248 320 385 451
#     4  10  22  43  67 102 150 181 249 311 364 451
#     4  10  26  43  70 109 143 195 255 305 378 457
#     4  11  22  42  74 103 142 198 243 308 382 440
#     4  10  24  45  71 103 143 196 253 306 375 449
#
# _framework density 25.980084000000002
#
# number of rings (size 3 to 8) (size 9 to 14) (size 15 to 20)
#    0.000    1.600    2.000    0.000   14.000    1.600 
#    0.000    0.000    0.000    0.000    0.000    0.000 
#    0.000    0.000    0.000    0.000    0.000    0.000 
#
# Total GULP energy -111842.162307 kJ/mol
# GULP energy per Si atom -5592.108115 kJ/mol
# Density = 2.592095 g / cm^3
# Si number density = 25.980084 Si / 1000 Ang^3
#
#
#
# Elastic Constant Matrix: (Units=GPa)
#
#
# Indices 1 2 3 4 5 6 
#
# 1 110.7255 46.4706 32.4701 0.0000 0.0000 0.0000
# 2 46.4706 162.1321 32.8882 0.0000 0.0000 0.0000
# 3 32.4701 32.8882 102.6020 0.0000 0.0000 0.0000
# 4 0.0000 0.0000 0.0000 37.8418 0.0000 0.0000
# 5 0.0000 0.0000 0.0000 0.0000 51.0182 0.0000
# 6 0.0000 0.0000 0.0000 0.0000 0.0000 26.0388
#
#
#
# Elastic Compliance Matrix: (Units=1/GPa)
#
#
# Indices 1 2 3 4 5 6 
#
# 1 0.010885 -0.002589 -0.002615 0.000000 0.000000 0.000000
# 2 -0.002589 0.007213 -0.001493 0.000000 0.000000 0.000000
# 3 -0.002615 -0.001493 0.011052 0.000000 0.000000 0.000000
# 4 0.000000 0.000000 0.000000 0.026426 0.000000 0.000000
# 5 0.000000 0.000000 0.000000 0.000000 0.019601 0.000000
# 6 0.000000 0.000000 0.000000 0.000000 0.000000 0.038404
#
#
# Mechanical properties :
#
#
# Convention : Reuss Voigt Hill
#
# Bulk Modulus (GPa) = 63.46544 66.56862 65.01703
# Shear Modulus (GPa) = 37.81395 40.55513 39.18454
#
# Velocity S-wave (km/s) = 3.81924 3.95525 3.88784
# Velocity P-wave (km/s) = 6.62799 6.82182 6.72560
#
# Compressibility (1/GPa) = 0.01575661
#
# Stress axis : x y z
#
# Youngs Moduli (GPa) = 91.87066 138.64321 90.47919
#
# Poissons Ratio (x) = 0.35901 0.23657
# Poissons Ratio (y) = 0.23790 0.13504
# Poissons Ratio (z) = 0.24021 0.20693
#
# Static dielectric constant tensor:
#      x y z
#    x 1.984600 0.000000 0.000000 
#    y 0.000000 2.104990 0.000000 
#    z 0.000000 0.000000 2.125750 
# 
# From -- ./inp_files/685.got.cif
#   From: 2010.05.17/outbox.cif.g08.bks.cpg/sg33_1_cif.got.tgz:685.got - 2010.06.03 17:15:25.
