data_PCOD9345847
_publ_section_title
;
Structure prediction by ZEFSAII (Michael W. Deem and Ramdas Pophale) SiO2 
 PCOD9345847
Probable space group: P N A 21
;
_chemical_formula_sum "Si O2"
_cell_formula_units_Z 20
_cell_length_a 8.207204
_cell_length_b 8.731144
_cell_length_c 9.805885
_cell_angle_alpha 90.000000
_cell_angle_beta 90.000000
_cell_angle_gamma 90.000000
_cell_volume 702.672853
_symmetry_space_group_name_H-M "P N A 21"
_symmetry_group_IT_number 33
_symmetry_cell_setting 'orthorhombic'
loop_
_space_group_symop_operation_xyz
x,y,z
-x,-y,1/2+z
1/2-x,1/2+y,1/2+z
1/2+x,1/2-y,z
loop_
_atom_site_type_symbol
_atom_site_label
_atom_site_fract_x
_atom_site_fract_y
_atom_site_fract_z
Si Si1 0.176852 0.097475 0.261450
Si Si2 0.824281 0.120464 0.384108
Si Si3 0.273462 0.955885 0.521000
Si Si4 0.081290 0.661946 0.423143
Si Si5 0.016314 0.848779 0.141796
O O1 0.230067 0.269302 0.278541
O O2 0.995848 0.069880 0.321904
O O3 0.294641 0.010130 0.363301
O O4 0.148019 0.991069 0.133642
O O5 0.901836 0.227199 0.507322
O O6 0.704485 0.975611 0.391794
O O7 0.457231 0.900339 0.540388
O O8 0.168679 0.802135 0.499437
O O9 0.158775 0.077288 0.601387
O O10 0.022862 0.742441 0.277041
#
# Coordination Sequence:
#
# PCOD9345847 Si02
#       5
#     4   4   4   4   4
#     4  10  23  42  66 102 144 188 244 300 360 443
#     4  11  24  44  70 107 144 188 248 300 361 450
#     4  10  22  43  68 103 143 188 249 300 362 451
#     4  11  23  45  73 104 146 195 246 302 365 448
#     4  10  24  46  71 102 147 193 233 308 376 418
#
# _framework density 28.462745999999999
#
# number of rings (size 3 to 8) (size 9 to 14) (size 15 to 20)
#    0.000    1.600    0.000    4.800    0.000   12.800 
#    0.000   18.000    0.000    0.000    0.000    0.000 
#    0.000    0.000    0.000    0.000    0.000    0.000 
#
# Total GULP energy -111487.086585 kJ/mol
# GULP energy per Si atom -5574.354329 kJ/mol
# Density = 2.839796 g / cm^3
# Si number density = 28.462746 Si / 1000 Ang^3
#
#
#
# Elastic Constant Matrix: (Units=GPa)
#
#
# Indices 1 2 3 4 5 6 
#
# 1 65.1154 51.1819 45.8708 0.0000 0.0000 0.0000
# 2 51.1819 131.6455 32.3189 0.0000 0.0000 0.0000
# 3 45.8708 32.3189 102.2862 0.0000 0.0000 0.0000
# 4 0.0000 0.0000 0.0000 25.6301 0.0000 0.0000
# 5 0.0000 0.0000 0.0000 0.0000 48.6988 0.0000
# 6 0.0000 0.0000 0.0000 0.0000 0.0000 643.2704
#
#
#
# Elastic Compliance Matrix: (Units=1/GPa)
#
#
# Indices 1 2 3 4 5 6 
#
# 1 0.029887 -0.009029 -0.010550 0.000000 0.000000 0.000000
# 2 -0.009029 0.010963 0.000585 0.000000 0.000000 0.000000
# 3 -0.010550 0.000585 0.014323 0.000000 0.000000 0.000000
# 4 0.000000 0.000000 0.000000 0.039017 0.000000 0.000000
# 5 0.000000 0.000000 0.000000 0.000000 0.020534 0.000000
# 6 0.000000 0.000000 0.000000 0.000000 0.000000 0.001555
#
#
# Mechanical properties :
#
#
# Convention : Reuss Voigt Hill
#
# Bulk Modulus (GPa) = 58.19228 61.97670 60.08449
# Shear Modulus (GPa) = 31.25125 154.83154 93.04139
#
# Velocity S-wave (km/s) = 3.31716 7.38350 5.72362
# Velocity P-wave (km/s) = 5.92966 9.72163 8.05205
#
# Compressibility (1/GPa) = 0.01718441
#
# Stress axis : x y z
#
# Youngs Moduli (GPa) = 33.45990 91.21604 69.81963
#
# Poissons Ratio (x) = 0.82364 0.73658
# Poissons Ratio (y) = 0.30213 -0.04087
# Poissons Ratio (z) = 0.35299 -0.05340
#
# Static dielectric constant tensor:
#      x y z
#    x 2.191580 0.000000 0.000000 
#    y 0.000000 2.652070 0.000000 
#    z 0.000000 0.000000 2.485740 
# 
# From -- ./inp_files/5732.got.cif
#   From: 2010.05.17/outbox.cif.g08.bks.cpg/sg33_3_cif.got.tgz:5732.got - 2010.06.03 17:15:25.
