data_PCOD9345778
_publ_section_title
;
Structure prediction by ZEFSAII (Michael W. Deem and Ramdas Pophale) SiO2 
 PCOD9345778
Probable space group: P N A 21
;
_chemical_formula_sum "Si O2"
_cell_formula_units_Z 16
_cell_length_a 9.144850
_cell_length_b 13.603564
_cell_length_c 5.091961
_cell_angle_alpha 90.000000
_cell_angle_beta 90.000000
_cell_angle_gamma 90.000000
_cell_volume 633.452944
_symmetry_space_group_name_H-M "P N A 21"
_symmetry_group_IT_number 33
_symmetry_cell_setting 'orthorhombic'
loop_
_space_group_symop_operation_xyz
x,y,z
-x,-y,1/2+z
1/2-x,1/2+y,1/2+z
1/2+x,1/2-y,z
loop_
_atom_site_type_symbol
_atom_site_label
_atom_site_fract_x
_atom_site_fract_y
_atom_site_fract_z
Si Si1 0.589435 0.022015 0.911570
Si Si2 0.200300 0.288744 0.728124
Si Si3 0.219390 0.133827 0.116664
Si Si4 0.546632 0.720762 0.879678
O O1 0.712505 0.962463 0.748123
O O2 0.455626 0.015746 0.699942
O O3 0.643708 0.134033 0.941189
O O4 0.353205 0.322796 0.609383
O O5 0.072874 0.290824 0.513189
O O6 0.210709 0.174677 0.818456
O O7 0.336990 0.215721 0.218365
O O8 0.053845 0.147185 0.217469
#
# Coordination Sequence:
#
# PCOD9345778 Si02
#       4
#     4   4   4   4
#     4  12  26  46  72 106 142 194 254 300 360 450
#     4  11  23  44  70 100 142 188 237 300 367 425
#     4  11  23  44  70 100 142 188 237 300 367 425
#     4  10  22  42  66 100 134 180 238 290 366 428
#
# _framework density 25.258386000000002
#
# number of rings (size 3 to 8) (size 9 to 14) (size 15 to 20)
#    0.000    1.000    2.500    4.500    7.000    0.000 
#    9.000    0.000    0.000    0.000    0.000    0.000 
#    0.000    0.000    0.000    0.000    0.000    0.000 
#
# Total GULP energy -89310.867262 kJ/mol
# GULP energy per Si atom -5581.929204 kJ/mol
# Density = 2.520090 g / cm^3
# Si number density = 25.258386 Si / 1000 Ang^3
#
#
#
# Elastic Constant Matrix: (Units=GPa)
#
#
# Indices 1 2 3 4 5 6 
#
# 1 142.9377 5.3296 30.6168 0.0000 0.0000 0.0000
# 2 5.3296 56.1492 0.3328 0.0000 0.0000 0.0000
# 3 30.6168 0.3328 85.3051 0.0000 0.0000 0.0000
# 4 0.0000 0.0000 0.0000 24.3437 0.0000 0.0000
# 5 0.0000 0.0000 0.0000 0.0000 40.6935 0.0000
# 6 0.0000 0.0000 0.0000 0.0000 0.0000 47.4934
#
#
#
# Elastic Compliance Matrix: (Units=1/GPa)
#
#
# Indices 1 2 3 4 5 6 
#
# 1 0.007607 -0.000706 -0.002727 0.000000 0.000000 0.000000
# 2 -0.000706 0.017876 0.000184 0.000000 0.000000 0.000000
# 3 -0.002727 0.000184 0.012701 0.000000 0.000000 0.000000
# 4 0.000000 0.000000 0.000000 0.041078 0.000000 0.000000
# 5 0.000000 0.000000 0.000000 0.000000 0.024574 0.000000
# 6 0.000000 0.000000 0.000000 0.000000 0.000000 0.021056
#
#
# Mechanical properties :
#
#
# Convention : Reuss Voigt Hill
#
# Bulk Modulus (GPa) = 31.56186 39.66115 35.61151
# Shear Modulus (GPa) = 35.22339 39.04699 37.13519
#
# Velocity S-wave (km/s) = 3.73838 3.93606 3.83849
# Velocity P-wave (km/s) = 5.58182 6.03266 5.81162
#
# Compressibility (1/GPa) = 0.03168381
#
# Stress axis : x y z
#
# Youngs Moduli (GPa) = 131.46564 55.94222 78.73540
#
# Poissons Ratio (x) = 0.03949 0.21474
# Poissons Ratio (y) = 0.09279 -0.01445
# Poissons Ratio (z) = 0.35855 -0.01027
#
# Static dielectric constant tensor:
#      x y z
#    x 1.947600 0.000000 0.000000 
#    y 0.000000 2.036170 0.000000 
#    z 0.000000 0.000000 2.077120 
# 
# From -- ./inp_files/261.got.cif
#   From: 2010.05.17/outbox.cif.g08.bks.cpg/sg33_1_cif.got.tgz:261.got - 2010.06.03 17:15:25.
