data_PCOD9345832
_publ_section_title
;
Structure prediction by ZEFSAII (Michael W. Deem and Ramdas Pophale) SiO2 
 PCOD9345832
Probable space group: P N A 21
;
_chemical_formula_sum "Si O2"
_cell_formula_units_Z 32
_cell_length_a 19.228934
_cell_length_b 11.509667
_cell_length_c 5.324505
_cell_angle_alpha 90.000000
_cell_angle_beta 90.000000
_cell_angle_gamma 90.000000
_cell_volume 1178.412137
_symmetry_space_group_name_H-M "P N A 21"
_symmetry_group_IT_number 33
_symmetry_cell_setting 'orthorhombic'
loop_
_space_group_symop_operation_xyz
x,y,z
-x,-y,1/2+z
1/2-x,1/2+y,1/2+z
1/2+x,1/2-y,z
loop_
_atom_site_type_symbol
_atom_site_label
_atom_site_fract_x
_atom_site_fract_y
_atom_site_fract_z
Si Si1 0.765382 0.713528 0.554330
Si Si2 0.453139 0.507145 0.527382
Si Si3 0.655598 0.263226 0.525982
Si Si4 0.263077 0.516137 0.063418
Si Si5 0.954204 0.737642 0.386679
Si Si6 0.819200 0.399931 0.965305
Si Si7 0.408071 0.252734 0.634753
Si Si8 0.398019 0.016095 0.369682
O O1 0.805366 0.731095 0.290442
O O2 0.711265 0.610959 0.516484
O O3 0.717440 0.816240 0.663185
O O4 0.818994 0.694996 0.783151
O O5 0.501888 0.502438 0.772598
O O6 0.425333 0.642796 0.517708
O O7 0.407965 0.385702 0.535755
O O8 0.679013 0.394792 0.484878
O O9 0.576283 0.249550 0.602222
O O10 0.246100 0.531208 0.357705
O O11 0.183061 0.506930 0.961167
O O12 0.936155 0.602487 0.450647
O O13 0.036190 0.751569 0.361386
O O14 0.839731 0.305472 0.754925
O O15 0.882778 0.472600 0.070532
O O16 0.428266 0.141087 0.455174
#
# Coordination Sequence:
#
# PCOD9345832 Si02
#       8
#     4   4   4   4   4   4   4   4
#     4  11  23  44  69  98 140 183 236 295 363 438
#     4  10  25  50  71 102 153 198 250 306 366 459
#     4  11  24  43  68 102 138 185 234 298 367 430
#     4  10  22  43  66 101 138 183 239 299 369 440
#     4  11  25  46  71 112 147 199 247 318 372 459
#     4  10  23  44  70 101 147 188 243 310 371 440
#     4  10  26  44  70 106 148 205 243 307 378 457
#     4  11  22  44  73 104 145 187 248 311 368 443
#
# _framework density 27.155183999999998
#
# number of rings (size 3 to 8) (size 9 to 14) (size 15 to 20)
#    0.000    1.500    2.500    0.750    5.250    3.000 
#   13.500    0.000    0.000    0.000    0.000    0.000 
#    0.000    0.000    0.000    0.000    0.000    0.000 
#
# Total GULP energy -178258.751863 kJ/mol
# GULP energy per Si atom -5570.585996 kJ/mol
# Density = 2.709338 g / cm^3
# Si number density = 27.155184 Si / 1000 Ang^3
#
#
#
# Elastic Constant Matrix: (Units=GPa)
#
#
# Indices 1 2 3 4 5 6 
#
# 1 40.2741 8.7922 4.3339 0.0000 0.0000 0.0000
# 2 8.7922 184.3132 34.6786 0.0000 0.0000 0.0000
# 3 4.3339 34.6786 99.5928 0.0000 0.0000 0.0000
# 4 0.0000 0.0000 0.0000 31.6015 0.0000 0.0000
# 5 0.0000 0.0000 0.0000 0.0000 36.4169 0.0000
# 6 0.0000 0.0000 0.0000 0.0000 0.0000 44.8892
#
#
#
# Elastic Compliance Matrix: (Units=1/GPa)
#
#
# Indices 1 2 3 4 5 6 
#
# 1 0.025140 -0.001063 -0.000724 0.000000 0.000000 0.000000
# 2 -0.001063 0.005851 -0.001991 0.000000 0.000000 0.000000
# 3 -0.000724 -0.001991 0.010766 0.000000 0.000000 0.000000
# 4 0.000000 0.000000 0.000000 0.031644 0.000000 0.000000
# 5 0.000000 0.000000 0.000000 0.000000 0.027460 0.000000
# 6 0.000000 0.000000 0.000000 0.000000 0.000000 0.022277
#
#
# Mechanical properties :
#
#
# Convention : Reuss Voigt Hill
#
# Bulk Modulus (GPa) = 29.23933 46.64328 37.94131
# Shear Modulus (GPa) = 35.18816 41.00655 38.09735
#
# Velocity S-wave (km/s) = 3.60365 3.89019 3.74966
# Velocity P-wave (km/s) = 5.30150 6.11490 5.72267
#
# Compressibility (1/GPa) = 0.03420051
#
# Stress axis : x y z
#
# Youngs Moduli (GPa) = 39.77756 170.91475 92.88782
#
# Poissons Ratio (x) = 0.18169 0.06724
# Poissons Ratio (y) = 0.04229 0.18494
# Poissons Ratio (z) = 0.02879 0.34030
#
# Static dielectric constant tensor:
#      x y z
#    x 2.133710 0.000000 0.000000 
#    y 0.000000 2.257920 0.000000 
#    z 0.000000 0.000000 2.311500 
# 
# From -- ./inp_files/2321.got.cif
#   From: 2010.05.17/outbox.cif.g08.bks.cpg/sg33_2_cif.got.tgz:2321.got - 2010.06.03 17:15:25.
