data_PCOD9345658
_publ_section_title
;
Structure prediction by ZEFSAII (Michael W. Deem and Ramdas Pophale) SiO2 
 PCOD9345658
Probable space group: P N A 21
;
_chemical_formula_sum "Si O2"
_cell_formula_units_Z 32
_cell_length_a 13.945404
_cell_length_b 11.637830
_cell_length_c 8.884421
_cell_angle_alpha 90.000000
_cell_angle_beta 90.000000
_cell_angle_gamma 90.000000
_cell_volume 1441.890363
_symmetry_space_group_name_H-M "P N A 21"
_symmetry_group_IT_number 33
_symmetry_cell_setting 'orthorhombic'
loop_
_space_group_symop_operation_xyz
x,y,z
-x,-y,1/2+z
1/2-x,1/2+y,1/2+z
1/2+x,1/2-y,z
loop_
_atom_site_type_symbol
_atom_site_label
_atom_site_fract_x
_atom_site_fract_y
_atom_site_fract_z
Si Si1 0.678801 0.105333 0.628740
Si Si2 0.374251 0.668890 0.309797
Si Si3 0.158788 0.942619 0.899100
Si Si4 0.318639 0.789988 0.598415
Si Si5 0.546767 0.163944 0.378894
Si Si6 0.342949 0.197586 0.280295
Si Si7 0.744844 0.486346 0.428131
Si Si8 0.963475 0.913492 0.028894
O O1 0.664026 0.228099 0.707213
O O2 0.766854 0.103944 0.517036
O O3 0.586861 0.085568 0.517048
O O4 0.713805 0.022941 0.763415
O O5 0.303838 0.559701 0.325356
O O6 0.384322 0.727612 0.472775
O O7 0.456803 0.610457 0.207649
O O8 0.138749 0.835228 0.792294
O O9 0.060616 0.976234 0.983694
O O10 0.373274 0.818094 0.752014
O O11 0.231058 0.703185 0.639794
O O12 0.283866 0.911612 0.532012
O O13 0.447192 0.137439 0.292807
O O14 0.531436 0.287604 0.455471
O O15 0.287974 0.142737 0.425251
O O16 0.632157 0.473197 0.463491
#
# Coordination Sequence:
#
# PCOD9345658 Si02
#       8
#     4   4   4   4   4   4   4   4
#     4  10  22  43  62  93 133 175 216 276 339 406
#     4  10  23  40  63  93 136 172 222 278 338 403
#     4  11  22  37  69  94 127 172 219 277 345 390
#     4  11  22  42  64  95 127 177 220 271 339 404
#     4  10  22  42  65  90 135 167 219 272 332 409
#     4  11  22  41  65  95 127 174 216 271 334 394
#     4  11  23  40  67  90 134 169 218 276 329 406
#     4  10  22  39  63  98 129 170 218 285 334 394
#
# _framework density 22.193087999999999
#
# number of rings (size 3 to 8) (size 9 to 14) (size 15 to 20)
#    0.000    1.500    2.500    2.250    1.750    3.000 
#    2.250    0.000    2.750    0.000    0.000    0.000 
#    0.000    0.000    0.000    0.000    0.000    0.000 
#
# Total GULP energy -178154.819282 kJ/mol
# GULP energy per Si atom -5567.338103 kJ/mol
# Density = 2.214258 g / cm^3
# Si number density = 22.193088 Si / 1000 Ang^3
#
#
#
# Elastic Constant Matrix: (Units=GPa)
#
#
# Indices 1 2 3 4 5 6 
#
# 1 88.7317 -0.2320 28.5274 0.0000 0.0000 0.0000
# 2 -0.2320 69.2332 6.7546 0.0000 0.0000 0.0000
# 3 28.5274 6.7546 107.2429 0.0000 0.0000 0.0000
# 4 0.0000 0.0000 0.0000 35.6653 0.0000 0.0000
# 5 0.0000 0.0000 0.0000 0.0000 15.4465 0.0000
# 6 0.0000 0.0000 0.0000 0.0000 0.0000 23.1543
#
#
#
# Elastic Compliance Matrix: (Units=1/GPa)
#
#
# Indices 1 2 3 4 5 6 
#
# 1 0.012333 0.000364 -0.003304 0.000000 0.000000 0.000000
# 2 0.000364 0.014544 -0.001013 0.000000 0.000000 0.000000
# 3 -0.003304 -0.001013 0.010267 0.000000 0.000000 0.000000
# 4 0.000000 0.000000 0.000000 0.028038 0.000000 0.000000
# 5 0.000000 0.000000 0.000000 0.000000 0.064740 0.000000
# 6 0.000000 0.000000 0.000000 0.000000 0.000000 0.043189
#
#
# Mechanical properties :
#
#
# Convention : Reuss Voigt Hill
#
# Bulk Modulus (GPa) = 34.20122 37.25643 35.72883
# Shear Modulus (GPa) = 26.21063 30.19708 28.20385
#
# Velocity S-wave (km/s) = 3.44034 3.69270 3.56875
# Velocity P-wave (km/s) = 5.58797 5.91652 5.75459
#
# Compressibility (1/GPa) = 0.02923872
#
# Stress axis : x y z
#
# Youngs Moduli (GPa) = 81.08336 68.75707 97.39759
#
# Poissons Ratio (x) = -0.02500 0.32176
# Poissons Ratio (y) = -0.02948 0.09864
# Poissons Ratio (z) = 0.26786 0.06964
#
# Static dielectric constant tensor:
#      x y z
#    x 1.861940 0.000000 0.000000 
#    y 0.000000 1.934090 0.000000 
#    z 0.000000 0.000000 1.874240 
# 
# From -- ./inp_files/4415.got.cif
#   From: 2010.05.17/outbox.cif.g08.bks.cpg/sg33_3_cif.got.tgz:4415.got - 2010.06.03 17:15:25.
