data_PCOD9345143
_publ_section_title
;
Structure prediction by ZEFSAII (Michael W. Deem and Ramdas Pophale) SiO2 
 PCOD9345143
Probable space group: P N A 21
;
_chemical_formula_sum "Si O2"
_cell_formula_units_Z 20
_cell_length_a 13.015308
_cell_length_b 9.160948
_cell_length_c 7.275842
_cell_angle_alpha 90.000000
_cell_angle_beta 90.000000
_cell_angle_gamma 90.000000
_cell_volume 867.517266
_symmetry_space_group_name_H-M "P N A 21"
_symmetry_group_IT_number 33
_symmetry_cell_setting 'orthorhombic'
loop_
_space_group_symop_operation_xyz
x,y,z
-x,-y,1/2+z
1/2-x,1/2+y,1/2+z
1/2+x,1/2-y,z
loop_
_atom_site_type_symbol
_atom_site_label
_atom_site_fract_x
_atom_site_fract_y
_atom_site_fract_z
Si Si1 0.881346 0.436077 0.247730
Si Si2 0.921023 0.167951 0.002592
Si Si3 0.061690 0.341147 0.480920
Si Si4 0.736677 0.668176 0.791774
Si Si5 0.067249 0.921562 0.085179
O O1 0.956505 0.417518 0.419049
O O2 0.924182 0.333042 0.079554
O O3 0.887675 0.596261 0.166596
O O4 0.778643 0.345134 0.292188
O O5 0.817868 0.113073 0.106827
O O6 0.913308 0.141213 0.787353
O O7 0.021297 0.083333 0.076497
O O8 0.146679 0.367355 0.326300
O O9 0.026763 0.175527 0.505680
O O10 0.664844 0.603573 0.954252
#
# Coordination Sequence:
#
# PCOD9345143 Si02
#       5
#     4   4   4   4   4
#     4   9  22  40  61  91 129 163 205 262 323 366
#     4  10  20  43  62  89 126 162 216 256 310 381
#     4  11  21  43  64  93 132 163 212 267 317 383
#     4   9  23  41  61  93 126 165 220 251 318 390
#     4  11  20  41  66  90 125 173 209 264 316 374
#
# _framework density 23.054296999999998
#
# number of rings (size 3 to 8) (size 9 to 14) (size 15 to 20)
#    1.200    0.800    2.000    1.200    0.000    3.200 
#   18.000    0.000    0.000    0.000    0.000    0.000 
#    0.000    0.000    0.000    0.000    0.000    0.000 
#
# Total GULP energy -111538.949634 kJ/mol
# GULP energy per Si atom -5576.947482 kJ/mol
# Density = 2.300182 g / cm^3
# Si number density = 23.054297 Si / 1000 Ang^3
#
#
#
# Elastic Constant Matrix: (Units=GPa)
#
#
# Indices 1 2 3 4 5 6 
#
# 1 40.9180 -8.4434 -7.2735 0.0000 0.0000 0.0000
# 2 -8.4434 27.6757 -18.1785 0.0000 0.0000 0.0000
# 3 -7.2735 -18.1785 85.5989 0.0000 0.0000 0.0000
# 4 0.0000 0.0000 0.0000 34.9715 0.0000 0.0000
# 5 0.0000 0.0000 0.0000 0.0000 6.5116 0.0000
# 6 0.0000 0.0000 0.0000 0.0000 0.0000 3.4089
#
#
#
# Elastic Compliance Matrix: (Units=1/GPa)
#
#
# Indices 1 2 3 4 5 6 
#
# 1 0.027692 0.011614 0.004820 0.000000 0.000000 0.000000
# 2 0.011614 0.046861 0.010939 0.000000 0.000000 0.000000
# 3 0.004820 0.010939 0.014415 0.000000 0.000000 0.000000
# 4 0.000000 0.000000 0.000000 0.028595 0.000000 0.000000
# 5 0.000000 0.000000 0.000000 0.000000 0.153572 0.000000
# 6 0.000000 0.000000 0.000000 0.000000 0.000000 0.293350
#
#
# Mechanical properties :
#
#
# Convention : Reuss Voigt Hill
#
# Bulk Modulus (GPa) = 6.95829 9.60020 8.27924
# Shear Modulus (GPa) = 8.96627 21.51760 15.24194
#
# Velocity S-wave (km/s) = 1.97424 3.05838 2.57404
# Velocity P-wave (km/s) = 2.86734 4.07981 3.52608
#
# Compressibility (1/GPa) = 0.14371357
#
# Stress axis : x y z
#
# Youngs Moduli (GPa) = 36.11098 21.33963 69.37241
#
# Poissons Ratio (x) = -0.24784 -0.33434
# Poissons Ratio (y) = -0.41940 -0.75885
# Poissons Ratio (z) = -0.17404 -0.23343
#
# Static dielectric constant tensor:
#      x y z
#    x 1.853760 0.000000 0.000000 
#    y 0.000000 1.898840 0.000000 
#    z 0.000000 0.000000 1.853670 
# 
# From -- ./inp_files/3712.got.cif
#   From: 2010.05.17/outbox.cif.g08.bks.cpg/sg33_2_cif.got.tgz:3712.got - 2010.06.03 17:15:25.
