data_PCOD9345651
_publ_section_title
;
Structure prediction by ZEFSAII (Michael W. Deem and Ramdas Pophale) SiO2 
 PCOD9345651
Probable space group: P N A 21
;
_chemical_formula_sum "Si O2"
_cell_formula_units_Z 20
_cell_length_a 22.336490
_cell_length_b 6.598474
_cell_length_c 6.121202
_cell_angle_alpha 90.000000
_cell_angle_beta 90.000000
_cell_angle_gamma 90.000000
_cell_volume 902.184060
_symmetry_space_group_name_H-M "P N A 21"
_symmetry_group_IT_number 33
_symmetry_cell_setting 'orthorhombic'
loop_
_space_group_symop_operation_xyz
x,y,z
-x,-y,1/2+z
1/2-x,1/2+y,1/2+z
1/2+x,1/2-y,z
loop_
_atom_site_type_symbol
_atom_site_label
_atom_site_fract_x
_atom_site_fract_y
_atom_site_fract_z
Si Si1 0.472785 0.521692 0.027970
Si Si2 0.165873 0.684289 0.900874
Si Si3 0.125149 0.746557 0.318412
Si Si4 0.878931 0.639053 0.057850
Si Si5 0.285157 0.496694 0.064465
O O1 0.498532 0.472428 0.275770
O O2 0.440064 0.736867 0.064755
O O3 0.421723 0.353907 0.976453
O O4 0.117936 0.785227 0.062986
O O5 0.217538 0.557681 0.023348
O O6 0.133547 0.523555 0.746552
O O7 0.200693 0.863423 0.776843
O O8 0.122391 0.506694 0.348958
O O9 0.188925 0.847136 0.377648
O O10 0.826059 0.803390 0.060334
#
# Coordination Sequence:
#
# PCOD9345651 Si02
#       5
#     4   4   4   4   4
#     4  11  28  48  75 101 138 181 240 304 362 415
#     4  11  22  39  69 100 146 180 231 276 352 420
#     4  10  24  42  68  99 135 182 234 287 351 424
#     4  10  24  42  68  99 136 183 230 294 343 430
#     4  10  22  39  62 105 141 186 223 281 344 423
#
# _framework density 22.168423000000001
#
# number of rings (size 3 to 8) (size 9 to 14) (size 15 to 20)
#    0.000    1.600    0.000    2.400   11.200    8.000 
#    0.000    0.000    0.000    0.000    0.000    0.000 
#    0.000    0.000    0.000    0.000    0.000    0.000 
#
# Total GULP energy -111416.719949 kJ/mol
# GULP energy per Si atom -5570.835997 kJ/mol
# Density = 2.211797 g / cm^3
# Si number density = 22.168423 Si / 1000 Ang^3
#
#
#
# Elastic Constant Matrix: (Units=GPa)
#
#
# Indices 1 2 3 4 5 6 
#
# 1 57.6876 26.1034 52.8704 0.0000 0.0000 0.0000
# 2 26.1034 112.4133 28.8204 0.0000 0.0000 0.0000
# 3 52.8704 28.8204 114.5559 0.0000 0.0000 0.0000
# 4 0.0000 0.0000 0.0000 -6.4139 0.0000 0.0000
# 5 0.0000 0.0000 0.0000 0.0000 31.6641 0.0000
# 6 0.0000 0.0000 0.0000 0.0000 0.0000 15.8013
#
#
#
# Elastic Compliance Matrix: (Units=1/GPa)
#
#
# Indices 1 2 3 4 5 6 
#
# 1 0.031518 -0.003837 -0.013581 0.000000 0.000000 0.000000
# 2 -0.003837 0.009976 -0.000739 0.000000 0.000000 0.000000
# 3 -0.013581 -0.000739 0.015183 0.000000 0.000000 0.000000
# 4 0.000000 0.000000 0.000000 -0.155910 0.000000 0.000000
# 5 0.000000 0.000000 0.000000 0.000000 0.031581 0.000000
# 6 0.000000 0.000000 0.000000 0.000000 0.000000 0.063286
#
#
# Mechanical properties :
#
#
# Convention : Reuss Voigt Hill
#
# Bulk Modulus (GPa) = 49.10747 55.58282 52.34514
# Shear Modulus (GPa) = 129.08019 20.00114 74.54066
#
# Velocity S-wave (km/s) = 7.63894 3.00698 5.80497
# Velocity P-wave (km/s) = 10.00023 6.09781 8.28215
#
# Compressibility (1/GPa) = 0.02036350
#
# Stress axis : x y z
#
# Youngs Moduli (GPa) = 31.72812 100.23886 65.86210
#
# Poissons Ratio (x) = 0.38460 0.89447
# Poissons Ratio (y) = 0.12174 0.04867
# Poissons Ratio (z) = 0.43090 0.07408
#
# Static dielectric constant tensor:
#      x y z
#    x 1.827180 0.000000 0.000000 
#    y 0.000000 1.759870 0.000000 
#    z 0.000000 0.000000 1.934650 
# 
# From -- ./inp_files/2146.got.cif
#   From: 2010.05.17/outbox.cif.g08.bks.cpg/sg33_2_cif.got.tgz:2146.got - 2010.06.03 17:15:25.
