data_PCOD9345443
_publ_section_title
;
Structure prediction by ZEFSAII (Michael W. Deem and Ramdas Pophale) SiO2 
 PCOD9345443
Probable space group: P N A 21
;
_chemical_formula_sum "Si O2"
_cell_formula_units_Z 28
_cell_length_a 4.938088
_cell_length_b 11.154011
_cell_length_c 20.133256
_cell_angle_alpha 90.000000
_cell_angle_beta 90.000000
_cell_angle_gamma 90.000000
_cell_volume 1108.929430
_symmetry_space_group_name_H-M "P N A 21"
_symmetry_group_IT_number 33
_symmetry_cell_setting 'orthorhombic'
loop_
_space_group_symop_operation_xyz
x,y,z
-x,-y,1/2+z
1/2-x,1/2+y,1/2+z
1/2+x,1/2-y,z
loop_
_atom_site_type_symbol
_atom_site_label
_atom_site_fract_x
_atom_site_fract_y
_atom_site_fract_z
Si Si1 0.907986 0.074600 0.142710
Si Si2 0.886677 0.821883 0.779656
Si Si3 0.422636 0.937111 0.139524
Si Si4 0.918144 0.334948 0.916315
Si Si5 0.730976 0.005862 0.016858
Si Si6 0.967873 0.164323 0.419434
Si Si7 0.072118 0.319181 0.777456
O O1 0.036470 0.136058 0.206202
O O2 0.103738 0.957772 0.136161
O O3 0.591570 0.057344 0.158411
O O4 0.881544 0.104927 0.064574
O O5 0.570484 0.797535 0.786358
O O6 0.981848 0.890893 0.845721
O O7 0.488636 0.858140 0.202874
O O8 0.567406 0.918282 0.068667
O O9 0.120991 0.220186 0.921506
O O10 0.014870 0.428051 0.970973
O O11 0.971004 0.388873 0.842393
O O12 0.940919 0.931030 0.973811
O O13 0.172817 0.278186 0.425424
O O14 0.391848 0.301145 0.783621
#
# Coordination Sequence:
#
# PCOD9345443 Si02
#       7
#     4   4   4   4   4   4   4
#     4  10  23  39  58  95 123 163 214 248 326 379
#     4  10  21  41  63  91 123 165 213 268 314 377
#     4  10  23  39  58  95 123 163 214 248 326 379
#     4  10  24  42  65  95 129 169 218 262 321 381
#     4  10  26  42  66  96 132 176 206 270 324 384
#     4  10  24  42  65  95 129 169 218 262 321 381
#     4  10  21  41  63  91 123 165 213 268 314 377
#
# _framework density 25.249576000000001
#
# number of rings (size 3 to 8) (size 9 to 14) (size 15 to 20)
#    0.857    1.143    0.000    1.714    6.000    2.286 
#    0.000    0.000    0.000    0.000    0.000    0.000 
#    0.000    0.000    0.000    0.000    0.000    0.000 
#
# Total GULP energy -155990.557115 kJ/mol
# GULP energy per Si atom -5571.091326 kJ/mol
# Density = 2.519211 g / cm^3
# Si number density = 25.249576 Si / 1000 Ang^3
#
#
#
# Elastic Constant Matrix: (Units=GPa)
#
#
# Indices 1 2 3 4 5 6 
#
# 1 75.0622 2.3207 33.7389 0.0000 0.0000 0.0000
# 2 2.3207 20.1271 44.8814 0.0000 0.0000 0.0000
# 3 33.7389 44.8814 208.8654 0.0000 0.0000 0.0000
# 4 0.0000 0.0000 0.0000 36.3030 0.0000 0.0000
# 5 0.0000 0.0000 0.0000 0.0000 39.5335 0.0000
# 6 0.0000 0.0000 0.0000 0.0000 0.0000 27.4900
#
#
#
# Elastic Compliance Matrix: (Units=1/GPa)
#
#
# Indices 1 2 3 4 5 6 
#
# 1 0.014860 0.006987 -0.003902 0.000000 0.000000 0.000000
# 2 0.006987 0.098679 -0.022333 0.000000 0.000000 0.000000
# 3 -0.003902 -0.022333 0.010217 0.000000 0.000000 0.000000
# 4 0.000000 0.000000 0.000000 0.027546 0.000000 0.000000
# 5 0.000000 0.000000 0.000000 0.000000 0.025295 0.000000
# 6 0.000000 0.000000 0.000000 0.000000 0.000000 0.036377
#
#
# Mechanical properties :
#
#
# Convention : Reuss Voigt Hill
#
# Bulk Modulus (GPa) = 11.72873 51.77074 31.74974
# Shear Modulus (GPa) = 17.86426 35.53957 26.70192
#
# Velocity S-wave (km/s) = 2.66279 3.75578 3.25548
# Velocity P-wave (km/s) = 3.75621 6.27343 5.17035
#
# Compressibility (1/GPa) = 0.08526069
#
# Stress axis : x y z
#
# Youngs Moduli (GPa) = 67.29448 10.13392 97.87612
#
# Poissons Ratio (x) = -0.07081 0.38190
# Poissons Ratio (y) = -0.47021 2.18586
# Poissons Ratio (z) = 0.26257 0.22632
#
# Static dielectric constant tensor:
#      x y z
#    x 1.939620 0.000000 0.000000 
#    y 0.000000 2.056530 0.000000 
#    z 0.000000 0.000000 2.107090 
# 
# From -- ./inp_files/8350.got.cif
#   From: 2010.05.17/outbox.cif.g08.bks.cpg/sg33_5_cif.got.tgz:8350.got - 2010.06.03 17:15:25.
