data_PCOD9345392
_publ_section_title
;
Structure prediction by ZEFSAII (Michael W. Deem and Ramdas Pophale) SiO2 
 PCOD9345392
Probable space group: P N A 21
;
_chemical_formula_sum "Si O2"
_cell_formula_units_Z 16
_cell_length_a 17.407310
_cell_length_b 6.429839
_cell_length_c 4.745521
_cell_angle_alpha 90.000000
_cell_angle_beta 90.000000
_cell_angle_gamma 90.000000
_cell_volume 531.148136
_symmetry_space_group_name_H-M "P N A 21"
_symmetry_group_IT_number 33
_symmetry_cell_setting 'orthorhombic'
loop_
_space_group_symop_operation_xyz
x,y,z
-x,-y,1/2+z
1/2-x,1/2+y,1/2+z
1/2+x,1/2-y,z
loop_
_atom_site_type_symbol
_atom_site_label
_atom_site_fract_x
_atom_site_fract_y
_atom_site_fract_z
Si Si1 0.845547 0.476447 0.039310
Si Si2 0.746146 0.588426 0.496878
Si Si3 0.094768 0.024284 0.251017
Si Si4 0.973031 0.731061 0.245543
O O1 0.806791 0.645522 0.251752
O O2 0.935568 0.526432 0.102521
O O3 0.801564 0.502511 0.741891
O O4 0.814397 0.251173 0.133571
O O5 0.685198 0.466009 0.293607
O O6 0.062968 0.789756 0.200734
O O7 0.061143 0.085050 0.551593
O O8 0.060675 0.200893 0.046502
#
# Coordination Sequence:
#
# PCOD9345392 Si02
#       4
#     4   4   4   4
#     4  12  24  40  63  91 125 163 207 256 307 366
#     4  12  24  40  63  91 125 163 207 256 307 366
#     4  10  21  40  64  89 122 163 205 252 309 370
#     4  10  21  40  64  89 122 163 205 252 309 370
#
# _framework density 30.123421
#
# number of rings (size 3 to 8) (size 9 to 14) (size 15 to 20)
#    0.000    1.000    0.000    9.000    0.000    0.000 
#    0.000   12.500    0.000    0.000    0.000    0.000 
#    0.000    0.000    0.000    0.000    0.000    0.000 
#
# Total GULP energy -89343.616004 kJ/mol
# GULP energy per Si atom -5583.976000 kJ/mol
# Density = 3.005486 g / cm^3
# Si number density = 30.123421 Si / 1000 Ang^3
#
#
#
# Elastic Constant Matrix: (Units=GPa)
#
#
# Indices 1 2 3 4 5 6 
#
# 1 160.4690 25.9277 48.6264 0.0000 0.0000 0.0000
# 2 25.9277 97.0467 10.2070 0.0000 0.0000 0.0000
# 3 48.6264 10.2070 149.7598 0.0000 0.0000 0.0000
# 4 0.0000 0.0000 0.0000 37.8307 0.0000 0.0000
# 5 0.0000 0.0000 0.0000 0.0000 21.9140 0.0000
# 6 0.0000 0.0000 0.0000 0.0000 0.0000 66.5529
#
#
#
# Elastic Compliance Matrix: (Units=1/GPa)
#
#
# Indices 1 2 3 4 5 6 
#
# 1 0.007175 -0.001684 -0.002215 0.000000 0.000000 0.000000
# 2 -0.001684 0.010774 -0.000188 0.000000 0.000000 0.000000
# 3 -0.002215 -0.000188 0.007409 0.000000 0.000000 0.000000
# 4 0.000000 0.000000 0.000000 0.026434 0.000000 0.000000
# 5 0.000000 0.000000 0.000000 0.000000 0.045633 0.000000
# 6 0.000000 0.000000 0.000000 0.000000 0.000000 0.015026
#
#
# Mechanical properties :
#
#
# Convention : Reuss Voigt Hill
#
# Bulk Modulus (GPa) = 58.18886 64.08863 61.13875
# Shear Modulus (GPa) = 39.57210 46.76050 43.16630
#
# Velocity S-wave (km/s) = 3.62838 3.94419 3.78958
# Velocity P-wave (km/s) = 6.07555 6.48566 6.28395
#
# Compressibility (1/GPa) = 0.01718542
#
# Stress axis : x y z
#
# Youngs Moduli (GPa) = 139.37283 92.81655 134.96525
#
# Poissons Ratio (x) = 0.15630 0.29894
# Poissons Ratio (y) = 0.23470 0.02531
# Poissons Ratio (z) = 0.30870 0.01741
#
# Static dielectric constant tensor:
#      x y z
#    x 2.542580 0.000000 0.000000 
#    y 0.000000 2.554070 0.000000 
#    z 0.000000 0.000000 2.246120 
# 
# From -- ./inp_files/80.got.cif
#   From: 2010.05.17/outbox.cif.g08.bks.cpg/sg33_1_cif.got.tgz:80.got - 2010.06.03 17:15:25.
