data_PCOD9345464
_publ_section_title
;
Structure prediction by ZEFSAII (Michael W. Deem and Ramdas Pophale) SiO2 
 PCOD9345464
Probable space group: P N A 21
;
_chemical_formula_sum "Si O2"
_cell_formula_units_Z 16
_cell_length_a 10.561229
_cell_length_b 12.175692
_cell_length_c 4.789097
_cell_angle_alpha 90.000000
_cell_angle_beta 90.000000
_cell_angle_gamma 90.000000
_cell_volume 615.831283
_symmetry_space_group_name_H-M "P N A 21"
_symmetry_group_IT_number 33
_symmetry_cell_setting 'orthorhombic'
loop_
_space_group_symop_operation_xyz
x,y,z
-x,-y,1/2+z
1/2-x,1/2+y,1/2+z
1/2+x,1/2-y,z
loop_
_atom_site_type_symbol
_atom_site_label
_atom_site_fract_x
_atom_site_fract_y
_atom_site_fract_z
Si Si1 0.998373 0.926542 0.139030
Si Si2 0.931764 0.453795 0.434856
Si Si3 0.400004 0.768696 0.801225
Si Si4 0.742225 0.137598 0.803464
O O1 0.107783 0.856699 0.293895
O O2 0.941534 0.995567 0.396212
O O3 0.913703 0.846261 0.953844
O O4 0.964993 0.333133 0.323522
O O5 0.973704 0.467640 0.753834
O O6 0.799538 0.514521 0.392451
O O7 0.334663 0.778793 0.501872
O O8 0.308074 0.840841 0.995163
#
# Coordination Sequence:
#
# PCOD9345464 Si02
#       4
#     4   4   4   4
#     4  12  26  43  64 100 142 179 232 297 355 419
#     4   8  16  33  61  92 119 157 220 277 321 394
#     4  10  21  41  66  95 131 182 237 279 343 429
#     4  10  21  41  67  95 132 178 229 291 351 406
#
# _framework density 25.981141999999998
#
# number of rings (size 3 to 8) (size 9 to 14) (size 15 to 20)
#    0.000    2.000    0.000    3.000    0.000    2.000 
#    0.000   22.500    0.000    0.000    0.000    0.000 
#    0.000    0.000    0.000    0.000    0.000    0.000 
#
# Total GULP energy -89432.381954 kJ/mol
# GULP energy per Si atom -5589.523872 kJ/mol
# Density = 2.592201 g / cm^3
# Si number density = 25.981142 Si / 1000 Ang^3
#
#
#
# Elastic Constant Matrix: (Units=GPa)
#
#
# Indices 1 2 3 4 5 6 
#
# 1 63.2589 31.5420 9.3390 0.0000 0.0000 0.0000
# 2 31.5420 85.9429 25.8346 0.0000 0.0000 0.0000
# 3 9.3390 25.8346 134.3290 0.0000 0.0000 0.0000
# 4 0.0000 0.0000 0.0000 48.9171 0.0000 0.0000
# 5 0.0000 0.0000 0.0000 0.0000 26.6695 0.0000
# 6 0.0000 0.0000 0.0000 0.0000 0.0000 27.4184
#
#
#
# Elastic Compliance Matrix: (Units=1/GPa)
#
#
# Indices 1 2 3 4 5 6 
#
# 1 0.019349 -0.007108 0.000022 0.000000 0.000000 0.000000
# 2 -0.007108 0.014961 -0.002383 0.000000 0.000000 0.000000
# 3 0.000022 -0.002383 0.007901 0.000000 0.000000 0.000000
# 4 0.000000 0.000000 0.000000 0.020443 0.000000 0.000000
# 5 0.000000 0.000000 0.000000 0.000000 0.037496 0.000000
# 6 0.000000 0.000000 0.000000 0.000000 0.000000 0.036472
#
#
# Mechanical properties :
#
#
# Convention : Reuss Voigt Hill
#
# Bulk Modulus (GPa) = 42.96916 46.32912 44.64914
# Shear Modulus (GPa) = 30.61526 35.05533 32.83530
#
# Velocity S-wave (km/s) = 3.43646 3.67721 3.55887
# Velocity P-wave (km/s) = 5.68508 5.99164 5.84037
#
# Compressibility (1/GPa) = 0.02327250
#
# Stress axis : x y z
#
# Youngs Moduli (GPa) = 51.68251 66.84207 126.56266
#
# Poissons Ratio (x) = 0.47510 -0.00276
# Poissons Ratio (y) = 0.36735 0.30161
# Poissons Ratio (z) = -0.00113 0.15929
#
# Static dielectric constant tensor:
#      x y z
#    x 2.070000 0.000000 0.000000 
#    y 0.000000 2.075120 0.000000 
#    z 0.000000 0.000000 1.938360 
# 
# From -- ./inp_files/705.got.cif
#   From: 2010.05.17/outbox.cif.g08.bks.cpg/sg33_1_cif.got.tgz:705.got - 2010.06.03 17:15:25.
