data_PCOD9345492
_publ_section_title
;
Structure prediction by ZEFSAII (Michael W. Deem and Ramdas Pophale) SiO2 
 PCOD9345492
Probable space group: P N A 21
;
_chemical_formula_sum "Si O2"
_cell_formula_units_Z 32
_cell_length_a 18.885235
_cell_length_b 7.443450
_cell_length_c 10.003171
_cell_angle_alpha 90.000000
_cell_angle_beta 90.000000
_cell_angle_gamma 90.000000
_cell_volume 1406.158776
_symmetry_space_group_name_H-M "P N A 21"
_symmetry_group_IT_number 33
_symmetry_cell_setting 'orthorhombic'
loop_
_space_group_symop_operation_xyz
x,y,z
-x,-y,1/2+z
1/2-x,1/2+y,1/2+z
1/2+x,1/2-y,z
loop_
_atom_site_type_symbol
_atom_site_label
_atom_site_fract_x
_atom_site_fract_y
_atom_site_fract_z
Si Si1 0.176861 0.621686 0.557280
Si Si2 0.353726 0.132314 0.592243
Si Si3 0.897460 0.726179 0.024775
Si Si4 0.489475 0.136965 0.752534
Si Si5 0.315624 0.506015 0.686473
Si Si6 0.537096 0.457975 0.287861
Si Si7 0.580795 0.810457 0.812428
Si Si8 0.214269 0.006563 0.487721
O O1 0.135396 0.464618 0.480083
O O2 0.258975 0.572063 0.579473
O O3 0.138158 0.635231 0.701322
O O4 0.175571 0.816799 0.494265
O O5 0.419614 0.063634 0.678044
O O6 0.317642 0.291012 0.675806
O O7 0.383725 0.221633 0.455595
O O8 0.293041 0.996281 0.546433
O O9 0.934962 0.847426 0.914482
O O10 0.830546 0.846238 0.069140
O O11 0.953834 0.688556 0.138707
O O12 0.472602 0.330326 0.817596
O O13 0.527093 0.978888 0.833802
O O14 0.398817 0.559103 0.680582
O O15 0.287612 0.564478 0.832679
O O16 0.463915 0.357856 0.255893
#
# Coordination Sequence:
#
# PCOD9345492 Si02
#       8
#     4   4   4   4   4   4   4   4
#     4  11  23  42  68  98 130 179 222 271 334 395
#     4  11  22  45  66  96 139 170 222 288 324 399
#     4  10  21  42  63  92 134 166 217 274 319 404
#     4  10  23  42  64  97 133 169 219 280 331 395
#     4  10  23  44  63  98 136 168 228 275 328 403
#     4  10  22  41  67  92 130 174 211 271 338 392
#     4  11  23  44  68  97 133 175 226 276 337 401
#     4  11  23  42  67  92 133 179 221 273 339 395
#
# _framework density 22.75703
#
# number of rings (size 3 to 8) (size 9 to 14) (size 15 to 20)
#    0.000    1.500    3.750    0.750    1.750    3.000 
#    9.000    0.000    0.000    0.000    0.000    0.000 
#    0.000    0.000    0.000    0.000    0.000    0.000 
#
# Total GULP energy -178767.205095 kJ/mol
# GULP energy per Si atom -5586.475159 kJ/mol
# Density = 2.270523 g / cm^3
# Si number density = 22.757030 Si / 1000 Ang^3
#
#
#
# Elastic Constant Matrix: (Units=GPa)
#
#
# Indices 1 2 3 4 5 6 
#
# 1 101.1925 36.1119 14.7599 0.0000 0.0000 0.0000
# 2 36.1119 105.1823 1.9895 0.0000 0.0000 0.0000
# 3 14.7599 1.9895 40.8445 0.0000 0.0000 0.0000
# 4 0.0000 0.0000 0.0000 27.8782 0.0000 0.0000
# 5 0.0000 0.0000 0.0000 0.0000 22.0053 0.0000
# 6 0.0000 0.0000 0.0000 0.0000 0.0000 38.6767
#
#
#
# Elastic Compliance Matrix: (Units=1/GPa)
#
#
# Indices 1 2 3 4 5 6 
#
# 1 0.011914 -0.004012 -0.004110 0.000000 0.000000 0.000000
# 2 -0.004012 0.010867 0.000921 0.000000 0.000000 0.000000
# 3 -0.004110 0.000921 0.025923 0.000000 0.000000 0.000000
# 4 0.000000 0.000000 0.000000 0.035870 0.000000 0.000000
# 5 0.000000 0.000000 0.000000 0.000000 0.045444 0.000000
# 6 0.000000 0.000000 0.000000 0.000000 0.000000 0.025855
#
#
# Mechanical properties :
#
#
# Convention : Reuss Voigt Hill
#
# Bulk Modulus (GPa) = 29.15347 39.21577 34.18462
# Shear Modulus (GPa) = 27.51629 30.66924 29.09277
#
# Velocity S-wave (km/s) = 3.48103 3.67506 3.57936
# Velocity P-wave (km/s) = 5.38473 5.93952 5.66892
#
# Compressibility (1/GPa) = 0.03430124
#
# Stress axis : x y z
#
# Youngs Moduli (GPa) = 83.93835 92.01767 38.57520
#
# Poissons Ratio (x) = 0.36922 0.15853
# Poissons Ratio (y) = 0.33680 -0.03551
# Poissons Ratio (z) = 0.34496 -0.08472
#
# Static dielectric constant tensor:
#      x y z
#    x 1.916210 0.000000 0.000000 
#    y 0.000000 1.841280 0.000000 
#    z 0.000000 0.000000 1.816100 
# 
# From -- ./inp_files/7200.got.cif
#   From: 2010.05.17/outbox.cif.g08.bks.cpg/sg33_4_cif.got.tgz:7200.got - 2010.06.03 17:15:25.
