data_PCOD9345091
_publ_section_title
;
Structure prediction by ZEFSAII (Michael W. Deem and Ramdas Pophale) SiO2 
 PCOD9345091
Probable space group: P N A 21
;
_chemical_formula_sum "Si O2"
_cell_formula_units_Z 32
_cell_length_a 9.856684
_cell_length_b 9.136461
_cell_length_c 18.667673
_cell_angle_alpha 90.000000
_cell_angle_beta 90.000000
_cell_angle_gamma 90.000000
_cell_volume 1681.121193
_symmetry_space_group_name_H-M "P N A 21"
_symmetry_group_IT_number 33
_symmetry_cell_setting 'orthorhombic'
loop_
_space_group_symop_operation_xyz
x,y,z
-x,-y,1/2+z
1/2-x,1/2+y,1/2+z
1/2+x,1/2-y,z
loop_
_atom_site_type_symbol
_atom_site_label
_atom_site_fract_x
_atom_site_fract_y
_atom_site_fract_z
Si Si1 0.967469 0.604071 0.111440
Si Si2 0.356316 0.088466 0.982747
Si Si3 0.092550 0.401206 0.876438
Si Si4 0.157219 0.928145 0.480783
Si Si5 0.459116 0.108476 0.246354
Si Si6 0.104996 0.061963 0.890220
Si Si7 0.715806 0.386475 0.620316
Si Si8 0.278493 0.393122 0.254877
O O1 0.873385 0.741885 0.128758
O O2 0.957586 0.486274 0.174563
O O3 0.125470 0.648079 0.106409
O O4 0.914755 0.522573 0.040425
O O5 0.445119 0.078292 0.910880
O O6 0.366299 0.259198 0.004635
O O7 0.203898 0.056124 0.958870
O O8 0.201244 0.435158 0.938219
O O9 0.108650 0.228697 0.860328
O O10 0.101916 0.506969 0.809218
O O11 0.042868 0.968656 0.422492
O O12 0.161619 0.027646 0.550576
O O13 0.367308 0.250956 0.237442
O O14 0.617958 0.141739 0.262629
O O15 0.159448 0.958347 0.828054
O O16 0.708272 0.489013 0.690591
#
# Coordination Sequence:
#
# PCOD9345091 Si02
#       8
#     4   4   4   4   4   4   4   4
#     4  11  25  43  64  90 125 164 206 259 309 366
#     4  10  20  41  64  91 127 162 202 249 307 361
#     4  10  20  41  64  91 127 162 202 249 307 361
#     4  10  22  39  66  95 124 166 205 249 304 369
#     4  11  25  43  64  90 125 164 206 259 309 366
#     4  10  22  39  66  95 124 166 205 249 304 369
#     4  11  25  44  63  91 125 162 209 255 309 368
#     4  11  25  44  63  91 125 162 209 255 309 368
#
# _framework density 19.034915999999999
#
# number of rings (size 3 to 8) (size 9 to 14) (size 15 to 20)
#    0.000    1.500    2.500    1.500    3.500    3.000 
#    0.000    0.000    0.000    0.000    0.000    0.000 
#    0.000    0.000    0.000    0.000    0.000    0.000 
#
# Total GULP energy -178753.635200 kJ/mol
# GULP energy per Si atom -5586.051100 kJ/mol
# Density = 1.899159 g / cm^3
# Si number density = 19.034916 Si / 1000 Ang^3
#
#
#
# Elastic Constant Matrix: (Units=GPa)
#
#
# Indices 1 2 3 4 5 6 
#
# 1 90.7924 56.6264 18.8262 0.0000 0.0000 0.0000
# 2 56.6264 86.0121 31.6340 0.0000 0.0000 0.0000
# 3 18.8262 31.6340 45.6710 0.0000 0.0000 0.0000
# 4 0.0000 0.0000 0.0000 32.4668 0.0000 0.0000
# 5 0.0000 0.0000 0.0000 0.0000 20.7887 0.0000
# 6 0.0000 0.0000 0.0000 0.0000 0.0000 34.7580
#
#
#
# Elastic Compliance Matrix: (Units=1/GPa)
#
#
# Indices 1 2 3 4 5 6 
#
# 1 0.018728 -0.012735 0.001101 0.000000 0.000000 0.000000
# 2 -0.012735 0.024260 -0.011554 0.000000 0.000000 0.000000
# 3 0.001101 -0.011554 0.029445 0.000000 0.000000 0.000000
# 4 0.000000 0.000000 0.000000 0.030801 0.000000 0.000000
# 5 0.000000 0.000000 0.000000 0.000000 0.048103 0.000000
# 6 0.000000 0.000000 0.000000 0.000000 0.000000 0.028770
#
#
# Mechanical properties :
#
#
# Convention : Reuss Voigt Hill
#
# Bulk Modulus (GPa) = 38.37782 48.51653 43.44717
# Shear Modulus (GPa) = 21.26131 25.29530 23.27831
#
# Velocity S-wave (km/s) = 3.34573 3.64935 3.50083
# Velocity P-wave (km/s) = 5.92712 6.58031 6.26224
#
# Compressibility (1/GPa) = 0.02605672
#
# Stress axis : x y z
#
# Youngs Moduli (GPa) = 53.39465 41.22075 33.96174
#
# Poissons Ratio (x) = 0.52494 -0.03738
# Poissons Ratio (y) = 0.67997 0.39239
# Poissons Ratio (z) = -0.05877 0.47626
#
# Static dielectric constant tensor:
#      x y z
#    x 1.646290 0.000000 0.000000 
#    y 0.000000 1.644650 0.000000 
#    z 0.000000 0.000000 1.643290 
# 
# From -- ./inp_files/8495.got.cif
#   From: 2010.05.17/outbox.cif.g08.bks.cpg/sg33_5_cif.got.tgz:8495.got - 2010.06.03 17:15:25.
