data_PCOD9345095
_publ_section_title
;
Structure prediction by ZEFSAII (Michael W. Deem and Ramdas Pophale) SiO2 
 PCOD9345095
Probable space group: P N A 21
;
_chemical_formula_sum "Si O2"
_cell_formula_units_Z 32
_cell_length_a 15.234948
_cell_length_b 11.930857
_cell_length_c 8.467083
_cell_angle_alpha 90.000000
_cell_angle_beta 90.000000
_cell_angle_gamma 90.000000
_cell_volume 1539.027690
_symmetry_space_group_name_H-M "P N A 21"
_symmetry_group_IT_number 33
_symmetry_cell_setting 'orthorhombic'
loop_
_space_group_symop_operation_xyz
x,y,z
-x,-y,1/2+z
1/2-x,1/2+y,1/2+z
1/2+x,1/2-y,z
loop_
_atom_site_type_symbol
_atom_site_label
_atom_site_fract_x
_atom_site_fract_y
_atom_site_fract_z
Si Si1 0.584504 0.340811 0.260290
Si Si2 0.574415 0.741949 0.963305
Si Si3 0.254307 0.276224 0.262190
Si Si4 0.826967 0.073335 0.681638
Si Si5 0.499435 0.040230 0.368920
Si Si6 0.500657 0.829192 0.537037
Si Si7 0.808040 0.258236 0.918501
Si Si8 0.792052 0.501581 0.885863
O O1 0.499354 0.327772 0.369298
O O2 0.666559 0.274831 0.336584
O O3 0.616464 0.465851 0.230213
O O4 0.559156 0.271196 0.102160
O O5 0.659517 0.759982 0.854048
O O6 0.535279 0.865164 0.990389
O O7 0.609449 0.667046 0.104697
O O8 0.259179 0.237194 0.084456
O O9 0.249497 0.409922 0.266760
O O10 0.755250 0.031900 0.552717
O O11 0.788859 0.143848 0.827565
O O12 0.482216 0.093916 0.195494
O O13 0.603957 0.024924 0.390387
O O14 0.461773 0.918055 0.411799
O O15 0.589258 0.775158 0.466229
O O16 0.780535 0.373437 0.833758
#
# Coordination Sequence:
#
# PCOD9345095 Si02
#       8
#     4   4   4   4   4   4   4   4
#     4  11  22  44  63  96 133 180 217 269 336 400
#     4  10  23  41  67  95 132 179 222 271 337 399
#     4  11  20  44  68  89 137 176 213 283 328 390
#     4  11  26  41  67  97 137 175 223 276 335 409
#     4  10  20  41  65  93 131 168 224 276 322 386
#     4  10  22  40  67  94 131 171 219 275 326 393
#     4  11  23  45  64  98 136 168 225 281 332 397
#     4  10  22  44  63  96 131 171 229 273 326 402
#
# _framework density 20.792349000000002
#
# number of rings (size 3 to 8) (size 9 to 14) (size 15 to 20)
#    0.000    1.500    6.250    0.000    5.250    0.000 
#   11.250    2.500    0.000    0.000    0.000    0.000 
#    0.000    0.000    0.000    0.000    0.000    0.000 
#
# Total GULP energy -178507.254355 kJ/mol
# GULP energy per Si atom -5578.351699 kJ/mol
# Density = 2.074503 g / cm^3
# Si number density = 20.792349 Si / 1000 Ang^3
#
#
#
# Elastic Constant Matrix: (Units=GPa)
#
#
# Indices 1 2 3 4 5 6 
#
# 1 60.2214 -15.7139 -3.8344 0.0000 0.0000 0.0000
# 2 -15.7139 87.4353 2.4210 0.0000 0.0000 0.0000
# 3 -3.8344 2.4210 20.6569 0.0000 0.0000 0.0000
# 4 0.0000 0.0000 0.0000 37.8801 0.0000 0.0000
# 5 0.0000 0.0000 0.0000 0.0000 -2.9210 0.0000
# 6 0.0000 0.0000 0.0000 0.0000 0.0000 28.6816
#
#
#
# Elastic Compliance Matrix: (Units=1/GPa)
#
#
# Indices 1 2 3 4 5 6 
#
# 1 0.017594 0.003082 0.002905 0.000000 0.000000 0.000000
# 2 0.003082 0.012014 -0.000836 0.000000 0.000000 0.000000
# 3 0.002905 -0.000836 0.049047 0.000000 0.000000 0.000000
# 4 0.000000 0.000000 0.000000 0.026399 0.000000 0.000000
# 5 0.000000 0.000000 0.000000 0.000000 -0.342347 0.000000
# 6 0.000000 0.000000 0.000000 0.000000 0.000000 0.034866
#
#
# Mechanical properties :
#
#
# Convention : Reuss Voigt Hill
#
# Bulk Modulus (GPa) = 11.24147 14.89545 13.06846
# Shear Modulus (GPa) = -27.31110 25.09086 -1.11012
#
# Velocity S-wave (km/s) = -3.62818 3.47758 -0.73148
# Velocity P-wave (km/s) = 3.48329 4.82744 2.36335
#
# Compressibility (1/GPa) = 0.08895635
#
# Stress axis : x y z
#
# Youngs Moduli (GPa) = 56.83613 83.23614 20.38854
#
# Poissons Ratio (x) = -0.25650 -0.05922
# Poissons Ratio (y) = -0.17515 0.01705
# Poissons Ratio (z) = -0.16509 0.06959
#
# Static dielectric constant tensor:
#      x y z
#    x 1.754550 0.000000 0.000000 
#    y 0.000000 1.767850 0.000000 
#    z 0.000000 0.000000 1.776010 
# 
# From -- ./inp_files/4450.got.cif
#   From: 2010.05.17/outbox.cif.g08.bks.cpg/sg33_3_cif.got.tgz:4450.got - 2010.06.03 17:15:25.
