data_PCOD9345550
_publ_section_title
;
Structure prediction by ZEFSAII (Michael W. Deem and Ramdas Pophale) SiO2 
 PCOD9345550
Probable space group: P N A 21
;
_chemical_formula_sum "Si O2"
_cell_formula_units_Z 28
_cell_length_a 10.553701
_cell_length_b 8.883829
_cell_length_c 10.694389
_cell_angle_alpha 90.000000
_cell_angle_beta 90.000000
_cell_angle_gamma 90.000000
_cell_volume 1002.676770
_symmetry_space_group_name_H-M "P N A 21"
_symmetry_group_IT_number 33
_symmetry_cell_setting 'orthorhombic'
loop_
_space_group_symop_operation_xyz
x,y,z
-x,-y,1/2+z
1/2-x,1/2+y,1/2+z
1/2+x,1/2-y,z
loop_
_atom_site_type_symbol
_atom_site_label
_atom_site_fract_x
_atom_site_fract_y
_atom_site_fract_z
Si Si1 0.525866 0.622207 0.794870
Si Si2 0.208918 0.932110 0.015764
Si Si3 0.309484 0.118796 0.807359
Si Si4 0.111856 0.080657 0.591275
Si Si5 0.735730 0.319056 0.206837
Si Si6 0.797625 0.616001 0.465855
Si Si7 0.556091 0.854206 0.077766
O O1 0.583046 0.541515 0.920186
O O2 0.508900 0.510694 0.674517
O O3 0.385443 0.692535 0.797211
O O4 0.633792 0.748318 0.760474
O O5 0.310252 0.001034 0.919420
O O6 0.172216 0.761738 0.047139
O O7 0.249097 0.016352 0.144374
O O8 0.219592 0.062469 0.697273
O O9 0.438524 0.125953 0.728676
O O10 0.240363 0.269833 0.855986
O O11 0.064381 0.246943 0.560785
O O12 0.171677 0.984034 0.481027
O O13 0.695749 0.224664 0.085053
O O14 0.912787 0.498691 0.491749
#
# Coordination Sequence:
#
# PCOD9345550 Si02
#       7
#     4   4   4   4   4   4   4
#     4  10  21  43  71 100 140 181 235 287 349 415
#     4  10  22  43  68  98 134 193 226 279 359 420
#     4   9  21  42  64  91 129 176 222 280 343 407
#     4   9  19  40  66  90 129 174 218 281 338 415
#     4  10  21  46  70 102 139 184 237 293 341 427
#     4   9  21  41  63  92 135 170 223 285 349 401
#     4  11  21  41  64  97 132 172 233 279 339 425
#
# _framework density 27.925248
#
# number of rings (size 3 to 8) (size 9 to 14) (size 15 to 20)
#    0.000    2.286    1.429    0.857    0.000    3.429 
#   23.143    0.000    0.000    0.000    0.000    0.000 
#    0.000    0.000    0.000    0.000    0.000    0.000 
#
# Total GULP energy -156107.039756 kJ/mol
# GULP energy per Si atom -5575.251420 kJ/mol
# Density = 2.786169 g / cm^3
# Si number density = 27.925248 Si / 1000 Ang^3
#
#
#
# Elastic Constant Matrix: (Units=GPa)
#
#
# Indices 1 2 3 4 5 6 
#
# 1 54.2445 -6.1442 29.9444 0.0000 0.0000 0.0000
# 2 -6.1442 111.0152 29.5969 0.0000 0.0000 0.0000
# 3 29.9444 29.5969 104.9730 0.0000 0.0000 0.0000
# 4 0.0000 0.0000 0.0000 83.0090 0.0000 0.0000
# 5 0.0000 0.0000 0.0000 0.0000 26.2447 0.0000
# 6 0.0000 0.0000 0.0000 0.0000 0.0000 39.5712
#
#
#
# Elastic Compliance Matrix: (Units=1/GPa)
#
#
# Indices 1 2 3 4 5 6 
#
# 1 0.022920 0.003256 -0.007456 0.000000 0.000000 0.000000
# 2 0.003256 0.010203 -0.003805 0.000000 0.000000 0.000000
# 3 -0.007456 -0.003805 0.012726 0.000000 0.000000 0.000000
# 4 0.000000 0.000000 0.000000 0.012047 0.000000 0.000000
# 5 0.000000 0.000000 0.000000 0.000000 0.038103 0.000000
# 6 0.000000 0.000000 0.000000 0.000000 0.000000 0.025271
#
#
# Mechanical properties :
#
#
# Convention : Reuss Voigt Hill
#
# Bulk Modulus (GPa) = 33.51437 41.89187 37.70312
# Shear Modulus (GPa) = 33.96138 44.22069 39.09103
#
# Velocity S-wave (km/s) = 3.49112 3.98369 3.74551
# Velocity P-wave (km/s) = 5.31771 6.01612 5.67767
#
# Compressibility (1/GPa) = 0.02983794
#
# Stress axis : x y z
#
# Youngs Moduli (GPa) = 43.63014 98.01468 78.57835
#
# Poissons Ratio (x) = -0.31917 0.58590
# Poissons Ratio (y) = -0.14208 0.29903
# Poissons Ratio (z) = 0.32532 0.37299
#
# Static dielectric constant tensor:
#      x y z
#    x 2.516240 0.000000 0.000000 
#    y 0.000000 2.275100 0.000000 
#    z 0.000000 0.000000 2.366890 
# 
# From -- ./inp_files/6348.got.cif
#   From: 2010.05.17/outbox.cif.g08.bks.cpg/sg33_4_cif.got.tgz:6348.got - 2010.06.03 17:15:25.
