data_PCOD9345553
_publ_section_title
;
Structure prediction by ZEFSAII (Michael W. Deem and Ramdas Pophale) SiO2 
 PCOD9345553
Probable space group: P N A 21
;
_chemical_formula_sum "Si O2"
_cell_formula_units_Z 28
_cell_length_a 16.492114
_cell_length_b 9.019090
_cell_length_c 9.299695
_cell_angle_alpha 90.000000
_cell_angle_beta 90.000000
_cell_angle_gamma 90.000000
_cell_volume 1383.272535
_symmetry_space_group_name_H-M "P N A 21"
_symmetry_group_IT_number 33
_symmetry_cell_setting 'orthorhombic'
loop_
_space_group_symop_operation_xyz
x,y,z
-x,-y,1/2+z
1/2-x,1/2+y,1/2+z
1/2+x,1/2-y,z
loop_
_atom_site_type_symbol
_atom_site_label
_atom_site_fract_x
_atom_site_fract_y
_atom_site_fract_z
Si Si1 0.162413 0.132221 0.917310
Si Si2 0.954662 0.030064 0.624505
Si Si3 0.723237 0.824908 0.672300
Si Si4 0.399316 0.954044 0.325376
Si Si5 0.646728 0.519424 0.627033
Si Si6 0.500018 0.846912 0.047144
Si Si7 0.131979 0.164769 0.364949
O O1 0.138380 0.302271 0.887754
O O2 0.182333 0.056379 0.767720
O O3 0.085258 0.050571 0.988128
O O4 0.234449 0.111382 0.030401
O O5 0.914475 0.953461 0.763127
O O6 0.050075 0.000975 0.631404
O O7 0.946710 0.206596 0.602546
O O8 0.667243 0.690296 0.625772
O O9 0.798487 0.764381 0.767297
O O10 0.671437 0.942663 0.761132
O O11 0.457257 0.915223 0.188597
O O12 0.448350 0.039581 0.450746
O O13 0.675204 0.430183 0.488552
O O14 0.430747 0.775808 0.942017
#
# Coordination Sequence:
#
# PCOD9345553 Si02
#       7
#     4   4   4   4   4   4   4
#     4  11  24  43  69  95 138 175 226 280 340 410
#     4  10  21  43  71  94 122 179 225 271 333 405
#     4  11  26  40  65  95 141 177 216 279 345 413
#     4  12  26  46  64 109 134 176 232 290 348 402
#     4  11  21  41  67  91 127 177 224 267 326 411
#     4  11  26  42  72  98 139 177 231 294 337 403
#     4  10  22  43  66  96 129 175 226 269 335 402
#
# _framework density 20.241852999999999
#
# number of rings (size 3 to 8) (size 9 to 14) (size 15 to 20)
#    0.000    1.143    2.857    4.286    8.000    0.000 
#    0.000    1.429    0.000    0.000    0.000    0.000 
#    0.000    0.000    0.000    0.000    0.000    0.000 
#
# Total GULP energy -156470.489744 kJ/mol
# GULP energy per Si atom -5588.231777 kJ/mol
# Density = 2.019578 g / cm^3
# Si number density = 20.241853 Si / 1000 Ang^3
#
#
#
# Elastic Constant Matrix: (Units=GPa)
#
#
# Indices 1 2 3 4 5 6 
#
# 1 35.7682 12.7574 11.4856 0.0000 0.0000 0.0000
# 2 12.7574 21.6117 -33.6349 0.0000 0.0000 0.0000
# 3 11.4856 -33.6349 57.3755 0.0000 0.0000 0.0000
# 4 0.0000 0.0000 0.0000 41.0247 0.0000 0.0000
# 5 0.0000 0.0000 0.0000 0.0000 -25.4776 0.0000
# 6 0.0000 0.0000 0.0000 0.0000 0.0000 30.9051
#
#
#
# Elastic Compliance Matrix: (Units=1/GPa)
#
#
# Indices 1 2 3 4 5 6 
#
# 1 -0.005985 0.061584 0.037300 0.000000 0.000000 0.000000
# 2 0.061584 -0.105752 -0.074322 0.000000 0.000000 0.000000
# 3 0.037300 -0.074322 -0.033607 0.000000 0.000000 0.000000
# 4 0.000000 0.000000 0.000000 0.024376 0.000000 0.000000
# 5 0.000000 0.000000 0.000000 0.000000 -0.039250 0.000000
# 6 0.000000 0.000000 0.000000 0.000000 0.000000 0.032357
#
#
# Mechanical properties :
#
#
# Convention : Reuss Voigt Hill
#
# Bulk Modulus (GPa) = -10.39287 10.66353 0.13533
# Shear Modulus (GPa) = -23.91661 17.56692 -3.17485
#
# Velocity S-wave (km/s) = -3.44109 2.94913 -1.25374
# Velocity P-wave (km/s) = 4.57532 4.10804 1.42436
#
# Compressibility (1/GPa) = -0.09621985
#
# Stress axis : x y z
#
# Youngs Moduli (GPa) = -167.08292 -9.45609 -29.75534
#
# Poissons Ratio (x) = 0.58235 1.10988
# Poissons Ratio (y) = 10.28970 -2.21149
# Poissons Ratio (z) = 6.23225 -0.70280
#
# Static dielectric constant tensor:
#      x y z
#    x 1.730850 0.000000 0.000000 
#    y 0.000000 1.698190 0.000000 
#    z 0.000000 0.000000 1.731200 
# 
# From -- ./inp_files/4736.got.cif
#   From: 2010.05.17/outbox.cif.g08.bks.cpg/sg33_3_cif.got.tgz:4736.got - 2010.06.03 17:15:25.
