data_PCOD9345066
_publ_section_title
;
Structure prediction by ZEFSAII (Michael W. Deem and Ramdas Pophale) SiO2 
 PCOD9345066
Probable space group: P N A 21
;
_chemical_formula_sum "Si O2"
_cell_formula_units_Z 20
_cell_length_a 13.103929
_cell_length_b 5.457866
_cell_length_c 10.030059
_cell_angle_alpha 90.000000
_cell_angle_beta 90.000000
_cell_angle_gamma 90.000000
_cell_volume 717.344690
_symmetry_space_group_name_H-M "P N A 21"
_symmetry_group_IT_number 33
_symmetry_cell_setting 'orthorhombic'
loop_
_space_group_symop_operation_xyz
x,y,z
-x,-y,1/2+z
1/2-x,1/2+y,1/2+z
1/2+x,1/2-y,z
loop_
_atom_site_type_symbol
_atom_site_label
_atom_site_fract_x
_atom_site_fract_y
_atom_site_fract_z
Si Si1 0.541180 0.039864 0.497000
Si Si2 0.619731 0.584635 0.884220
Si Si3 0.640665 0.243516 0.106820
Si Si4 0.424999 0.362567 0.806456
Si Si5 0.713206 0.373649 0.510565
O O1 0.473588 0.862359 0.587641
O O2 0.563276 0.921050 0.350327
O O3 0.462698 0.261344 0.471328
O O4 0.645521 0.142444 0.556986
O O5 0.540510 0.463167 0.781730
O O6 0.712627 0.773772 0.892312
O O7 0.663888 0.349108 0.959901
O O8 0.638071 0.485355 0.197200
O O9 0.721637 0.021891 0.120561
O O10 0.368783 0.451201 0.941733
#
# Coordination Sequence:
#
# PCOD9345066 Si02
#       5
#     4   4   4   4   4
#     4   9  20  39  66  94 141 180 226 300 343 424
#     4   9  20  39  61  90 135 173 226 285 348 417
#     4  10  21  40  69  99 135 189 233 290 361 427
#     4  10  21  40  65  94 138 180 235 285 357 426
#     4  10  20  40  65  95 141 176 230 294 349 424
#
# _framework density 27.880597000000002
#
# number of rings (size 3 to 8) (size 9 to 14) (size 15 to 20)
#    0.000    2.400    0.000    1.200    0.000    6.400 
#   14.400    0.000    8.800    0.000    0.000    0.000 
#    0.000    0.000    0.000    0.000    0.000    0.000 
#
# Total GULP energy -111450.307256 kJ/mol
# GULP energy per Si atom -5572.515363 kJ/mol
# Density = 2.781714 g / cm^3
# Si number density = 27.880597 Si / 1000 Ang^3
#
#
#
# Elastic Constant Matrix: (Units=GPa)
#
#
# Indices 1 2 3 4 5 6 
#
# 1 136.6050 58.5249 17.1600 0.0000 0.0000 0.0000
# 2 58.5249 130.8272 40.2979 0.0000 0.0000 0.0000
# 3 17.1600 40.2979 74.0960 0.0000 0.0000 0.0000
# 4 0.0000 0.0000 0.0000 31.5510 0.0000 0.0000
# 5 0.0000 0.0000 0.0000 0.0000 16.9930 0.0000
# 6 0.0000 0.0000 0.0000 0.0000 0.0000 59.1955
#
#
#
# Elastic Compliance Matrix: (Units=1/GPa)
#
#
# Indices 1 2 3 4 5 6 
#
# 1 0.009057 -0.004091 0.000127 0.000000 0.000000 0.000000
# 2 -0.004091 0.011030 -0.005051 0.000000 0.000000 0.000000
# 3 0.000127 -0.005051 0.016214 0.000000 0.000000 0.000000
# 4 0.000000 0.000000 0.000000 0.031695 0.000000 0.000000
# 5 0.000000 0.000000 0.000000 0.000000 0.058848 0.000000
# 6 0.000000 0.000000 0.000000 0.000000 0.000000 0.016893
#
#
# Mechanical properties :
#
#
# Convention : Reuss Voigt Hill
#
# Bulk Modulus (GPa) = 54.73187 63.72152 59.22670
# Shear Modulus (GPa) = 29.78757 36.58426 33.18592
#
# Velocity S-wave (km/s) = 3.27218 3.62633 3.45380
# Velocity P-wave (km/s) = 5.82663 6.35912 6.09869
#
# Compressibility (1/GPa) = 0.01827089
#
# Stress axis : x y z
#
# Youngs Moduli (GPa) = 110.41197 90.66565 61.67651
#
# Poissons Ratio (x) = 0.37090 -0.00785
# Poissons Ratio (y) = 0.45167 0.31154
# Poissons Ratio (z) = -0.01406 0.45796
#
# Static dielectric constant tensor:
#      x y z
#    x 2.147740 0.000000 0.000000 
#    y 0.000000 2.300040 0.000000 
#    z 0.000000 0.000000 2.256970 
# 
# From -- ./inp_files/6211.got.cif
#   From: 2010.05.17/outbox.cif.g08.bks.cpg/sg33_4_cif.got.tgz:6211.got - 2010.06.03 17:15:25.
