data_PCOD9345093
_publ_section_title
;
Structure prediction by ZEFSAII (Michael W. Deem and Ramdas Pophale) SiO2 
 PCOD9345093
Probable space group: P N A 21
;
_chemical_formula_sum "Si O2"
_cell_formula_units_Z 32
_cell_length_a 15.531923
_cell_length_b 7.891135
_cell_length_c 10.783272
_cell_angle_alpha 90.000000
_cell_angle_beta 90.000000
_cell_angle_gamma 90.000000
_cell_volume 1321.646354
_symmetry_space_group_name_H-M "P N A 21"
_symmetry_group_IT_number 33
_symmetry_cell_setting 'orthorhombic'
loop_
_space_group_symop_operation_xyz
x,y,z
-x,-y,1/2+z
1/2-x,1/2+y,1/2+z
1/2+x,1/2-y,z
loop_
_atom_site_type_symbol
_atom_site_label
_atom_site_fract_x
_atom_site_fract_y
_atom_site_fract_z
Si Si1 0.212642 0.102945 0.607890
Si Si2 0.920189 0.702251 0.545550
Si Si3 0.197655 0.464618 0.618331
Si Si4 0.476590 0.382569 0.364717
Si Si5 0.595682 0.708027 0.600487
Si Si6 0.125326 0.995657 0.230634
Si Si7 0.310320 0.606032 0.395280
Si Si8 0.093169 0.671767 0.071372
O O1 0.158730 0.277965 0.598890
O O2 0.224096 0.084629 0.756988
O O3 0.303640 0.154536 0.547249
O O4 0.168570 0.928551 0.566279
O O5 0.883184 0.837446 0.644012
O O6 0.849155 0.711565 0.436115
O O7 0.928452 0.519205 0.608745
O O8 0.017318 0.753197 0.507737
O O9 0.133886 0.615194 0.645811
O O10 0.272965 0.457820 0.722748
O O11 0.242226 0.529681 0.490819
O O12 0.451006 0.365447 0.221385
O O13 0.573164 0.453457 0.353567
O O14 0.398818 0.500141 0.411709
O O15 0.462667 0.220146 0.450797
O O16 0.083613 0.826244 0.168932
#
# Coordination Sequence:
#
# PCOD9345093 Si02
#       8
#     4   4   4   4   4   4   4   4
#     4  10  21  39  69  92 128 184 224 279 344 402
#     4  10  21  39  63  92 132 174 217 281 334 397
#     4  10  20  42  61  93 130 168 223 286 329 407
#     4  10  20  41  65  91 127 175 214 273 343 395
#     4  10  23  39  61  97 132 170 225 272 335 410
#     4   9  20  41  64  90 129 166 216 278 334 389
#     4  10  20  41  65  89 134 170 220 285 338 393
#     4  11  21  42  68  94 130 179 223 276 339 413
#
# _framework density 24.212225
#
# number of rings (size 3 to 8) (size 9 to 14) (size 15 to 20)
#    0.000    2.000    3.750    1.500    1.750    3.000 
#    6.750    2.500    2.750    0.000    0.000    0.000 
#    0.000    0.000    0.000    0.000    0.000    0.000 
#
# Total GULP energy -178422.375470 kJ/mol
# GULP energy per Si atom -5575.699233 kJ/mol
# Density = 2.415712 g / cm^3
# Si number density = 24.212225 Si / 1000 Ang^3
#
#
#
# Elastic Constant Matrix: (Units=GPa)
#
#
# Indices 1 2 3 4 5 6 
#
# 1 53.0123 10.7228 3.8550 0.0000 0.0000 0.0000
# 2 10.7228 145.2221 -13.7024 0.0000 0.0000 0.0000
# 3 3.8550 -13.7024 38.1704 0.0000 0.0000 0.0000
# 4 0.0000 0.0000 0.0000 18.4276 0.0000 0.0000
# 5 0.0000 0.0000 0.0000 0.0000 32.8199 0.0000
# 6 0.0000 0.0000 0.0000 0.0000 0.0000 19.6736
#
#
#
# Elastic Compliance Matrix: (Units=1/GPa)
#
#
# Indices 1 2 3 4 5 6 
#
# 1 0.019388 -0.001673 -0.002559 0.000000 0.000000 0.000000
# 2 -0.001673 0.007272 0.002779 0.000000 0.000000 0.000000
# 3 -0.002559 0.002779 0.027454 0.000000 0.000000 0.000000
# 4 0.000000 0.000000 0.000000 0.054267 0.000000 0.000000
# 5 0.000000 0.000000 0.000000 0.000000 0.030469 0.000000
# 6 0.000000 0.000000 0.000000 0.000000 0.000000 0.050830
#
#
# Mechanical properties :
#
#
# Convention : Reuss Voigt Hill
#
# Bulk Modulus (GPa) = 19.52753 26.46174 22.99463
# Shear Modulus (GPa) = 23.84882 29.88617 26.86750
#
# Velocity S-wave (km/s) = 3.14186 3.51713 3.33478
# Velocity P-wave (km/s) = 4.60916 5.23893 4.93411
#
# Compressibility (1/GPa) = 0.05120976
#
# Stress axis : x y z
#
# Youngs Moduli (GPa) = 51.57833 137.51790 36.42393
#
# Poissons Ratio (x) = 0.23006 0.09320
# Poissons Ratio (y) = 0.08629 -0.10124
# Poissons Ratio (z) = 0.13197 -0.38221
#
# Static dielectric constant tensor:
#      x y z
#    x 1.999190 0.000000 0.000000 
#    y 0.000000 2.001240 0.000000 
#    z 0.000000 0.000000 2.013100 
# 
# From -- ./inp_files/6797.got.cif
#   From: 2010.05.17/outbox.cif.g08.bks.cpg/sg33_4_cif.got.tgz:6797.got - 2010.06.03 17:15:25.
