data_PCOD9345614
_publ_section_title
;
Structure prediction by ZEFSAII (Michael W. Deem and Ramdas Pophale) SiO2 
 PCOD9345614
Probable space group: P N A 21
;
_chemical_formula_sum "Si O2"
_cell_formula_units_Z 20
_cell_length_a 23.565205
_cell_length_b 7.111884
_cell_length_c 5.323423
_cell_angle_alpha 90.000000
_cell_angle_beta 90.000000
_cell_angle_gamma 90.000000
_cell_volume 892.168454
_symmetry_space_group_name_H-M "P N A 21"
_symmetry_group_IT_number 33
_symmetry_cell_setting 'orthorhombic'
loop_
_space_group_symop_operation_xyz
x,y,z
-x,-y,1/2+z
1/2-x,1/2+y,1/2+z
1/2+x,1/2-y,z
loop_
_atom_site_type_symbol
_atom_site_label
_atom_site_fract_x
_atom_site_fract_y
_atom_site_fract_z
Si Si1 0.129969 0.521517 0.263990
Si Si2 0.034277 0.462918 0.610779
Si Si3 0.671761 0.664980 0.946233
Si Si4 0.622210 0.273509 0.858287
Si Si5 0.780693 0.501795 0.139938
O O1 0.089127 0.569670 0.496230
O O2 0.194605 0.512143 0.358215
O O3 0.113760 0.324864 0.131879
O O4 0.128021 0.692416 0.073333
O O5 0.065375 0.273343 0.703754
O O6 0.994150 0.455224 0.364226
O O7 0.638549 0.488774 0.837566
O O8 0.708604 0.800467 0.766686
O O9 0.716638 0.570340 0.138329
O O10 0.676963 0.155220 0.761165
#
# Coordination Sequence:
#
# PCOD9345614 Si02
#       5
#     4   4   4   4   4
#     4  10  22  40  68  97 134 175 231 281 336 410
#     4  11  22  44  78  96 131 183 229 288 359 398
#     4  11  22  39  65 102 141 179 227 269 340 407
#     4  10  22  40  68  99 133 180 225 286 335 409
#     4  10  22  37  61  98 145 181 222 272 336 408
#
# _framework density 22.417292
#
# number of rings (size 3 to 8) (size 9 to 14) (size 15 to 20)
#    0.000    1.600    2.000    2.400    0.000    8.000 
#    0.000    0.000   17.600    0.000    0.000    0.000 
#    0.000    0.000    0.000    0.000    0.000    0.000 
#
# Total GULP energy -111552.444441 kJ/mol
# GULP energy per Si atom -5577.622222 kJ/mol
# Density = 2.236627 g / cm^3
# Si number density = 22.417292 Si / 1000 Ang^3
#
#
#
# Elastic Constant Matrix: (Units=GPa)
#
#
# Indices 1 2 3 4 5 6 
#
# 1 61.7582 -2.4485 13.4507 0.0000 0.0000 0.0000
# 2 -2.4485 119.1541 24.0912 0.0000 0.0000 0.0000
# 3 13.4507 24.0912 92.5539 0.0000 0.0000 0.0000
# 4 0.0000 0.0000 0.0000 14.5300 0.0000 0.0000
# 5 0.0000 0.0000 0.0000 0.0000 45.0248 0.0000
# 6 0.0000 0.0000 0.0000 0.0000 0.0000 14.8277
#
#
#
# Elastic Compliance Matrix: (Units=1/GPa)
#
#
# Indices 1 2 3 4 5 6 
#
# 1 0.016810 0.000886 -0.002674 0.000000 0.000000 0.000000
# 2 0.000886 0.008905 -0.002447 0.000000 0.000000 0.000000
# 3 -0.002674 -0.002447 0.011830 0.000000 0.000000 0.000000
# 4 0.000000 0.000000 0.000000 0.068823 0.000000 0.000000
# 5 0.000000 0.000000 0.000000 0.000000 0.022210 0.000000
# 6 0.000000 0.000000 0.000000 0.000000 0.000000 0.067441
#
#
# Mechanical properties :
#
#
# Convention : Reuss Voigt Hill
#
# Bulk Modulus (GPa) = 34.39232 38.18368 36.28800
# Shear Modulus (GPa) = 23.34484 30.76802 27.05643
#
# Velocity S-wave (km/s) = 3.23054 3.70876 3.47788
# Velocity P-wave (km/s) = 5.41205 5.95063 5.68772
#
# Compressibility (1/GPa) = 0.02907626
#
# Stress axis : x y z
#
# Youngs Moduli (GPa) = 59.48983 112.29143 84.53137
#
# Poissons Ratio (x) = -0.09949 0.22600
# Poissons Ratio (y) = -0.05271 0.20683
# Poissons Ratio (z) = 0.15905 0.27475
#
# Static dielectric constant tensor:
#      x y z
#    x 1.886660 0.000000 0.000000 
#    y 0.000000 1.792120 0.000000 
#    z 0.000000 0.000000 1.975060 
# 
# From -- ./inp_files/2337.got.cif
#   From: 2010.05.17/outbox.cif.g08.bks.cpg/sg33_2_cif.got.tgz:2337.got - 2010.06.03 17:15:25.
