data_PCOD9345330
_publ_section_title
;
Structure prediction by ZEFSAII (Michael W. Deem and Ramdas Pophale) SiO2 
 PCOD9345330
Probable space group: P N A 21
;
_chemical_formula_sum "Si O2"
_cell_formula_units_Z 20
_cell_length_a 19.303872
_cell_length_b 7.901636
_cell_length_c 5.355492
_cell_angle_alpha 90.000000
_cell_angle_beta 90.000000
_cell_angle_gamma 90.000000
_cell_volume 816.884816
_symmetry_space_group_name_H-M "P N A 21"
_symmetry_group_IT_number 33
_symmetry_cell_setting 'orthorhombic'
loop_
_space_group_symop_operation_xyz
x,y,z
-x,-y,1/2+z
1/2-x,1/2+y,1/2+z
1/2+x,1/2-y,z
loop_
_atom_site_type_symbol
_atom_site_label
_atom_site_fract_x
_atom_site_fract_y
_atom_site_fract_z
Si Si1 0.226901 0.717239 0.788130
Si Si2 0.988024 0.903124 0.668752
Si Si3 0.962114 0.442311 0.353790
Si Si4 0.723237 0.669116 0.292151
Si Si5 0.647121 0.198411 0.026747
O O1 0.256980 0.527903 0.799219
O O2 0.185704 0.760854 0.536458
O O3 0.297139 0.831903 0.746931
O O4 0.190440 0.779010 0.035314
O O5 0.912187 0.824949 0.612070
O O6 0.034681 0.750606 0.772666
O O7 0.014866 0.969413 0.402150
O O8 0.890805 0.533551 0.422952
O O9 0.007015 0.462820 0.608489
O O10 0.798870 0.763046 0.317046
#
# Coordination Sequence:
#
# PCOD9345330 Si02
#       5
#     4   4   4   4   4
#     4  10  22  41  65  89 123 160 207 254 307 365
#     4  11  23  40  59  92 125 157 208 262 300 366
#     4  10  21  39  64  84 122 164 202 243 310 375
#     4  10  22  41  65  87 124 159 204 254 306 366
#     4   9  24  39  65  86 130 162 203 249 325 360
#
# _framework density 24.483256000000001
#
# number of rings (size 3 to 8) (size 9 to 14) (size 15 to 20)
#    1.200    0.800    0.000    3.600    8.400    0.000 
#    7.200    0.000    0.000    0.000    0.000    0.000 
#    0.000    0.000    0.000    0.000    0.000    0.000 
#
# Total GULP energy -111622.484976 kJ/mol
# GULP energy per Si atom -5581.124249 kJ/mol
# Density = 2.442753 g / cm^3
# Si number density = 24.483256 Si / 1000 Ang^3
#
#
#
# Elastic Constant Matrix: (Units=GPa)
#
#
# Indices 1 2 3 4 5 6 
#
# 1 98.8263 1.3064 9.8648 0.0000 0.0000 0.0000
# 2 1.3064 82.2060 48.6242 0.0000 0.0000 0.0000
# 3 9.8648 48.6242 193.2723 0.0000 0.0000 0.0000
# 4 0.0000 0.0000 0.0000 44.1580 0.0000 0.0000
# 5 0.0000 0.0000 0.0000 0.0000 13.3509 0.0000
# 6 0.0000 0.0000 0.0000 0.0000 0.0000 26.3310
#
#
#
# Elastic Compliance Matrix: (Units=1/GPa)
#
#
# Indices 1 2 3 4 5 6 
#
# 1 0.010173 0.000171 -0.000562 0.000000 0.000000 0.000000
# 2 0.000171 0.014294 -0.003605 0.000000 0.000000 0.000000
# 3 -0.000562 -0.003605 0.006110 0.000000 0.000000 0.000000
# 4 0.000000 0.000000 0.000000 0.022646 0.000000 0.000000
# 5 0.000000 0.000000 0.000000 0.000000 0.074901 0.000000
# 6 0.000000 0.000000 0.000000 0.000000 0.000000 0.037978
#
#
# Mechanical properties :
#
#
# Convention : Reuss Voigt Hill
#
# Bulk Modulus (GPa) = 44.27918 54.87727 49.57823
# Shear Modulus (GPa) = 27.52966 37.73526 32.63246
#
# Velocity S-wave (km/s) = 3.35689 3.93016 3.65478
# Velocity P-wave (km/s) = 5.75758 6.56184 6.17282
#
# Compressibility (1/GPa) = 0.02258398
#
# Stress axis : x y z
#
# Youngs Moduli (GPa) = 98.30300 69.95888 163.67479
#
# Poissons Ratio (x) = -0.01196 0.09202
# Poissons Ratio (y) = -0.01680 0.59003
# Poissons Ratio (z) = 0.05527 0.25219
#
# Static dielectric constant tensor:
#      x y z
#    x 1.949350 0.000000 0.000000 
#    y 0.000000 1.993530 0.000000 
#    z 0.000000 0.000000 2.088180 
# 
# From -- ./inp_files/2172.got.cif
#   From: 2010.05.17/outbox.cif.g08.bks.cpg/sg33_2_cif.got.tgz:2172.got - 2010.06.03 17:15:25.
