data_PCOD9345655
_publ_section_title
;
Structure prediction by ZEFSAII (Michael W. Deem and Ramdas Pophale) SiO2 
 PCOD9345655
Probable space group: P N A 21
;
_chemical_formula_sum "Si O2"
_cell_formula_units_Z 32
_cell_length_a 8.329372
_cell_length_b 13.543731
_cell_length_c 11.342178
_cell_angle_alpha 90.000000
_cell_angle_beta 90.000000
_cell_angle_gamma 90.000000
_cell_volume 1279.519876
_symmetry_space_group_name_H-M "P N A 21"
_symmetry_group_IT_number 33
_symmetry_cell_setting 'orthorhombic'
loop_
_space_group_symop_operation_xyz
x,y,z
-x,-y,1/2+z
1/2-x,1/2+y,1/2+z
1/2+x,1/2-y,z
loop_
_atom_site_type_symbol
_atom_site_label
_atom_site_fract_x
_atom_site_fract_y
_atom_site_fract_z
Si Si1 0.877383 0.305214 0.086990
Si Si2 0.431069 0.460177 0.851339
Si Si3 0.354608 0.183842 0.518084
Si Si4 0.174125 0.369355 0.421362
Si Si5 0.918688 0.122919 0.236121
Si Si6 0.139383 0.033813 0.059416
Si Si7 0.661636 0.169647 0.917027
Si Si8 0.918356 0.807041 0.190690
O O1 0.762462 0.393701 0.124730
O O2 0.940306 0.234320 0.191082
O O3 0.775104 0.232073 0.004099
O O4 0.006563 0.347460 0.996296
O O5 0.462898 0.576455 0.835412
O O6 0.256024 0.430806 0.891372
O O7 0.462325 0.389755 0.740332
O O8 0.578080 0.425500 0.933864
O O9 0.252012 0.260951 0.440605
O O10 0.483323 0.124052 0.439445
O O11 0.229061 0.145603 0.616942
O O12 0.480445 0.243864 0.598886
O O13 0.243628 0.395998 0.291673
O O14 0.263429 0.437059 0.520290
O O15 0.972478 0.053099 0.128562
O O16 0.631835 0.233321 0.797935
#
# Coordination Sequence:
#
# PCOD9345655 Si02
#       8
#     4   4   4   4   4   4   4   4
#     4  12  22  41  70  99 139 184 243 306 366 431
#     4  11  22  40  66 102 136 183 241 293 367 448
#     4  10  22  39  63  90 135 176 235 292 368 436
#     4  10  25  44  65  99 141 188 245 304 375 455
#     4  11  24  41  71  94 143 192 238 297 381 430
#     4  11  23  44  65 100 144 183 248 306 357 454
#     4  12  20  38  68  99 131 180 244 294 366 431
#     4  11  18  35  64  93 125 180 226 290 356 423
#
# _framework density 25.009381000000001
#
# number of rings (size 3 to 8) (size 9 to 14) (size 15 to 20)
#    0.000    1.000    6.250    0.750    3.500    0.000 
#    2.250    2.500    2.750    0.000    0.000    0.000 
#    0.000    0.000    0.000    0.000    0.000    0.000 
#
# Total GULP energy -178480.244416 kJ/mol
# GULP energy per Si atom -5577.507638 kJ/mol
# Density = 2.495246 g / cm^3
# Si number density = 25.009381 Si / 1000 Ang^3
#
#
#
# Elastic Constant Matrix: (Units=GPa)
#
#
# Indices 1 2 3 4 5 6 
#
# 1 125.5794 27.9154 33.0341 0.0000 0.0000 0.0000
# 2 27.9154 79.8466 19.2691 0.0000 0.0000 0.0000
# 3 33.0341 19.2691 39.5929 0.0000 0.0000 0.0000
# 4 0.0000 0.0000 0.0000 24.7022 0.0000 0.0000
# 5 0.0000 0.0000 0.0000 0.0000 45.2928 0.0000
# 6 0.0000 0.0000 0.0000 0.0000 0.0000 38.1015
#
#
#
# Elastic Compliance Matrix: (Units=1/GPa)
#
#
# Indices 1 2 3 4 5 6 
#
# 1 0.010414 -0.001749 -0.007837 0.000000 0.000000 0.000000
# 2 -0.001749 0.014485 -0.005590 0.000000 0.000000 0.000000
# 3 -0.007837 -0.005590 0.034516 0.000000 0.000000 0.000000
# 4 0.000000 0.000000 0.000000 0.040482 0.000000 0.000000
# 5 0.000000 0.000000 0.000000 0.000000 0.022079 0.000000
# 6 0.000000 0.000000 0.000000 0.000000 0.000000 0.026246
#
#
# Mechanical properties :
#
#
# Convention : Reuss Voigt Hill
#
# Bulk Modulus (GPa) = 34.40928 45.05068 39.72998
# Shear Modulus (GPa) = 26.55891 32.60599 29.58245
#
# Velocity S-wave (km/s) = 3.26230 3.61467 3.44300
# Velocity P-wave (km/s) = 5.28948 5.95598 5.63260
#
# Compressibility (1/GPa) = 0.02906193
#
# Stress axis : x y z
#
# Youngs Moduli (GPa) = 96.02878 69.03891 28.97180
#
# Poissons Ratio (x) = 0.12078 0.22705
# Poissons Ratio (y) = 0.16799 0.16195
# Poissons Ratio (z) = 0.75259 0.38591
#
# Static dielectric constant tensor:
#      x y z
#    x 2.002000 0.000000 0.000000 
#    y 0.000000 2.045230 0.000000 
#    z 0.000000 0.000000 2.125320 
# 
# From -- ./inp_files/5995.got.cif
#   From: 2010.05.17/outbox.cif.g08.bks.cpg/sg33_3_cif.got.tgz:5995.got - 2010.06.03 17:15:25.
