data_PCOD9345070
_publ_section_title
;
Structure prediction by ZEFSAII (Michael W. Deem and Ramdas Pophale) SiO2 
 PCOD9345070
Probable space group: P N A 21
;
_chemical_formula_sum "Si O2"
_cell_formula_units_Z 28
_cell_length_a 14.088312
_cell_length_b 16.546280
_cell_length_c 5.202596
_cell_angle_alpha 90.000000
_cell_angle_beta 90.000000
_cell_angle_gamma 90.000000
_cell_volume 1212.772758
_symmetry_space_group_name_H-M "P N A 21"
_symmetry_group_IT_number 33
_symmetry_cell_setting 'orthorhombic'
loop_
_space_group_symop_operation_xyz
x,y,z
-x,-y,1/2+z
1/2-x,1/2+y,1/2+z
1/2+x,1/2-y,z
loop_
_atom_site_type_symbol
_atom_site_label
_atom_site_fract_x
_atom_site_fract_y
_atom_site_fract_z
Si Si1 0.353377 0.625680 0.375000
Si Si2 0.944422 0.025206 0.283566
Si Si3 0.526877 0.689995 0.034324
Si Si4 0.872524 0.737166 0.717746
Si Si5 0.075717 0.582607 0.887927
Si Si6 0.706112 0.778610 0.047986
Si Si7 0.943131 0.594831 0.394320
O O1 0.353325 0.529889 0.348757
O O2 0.448982 0.654142 0.226674
O O3 0.362809 0.667264 0.649176
O O4 0.266072 0.671931 0.252747
O O5 0.936831 0.119007 0.347532
O O6 0.020894 0.991653 0.494567
O O7 0.619482 0.727592 0.163985
O O8 0.469865 0.758131 0.876575
O O9 0.884996 0.675594 0.479113
O O10 0.779407 0.722855 0.888291
O O11 0.155607 0.650969 0.884385
O O12 0.114107 0.489891 0.902642
O O13 0.004264 0.595481 0.131862
O O14 0.017909 0.586343 0.624982
#
# Coordination Sequence:
#
# PCOD9345070 Si02
#       7
#     4   4   4   4   4   4   4
#     4  10  23  39  62  94 129 171 216 271 321 390
#     4  10  20  40  66  90 122 171 213 260 323 381
#     4  10  21  41  64  89 129 173 216 262 329 385
#     4  11  22  39  63  94 129 169 217 269 319 388
#     4  10  22  42  65  94 122 177 214 266 320 388
#     4  11  24  38  63  96 132 168 220 269 328 373
#     4  10  22  41  69  89 127 171 220 257 326 385
#
# _framework density 23.087589999999999
#
# number of rings (size 3 to 8) (size 9 to 14) (size 15 to 20)
#    0.000    1.714    2.857    0.857    4.000    2.286 
#    0.000    1.429    0.000    0.000    0.000    0.000 
#    0.000    0.000    0.000    0.000    0.000    0.000 
#
# Total GULP energy -156253.630581 kJ/mol
# GULP energy per Si atom -5580.486806 kJ/mol
# Density = 2.303504 g / cm^3
# Si number density = 23.087590 Si / 1000 Ang^3
#
#
#
# Elastic Constant Matrix: (Units=GPa)
#
#
# Indices 1 2 3 4 5 6 
#
# 1 97.0943 24.7628 9.2742 0.0000 0.0000 0.0000
# 2 24.7628 97.9553 1.3640 0.0000 0.0000 0.0000
# 3 9.2742 1.3640 71.7882 0.0000 0.0000 0.0000
# 4 0.0000 0.0000 0.0000 151.6817 0.0000 0.0000
# 5 0.0000 0.0000 0.0000 0.0000 -6.5810 0.0000
# 6 0.0000 0.0000 0.0000 0.0000 0.0000 29.0439
#
#
#
# Elastic Compliance Matrix: (Units=1/GPa)
#
#
# Indices 1 2 3 4 5 6 
#
# 1 0.011145 -0.002798 -0.001387 0.000000 0.000000 0.000000
# 2 -0.002798 0.010914 0.000154 0.000000 0.000000 0.000000
# 3 -0.001387 0.000154 0.014106 0.000000 0.000000 0.000000
# 4 0.000000 0.000000 0.000000 0.006593 0.000000 0.000000
# 5 0.000000 0.000000 0.000000 0.000000 -0.151954 0.000000
# 6 0.000000 0.000000 0.000000 0.000000 0.000000 0.034431
#
#
# Mechanical properties :
#
#
# Convention : Reuss Voigt Hill
#
# Bulk Modulus (GPa) = 35.58225 37.51553 36.54889
# Shear Modulus (GPa) = -87.20642 50.25806 -18.47418
#
# Velocity S-wave (km/s) = -6.15256 4.67073 -2.83181
# Velocity P-wave (km/s) = 5.91833 6.73588 2.27436
#
# Compressibility (1/GPa) = 0.02810390
#
# Stress axis : x y z
#
# Youngs Moduli (GPa) = 89.72339 91.62573 70.89137
#
# Poissons Ratio (x) = 0.25639 0.09830
# Poissons Ratio (y) = 0.25106 -0.01093
# Poissons Ratio (z) = 0.12442 -0.01412
#
# Static dielectric constant tensor:
#      x y z
#    x 1.932140 0.000000 0.000000 
#    y 0.000000 1.979220 0.000000 
#    z 0.000000 0.000000 1.879550 
# 
# From -- ./inp_files/897.got.cif
#   From: 2010.05.17/outbox.cif.g08.bks.cpg/sg33_1_cif.got.tgz:897.got - 2010.06.03 17:15:25.
