data_PCOD9345424
_publ_section_title
;
Structure prediction by ZEFSAII (Michael W. Deem and Ramdas Pophale) SiO2 
 PCOD9345424
Probable space group: P N A 21
;
_chemical_formula_sum "Si O2"
_cell_formula_units_Z 28
_cell_length_a 5.724115
_cell_length_b 26.261377
_cell_length_c 7.666917
_cell_angle_alpha 90.000000
_cell_angle_beta 90.000000
_cell_angle_gamma 90.000000
_cell_volume 1152.515053
_symmetry_space_group_name_H-M "P N A 21"
_symmetry_group_IT_number 33
_symmetry_cell_setting 'orthorhombic'
loop_
_space_group_symop_operation_xyz
x,y,z
-x,-y,1/2+z
1/2-x,1/2+y,1/2+z
1/2+x,1/2-y,z
loop_
_atom_site_type_symbol
_atom_site_label
_atom_site_fract_x
_atom_site_fract_y
_atom_site_fract_z
Si Si1 0.321198 0.983227 0.345190
Si Si2 0.050558 0.954508 0.021667
Si Si3 0.238117 0.274699 0.886163
Si Si4 0.676921 0.261316 0.492389
Si Si5 0.072193 0.407752 0.355908
Si Si6 0.734667 0.867548 0.149677
Si Si7 0.523993 0.125846 0.983353
O O1 0.255173 0.972161 0.147014
O O2 0.426940 0.932355 0.425889
O O3 0.463327 0.035670 0.345786
O O4 0.087548 0.997830 0.449209
O O5 0.886455 0.918089 0.133967
O O6 0.153056 0.919615 0.866868
O O7 0.487518 0.250626 0.943800
O O8 0.211755 0.269624 0.675113
O O9 0.227177 0.333677 0.942063
O O10 0.432472 0.245396 0.403785
O O11 0.654264 0.319456 0.555276
O O12 0.993668 0.380120 0.532996
O O13 0.988072 0.376515 0.189366
O O14 0.676700 0.856455 0.349598
#
# Coordination Sequence:
#
# PCOD9345424 Si02
#       7
#     4   4   4   4   4   4   4
#     4  11  25  41  69 100 144 184 235 296 358 438
#     4  11  25  43  69 103 141 185 244 292 363 443
#     4  10  22  43  69 106 137 180 248 297 357 444
#     4  10  21  40  72 103 139 181 243 297 358 435
#     4  11  26  47  62 107 143 178 245 292 357 451
#     4  11  25  44  71  98 136 191 231 298 361 434
#     4  12  24  44  76  95 140 193 228 302 370 421
#
# _framework density 24.294695000000001
#
# number of rings (size 3 to 8) (size 9 to 14) (size 15 to 20)
#    0.000    1.143    4.286    1.714   12.000    0.000 
#    5.143    1.429    0.000    0.000    0.000    0.000 
#    0.000    0.000    0.000    0.000    0.000    0.000 
#
# Total GULP energy -156498.437291 kJ/mol
# GULP energy per Si atom -5589.229903 kJ/mol
# Density = 2.423940 g / cm^3
# Si number density = 24.294695 Si / 1000 Ang^3
#
#
#
# Elastic Constant Matrix: (Units=GPa)
#
#
# Indices 1 2 3 4 5 6 
#
# 1 101.2448 11.1630 17.4510 0.0000 0.0000 0.0000
# 2 11.1630 99.8374 1.3410 0.0000 0.0000 0.0000
# 3 17.4510 1.3410 60.8920 0.0000 0.0000 0.0000
# 4 0.0000 0.0000 0.0000 7.2124 0.0000 0.0000
# 5 0.0000 0.0000 0.0000 0.0000 10.2997 0.0000
# 6 0.0000 0.0000 0.0000 0.0000 0.0000 17.0892
#
#
#
# Elastic Compliance Matrix: (Units=1/GPa)
#
#
# Indices 1 2 3 4 5 6 
#
# 1 0.010518 -0.001136 -0.002989 0.000000 0.000000 0.000000
# 2 -0.001136 0.010142 0.000102 0.000000 0.000000 0.000000
# 3 -0.002989 0.000102 0.017277 0.000000 0.000000 0.000000
# 4 0.000000 0.000000 0.000000 0.138650 0.000000 0.000000
# 5 0.000000 0.000000 0.000000 0.000000 0.097090 0.000000
# 6 0.000000 0.000000 0.000000 0.000000 0.000000 0.058516
#
#
# Mechanical properties :
#
#
# Convention : Reuss Voigt Hill
#
# Bulk Modulus (GPa) = 33.45528 35.76492 34.61010
# Shear Modulus (GPa) = 14.27745 22.38821 18.33283
#
# Velocity S-wave (km/s) = 2.42684 3.03896 2.74998
# Velocity P-wave (km/s) = 4.65330 5.20259 4.93559
#
# Compressibility (1/GPa) = 0.02989065
#
# Stress axis : x y z
#
# Youngs Moduli (GPa) = 95.07951 98.60071 57.88062
#
# Poissons Ratio (x) = 0.11199 0.17302
# Poissons Ratio (y) = 0.10799 -0.00591
# Poissons Ratio (z) = 0.28421 -0.01007
#
# Static dielectric constant tensor:
#      x y z
#    x 2.048960 0.000000 0.000000 
#    y 0.000000 1.913910 0.000000 
#    z 0.000000 0.000000 1.921010 
# 
# From -- ./inp_files/2729.got.cif
#   From: 2010.05.17/outbox.cif.g08.bks.cpg/sg33_2_cif.got.tgz:2729.got - 2010.06.03 17:15:25.
