data_PCOD9345721
_publ_section_title
;
Structure prediction by ZEFSAII (Michael W. Deem and Ramdas Pophale) SiO2 
 PCOD9345721
Probable space group: P N A 21
;
_chemical_formula_sum "Si O2"
_cell_formula_units_Z 28
_cell_length_a 8.359843
_cell_length_b 12.117370
_cell_length_c 12.703164
_cell_angle_alpha 90.000000
_cell_angle_beta 90.000000
_cell_angle_gamma 90.000000
_cell_volume 1286.821758
_symmetry_space_group_name_H-M "P N A 21"
_symmetry_group_IT_number 33
_symmetry_cell_setting 'orthorhombic'
loop_
_space_group_symop_operation_xyz
x,y,z
-x,-y,1/2+z
1/2-x,1/2+y,1/2+z
1/2+x,1/2-y,z
loop_
_atom_site_type_symbol
_atom_site_label
_atom_site_fract_x
_atom_site_fract_y
_atom_site_fract_z
Si Si1 0.846054 0.369464 0.744720
Si Si2 0.129457 0.607035 0.019312
Si Si3 0.569148 0.450145 0.617214
Si Si4 0.086527 0.149289 0.998722
Si Si5 0.948852 0.381166 0.066706
Si Si6 0.593711 0.954434 0.805788
Si Si7 0.630570 0.628687 0.296398
O O1 0.927326 0.340546 0.629949
O O2 0.702431 0.449373 0.709253
O O3 0.797962 0.252964 0.795106
O O4 0.963700 0.446966 0.808316
O O5 0.078130 0.632799 0.901017
O O6 0.323036 0.610996 0.029447
O O7 0.059805 0.483292 0.032710
O O8 0.509591 0.564623 0.573040
O O9 0.424885 0.392179 0.676583
O O10 0.045758 0.271493 0.038244
O O11 0.274505 0.123446 0.011440
O O12 0.008475 0.133190 0.883768
O O13 0.917024 0.398038 0.191643
O O14 0.755013 0.026004 0.820276
#
# Coordination Sequence:
#
# PCOD9345721 Si02
#       7
#     4   4   4   4   4   4   4
#     4   9  22  36  62  91 125 162 209 258 299 375
#     4   9  21  43  60  90 130 163 207 261 310 367
#     4  10  22  41  60  97 130 153 213 267 300 378
#     4  12  25  40  66  96 128 164 212 266 313 374
#     4  11  25  41  66  95 125 168 214 258 316 382
#     4  11  21  41  64  89 129 172 200 258 324 370
#     4  12  22  38  68  96 125 164 213 254 322 366
#
# _framework density 21.759034
#
# number of rings (size 3 to 8) (size 9 to 14) (size 15 to 20)
#    0.857    0.571    2.857    2.571    6.000    0.000 
#    0.000    2.857    0.000    0.000    0.000    0.000 
#    0.000    0.000    0.000    0.000    0.000    0.000 
#
# Total GULP energy -155961.057822 kJ/mol
# GULP energy per Si atom -5570.037779 kJ/mol
# Density = 2.170951 g / cm^3
# Si number density = 21.759034 Si / 1000 Ang^3
#
#
#
# Elastic Constant Matrix: (Units=GPa)
#
#
# Indices 1 2 3 4 5 6 
#
# 1 46.8601 -2.7741 5.2166 0.0000 0.0000 0.0000
# 2 -2.7741 50.4998 19.7976 0.0000 0.0000 0.0000
# 3 5.2166 19.7976 116.8572 0.0000 0.0000 0.0000
# 4 0.0000 0.0000 0.0000 19.5443 0.0000 0.0000
# 5 0.0000 0.0000 0.0000 0.0000 32.1076 0.0000
# 6 0.0000 0.0000 0.0000 0.0000 0.0000 16.2239
#
#
#
# Elastic Compliance Matrix: (Units=1/GPa)
#
#
# Indices 1 2 3 4 5 6 
#
# 1 0.021578 0.001674 -0.001247 0.000000 0.000000 0.000000
# 2 0.001674 0.021341 -0.003690 0.000000 0.000000 0.000000
# 3 -0.001247 -0.003690 0.009238 0.000000 0.000000 0.000000
# 4 0.000000 0.000000 0.000000 0.051166 0.000000 0.000000
# 5 0.000000 0.000000 0.000000 0.000000 0.031145 0.000000
# 6 0.000000 0.000000 0.000000 0.000000 0.000000 0.061637
#
#
# Mechanical properties :
#
#
# Convention : Reuss Voigt Hill
#
# Bulk Modulus (GPa) = 21.91485 28.74415 25.32950
# Shear Modulus (GPa) = 22.95242 26.37362 24.66302
#
# Velocity S-wave (km/s) = 3.25136 3.48527 3.37034
# Velocity P-wave (km/s) = 4.91819 5.42540 5.17801
#
# Compressibility (1/GPa) = 0.04563116
#
# Stress axis : x y z
#
# Youngs Moduli (GPa) = 46.34344 46.85876 108.24499
#
# Poissons Ratio (x) = -0.07845 0.13497
# Poissons Ratio (y) = -0.07759 0.39945
# Poissons Ratio (z) = 0.05779 0.17292
#
# Static dielectric constant tensor:
#      x y z
#    x 1.839010 0.000000 0.000000 
#    y 0.000000 1.745380 0.000000 
#    z 0.000000 0.000000 1.870760 
# 
# From -- ./inp_files/7593.got.cif
#   From: 2010.05.17/outbox.cif.g08.bks.cpg/sg33_4_cif.got.tgz:7593.got - 2010.06.03 17:15:25.
