data_PCOD9345537
_publ_section_title
;
Structure prediction by ZEFSAII (Michael W. Deem and Ramdas Pophale) SiO2 
 PCOD9345537
Probable space group: P N A 21
;
_chemical_formula_sum "Si O2"
_cell_formula_units_Z 32
_cell_length_a 13.713294
_cell_length_b 8.555705
_cell_length_c 11.140555
_cell_angle_alpha 90.000000
_cell_angle_beta 90.000000
_cell_angle_gamma 90.000000
_cell_volume 1307.086761
_symmetry_space_group_name_H-M "P N A 21"
_symmetry_group_IT_number 33
_symmetry_cell_setting 'orthorhombic'
loop_
_space_group_symop_operation_xyz
x,y,z
-x,-y,1/2+z
1/2-x,1/2+y,1/2+z
1/2+x,1/2-y,z
loop_
_atom_site_type_symbol
_atom_site_label
_atom_site_fract_x
_atom_site_fract_y
_atom_site_fract_z
Si Si1 0.320819 0.931217 0.869950
Si Si2 0.508250 0.376317 0.939443
Si Si3 0.728878 0.861804 0.147936
Si Si4 0.174821 0.339860 0.992668
Si Si5 0.619955 0.691399 0.978427
Si Si6 0.400576 0.793360 0.242946
Si Si7 0.019491 0.626257 0.775595
Si Si8 0.639535 0.810140 0.548011
O O1 0.280632 0.061028 0.777553
O O2 0.225363 0.843311 0.917154
O O3 0.405008 0.840346 0.796290
O O4 0.374560 0.027637 0.976657
O O5 0.566109 0.231943 0.006104
O O6 0.398471 0.335087 0.968423
O O7 0.551186 0.540844 0.975388
O O8 0.538063 0.345759 0.802463
O O9 0.834078 0.777695 0.139139
O O10 0.706324 0.001793 0.055659
O O11 0.646288 0.738583 0.113171
O O12 0.244848 0.209755 0.050165
O O13 0.176940 0.346528 0.847634
O O14 0.567899 0.826621 0.901889
O O15 0.468718 0.944740 0.236204
O O16 0.087284 0.706475 0.675371
#
# Coordination Sequence:
#
# PCOD9345537 Si02
#       8
#     4   4   4   4   4   4   4   4
#     4  12  24  47  71 101 144 188 230 289 365 417
#     4  10  22  45  62  98 142 173 236 289 333 422
#     4  12  23  44  76  97 140 193 226 294 357 423
#     4  10  21  43  67  95 137 181 225 278 360 405
#     4  12  25  48  71 106 140 180 246 291 349 433
#     4  10  21  43  68  97 137 181 231 283 342 418
#     4  12  27  43  73 106 139 187 240 288 356 429
#     4  12  23  43  72  98 141 185 226 294 356 419
#
# _framework density 24.481923999999999
#
# number of rings (size 3 to 8) (size 9 to 14) (size 15 to 20)
#    0.750    0.000    6.250    2.250    1.750    1.000 
#    4.500    0.000    0.000    0.000    0.000    0.000 
#    0.000    0.000    0.000    0.000    0.000    0.000 
#
# Total GULP energy -178615.321811 kJ/mol
# GULP energy per Si atom -5581.728807 kJ/mol
# Density = 2.442620 g / cm^3
# Si number density = 24.481924 Si / 1000 Ang^3
#
#
#
# Elastic Constant Matrix: (Units=GPa)
#
#
# Indices 1 2 3 4 5 6 
#
# 1 85.9121 1.8120 12.4950 0.0000 0.0000 0.0000
# 2 1.8120 58.0186 1.5835 0.0000 0.0000 0.0000
# 3 12.4950 1.5835 30.6580 0.0000 0.0000 0.0000
# 4 0.0000 0.0000 0.0000 33.7956 0.0000 0.0000
# 5 0.0000 0.0000 0.0000 0.0000 32.8914 0.0000
# 6 0.0000 0.0000 0.0000 0.0000 0.0000 33.0111
#
#
#
# Elastic Compliance Matrix: (Units=1/GPa)
#
#
# Indices 1 2 3 4 5 6 
#
# 1 0.012377 -0.000249 -0.005031 0.000000 0.000000 0.000000
# 2 -0.000249 0.017265 -0.000790 0.000000 0.000000 0.000000
# 3 -0.005031 -0.000790 0.034709 0.000000 0.000000 0.000000
# 4 0.000000 0.000000 0.000000 0.029590 0.000000 0.000000
# 5 0.000000 0.000000 0.000000 0.000000 0.030403 0.000000
# 6 0.000000 0.000000 0.000000 0.000000 0.000000 0.030293
#
#
# Mechanical properties :
#
#
# Convention : Reuss Voigt Hill
#
# Bulk Modulus (GPa) = 19.15352 22.92995 21.04174
# Shear Modulus (GPa) = 27.14710 30.51952 28.83331
#
# Velocity S-wave (km/s) = 3.33357 3.53457 3.43554
# Velocity P-wave (km/s) = 4.75999 5.10333 4.93465
#
# Compressibility (1/GPa) = 0.05220972
#
# Stress axis : x y z
#
# Youngs Moduli (GPa) = 80.79615 57.92000 28.81071
#
# Poissons Ratio (x) = 0.01443 0.14496
# Poissons Ratio (y) = 0.02014 0.02277
# Poissons Ratio (z) = 0.40652 0.04577
#
# Static dielectric constant tensor:
#      x y z
#    x 1.935520 0.000000 0.000000 
#    y 0.000000 1.966690 0.000000 
#    z 0.000000 0.000000 2.011880 
# 
# From -- ./inp_files/6853.got.cif
#   From: 2010.05.17/outbox.cif.g08.bks.cpg/sg33_4_cif.got.tgz:6853.got - 2010.06.03 17:15:25.
