data_PCOD9345544
_publ_section_title
;
Structure prediction by ZEFSAII (Michael W. Deem and Ramdas Pophale) SiO2 
 PCOD9345544
Probable space group: P N A 21
;
_chemical_formula_sum "Si O2"
_cell_formula_units_Z 32
_cell_length_a 13.469792
_cell_length_b 8.417510
_cell_length_c 11.541777
_cell_angle_alpha 90.000000
_cell_angle_beta 90.000000
_cell_angle_gamma 90.000000
_cell_volume 1308.631016
_symmetry_space_group_name_H-M "P N A 21"
_symmetry_group_IT_number 33
_symmetry_cell_setting 'orthorhombic'
loop_
_space_group_symop_operation_xyz
x,y,z
-x,-y,1/2+z
1/2-x,1/2+y,1/2+z
1/2+x,1/2-y,z
loop_
_atom_site_type_symbol
_atom_site_label
_atom_site_fract_x
_atom_site_fract_y
_atom_site_fract_z
Si Si1 0.921468 0.734379 0.992210
Si Si2 0.275578 0.775446 0.187392
Si Si3 0.635151 0.913416 0.038828
Si Si4 0.206593 0.597757 0.790601
Si Si5 0.778151 0.753433 0.560798
Si Si6 0.515814 0.740541 0.766387
Si Si7 0.892218 0.926579 0.369567
Si Si8 0.437423 0.386681 0.022173
O O1 0.023341 0.642930 0.022100
O O2 0.923809 0.728223 0.851703
O O3 0.835139 0.666691 0.073186
O O4 0.927254 0.922066 0.023359
O O5 0.345802 0.660300 0.260727
O O6 0.252493 0.922968 0.268617
O O7 0.181211 0.678045 0.146586
O O8 0.703340 0.868701 0.926727
O O9 0.650215 0.101117 0.050944
O O10 0.260509 0.701680 0.694106
O O11 0.088642 0.608368 0.758877
O O12 0.819966 0.893461 0.478895
O O13 0.669074 0.695489 0.520679
O O14 0.582399 0.606487 0.834194
O O15 0.505197 0.668390 0.638927
O O16 0.995955 0.850621 0.410728
#
# Coordination Sequence:
#
# PCOD9345544 Si02
#       8
#     4   4   4   4   4   4   4   4
#     4  10  22  40  71  98 134 185 226 285 351 411
#     4  12  23  44  66 102 140 175 235 290 337 422
#     4  11  24  45  70 100 142 182 232 290 349 415
#     4  10  24  42  68  98 137 176 229 290 349 407
#     4  11  23  45  70 102 139 188 227 295 352 422
#     4   9  20  43  65  95 139 176 228 291 335 421
#     4  11  23  40  71  98 138 180 236 282 346 427
#     4  10  21  43  69  97 137 190 233 281 355 419
#
# _framework density 24.453033999999999
#
# number of rings (size 3 to 8) (size 9 to 14) (size 15 to 20)
#    0.000    1.500    3.750    0.750    5.250    4.000 
#    0.000    1.250    0.000    0.000    0.000    0.000 
#    0.000    0.000    0.000    0.000    0.000    0.000 
#
# Total GULP energy -179015.992951 kJ/mol
# GULP energy per Si atom -5594.249780 kJ/mol
# Density = 2.439738 g / cm^3
# Si number density = 24.453034 Si / 1000 Ang^3
#
#
#
# Elastic Constant Matrix: (Units=GPa)
#
#
# Indices 1 2 3 4 5 6 
#
# 1 67.2616 8.1658 15.5181 0.0000 0.0000 0.0000
# 2 8.1658 41.6068 7.4337 0.0000 0.0000 0.0000
# 3 15.5181 7.4337 68.3239 0.0000 0.0000 0.0000
# 4 0.0000 0.0000 0.0000 31.5108 0.0000 0.0000
# 5 0.0000 0.0000 0.0000 0.0000 46.2601 0.0000
# 6 0.0000 0.0000 0.0000 0.0000 0.0000 30.0009
#
#
#
# Elastic Compliance Matrix: (Units=1/GPa)
#
#
# Indices 1 2 3 4 5 6 
#
# 1 0.015947 -0.002532 -0.003346 0.000000 0.000000 0.000000
# 2 -0.002532 0.024913 -0.002136 0.000000 0.000000 0.000000
# 3 -0.003346 -0.002136 0.015629 0.000000 0.000000 0.000000
# 4 0.000000 0.000000 0.000000 0.031735 0.000000 0.000000
# 5 0.000000 0.000000 0.000000 0.000000 0.021617 0.000000
# 6 0.000000 0.000000 0.000000 0.000000 0.000000 0.033332
#
#
# Mechanical properties :
#
#
# Convention : Reuss Voigt Hill
#
# Bulk Modulus (GPa) = 24.71534 26.60306 25.65920
# Shear Modulus (GPa) = 28.95408 31.29266 30.12337
#
# Velocity S-wave (km/s) = 3.44476 3.58118 3.51363
# Velocity P-wave (km/s) = 5.09422 5.29175 5.19392
#
# Compressibility (1/GPa) = 0.04046070
#
# Stress axis : x y z
#
# Youngs Moduli (GPa) = 62.70859 40.13975 63.98537
#
# Poissons Ratio (x) = 0.10163 0.21412
# Poissons Ratio (y) = 0.15877 0.13664
# Poissons Ratio (z) = 0.20985 0.08572
#
# Static dielectric constant tensor:
#      x y z
#    x 1.951790 0.000000 0.000000 
#    y 0.000000 1.939190 0.000000 
#    z 0.000000 0.000000 1.969260 
# 
# From -- ./inp_files/6824.got.cif
#   From: 2010.05.17/outbox.cif.g08.bks.cpg/sg33_4_cif.got.tgz:6824.got - 2010.06.03 17:15:25.
