data_PCOD9345375
_publ_section_title
;
Structure prediction by ZEFSAII (Michael W. Deem and Ramdas Pophale) SiO2 
 PCOD9345375
Probable space group: P N A 21
;
_chemical_formula_sum "Si O2"
_cell_formula_units_Z 24
_cell_length_a 16.493626
_cell_length_b 7.501115
_cell_length_c 8.011761
_cell_angle_alpha 90.000000
_cell_angle_beta 90.000000
_cell_angle_gamma 90.000000
_cell_volume 991.219761
_symmetry_space_group_name_H-M "P N A 21"
_symmetry_group_IT_number 33
_symmetry_cell_setting 'orthorhombic'
loop_
_space_group_symop_operation_xyz
x,y,z
-x,-y,1/2+z
1/2-x,1/2+y,1/2+z
1/2+x,1/2-y,z
loop_
_atom_site_type_symbol
_atom_site_label
_atom_site_fract_x
_atom_site_fract_y
_atom_site_fract_z
Si Si1 0.918005 0.178049 0.090130
Si Si2 0.896646 0.783849 0.062576
Si Si3 0.069711 0.704561 0.947563
Si Si4 0.084381 0.293872 0.935688
Si Si5 0.269801 0.242237 0.638558
Si Si6 0.246802 0.330551 0.027615
O O1 0.938598 0.176579 0.284561
O O2 0.904998 0.986966 0.002616
O O3 0.828530 0.264128 0.088479
O O4 0.994860 0.264608 0.002643
O O5 0.900946 0.801073 0.262221
O O6 0.808711 0.698779 0.027900
O O7 0.979243 0.686106 0.018371
O O8 0.095554 0.504271 0.902367
O O9 0.140393 0.778457 0.067687
O O10 0.158706 0.242985 0.057602
O O11 0.258982 0.320118 0.824940
O O12 0.258844 0.025070 0.617960
#
# Coordination Sequence:
#
# PCOD9345375 Si02
#       6
#     4   4   4   4   4   4
#     4  11  22  37  60  89 118 158 201 250 308 367
#     4  10  21  40  59  84 119 156 199 248 302 368
#     4  11  22  37  60  89 118 158 201 250 308 367
#     4  10  21  40  59  84 119 156 199 248 302 368
#     4   9  20  39  61  85 120 162 205 254 311 373
#     4   9  20  39  61  85 120 162 205 254 311 373
#
# _framework density 24.212592999999998
#
# number of rings (size 3 to 8) (size 9 to 14) (size 15 to 20)
#    0.000    2.000    0.000    3.000    0.000    4.000 
#    0.000   26.667    0.000    0.000    0.000    0.000 
#    0.000    0.000    0.000    0.000    0.000    0.000 
#
# Total GULP energy -133786.239727 kJ/mol
# GULP energy per Si atom -5574.426655 kJ/mol
# Density = 2.415748 g / cm^3
# Si number density = 24.212593 Si / 1000 Ang^3
#
#
#
# Elastic Constant Matrix: (Units=GPa)
#
#
# Indices 1 2 3 4 5 6 
#
# 1 145.1152 -3.7407 -9.6247 0.0000 0.0000 0.0000
# 2 -3.7407 66.9663 3.6960 0.0000 0.0000 0.0000
# 3 -9.6247 3.6960 29.3455 0.0000 0.0000 0.0000
# 4 0.0000 0.0000 0.0000 26.5486 0.0000 0.0000
# 5 0.0000 0.0000 0.0000 0.0000 77.3243 0.0000
# 6 0.0000 0.0000 0.0000 0.0000 0.0000 23.6006
#
#
#
# Elastic Compliance Matrix: (Units=1/GPa)
#
#
# Indices 1 2 3 4 5 6 
#
# 1 0.007049 0.000268 0.002278 0.000000 0.000000 0.000000
# 2 0.000268 0.015048 -0.001807 0.000000 0.000000 0.000000
# 3 0.002278 -0.001807 0.035052 0.000000 0.000000 0.000000
# 4 0.000000 0.000000 0.000000 0.037667 0.000000 0.000000
# 5 0.000000 0.000000 0.000000 0.000000 0.012933 0.000000
# 6 0.000000 0.000000 0.000000 0.000000 0.000000 0.042372
#
#
# Mechanical properties :
#
#
# Convention : Reuss Voigt Hill
#
# Bulk Modulus (GPa) = 17.05726 24.67647 20.86686
# Shear Modulus (GPa) = 29.72943 42.23448 35.98196
#
# Velocity S-wave (km/s) = 3.50787 4.18104 3.85916
# Velocity P-wave (km/s) = 4.84427 5.78980 5.33801
#
# Compressibility (1/GPa) = 0.05862607
#
# Stress axis : x y z
#
# Youngs Moduli (GPa) = 141.86237 66.45579 28.52942
#
# Poissons Ratio (x) = -0.01781 -0.06500
# Poissons Ratio (y) = -0.03802 0.05156
# Poissons Ratio (z) = -0.32319 0.12010
#
# Static dielectric constant tensor:
#      x y z
#    x 2.071350 0.000000 0.000000 
#    y 0.000000 1.962700 0.000000 
#    z 0.000000 0.000000 1.879870 
# 
# From -- ./inp_files/4252.got.cif
#   From: 2010.05.17/outbox.cif.g08.bks.cpg/sg33_3_cif.got.tgz:4252.got - 2010.06.03 17:15:25.
