data_PCOD9345521
_publ_section_title
;
Structure prediction by ZEFSAII (Michael W. Deem and Ramdas Pophale) SiO2 
 PCOD9345521
Probable space group: P N A 21
;
_chemical_formula_sum "Si O2"
_cell_formula_units_Z 28
_cell_length_a 13.908288
_cell_length_b 5.681907
_cell_length_c 16.570253
_cell_angle_alpha 90.000000
_cell_angle_beta 90.000000
_cell_angle_gamma 90.000000
_cell_volume 1309.474168
_symmetry_space_group_name_H-M "P N A 21"
_symmetry_group_IT_number 33
_symmetry_cell_setting 'orthorhombic'
loop_
_space_group_symop_operation_xyz
x,y,z
-x,-y,1/2+z
1/2-x,1/2+y,1/2+z
1/2+x,1/2-y,z
loop_
_atom_site_type_symbol
_atom_site_label
_atom_site_fract_x
_atom_site_fract_y
_atom_site_fract_z
Si Si1 0.316854 0.855289 0.307750
Si Si2 0.880376 0.658915 0.017043
Si Si3 0.016596 0.876871 0.283771
Si Si4 0.598087 0.765492 0.711346
Si Si5 0.337806 0.341978 0.929788
Si Si6 0.733323 0.391548 0.649100
Si Si7 0.050538 0.609546 0.124342
O O1 0.429104 0.792333 0.308302
O O2 0.269989 0.839994 0.394475
O O3 0.265921 0.682506 0.243188
O O4 0.318931 0.103795 0.262035
O O5 0.812560 0.680531 0.096777
O O6 0.992076 0.676921 0.044364
O O7 0.860849 0.406806 0.974224
O O8 0.855048 0.905105 0.972315
O O9 0.098013 0.855479 0.349057
O O10 0.049109 0.812263 0.192951
O O11 0.965879 0.127115 0.276443
O O12 0.653456 0.595213 0.649597
O O13 0.519883 0.914589 0.662505
O O14 0.838122 0.458757 0.616903
#
# Coordination Sequence:
#
# PCOD9345521 Si02
#       7
#     4   4   4   4   4   4   4
#     4  10  23  42  73 101 137 188 251 293 356 443
#     4  12  28  48  66 114 155 178 244 310 371 438
#     4  10  23  42  73 103 136 189 252 293 352 446
#     4  10  21  42  74 107 134 179 272 307 327 450
#     4  12  29  46  72 106 155 187 228 317 378 421
#     4  11  23  44  74 103 141 198 248 302 365 442
#     4  11  23  44  74 102 140 199 247 300 365 440
#
# _framework density 21.382629999999999
#
# number of rings (size 3 to 8) (size 9 to 14) (size 15 to 20)
#    0.000    1.143    5.714    0.857   10.000    2.286 
#    0.000    0.000    0.000    0.000    0.000    0.000 
#    0.000    0.000    0.000    0.000    0.000    0.000 
#
# Total GULP energy -156127.163824 kJ/mol
# GULP energy per Si atom -5575.970137 kJ/mol
# Density = 2.133396 g / cm^3
# Si number density = 21.382630 Si / 1000 Ang^3
#
#
#
# Elastic Constant Matrix: (Units=GPa)
#
#
# Indices 1 2 3 4 5 6 
#
# 1 83.9414 0.2632 -4.7222 0.0000 0.0000 0.0000
# 2 0.2632 97.7985 22.4837 0.0000 0.0000 0.0000
# 3 -4.7222 22.4837 42.2080 0.0000 0.0000 0.0000
# 4 0.0000 0.0000 0.0000 24.4870 0.0000 0.0000
# 5 0.0000 0.0000 0.0000 0.0000 46.4569 0.0000
# 6 0.0000 0.0000 0.0000 0.0000 0.0000 12.2000
#
#
#
# Elastic Compliance Matrix: (Units=1/GPa)
#
#
# Indices 1 2 3 4 5 6 
#
# 1 0.012001 -0.000389 0.001550 0.000000 0.000000 0.000000
# 2 -0.000389 0.011665 -0.006257 0.000000 0.000000 0.000000
# 3 0.001550 -0.006257 0.027199 0.000000 0.000000 0.000000
# 4 0.000000 0.000000 0.000000 0.040838 0.000000 0.000000
# 5 0.000000 0.000000 0.000000 0.000000 0.021525 0.000000
# 6 0.000000 0.000000 0.000000 0.000000 0.000000 0.081967
#
#
# Mechanical properties :
#
#
# Convention : Reuss Voigt Hill
#
# Bulk Modulus (GPa) = 24.58644 28.88861 26.73752
# Shear Modulus (GPa) = 22.83682 30.35698 26.59690
#
# Velocity S-wave (km/s) = 3.27158 3.77198 3.53066
# Velocity P-wave (km/s) = 5.07881 5.70176 5.39928
#
# Compressibility (1/GPa) = 0.04067283
#
# Stress axis : x y z
#
# Youngs Moduli (GPa) = 83.32317 85.72909 36.76648
#
# Poissons Ratio (x) = 0.03331 -0.05698
# Poissons Ratio (y) = 0.03238 0.23005
# Poissons Ratio (z) = -0.12913 0.53642
#
# Static dielectric constant tensor:
#      x y z
#    x 1.768160 0.000000 0.000000 
#    y 0.000000 1.879530 0.000000 
#    z 0.000000 0.000000 1.819520 
# 
# From -- ./inp_files/8757.got.cif
#   From: 2010.05.17/outbox.cif.g08.bks.cpg/sg33_5_cif.got.tgz:8757.got - 2010.06.03 17:15:25.
