data_PCOD9345546
_publ_section_title
;
Structure prediction by ZEFSAII (Michael W. Deem and Ramdas Pophale) SiO2 
 PCOD9345546
Probable space group: P N A 21
;
_chemical_formula_sum "Si O2"
_cell_formula_units_Z 32
_cell_length_a 11.874866
_cell_length_b 20.485079
_cell_length_c 5.864367
_cell_angle_alpha 90.000000
_cell_angle_beta 90.000000
_cell_angle_gamma 90.000000
_cell_volume 1426.551655
_symmetry_space_group_name_H-M "P N A 21"
_symmetry_group_IT_number 33
_symmetry_cell_setting 'orthorhombic'
loop_
_space_group_symop_operation_xyz
x,y,z
-x,-y,1/2+z
1/2-x,1/2+y,1/2+z
1/2+x,1/2-y,z
loop_
_atom_site_type_symbol
_atom_site_label
_atom_site_fract_x
_atom_site_fract_y
_atom_site_fract_z
Si Si1 0.074741 0.435708 0.560080
Si Si2 0.346300 0.624362 0.529300
Si Si3 0.059955 0.854819 0.839735
Si Si4 0.469502 0.836911 0.442294
Si Si5 0.412022 0.719028 0.178039
Si Si6 0.937985 0.001277 0.331117
Si Si7 0.700214 0.184941 0.323342
Si Si8 0.629161 0.921951 0.725973
O O1 0.153983 0.384298 0.425816
O O2 0.119053 0.509387 0.587767
O O3 0.949923 0.434476 0.445749
O O4 0.064171 0.401243 0.803487
O O5 0.464862 0.642810 0.646303
O O6 0.328537 0.683783 0.355549
O O7 0.359413 0.560283 0.372291
O O8 0.258064 0.602242 0.723986
O O9 0.166535 0.809720 0.799020
O O10 0.111996 0.926895 0.848746
O O11 0.993929 0.834356 0.066267
O O12 0.491859 0.775367 0.283169
O O13 0.362907 0.813178 0.585247
O O14 0.568751 0.861334 0.601013
O O15 0.344284 0.757390 0.983712
O O16 0.987010 0.998940 0.070069
#
# Coordination Sequence:
#
# PCOD9345546 Si02
#       8
#     4   4   4   4   4   4   4   4
#     4  10  21  43  70 104 139 186 234 293 358 434
#     4  11  25  42  69 107 144 182 241 304 373 444
#     4  11  24  46  69 102 145 188 239 301 373 449
#     4  10  23  45  68 101 139 187 236 295 362 430
#     4  11  24  46  66 103 136 188 241 294 372 443
#     4  10  21  45  69 104 148 189 240 304 375 447
#     4  10  24  45  70  96 138 188 241 292 369 441
#     4  11  22  42  71 107 141 184 238 299 364 438
#
# _framework density 22.431716999999999
#
# number of rings (size 3 to 8) (size 9 to 14) (size 15 to 20)
#    0.000    1.500    2.500    1.500    1.750    3.000 
#   22.500    0.000    0.000    0.000    0.000    0.000 
#    0.000    0.000    0.000    0.000    0.000    0.000 
#
# Total GULP energy -178411.949236 kJ/mol
# GULP energy per Si atom -5575.373414 kJ/mol
# Density = 2.238066 g / cm^3
# Si number density = 22.431717 Si / 1000 Ang^3
#
#
#
# Elastic Constant Matrix: (Units=GPa)
#
#
# Indices 1 2 3 4 5 6 
#
# 1 88.3846 21.6503 17.3250 0.0000 0.0000 0.0000
# 2 21.6503 104.2952 16.7360 0.0000 0.0000 0.0000
# 3 17.3250 16.7360 58.1378 0.0000 0.0000 0.0000
# 4 0.0000 0.0000 0.0000 0.7896 0.0000 0.0000
# 5 0.0000 0.0000 0.0000 0.0000 6.7889 0.0000
# 6 0.0000 0.0000 0.0000 0.0000 0.0000 -2.8433
#
#
#
# Elastic Compliance Matrix: (Units=1/GPa)
#
#
# Indices 1 2 3 4 5 6 
#
# 1 0.012433 -0.002083 -0.003106 0.000000 0.000000 0.000000
# 2 -0.002083 0.010401 -0.002374 0.000000 0.000000 0.000000
# 3 -0.003106 -0.002374 0.018809 0.000000 0.000000 0.000000
# 4 0.000000 0.000000 0.000000 1.266437 0.000000 0.000000
# 5 0.000000 0.000000 0.000000 0.000000 0.147300 0.000000
# 6 0.000000 0.000000 0.000000 0.000000 0.000000 -0.351702
#
#
# Mechanical properties :
#
#
# Convention : Reuss Voigt Hill
#
# Bulk Modulus (GPa) = 37.70709 40.24892 38.97800
# Shear Modulus (GPa) = 4.43403 13.95412 9.19408
#
# Velocity S-wave (km/s) = 1.40747 2.49684 2.02672
# Velocity P-wave (km/s) = 4.41447 5.12778 4.78443
#
# Compressibility (1/GPa) = 0.02652021
#
# Stress axis : x y z
#
# Youngs Moduli (GPa) = 80.43064 96.14107 53.16538
#
# Poissons Ratio (x) = 0.20022 0.16511
# Poissons Ratio (y) = 0.16751 0.12619
# Poissons Ratio (z) = 0.24978 0.22820
#
# Static dielectric constant tensor:
#      x y z
#    x 1.842790 0.000000 0.000000 
#    y 0.000000 1.883840 0.000000 
#    z 0.000000 0.000000 1.929620 
# 
# From -- ./inp_files/1046.got.cif
#   From: 2010.05.17/outbox.cif.g08.bks.cpg/sg33_1_cif.got.tgz:1046.got - 2010.06.03 17:15:25.
