data_PCOD9345168
_publ_section_title
;
Structure prediction by ZEFSAII (Michael W. Deem and Ramdas Pophale) SiO2 
 PCOD9345168
Probable space group: P N A 21
;
_chemical_formula_sum "Si O2"
_cell_formula_units_Z 32
_cell_length_a 21.449854
_cell_length_b 5.053548
_cell_length_c 12.049790
_cell_angle_alpha 90.000000
_cell_angle_beta 90.000000
_cell_angle_gamma 90.000000
_cell_volume 1306.171531
_symmetry_space_group_name_H-M "P N A 21"
_symmetry_group_IT_number 33
_symmetry_cell_setting 'orthorhombic'
loop_
_space_group_symop_operation_xyz
x,y,z
-x,-y,1/2+z
1/2-x,1/2+y,1/2+z
1/2+x,1/2-y,z
loop_
_atom_site_type_symbol
_atom_site_label
_atom_site_fract_x
_atom_site_fract_y
_atom_site_fract_z
Si Si1 0.411155 0.801706 0.272160
Si Si2 0.918072 0.889402 0.938546
Si Si3 0.625673 0.905190 0.561999
Si Si4 0.891797 0.750686 0.690102
Si Si5 0.189665 0.746624 0.157916
Si Si6 0.953013 0.955619 0.471612
Si Si7 0.165781 0.674032 0.917800
Si Si8 0.304297 0.440262 0.209237
O O1 0.464945 0.708745 0.356409
O O2 0.374377 0.559697 0.216206
O O3 0.415655 0.013237 0.172304
O O4 0.363276 0.915648 0.363884
O O5 0.920004 0.837531 0.807462
O O6 0.987496 0.858038 0.988313
O O7 0.871549 0.675467 0.992750
O O8 0.900309 0.182662 0.979281
O O9 0.688701 0.777564 0.612711
O O10 0.864420 0.455327 0.698483
O O11 0.834812 0.957254 0.669691
O O12 0.936397 0.790778 0.582519
O O13 0.255710 0.676088 0.208198
O O14 0.199710 0.650793 0.032140
O O15 0.893390 0.137668 0.444912
O O16 0.208327 0.795661 0.824044
#
# Coordination Sequence:
#
# PCOD9345168 Si02
#       8
#     4   4   4   4   4   4   4   4
#     4  10  20  45  68 101 133 175 242 280 326 434
#     4  12  27  45  69 106 143 184 224 294 363 398
#     4  11  25  45  66 103 140 173 239 283 336 428
#     4  11  26  46  66 105 146 175 239 287 343 436
#     4  11  24  46  69 100 141 181 228 287 360 401
#     4  10  24  44  72  98 136 192 227 285 348 416
#     4   9  21  42  67 105 131 174 244 282 325 439
#     4  10  23  43  73  96 138 186 227 288 351 408
#
# _framework density 24.499079999999999
#
# number of rings (size 3 to 8) (size 9 to 14) (size 15 to 20)
#    0.000    1.500    2.500    0.750    7.000    1.000 
#    4.500    0.000    0.000    0.000    0.000    0.000 
#    0.000    0.000    0.000    0.000    0.000    0.000 
#
# Total GULP energy -178717.010823 kJ/mol
# GULP energy per Si atom -5584.906588 kJ/mol
# Density = 2.444332 g / cm^3
# Si number density = 24.499080 Si / 1000 Ang^3
#
#
#
# Elastic Constant Matrix: (Units=GPa)
#
#
# Indices 1 2 3 4 5 6 
#
# 1 32.5824 -6.8868 2.2466 0.0000 0.0000 0.0000
# 2 -6.8868 90.3738 9.2065 0.0000 0.0000 0.0000
# 3 2.2466 9.2065 95.6556 0.0000 0.0000 0.0000
# 4 0.0000 0.0000 0.0000 43.3736 0.0000 0.0000
# 5 0.0000 0.0000 0.0000 0.0000 17.2160 0.0000
# 6 0.0000 0.0000 0.0000 0.0000 0.0000 18.5043
#
#
#
# Elastic Compliance Matrix: (Units=1/GPa)
#
#
# Indices 1 2 3 4 5 6 
#
# 1 0.031283 0.002483 -0.000974 0.000000 0.000000 0.000000
# 2 0.002483 0.011372 -0.001153 0.000000 0.000000 0.000000
# 3 -0.000974 -0.001153 0.010588 0.000000 0.000000 0.000000
# 4 0.000000 0.000000 0.000000 0.023056 0.000000 0.000000
# 5 0.000000 0.000000 0.000000 0.000000 0.058085 0.000000
# 6 0.000000 0.000000 0.000000 0.000000 0.000000 0.054041
#
#
# Mechanical properties :
#
#
# Convention : Reuss Voigt Hill
#
# Bulk Modulus (GPa) = 18.53352 25.30495 21.91924
# Shear Modulus (GPa) = 24.30749 30.08848 27.19799
#
# Velocity S-wave (km/s) = 3.15331 3.50830 3.33553
# Velocity P-wave (km/s) = 4.56500 5.17322 4.87860
#
# Compressibility (1/GPa) = 0.05395629
#
# Stress axis : x y z
#
# Youngs Moduli (GPa) = 31.96585 87.93676 94.44660
#
# Poissons Ratio (x) = -0.21836 0.09197
# Poissons Ratio (y) = -0.07937 0.10888
# Poissons Ratio (z) = 0.03113 0.10137
#
# Static dielectric constant tensor:
#      x y z
#    x 1.938620 0.000000 0.000000 
#    y 0.000000 1.998390 0.000000 
#    z 0.000000 0.000000 1.979540 
# 
# From -- ./inp_files/7233.got.cif
#   From: 2010.05.17/outbox.cif.g08.bks.cpg/sg33_4_cif.got.tgz:7233.got - 2010.06.03 17:15:25.
