data_PCOD9345180
_publ_section_title
;
Structure prediction by ZEFSAII (Michael W. Deem and Ramdas Pophale) SiO2 
 PCOD9345180
Probable space group: P N A 21
;
_chemical_formula_sum "Si O2"
_cell_formula_units_Z 24
_cell_length_a 8.380932
_cell_length_b 4.919993
_cell_length_c 19.915263
_cell_angle_alpha 90.000000
_cell_angle_beta 90.000000
_cell_angle_gamma 90.000000
_cell_volume 821.188479
_symmetry_space_group_name_H-M "P N A 21"
_symmetry_group_IT_number 33
_symmetry_cell_setting 'orthorhombic'
loop_
_space_group_symop_operation_xyz
x,y,z
-x,-y,1/2+z
1/2-x,1/2+y,1/2+z
1/2+x,1/2-y,z
loop_
_atom_site_type_symbol
_atom_site_label
_atom_site_fract_x
_atom_site_fract_y
_atom_site_fract_z
Si Si1 0.770224 0.851957 0.307560
Si Si2 0.466110 0.495800 0.195094
Si Si3 0.514664 0.204137 0.325678
Si Si4 0.703396 0.512217 0.433049
Si Si5 0.014796 0.430896 0.019086
Si Si6 0.753717 0.931029 0.611799
O O1 0.846308 0.801970 0.234701
O O2 0.581091 0.904497 0.310921
O O3 0.844167 0.147639 0.324970
O O4 0.794331 0.661704 0.371156
O O5 0.565835 0.347669 0.254811
O O6 0.352639 0.275479 0.157729
O O7 0.608084 0.604626 0.148475
O O8 0.591279 0.298754 0.395695
O O9 0.589783 0.725192 0.472399
O O10 0.849062 0.407020 0.478470
O O11 0.879504 0.574406 0.064831
O O12 0.130765 0.252773 0.065904
#
# Coordination Sequence:
#
# PCOD9345180 Si02
#       6
#     4   4   4   4   4   4
#     4  10  21  34  56  86 114 145 175 239 285 331
#     4   9  15  33  48  86 106 132 193 220 279 328
#     4  10  21  34  56  86 114 145 175 239 285 331
#     4  11  20  38  52  90 114 141 194 216 296 329
#     4   9  19  31  54  82 106 152 185 226 263 334
#     4   9  16  30  56  80 106 141 196 224 258 339
#
# _framework density 29.225933000000001
#
# number of rings (size 3 to 8) (size 9 to 14) (size 15 to 20)
#    1.000    1.333    3.333    0.000    2.333    0.000 
#    0.000    0.000    0.000    0.000   65.000    0.000 
#    0.000    0.000    0.000    0.000    0.000    0.000 
#
# Total GULP energy -133957.160298 kJ/mol
# GULP energy per Si atom -5581.548346 kJ/mol
# Density = 2.915941 g / cm^3
# Si number density = 29.225933 Si / 1000 Ang^3
#
#
#
# Elastic Constant Matrix: (Units=GPa)
#
#
# Indices 1 2 3 4 5 6 
#
# 1 204.7085 55.5692 100.5683 0.0000 0.0000 0.0000
# 2 55.5692 41.6944 30.7713 0.0000 0.0000 0.0000
# 3 100.5683 30.7713 123.3483 0.0000 0.0000 0.0000
# 4 0.0000 0.0000 0.0000 9.9450 0.0000 0.0000
# 5 0.0000 0.0000 0.0000 0.0000 124.8050 0.0000
# 6 0.0000 0.0000 0.0000 0.0000 0.0000 769.6111
#
#
#
# Elastic Compliance Matrix: (Units=1/GPa)
#
#
# Indices 1 2 3 4 5 6 
#
# 1 0.010482 -0.009392 -0.006203 0.000000 0.000000 0.000000
# 2 -0.009392 0.037812 -0.001775 0.000000 0.000000 0.000000
# 3 -0.006203 -0.001775 0.013608 0.000000 0.000000 0.000000
# 4 0.000000 0.000000 0.000000 0.100553 0.000000 0.000000
# 5 0.000000 0.000000 0.000000 0.000000 0.008013 0.000000
# 6 0.000000 0.000000 0.000000 0.000000 0.000000 0.001299
#
#
# Mechanical properties :
#
#
# Convention : Reuss Voigt Hill
#
# Bulk Modulus (GPa) = 36.81847 82.61875 59.71861
# Shear Modulus (GPa) = 23.19541 193.06171 108.12856
#
# Velocity S-wave (km/s) = 2.82025 8.13645 6.08915
# Velocity P-wave (km/s) = 4.81978 10.79812 8.36151
#
# Compressibility (1/GPa) = 0.02716028
#
# Stress axis : x y z
#
# Youngs Moduli (GPa) = 95.40183 26.44691 73.48858
#
# Poissons Ratio (x) = 0.24839 0.45586
# Poissons Ratio (y) = 0.89602 0.13046
# Poissons Ratio (z) = 0.59179 0.04695
#
# Static dielectric constant tensor:
#      x y z
#    x 2.393320 0.000000 0.000000 
#    y 0.000000 2.414430 0.000000 
#    z 0.000000 0.000000 2.400200 
# 
# From -- ./inp_files/8912.got.cif
#   From: 2010.05.17/outbox.cif.g08.bks.cpg/sg33_5_cif.got.tgz:8912.got - 2010.06.03 17:15:25.
