data_PCOD9345027
_publ_section_title
;
Structure prediction by ZEFSAII (Michael W. Deem and Ramdas Pophale) SiO2 
 PCOD9345027
Probable space group: P N A 21
;
_chemical_formula_sum "Si O2"
_cell_formula_units_Z 24
_cell_length_a 8.080883
_cell_length_b 9.197742
_cell_length_c 12.886149
_cell_angle_alpha 90.000000
_cell_angle_beta 90.000000
_cell_angle_gamma 90.000000
_cell_volume 957.774325
_symmetry_space_group_name_H-M "P N A 21"
_symmetry_group_IT_number 33
_symmetry_cell_setting 'orthorhombic'
loop_
_space_group_symop_operation_xyz
x,y,z
-x,-y,1/2+z
1/2-x,1/2+y,1/2+z
1/2+x,1/2-y,z
loop_
_atom_site_type_symbol
_atom_site_label
_atom_site_fract_x
_atom_site_fract_y
_atom_site_fract_z
Si Si1 0.645676 0.099695 0.384480
Si Si2 0.410417 0.159007 0.763249
Si Si3 0.220669 0.964550 0.598168
Si Si4 0.413436 0.726015 0.674465
Si Si5 0.475714 0.346250 0.488814
Si Si6 0.772254 0.078138 0.695054
O O1 0.589417 0.182208 0.280026
O O2 0.543946 0.184548 0.472204
O O3 0.841953 0.115883 0.401112
O O4 0.602923 0.932720 0.368283
O O5 0.586777 0.129095 0.712142
O O6 0.374425 0.328339 0.779225
O O7 0.278978 0.084206 0.683090
O O8 0.364682 0.844605 0.586973
O O9 0.076322 0.863542 0.646512
O O10 0.136187 0.050652 0.503260
O O11 0.283772 0.594625 0.693732
O O12 0.366142 0.369477 0.591311
#
# Coordination Sequence:
#
# PCOD9345027 Si02
#       6
#     4   4   4   4   4   4
#     4  11  22  41  65  95 132 173 223 286 346 395
#     4  11  22  39  65  95 129 177 225 269 332 415
#     4  10  21  39  64  94 128 174 225 268 331 414
#     4  10  20  39  65  92 129 177 223 270 332 416
#     4  11  23  38  64  99 131 168 225 289 343 393
#     4  11  22  40  65  93 129 175 225 272 330 413
#
# _framework density 25.058097
#
# number of rings (size 3 to 8) (size 9 to 14) (size 15 to 20)
#    0.000    1.333    0.000    9.000    0.000    0.000 
#    0.000    6.667    0.000    8.000    0.000    0.000 
#    0.000    0.000    0.000    0.000    0.000    0.000 
#
# Total GULP energy -134211.837331 kJ/mol
# GULP energy per Si atom -5592.159889 kJ/mol
# Density = 2.500106 g / cm^3
# Si number density = 25.058097 Si / 1000 Ang^3
#
#
#
# Elastic Constant Matrix: (Units=GPa)
#
#
# Indices 1 2 3 4 5 6 
#
# 1 78.5154 12.9305 -2.9452 0.0000 0.0000 0.0000
# 2 12.9305 126.3605 22.9534 0.0000 0.0000 0.0000
# 3 -2.9452 22.9534 32.1648 0.0000 0.0000 0.0000
# 4 0.0000 0.0000 0.0000 38.2392 0.0000 0.0000
# 5 0.0000 0.0000 0.0000 0.0000 32.6051 0.0000
# 6 0.0000 0.0000 0.0000 0.0000 0.0000 60.0136
#
#
#
# Elastic Compliance Matrix: (Units=1/GPa)
#
#
# Indices 1 2 3 4 5 6 
#
# 1 0.013125 -0.001794 0.002482 0.000000 0.000000 0.000000
# 2 -0.001794 0.009338 -0.006828 0.000000 0.000000 0.000000
# 3 0.002482 -0.006828 0.036190 0.000000 0.000000 0.000000
# 4 0.000000 0.000000 0.000000 0.026151 0.000000 0.000000
# 5 0.000000 0.000000 0.000000 0.000000 0.030670 0.000000
# 6 0.000000 0.000000 0.000000 0.000000 0.000000 0.016663
#
#
# Mechanical properties :
#
#
# Convention : Reuss Voigt Hill
#
# Bulk Modulus (GPa) = 21.56442 33.65756 27.61099
# Shear Modulus (GPa) = 31.27473 39.77839 35.52656
#
# Velocity S-wave (km/s) = 3.53666 3.98860 3.76941
# Velocity P-wave (km/s) = 5.03009 5.88837 5.47607
#
# Compressibility (1/GPa) = 0.04637269
#
# Stress axis : x y z
#
# Youngs Moduli (GPa) = 76.19108 107.09251 27.63219
#
# Poissons Ratio (x) = 0.19212 -0.06858
# Poissons Ratio (y) = 0.13668 0.18867
# Poissons Ratio (z) = -0.18910 0.73121
#
# Static dielectric constant tensor:
#      x y z
#    x 2.036900 0.000000 0.000000 
#    y 0.000000 2.002770 0.000000 
#    z 0.000000 0.000000 2.076650 
# 
# From -- ./inp_files/7574.got.cif
#   From: 2010.05.17/outbox.cif.g08.bks.cpg/sg33_4_cif.got.tgz:7574.got - 2010.06.03 17:15:25.
