data_PCOD9345583
_publ_section_title
;
Structure prediction by ZEFSAII (Michael W. Deem and Ramdas Pophale) SiO2 
 PCOD9345583
Probable space group: P N A 21
;
_chemical_formula_sum "Si O2"
_cell_formula_units_Z 28
_cell_length_a 26.199715
_cell_length_b 5.418049
_cell_length_c 8.249945
_cell_angle_alpha 90.000000
_cell_angle_beta 90.000000
_cell_angle_gamma 90.000000
_cell_volume 1171.090745
_symmetry_space_group_name_H-M "P N A 21"
_symmetry_group_IT_number 33
_symmetry_cell_setting 'orthorhombic'
loop_
_space_group_symop_operation_xyz
x,y,z
-x,-y,1/2+z
1/2-x,1/2+y,1/2+z
1/2+x,1/2-y,z
loop_
_atom_site_type_symbol
_atom_site_label
_atom_site_fract_x
_atom_site_fract_y
_atom_site_fract_z
Si Si1 0.799195 0.232868 0.525980
Si Si2 0.574839 0.339805 0.368262
Si Si3 0.794589 0.505074 0.200019
Si Si4 0.103559 0.659193 0.553103
Si Si5 0.453968 0.310184 0.362111
Si Si6 0.389725 0.007121 0.595973
Si Si7 0.134459 0.150266 0.831815
O O1 0.778527 0.402565 0.377968
O O2 0.755920 0.061754 0.600406
O O3 0.836076 0.374097 0.656267
O O4 0.839547 0.053287 0.441388
O O5 0.593848 0.604991 0.435318
O O6 0.513701 0.348451 0.372104
O O7 0.591648 0.232981 0.192743
O O8 0.594385 0.104362 0.470680
O O9 0.838457 0.332119 0.120903
O O10 0.823965 0.770183 0.201650
O O11 0.063195 0.658480 0.702372
O O12 0.422714 0.556422 0.312667
O O13 0.433874 0.194039 0.533862
O O14 0.370633 0.904615 0.425197
#
# Coordination Sequence:
#
# PCOD9345583 Si02
#       7
#     4   4   4   4   4   4   4
#     4  10  24  45  78 104 145 206 255 316 386 461
#     4  12  30  43  79 118 152 199 258 323 375 466
#     4  11  24  48  75 109 147 203 257 319 392 448
#     4  12  27  49  74 115 156 196 256 327 376 461
#     4  11  24  47  77 102 155 206 252 300 402 451
#     4  10  24  49  70 109 150 201 258 315 378 468
#     4  10  21  45  73 101 145 203 250 312 377 463
#
# _framework density 23.909334000000001
#
# number of rings (size 3 to 8) (size 9 to 14) (size 15 to 20)
#    0.000    1.143    4.286    1.714    8.000    4.571 
#    2.571    0.000    0.000    0.000    0.000    0.000 
#    0.000    0.000    0.000    0.000    0.000    0.000 
#
# Total GULP energy -156045.044297 kJ/mol
# GULP energy per Si atom -5573.037296 kJ/mol
# Density = 2.385492 g / cm^3
# Si number density = 23.909334 Si / 1000 Ang^3
#
#
#
# Elastic Constant Matrix: (Units=GPa)
#
#
# Indices 1 2 3 4 5 6 
#
# 1 130.9176 24.0101 29.1651 0.0000 0.0000 0.0000
# 2 24.0101 86.4414 7.7649 0.0000 0.0000 0.0000
# 3 29.1651 7.7649 52.2085 0.0000 0.0000 0.0000
# 4 0.0000 0.0000 0.0000 71.2763 0.0000 0.0000
# 5 0.0000 0.0000 0.0000 0.0000 33.0235 0.0000
# 6 0.0000 0.0000 0.0000 0.0000 0.0000 35.2168
#
#
#
# Elastic Compliance Matrix: (Units=1/GPa)
#
#
# Indices 1 2 3 4 5 6 
#
# 1 0.009084 -0.002095 -0.004763 0.000000 0.000000 0.000000
# 2 -0.002095 0.012208 -0.000645 0.000000 0.000000 0.000000
# 3 -0.004763 -0.000645 0.021911 0.000000 0.000000 0.000000
# 4 0.000000 0.000000 0.000000 0.014030 0.000000 0.000000
# 5 0.000000 0.000000 0.000000 0.000000 0.030281 0.000000
# 6 0.000000 0.000000 0.000000 0.000000 0.000000 0.028395
#
#
# Mechanical properties :
#
#
# Convention : Reuss Voigt Hill
#
# Bulk Modulus (GPa) = 35.46590 43.49418 39.48004
# Shear Modulus (GPa) = 35.63414 41.81184 38.72299
#
# Velocity S-wave (km/s) = 3.86474 4.18636 4.02876
# Velocity P-wave (km/s) = 5.89751 6.44967 6.17976
#
# Compressibility (1/GPa) = 0.02819610
#
# Stress axis : x y z
#
# Youngs Moduli (GPa) = 110.08757 81.91034 45.64009
#
# Poissons Ratio (x) = 0.17162 0.21737
# Poissons Ratio (y) = 0.23066 0.02945
# Poissons Ratio (z) = 0.52432 0.05286
#
# Static dielectric constant tensor:
#      x y z
#    x 1.891890 0.000000 0.000000 
#    y 0.000000 1.950030 0.000000 
#    z 0.000000 0.000000 2.167740 
# 
# From -- ./inp_files/5153.got.cif
#   From: 2010.05.17/outbox.cif.g08.bks.cpg/sg33_3_cif.got.tgz:5153.got - 2010.06.03 17:15:25.
