data_PCOD9345754
_publ_section_title
;
Structure prediction by ZEFSAII (Michael W. Deem and Ramdas Pophale) SiO2 
 PCOD9345754
Probable space group: P N A 21
;
_chemical_formula_sum "Si O2"
_cell_formula_units_Z 32
_cell_length_a 22.539792
_cell_length_b 5.053467
_cell_length_c 12.178814
_cell_angle_alpha 90.000000
_cell_angle_beta 90.000000
_cell_angle_gamma 90.000000
_cell_volume 1387.216788
_symmetry_space_group_name_H-M "P N A 21"
_symmetry_group_IT_number 33
_symmetry_cell_setting 'orthorhombic'
loop_
_space_group_symop_operation_xyz
x,y,z
-x,-y,1/2+z
1/2-x,1/2+y,1/2+z
1/2+x,1/2-y,z
loop_
_atom_site_type_symbol
_atom_site_label
_atom_site_fract_x
_atom_site_fract_y
_atom_site_fract_z
Si Si1 0.449520 0.999374 0.762290
Si Si2 0.821047 0.470617 0.502709
Si Si3 0.085238 0.360592 0.479803
Si Si4 0.445058 0.632040 0.217283
Si Si5 0.888358 0.981136 0.434187
Si Si6 0.992626 0.754216 0.569015
Si Si7 0.708820 0.249352 0.375323
Si Si8 0.679061 0.765347 0.250000
O O1 0.510102 0.160722 0.771536
O O2 0.389162 0.167370 0.781749
O O3 0.443458 0.786877 0.861486
O O4 0.447594 0.944587 0.630761
O O5 0.841733 0.774371 0.488464
O O6 0.761131 0.393442 0.439094
O O7 0.813780 0.358055 0.625352
O O8 0.870217 0.282955 0.447290
O O9 0.074466 0.219284 0.595731
O O10 0.154596 0.321785 0.456768
O O11 0.048412 0.631397 0.505560
O O12 0.394946 0.580295 0.305524
O O13 0.482843 0.378854 0.181965
O O14 0.951579 0.935696 0.494358
O O15 0.689692 0.461110 0.281447
O O16 0.720826 0.966220 0.319090
#
# Coordination Sequence:
#
# PCOD9345754 Si02
#       8
#     4   4   4   4   4   4   4   4
#     4  10  22  41  68  98 140 181 236 282 358 441
#     4  12  27  50  73 105 143 192 248 296 361 432
#     4  10  25  42  67 102 140 187 235 300 365 426
#     4  11  26  39  69 103 146 189 222 310 362 442
#     4  12  27  47  73 107 148 194 240 297 371 439
#     4  11  24  42  69 106 142 191 234 301 370 441
#     4  11  27  46  76 101 141 187 248 300 355 425
#     4  11  24  47  73 108 132 191 239 298 352 430
#
# _framework density 23.067771
#
# number of rings (size 3 to 8) (size 9 to 14) (size 15 to 20)
#    0.000    1.000    2.500    2.250   15.750    2.000 
#    0.000    1.250    0.000    0.000    0.000    0.000 
#    0.000    0.000    0.000    0.000    0.000    0.000 
#
# Total GULP energy -178500.729520 kJ/mol
# GULP energy per Si atom -5578.147798 kJ/mol
# Density = 2.301527 g / cm^3
# Si number density = 23.067771 Si / 1000 Ang^3
#
#
#
# Elastic Constant Matrix: (Units=GPa)
#
#
# Indices 1 2 3 4 5 6 
#
# 1 58.4233 0.6502 27.7668 0.0000 0.0000 0.0000
# 2 0.6502 55.2112 4.1423 0.0000 0.0000 0.0000
# 3 27.7668 4.1423 128.6349 0.0000 0.0000 0.0000
# 4 0.0000 0.0000 0.0000 30.1835 0.0000 0.0000
# 5 0.0000 0.0000 0.0000 0.0000 35.1578 0.0000
# 6 0.0000 0.0000 0.0000 0.0000 0.0000 28.5914
#
#
#
# Elastic Compliance Matrix: (Units=1/GPa)
#
#
# Indices 1 2 3 4 5 6 
#
# 1 0.019074 0.000084 -0.004120 0.000000 0.000000 0.000000
# 2 0.000084 0.018157 -0.000603 0.000000 0.000000 0.000000
# 3 -0.004120 -0.000603 0.008683 0.000000 0.000000 0.000000
# 4 0.000000 0.000000 0.000000 0.033131 0.000000 0.000000
# 5 0.000000 0.000000 0.000000 0.000000 0.028443 0.000000
# 6 0.000000 0.000000 0.000000 0.000000 0.000000 0.034976
#
#
# Mechanical properties :
#
#
# Convention : Reuss Voigt Hill
#
# Bulk Modulus (GPa) = 27.29549 34.15423 30.72486
# Shear Modulus (GPa) = 30.49695 32.76722 31.63208
#
# Velocity S-wave (km/s) = 3.63996 3.77301 3.70708
# Velocity P-wave (km/s) = 5.43361 5.81541 5.62775
#
# Compressibility (1/GPa) = 0.03663609
#
# Stress axis : x y z
#
# Youngs Moduli (GPa) = 52.42855 55.07667 115.17203
#
# Poissons Ratio (x) = -0.00465 0.47450
# Poissons Ratio (y) = -0.00443 0.06944
# Poissons Ratio (z) = 0.21600 0.03321
#
# Static dielectric constant tensor:
#      x y z
#    x 1.977590 0.000000 0.000000 
#    y 0.000000 2.233510 0.000000 
#    z 0.000000 0.000000 1.959420 
# 
# From -- ./inp_files/7312.got.cif
#   From: 2010.05.17/outbox.cif.g08.bks.cpg/sg33_4_cif.got.tgz:7312.got - 2010.06.03 17:15:25.
