data_PCOD9345433
_publ_section_title
;
Structure prediction by ZEFSAII (Michael W. Deem and Ramdas Pophale) SiO2 
 PCOD9345433
Probable space group: P N A 21
;
_chemical_formula_sum "Si O2"
_cell_formula_units_Z 28
_cell_length_a 15.965319
_cell_length_b 7.370596
_cell_length_c 11.731039
_cell_angle_alpha 90.000000
_cell_angle_beta 90.000000
_cell_angle_gamma 90.000000
_cell_volume 1380.437302
_symmetry_space_group_name_H-M "P N A 21"
_symmetry_group_IT_number 33
_symmetry_cell_setting 'orthorhombic'
loop_
_space_group_symop_operation_xyz
x,y,z
-x,-y,1/2+z
1/2-x,1/2+y,1/2+z
1/2+x,1/2-y,z
loop_
_atom_site_type_symbol
_atom_site_label
_atom_site_fract_x
_atom_site_fract_y
_atom_site_fract_z
Si Si1 0.450095 0.528743 0.337180
Si Si2 0.707599 0.701638 0.481991
Si Si3 0.109027 0.408495 0.904338
Si Si4 0.449481 0.251234 0.535166
Si Si5 0.865651 0.865566 0.110974
Si Si6 0.799201 0.488817 0.181347
Si Si7 0.127823 0.901897 0.261309
O O1 0.449806 0.737979 0.378047
O O2 0.424227 0.395321 0.437557
O O3 0.388543 0.531689 0.228971
O O4 0.544856 0.489357 0.298261
O O5 0.805774 0.679211 0.454529
O O6 0.675264 0.508118 0.526970
O O7 0.659542 0.728243 0.362801
O O8 0.688746 0.849483 0.578599
O O9 0.135358 0.510767 0.786640
O O10 0.068301 0.551973 0.988597
O O11 0.546576 0.288284 0.563988
O O12 0.398413 0.292177 0.649387
O O13 0.807099 0.694436 0.135300
O O14 0.706168 0.469482 0.232317
#
# Coordination Sequence:
#
# PCOD9345433 Si02
#       7
#     4   4   4   4   4   4   4
#     4  10  21  41  61  90 125 164 203 264 310 363
#     4  11  21  41  63  90 124 166 208 259 314 373
#     4  10  23  38  63  91 122 161 213 251 316 374
#     4  11  21  39  61  90 126 161 207 259 309 378
#     4  10  22  37  63  89 122 166 207 257 317 367
#     4  10  22  41  60  88 123 163 205 262 307 374
#     4  10  22  39  61  90 124 159 211 254 307 375
#
# _framework density 20.283425999999999
#
# number of rings (size 3 to 8) (size 9 to 14) (size 15 to 20)
#    0.000    1.714    1.429    2.571    2.000    0.000 
#    0.000   15.714    0.000    0.000    0.000    0.000 
#    0.000    0.000    0.000    0.000    0.000    0.000 
#
# Total GULP energy -156439.638502 kJ/mol
# GULP energy per Si atom -5587.129946 kJ/mol
# Density = 2.023726 g / cm^3
# Si number density = 20.283426 Si / 1000 Ang^3
#
#
#
# Elastic Constant Matrix: (Units=GPa)
#
#
# Indices 1 2 3 4 5 6 
#
# 1 59.2417 11.0417 10.4864 0.0000 0.0000 0.0000
# 2 11.0417 35.8597 34.6046 0.0000 0.0000 0.0000
# 3 10.4864 34.6046 89.0726 0.0000 0.0000 0.0000
# 4 0.0000 0.0000 0.0000 26.4641 0.0000 0.0000
# 5 0.0000 0.0000 0.0000 0.0000 17.8602 0.0000
# 6 0.0000 0.0000 0.0000 0.0000 0.0000 13.6180
#
#
#
# Elastic Compliance Matrix: (Units=1/GPa)
#
#
# Indices 1 2 3 4 5 6 
#
# 1 0.017908 -0.005566 0.000054 0.000000 0.000000 0.000000
# 2 -0.005566 0.046342 -0.017348 0.000000 0.000000 0.000000
# 3 0.000054 -0.017348 0.017960 0.000000 0.000000 0.000000
# 4 0.000000 0.000000 0.000000 0.037787 0.000000 0.000000
# 5 0.000000 0.000000 0.000000 0.000000 0.055990 0.000000
# 6 0.000000 0.000000 0.000000 0.000000 0.000000 0.073432
#
#
# Mechanical properties :
#
#
# Convention : Reuss Voigt Hill
#
# Bulk Modulus (GPa) = 27.40575 32.93770 30.17172
# Shear Modulus (GPa) = 16.27056 20.12453 18.19754
#
# Velocity S-wave (km/s) = 2.83532 3.15328 2.99852
# Velocity P-wave (km/s) = 4.92539 5.43430 5.18609
#
# Compressibility (1/GPa) = 0.03648869
#
# Stress axis : x y z
#
# Youngs Moduli (GPa) = 55.84126 21.57888 55.67863
#
# Poissons Ratio (x) = 0.12012 -0.00302
# Poissons Ratio (y) = 0.31084 0.96593
# Poissons Ratio (z) = -0.00303 0.37436
#
# Static dielectric constant tensor:
#      x y z
#    x 1.736020 0.000000 0.000000 
#    y 0.000000 1.664100 0.000000 
#    z 0.000000 0.000000 1.744920 
# 
# From -- ./inp_files/6934.got.cif
#   From: 2010.05.17/outbox.cif.g08.bks.cpg/sg33_4_cif.got.tgz:6934.got - 2010.06.03 17:15:25.
