data_PCOD9345420
_publ_section_title
;
Structure prediction by ZEFSAII (Michael W. Deem and Ramdas Pophale) SiO2 
 PCOD9345420
Probable space group: P N A 21
;
_chemical_formula_sum "Si O2"
_cell_formula_units_Z 32
_cell_length_a 11.592204
_cell_length_b 17.688520
_cell_length_c 5.887348
_cell_angle_alpha 90.000000
_cell_angle_beta 90.000000
_cell_angle_gamma 90.000000
_cell_volume 1207.194421
_symmetry_space_group_name_H-M "P N A 21"
_symmetry_group_IT_number 33
_symmetry_cell_setting 'orthorhombic'
loop_
_space_group_symop_operation_xyz
x,y,z
-x,-y,1/2+z
1/2-x,1/2+y,1/2+z
1/2+x,1/2-y,z
loop_
_atom_site_type_symbol
_atom_site_label
_atom_site_fract_x
_atom_site_fract_y
_atom_site_fract_z
Si Si1 0.181636 0.839300 0.555940
Si Si2 0.418763 0.611949 0.568569
Si Si3 0.484679 0.114739 0.055608
Si Si4 0.408718 0.849823 0.054344
Si Si5 0.759755 0.502634 0.045860
Si Si6 0.218653 0.689892 0.330202
Si Si7 0.335224 0.991669 0.544438
Si Si8 0.779910 0.786287 0.898562
O O1 0.192736 0.779304 0.352571
O O2 0.266547 0.910784 0.545560
O O3 0.219707 0.779427 0.750076
O O4 0.053673 0.872874 0.567459
O O5 0.373191 0.525507 0.552882
O O6 0.346949 0.658906 0.380161
O O7 0.361972 0.652705 0.784149
O O8 0.534581 0.140685 0.805298
O O9 0.358318 0.148980 0.021472
O O10 0.471646 0.972352 0.552226
O O11 0.306664 0.024160 0.295461
O O12 0.304061 0.911293 0.046007
O O13 0.471006 0.859490 0.805287
O O14 0.366514 0.764837 0.044190
O O15 0.801192 0.475643 0.791718
O O16 0.192241 0.673485 0.069152
#
# Coordination Sequence:
#
# PCOD9345420 Si02
#       8
#     4   4   4   4   4   4   4   4
#     4  11  24  43  68 100 139 188 236 284 361 426
#     4  11  28  43  66 107 145 179 232 307 357 409
#     4  10  21  40  70 100 128 184 234 285 331 416
#     4  10  21  42  74  95 135 191 237 274 346 434
#     4  10  22  45  70 102 145 178 237 287 350 420
#     4  11  26  41  67 102 145 182 236 294 356 420
#     4  10  22  45  72 101 135 193 235 277 345 437
#     4  11  24  43  65 101 142 183 235 288 358 426
#
# _framework density 26.507743999999999
#
# number of rings (size 3 to 8) (size 9 to 14) (size 15 to 20)
#    0.000    1.500    2.500    2.250   12.250    1.000 
#    0.000    5.000    0.000    0.000    0.000    0.000 
#    0.000    0.000    0.000    0.000    0.000    0.000 
#
# Total GULP energy -178349.541990 kJ/mol
# GULP energy per Si atom -5573.423187 kJ/mol
# Density = 2.644741 g / cm^3
# Si number density = 26.507744 Si / 1000 Ang^3
#
#
#
# Elastic Constant Matrix: (Units=GPa)
#
#
# Indices 1 2 3 4 5 6 
#
# 1 119.3304 31.7630 31.7554 0.0000 0.0000 0.0000
# 2 31.7630 112.5313 37.6268 0.0000 0.0000 0.0000
# 3 31.7554 37.6268 199.8079 0.0000 0.0000 0.0000
# 4 0.0000 0.0000 0.0000 46.0485 0.0000 0.0000
# 5 0.0000 0.0000 0.0000 0.0000 26.1880 0.0000
# 6 0.0000 0.0000 0.0000 0.0000 0.0000 21.0551
#
#
#
# Elastic Compliance Matrix: (Units=1/GPa)
#
#
# Indices 1 2 3 4 5 6 
#
# 1 0.009261 -0.002264 -0.001045 0.000000 0.000000 0.000000
# 2 -0.002264 0.010037 -0.001530 0.000000 0.000000 0.000000
# 3 -0.001045 -0.001530 0.005459 0.000000 0.000000 0.000000
# 4 0.000000 0.000000 0.000000 0.021716 0.000000 0.000000
# 5 0.000000 0.000000 0.000000 0.000000 0.038185 0.000000
# 6 0.000000 0.000000 0.000000 0.000000 0.000000 0.047494
#
#
# Mechanical properties :
#
#
# Convention : Reuss Voigt Hill
#
# Bulk Modulus (GPa) = 66.32569 70.44000 68.38285
# Shear Modulus (GPa) = 34.04615 40.69329 37.36972
#
# Velocity S-wave (km/s) = 3.58772 3.92235 3.75876
# Velocity P-wave (km/s) = 6.49907 6.86616 6.68513
#
# Compressibility (1/GPa) = 0.01507711
#
# Stress axis : x y z
#
# Youngs Moduli (GPa) = 107.97927 99.62889 183.17935
#
# Poissons Ratio (x) = 0.22560 0.19150
# Poissons Ratio (y) = 0.24451 0.28031
# Poissons Ratio (z) = 0.11288 0.15246
#
# Static dielectric constant tensor:
#      x y z
#    x 2.135780 0.000000 0.000000 
#    y 0.000000 2.113040 0.000000 
#    z 0.000000 0.000000 2.239300 
# 
# From -- ./inp_files/1059.got.cif
#   From: 2010.05.17/outbox.cif.g08.bks.cpg/sg33_1_cif.got.tgz:1059.got - 2010.06.03 17:15:25.
