data_PCOD9345432
_publ_section_title
;
Structure prediction by ZEFSAII (Michael W. Deem and Ramdas Pophale) SiO2 
 PCOD9345432
Probable space group: P N A 21
;
_chemical_formula_sum "Si O2"
_cell_formula_units_Z 28
_cell_length_a 16.555359
_cell_length_b 9.083870
_cell_length_c 7.188999
_cell_angle_alpha 90.000000
_cell_angle_beta 90.000000
_cell_angle_gamma 90.000000
_cell_volume 1081.130044
_symmetry_space_group_name_H-M "P N A 21"
_symmetry_group_IT_number 33
_symmetry_cell_setting 'orthorhombic'
loop_
_space_group_symop_operation_xyz
x,y,z
-x,-y,1/2+z
1/2-x,1/2+y,1/2+z
1/2+x,1/2-y,z
loop_
_atom_site_type_symbol
_atom_site_label
_atom_site_fract_x
_atom_site_fract_y
_atom_site_fract_z
Si Si1 0.213835 0.841599 0.843040
Si Si2 0.645953 0.490572 0.157495
Si Si3 0.425054 0.342003 0.111024
Si Si4 0.683129 0.979333 0.834683
Si Si5 0.107496 0.416403 0.469829
Si Si6 0.997731 0.149872 0.531485
Si Si7 0.071127 0.330493 0.097691
O O1 0.171600 0.833902 0.641068
O O2 0.188520 0.682389 0.925300
O O3 0.308052 0.859154 0.879745
O O4 0.178165 0.982166 0.948396
O O5 0.723895 0.514539 0.284032
O O6 0.575571 0.612336 0.170778
O O7 0.608784 0.328263 0.158144
O O8 0.447761 0.503295 0.037717
O O9 0.457772 0.334363 0.326954
O O10 0.483805 0.220074 0.019271
O O11 0.636779 0.978937 0.635562
O O12 0.633152 0.090510 0.960806
O O13 0.054537 0.288035 0.565233
O O14 0.059665 0.439176 0.275482
#
# Coordination Sequence:
#
# PCOD9345432 Si02
#       7
#     4   4   4   4   4   4   4
#     4  10  21  41  60  96 137 161 219 273 335 401
#     4   9  20  43  65  94 126 170 229 274 314 402
#     4   9  20  38  65  92 129 170 222 278 319 399
#     4  11  23  41  65  94 135 175 206 279 348 397
#     4  10  22  40  64  94 128 166 222 276 326 398
#     4   9  19  37  67  91 123 166 230 274 314 387
#     4  10  21  44  66  91 130 174 228 272 328 400
#
# _framework density 25.898827000000001
#
# number of rings (size 3 to 8) (size 9 to 14) (size 15 to 20)
#    0.000    2.286    1.429    0.000    6.000    1.143 
#   15.429    0.000    3.143    0.000    0.000    0.000 
#    0.000    0.000    0.000    0.000    0.000    0.000 
#
# Total GULP energy -156204.878747 kJ/mol
# GULP energy per Si atom -5578.745670 kJ/mol
# Density = 2.583988 g / cm^3
# Si number density = 25.898827 Si / 1000 Ang^3
#
#
#
# Elastic Constant Matrix: (Units=GPa)
#
#
# Indices 1 2 3 4 5 6 
#
# 1 140.8380 37.3113 21.8566 0.0000 0.0000 0.0000
# 2 37.3113 28.9219 24.7602 0.0000 0.0000 0.0000
# 3 21.8566 24.7602 74.8766 0.0000 0.0000 0.0000
# 4 0.0000 0.0000 0.0000 39.5139 0.0000 0.0000
# 5 0.0000 0.0000 0.0000 0.0000 43.6254 0.0000
# 6 0.0000 0.0000 0.0000 0.0000 0.0000 39.2673
#
#
#
# Elastic Compliance Matrix: (Units=1/GPa)
#
#
# Indices 1 2 3 4 5 6 
#
# 1 0.011012 -0.015978 0.002069 0.000000 0.000000 0.000000
# 2 -0.015978 0.071412 -0.018951 0.000000 0.000000 0.000000
# 3 0.002069 -0.018951 0.019018 0.000000 0.000000 0.000000
# 4 0.000000 0.000000 0.000000 0.025308 0.000000 0.000000
# 5 0.000000 0.000000 0.000000 0.000000 0.022922 0.000000
# 6 0.000000 0.000000 0.000000 0.000000 0.000000 0.025466
#
#
# Mechanical properties :
#
#
# Convention : Reuss Voigt Hill
#
# Bulk Modulus (GPa) = 27.99273 45.83251 36.91262
# Shear Modulus (GPa) = 19.78117 35.19521 27.48819
#
# Velocity S-wave (km/s) = 2.76667 3.69039 3.26140
# Velocity P-wave (km/s) = 4.58671 5.99115 5.33534
#
# Compressibility (1/GPa) = 0.03572357
#
# Stress axis : x y z
#
# Youngs Moduli (GPa) = 90.80854 14.00318 52.58195
#
# Poissons Ratio (x) = 0.22374 -0.10880
# Poissons Ratio (y) = 1.45093 0.99646
# Poissons Ratio (z) = -0.18789 0.26537
#
# Static dielectric constant tensor:
#      x y z
#    x 2.166830 0.000000 0.000000 
#    y 0.000000 2.012920 0.000000 
#    z 0.000000 0.000000 2.109560 
# 
# From -- ./inp_files/4715.got.cif
#   From: 2010.05.17/outbox.cif.g08.bks.cpg/sg33_3_cif.got.tgz:4715.got - 2010.06.03 17:15:25.
