data_PCOD9345773
_publ_section_title
;
Structure prediction by ZEFSAII (Michael W. Deem and Ramdas Pophale) SiO2 
 PCOD9345773
Probable space group: P N A 21
;
_chemical_formula_sum "Si O2"
_cell_formula_units_Z 20
_cell_length_a 9.239283
_cell_length_b 18.423311
_cell_length_c 4.885083
_cell_angle_alpha 90.000000
_cell_angle_beta 90.000000
_cell_angle_gamma 90.000000
_cell_volume 831.529958
_symmetry_space_group_name_H-M "P N A 21"
_symmetry_group_IT_number 33
_symmetry_cell_setting 'orthorhombic'
loop_
_space_group_symop_operation_xyz
x,y,z
-x,-y,1/2+z
1/2-x,1/2+y,1/2+z
1/2+x,1/2-y,z
loop_
_atom_site_type_symbol
_atom_site_label
_atom_site_fract_x
_atom_site_fract_y
_atom_site_fract_z
Si Si1 0.261631 0.146972 0.742580
Si Si2 0.155044 0.796468 0.097397
Si Si3 0.247372 0.878600 0.600103
Si Si4 0.091398 0.017053 0.523647
Si Si5 0.443310 0.168066 0.270265
O O1 0.232403 0.230165 0.653982
O O2 0.135621 0.093038 0.658085
O O3 0.397677 0.124843 0.545048
O O4 0.313982 0.153534 0.053976
O O5 0.202447 0.862723 0.910738
O O6 0.050060 0.749148 0.900379
O O7 0.145391 0.831670 0.396651
O O8 0.412401 0.851715 0.607855
O O9 0.226170 0.962097 0.528136
O O10 0.027281 0.020156 0.221557
#
# Coordination Sequence:
#
# PCOD9345773 Si02
#       5
#     4   4   4   4   4
#     4  10  22  46  65  95 137 181 220 277 358 395
#     4  10  22  42  64 103 134 176 218 291 340 397
#     4  12  24  42  71 104 132 174 241 277 340 425
#     4  12  28  46  66 102 138 188 225 282 359 421
#     4  10  22  42  68 100 127 179 230 277 351 390
#
# _framework density 24.052050000000001
#
# number of rings (size 3 to 8) (size 9 to 14) (size 15 to 20)
#    1.200    0.000    2.000    3.600    0.000    6.400 
#    0.000    0.000    0.000    0.000    0.000    0.000 
#    0.000    0.000    0.000    0.000    0.000    0.000 
#
# Total GULP energy -111385.045969 kJ/mol
# GULP energy per Si atom -5569.252298 kJ/mol
# Density = 2.399731 g / cm^3
# Si number density = 24.052050 Si / 1000 Ang^3
#
#
#
# Elastic Constant Matrix: (Units=GPa)
#
#
# Indices 1 2 3 4 5 6 
#
# 1 41.6319 -9.0244 14.5314 0.0000 0.0000 0.0000
# 2 -9.0244 61.9889 1.0032 0.0000 0.0000 0.0000
# 3 14.5314 1.0032 148.0788 0.0000 0.0000 0.0000
# 4 0.0000 0.0000 0.0000 22.7022 0.0000 0.0000
# 5 0.0000 0.0000 0.0000 0.0000 20.8307 0.0000
# 6 0.0000 0.0000 0.0000 0.0000 0.0000 330.3778
#
#
#
# Elastic Compliance Matrix: (Units=1/GPa)
#
#
# Indices 1 2 3 4 5 6 
#
# 1 0.025731 0.003787 -0.002551 0.000000 0.000000 0.000000
# 2 0.003787 0.016691 -0.000485 0.000000 0.000000 0.000000
# 3 -0.002551 -0.000485 0.007007 0.000000 0.000000 0.000000
# 4 0.000000 0.000000 0.000000 0.044049 0.000000 0.000000
# 5 0.000000 0.000000 0.000000 0.000000 0.048006 0.000000
# 6 0.000000 0.000000 0.000000 0.000000 0.000000 0.003027
#
#
# Mechanical properties :
#
#
# Convention : Reuss Voigt Hill
#
# Bulk Modulus (GPa) = 19.63373 29.41334 24.52353
# Shear Modulus (GPa) = 31.25300 91.12810 61.19055
#
# Velocity S-wave (km/s) = 3.60862 6.16199 5.04937
# Velocity P-wave (km/s) = 5.05406 7.92984 6.64928
#
# Compressibility (1/GPa) = 0.05093277
#
# Stress axis : x y z
#
# Youngs Moduli (GPa) = 38.86313 59.91210 142.71937
#
# Poissons Ratio (x) = -0.22690 0.36404
# Poissons Ratio (y) = -0.14719 0.06918
# Poissons Ratio (z) = 0.09913 0.02904
#
# Static dielectric constant tensor:
#      x y z
#    x 2.029260 0.000000 0.000000 
#    y 0.000000 1.901120 0.000000 
#    z 0.000000 0.000000 1.844960 
# 
# From -- ./inp_files/346.got.cif
#   From: 2010.05.17/outbox.cif.g08.bks.cpg/sg33_1_cif.got.tgz:346.got - 2010.06.03 17:15:25.
