data_PCOD9345509
_publ_section_title
;
Structure prediction by ZEFSAII (Michael W. Deem and Ramdas Pophale) SiO2 
 PCOD9345509
Probable space group: P N A 21
;
_chemical_formula_sum "Si O2"
_cell_formula_units_Z 32
_cell_length_a 18.557113
_cell_length_b 5.415838
_cell_length_c 12.726814
_cell_angle_alpha 90.000000
_cell_angle_beta 90.000000
_cell_angle_gamma 90.000000
_cell_volume 1279.074305
_symmetry_space_group_name_H-M "P N A 21"
_symmetry_group_IT_number 33
_symmetry_cell_setting 'orthorhombic'
loop_
_space_group_symop_operation_xyz
x,y,z
-x,-y,1/2+z
1/2-x,1/2+y,1/2+z
1/2+x,1/2-y,z
loop_
_atom_site_type_symbol
_atom_site_label
_atom_site_fract_x
_atom_site_fract_y
_atom_site_fract_z
Si Si1 0.280843 0.098702 0.052120
Si Si2 0.089126 0.182071 0.890683
Si Si3 0.440217 0.560913 0.816487
Si Si4 0.385554 0.486843 0.030046
Si Si5 0.765269 0.090643 0.340007
Si Si6 0.024184 0.327217 0.099259
Si Si7 0.706902 0.596292 0.240860
Si Si8 0.592136 0.119407 0.682610
O O1 0.214202 0.003133 0.121351
O O2 0.348084 0.047753 0.128576
O O3 0.306057 0.369857 0.014181
O O4 0.279563 0.947205 0.946277
O O5 0.154301 0.990630 0.875231
O O6 0.096455 0.403166 0.806442
O O7 0.082180 0.294784 0.007272
O O8 0.016479 0.055716 0.846685
O O9 0.409922 0.652729 0.929777
O O10 0.451669 0.724745 0.712631
O O11 0.375179 0.382869 0.780316
O O12 0.455346 0.310710 0.046044
O O13 0.383080 0.616990 0.142014
O O14 0.741008 0.865735 0.261820
O O15 0.746087 0.362955 0.298736
O O16 0.986909 0.583697 0.132626
#
# Coordination Sequence:
#
# PCOD9345509 Si02
#       8
#     4   4   4   4   4   4   4   4
#     4  11  24  44  74 102 148 195 261 311 389 460
#     4  11  24  46  71 106 151 192 259 314 389 466
#     4  11  23  45  71 104 150 191 251 321 381 465
#     4  10  21  42  67  99 140 193 244 307 385 448
#     4  12  27  49  74 113 145 204 257 320 383 469
#     4  10  24  39  65 106 138 190 243 310 375 455
#     4  12  27  46  76 110 151 197 259 316 389 458
#     4  11  22  41  72 102 143 198 244 311 389 455
#
# _framework density 25.018093
#
# number of rings (size 3 to 8) (size 9 to 14) (size 15 to 20)
#    0.000    1.000    3.750    2.250    3.500    1.000 
#    2.250    0.000    0.000    0.000    0.000    0.000 
#    0.000    0.000    0.000    0.000    0.000    0.000 
#
# Total GULP energy -178348.364171 kJ/mol
# GULP energy per Si atom -5573.386380 kJ/mol
# Density = 2.496115 g / cm^3
# Si number density = 25.018093 Si / 1000 Ang^3
#
#
#
# Elastic Constant Matrix: (Units=GPa)
#
#
# Indices 1 2 3 4 5 6 
#
# 1 111.0292 14.6112 9.6203 0.0000 0.0000 0.0000
# 2 14.6112 56.5671 17.3349 0.0000 0.0000 0.0000
# 3 9.6203 17.3349 161.0590 0.0000 0.0000 0.0000
# 4 0.0000 0.0000 0.0000 17.6703 0.0000 0.0000
# 5 0.0000 0.0000 0.0000 0.0000 22.3543 0.0000
# 6 0.0000 0.0000 0.0000 0.0000 0.0000 28.6574
#
#
#
# Elastic Compliance Matrix: (Units=1/GPa)
#
#
# Indices 1 2 3 4 5 6 
#
# 1 0.009338 -0.002318 -0.000308 0.000000 0.000000 0.000000
# 2 -0.002318 0.018856 -0.001891 0.000000 0.000000 0.000000
# 3 -0.000308 -0.001891 0.006431 0.000000 0.000000 0.000000
# 4 0.000000 0.000000 0.000000 0.056592 0.000000 0.000000
# 5 0.000000 0.000000 0.000000 0.000000 0.044734 0.000000
# 6 0.000000 0.000000 0.000000 0.000000 0.000000 0.034895
#
#
# Mechanical properties :
#
#
# Convention : Reuss Voigt Hill
#
# Bulk Modulus (GPa) = 39.07556 45.75423 42.41490
# Shear Modulus (GPa) = 26.53767 32.87565 29.70666
#
# Velocity S-wave (km/s) = 3.26043 3.62895 3.44962
# Velocity P-wave (km/s) = 5.46138 5.99059 5.73210
#
# Compressibility (1/GPa) = 0.02559145
#
# Stress axis : x y z
#
# Youngs Moduli (GPa) = 107.08539 53.03273 155.50013
#
# Poissons Ratio (x) = 0.12291 0.04795
# Poissons Ratio (y) = 0.24818 0.29406
# Poissons Ratio (z) = 0.03302 0.10029
#
# Static dielectric constant tensor:
#      x y z
#    x 2.057030 0.000000 0.000000 
#    y 0.000000 2.052600 0.000000 
#    z 0.000000 0.000000 2.040510 
# 
# From -- ./inp_files/7254.got.cif
#   From: 2010.05.17/outbox.cif.g08.bks.cpg/sg33_4_cif.got.tgz:7254.got - 2010.06.03 17:15:25.
