data_PCOD9345334
_publ_section_title
;
Structure prediction by ZEFSAII (Michael W. Deem and Ramdas Pophale) SiO2 
 PCOD9345334
Probable space group: P N A 21
;
_chemical_formula_sum "Si O2"
_cell_formula_units_Z 24
_cell_length_a 5.162175
_cell_length_b 16.528662
_cell_length_c 11.307480
_cell_angle_alpha 90.000000
_cell_angle_beta 90.000000
_cell_angle_gamma 90.000000
_cell_volume 964.797679
_symmetry_space_group_name_H-M "P N A 21"
_symmetry_group_IT_number 33
_symmetry_cell_setting 'orthorhombic'
loop_
_space_group_symop_operation_xyz
x,y,z
-x,-y,1/2+z
1/2-x,1/2+y,1/2+z
1/2+x,1/2-y,z
loop_
_atom_site_type_symbol
_atom_site_label
_atom_site_fract_x
_atom_site_fract_y
_atom_site_fract_z
Si Si1 0.698467 0.296197 0.110010
Si Si2 0.816708 0.648443 0.197792
Si Si3 0.689113 0.478898 0.165332
Si Si4 0.789027 0.848736 0.347700
Si Si5 0.324124 0.799277 0.933987
Si Si6 0.372704 0.477547 0.407812
O O1 0.413316 0.268445 0.147726
O O2 0.775207 0.386842 0.146594
O O3 0.678772 0.300320 0.967945
O O4 0.885569 0.554275 0.167553
O O5 0.548869 0.645616 0.269958
O O6 0.798980 0.695137 0.075890
O O7 0.049874 0.683046 0.273352
O O8 0.564421 0.476628 0.295910
O O9 0.527993 0.506111 0.044376
O O10 0.712546 0.940468 0.386692
O O11 0.600204 0.763640 0.898675
O O12 0.272378 0.891983 0.898210
#
# Coordination Sequence:
#
# PCOD9345334 Si02
#       6
#     4   4   4   4   4   4
#     4  11  24  39  60  94 132 168 208 262 327 388
#     4  10  21  39  64  90 122 169 220 267 313 373
#     4   9  21  42  67  95 129 172 222 269 319 384
#     4  10  21  39  64  90 122 169 220 267 313 373
#     4  11  24  39  60  94 132 168 208 262 327 388
#     4   9  21  42  67  95 129 172 222 269 319 384
#
# _framework density 24.875682999999999
#
# number of rings (size 3 to 8) (size 9 to 14) (size 15 to 20)
#    0.000    2.000    0.000    2.000    0.000   10.667 
#    0.000   18.333    0.000    0.000    0.000    0.000 
#    0.000    0.000    0.000    0.000    0.000    0.000 
#
# Total GULP energy -134093.375548 kJ/mol
# GULP energy per Si atom -5587.223981 kJ/mol
# Density = 2.481907 g / cm^3
# Si number density = 24.875683 Si / 1000 Ang^3
#
#
#
# Elastic Constant Matrix: (Units=GPa)
#
#
# Indices 1 2 3 4 5 6 
#
# 1 63.2808 -10.7915 5.3262 0.0000 0.0000 0.0000
# 2 -10.7915 121.9349 -24.9575 0.0000 0.0000 0.0000
# 3 5.3262 -24.9575 142.6291 0.0000 0.0000 0.0000
# 4 0.0000 0.0000 0.0000 53.1313 0.0000 0.0000
# 5 0.0000 0.0000 0.0000 0.0000 -14.9190 0.0000
# 6 0.0000 0.0000 0.0000 0.0000 0.0000 12.6959
#
#
#
# Elastic Compliance Matrix: (Units=1/GPa)
#
#
# Indices 1 2 3 4 5 6 
#
# 1 0.016063 0.001347 -0.000364 0.000000 0.000000 0.000000
# 2 0.001347 0.008619 0.001458 0.000000 0.000000 0.000000
# 3 -0.000364 0.001458 0.007280 0.000000 0.000000 0.000000
# 4 0.000000 0.000000 0.000000 0.018821 0.000000 0.000000
# 5 0.000000 0.000000 0.000000 0.000000 -0.067029 0.000000
# 6 0.000000 0.000000 0.000000 0.000000 0.000000 0.078766
#
#
# Mechanical properties :
#
#
# Convention : Reuss Voigt Hill
#
# Bulk Modulus (GPa) = 27.14214 29.66656 28.40435
# Shear Modulus (GPa) = 71.51083 34.06616 52.78850
#
# Velocity S-wave (km/s) = 5.36747 3.70463 4.61161
# Velocity P-wave (km/s) = 7.02479 5.50008 6.30867
#
# Compressibility (1/GPa) = 0.03684308
#
# Stress axis : x y z
#
# Youngs Moduli (GPa) = 62.25508 116.02679 137.36493
#
# Poissons Ratio (x) = -0.15630 0.05002
# Poissons Ratio (y) = -0.08386 -0.20025
# Poissons Ratio (z) = 0.02267 -0.16915
#
# Static dielectric constant tensor:
#      x y z
#    x 1.923860 0.000000 0.000000 
#    y 0.000000 1.980660 0.000000 
#    z 0.000000 0.000000 2.035380 
# 
# From -- ./inp_files/5461.got.cif
#   From: 2010.05.17/outbox.cif.g08.bks.cpg/sg33_3_cif.got.tgz:5461.got - 2010.06.03 17:15:25.
