data_PCOD9345140
_publ_section_title
;
Structure prediction by ZEFSAII (Michael W. Deem and Ramdas Pophale) SiO2 
 PCOD9345140
Probable space group: P N A 21
;
_chemical_formula_sum "Si O2"
_cell_formula_units_Z 16
_cell_length_a 13.517674
_cell_length_b 9.750528
_cell_length_c 5.048502
_cell_angle_alpha 90.000000
_cell_angle_beta 90.000000
_cell_angle_gamma 90.000000
_cell_volume 665.415074
_symmetry_space_group_name_H-M "P N A 21"
_symmetry_group_IT_number 33
_symmetry_cell_setting 'orthorhombic'
loop_
_space_group_symop_operation_xyz
x,y,z
-x,-y,1/2+z
1/2-x,1/2+y,1/2+z
1/2+x,1/2-y,z
loop_
_atom_site_type_symbol
_atom_site_label
_atom_site_fract_x
_atom_site_fract_y
_atom_site_fract_z
Si Si1 0.438836 0.467374 0.295090
Si Si2 0.117756 0.413839 0.871079
Si Si3 0.717368 0.988902 0.355937
Si Si4 0.440055 0.187433 0.599463
O O1 0.517447 0.530865 0.501329
O O2 0.331709 0.536327 0.307004
O O3 0.422967 0.315316 0.412979
O O4 0.195238 0.456348 0.646554
O O5 0.050915 0.550852 0.918556
O O6 0.041127 0.303131 0.764797
O O7 0.175212 0.398178 0.146297
O O8 0.652238 0.854313 0.285504
#
# Coordination Sequence:
#
# PCOD9345140 Si02
#       4
#     4   4   4   4
#     4  12  29  46  66 110 151 190 230 302 370 415
#     4  10  20  42  74 103 127 189 238 296 341 418
#     4  10  22  44  67 101 137 188 243 272 364 421
#     4  10  23  44  75 104 141 177 251 292 349 442
#
# _framework density 24.04514
#
# number of rings (size 3 to 8) (size 9 to 14) (size 15 to 20)
#    1.500    0.000    2.500    1.500    3.500    2.000 
#    4.500    0.000    0.000    0.000    0.000    0.000 
#    0.000    0.000    0.000    0.000    0.000    0.000 
#
# Total GULP energy -89481.283970 kJ/mol
# GULP energy per Si atom -5592.580248 kJ/mol
# Density = 2.399041 g / cm^3
# Si number density = 24.045140 Si / 1000 Ang^3
#
#
#
# Elastic Constant Matrix: (Units=GPa)
#
#
# Indices 1 2 3 4 5 6 
#
# 1 130.4072 5.0180 -2.6718 0.0000 0.0000 0.0000
# 2 5.0180 47.5752 -4.2054 0.0000 0.0000 0.0000
# 3 -2.6718 -4.2054 83.7651 0.0000 0.0000 0.0000
# 4 0.0000 0.0000 0.0000 34.5101 0.0000 0.0000
# 5 0.0000 0.0000 0.0000 0.0000 41.1362 0.0000
# 6 0.0000 0.0000 0.0000 0.0000 0.0000 -10.6207
#
#
#
# Elastic Compliance Matrix: (Units=1/GPa)
#
#
# Indices 1 2 3 4 5 6 
#
# 1 0.007703 -0.000794 0.000206 0.000000 0.000000 0.000000
# 2 -0.000794 0.021195 0.001039 0.000000 0.000000 0.000000
# 3 0.000206 0.001039 0.011997 0.000000 0.000000 0.000000
# 4 0.000000 0.000000 0.000000 0.028977 0.000000 0.000000
# 5 0.000000 0.000000 0.000000 0.000000 0.024309 0.000000
# 6 0.000000 0.000000 0.000000 0.000000 0.000000 -0.094155
#
#
# Mechanical properties :
#
#
# Convention : Reuss Voigt Hill
#
# Bulk Modulus (GPa) = 23.92603 28.66989 26.29796
# Shear Modulus (GPa) = 382.92970 30.57889 206.75429
#
# Velocity S-wave (km/s) = 12.63330 3.57000 9.28292
# Velocity P-wave (km/s) = 14.92556 5.37982 11.21862
#
# Compressibility (1/GPa) = 0.04179548
#
# Stress axis : x y z
#
# Youngs Moduli (GPa) = 129.81836 47.18103 83.35508
#
# Poissons Ratio (x) = 0.03748 -0.01716
# Poissons Ratio (y) = 0.10311 -0.08659
# Poissons Ratio (z) = -0.02672 -0.04901
#
# Static dielectric constant tensor:
#      x y z
#    x 1.902000 0.000000 0.000000 
#    y 0.000000 1.986650 0.000000 
#    z 0.000000 0.000000 1.876300 
# 
# From -- ./inp_files/659.got.cif
#   From: 2010.05.17/outbox.cif.g08.bks.cpg/sg33_1_cif.got.tgz:659.got - 2010.06.03 17:15:25.
