data_PCOD9345528
_publ_section_title
;
Structure prediction by ZEFSAII (Michael W. Deem and Ramdas Pophale) SiO2 
 PCOD9345528
Probable space group: P N A 21
;
_chemical_formula_sum "Si O2"
_cell_formula_units_Z 32
_cell_length_a 28.081038
_cell_length_b 6.011803
_cell_length_c 7.774178
_cell_angle_alpha 90.000000
_cell_angle_beta 90.000000
_cell_angle_gamma 90.000000
_cell_volume 1312.418604
_symmetry_space_group_name_H-M "P N A 21"
_symmetry_group_IT_number 33
_symmetry_cell_setting 'orthorhombic'
loop_
_space_group_symop_operation_xyz
x,y,z
-x,-y,1/2+z
1/2-x,1/2+y,1/2+z
1/2+x,1/2-y,z
loop_
_atom_site_type_symbol
_atom_site_label
_atom_site_fract_x
_atom_site_fract_y
_atom_site_fract_z
Si Si1 0.741460 0.227829 0.071900
Si Si2 0.888730 0.170312 0.855808
Si Si3 0.839199 0.490668 0.115409
Si Si4 0.069713 0.462512 0.150522
Si Si5 0.803350 0.870267 0.898656
Si Si6 0.046100 0.177147 0.841754
Si Si7 0.530917 0.324358 0.452819
Si Si8 0.356063 0.759789 0.436145
O O1 0.787381 0.381450 0.094789
O O2 0.718502 0.204738 0.259379
O O3 0.760679 0.002605 0.989400
O O4 0.697566 0.322015 0.958604
O O5 0.914585 0.289460 0.695915
O O6 0.838592 0.052212 0.814210
O O7 0.925453 0.996290 0.932407
O O8 0.875800 0.353921 0.999617
O O9 0.853624 0.523913 0.312301
O O10 0.833328 0.736504 0.038108
O O11 0.042178 0.362129 0.312365
O O12 0.042867 0.382733 0.977546
O O13 0.120114 0.334631 0.116336
O O14 0.014936 0.970652 0.904141
O O15 0.030763 0.247642 0.651242
O O16 0.102248 0.113392 0.851810
#
# Coordination Sequence:
#
# PCOD9345528 Si02
#       8
#     4   4   4   4   4   4   4   4
#     4  11  23  42  65 102 135 190 244 293 364 438
#     4  11  24  44  72 103 143 187 244 292 368 431
#     4  11  24  44  67 102 144 187 242 311 365 432
#     4  10  24  46  72 101 143 192 236 300 359 440
#     4  11  25  42  71  99 140 194 233 307 361 433
#     4  10  23  43  76 102 147 186 238 302 365 434
#     4  12  22  50  74 109 144 194 241 302 371 441
#     4  10  21  43  65 102 134 188 236 293 359 431
#
# _framework density 24.382463999999999
#
# number of rings (size 3 to 8) (size 9 to 14) (size 15 to 20)
#    0.750    0.500    2.500    3.750    1.750    1.000 
#    6.750    0.000    0.000    0.000    0.000    0.000 
#    0.000    0.000    0.000    0.000    0.000    0.000 
#
# Total GULP energy -178955.017880 kJ/mol
# GULP energy per Si atom -5592.344309 kJ/mol
# Density = 2.432697 g / cm^3
# Si number density = 24.382464 Si / 1000 Ang^3
#
#
#
# Elastic Constant Matrix: (Units=GPa)
#
#
# Indices 1 2 3 4 5 6 
#
# 1 134.8040 27.7360 28.9975 0.0000 0.0000 0.0000
# 2 27.7360 25.0279 33.2349 0.0000 0.0000 0.0000
# 3 28.9975 33.2349 143.7994 0.0000 0.0000 0.0000
# 4 0.0000 0.0000 0.0000 33.6903 0.0000 0.0000
# 5 0.0000 0.0000 0.0000 0.0000 39.6977 0.0000
# 6 0.0000 0.0000 0.0000 0.0000 0.0000 28.4055
#
#
#
# Elastic Compliance Matrix: (Units=1/GPa)
#
#
# Indices 1 2 3 4 5 6 
#
# 1 0.009666 -0.011721 0.000760 0.000000 0.000000 0.000000
# 2 -0.011721 0.071861 -0.014245 0.000000 0.000000 0.000000
# 3 0.000760 -0.014245 0.010093 0.000000 0.000000 0.000000
# 4 0.000000 0.000000 0.000000 0.029682 0.000000 0.000000
# 5 0.000000 0.000000 0.000000 0.000000 0.025190 0.000000
# 6 0.000000 0.000000 0.000000 0.000000 0.000000 0.035204
#
#
# Mechanical properties :
#
#
# Convention : Reuss Voigt Hill
#
# Bulk Modulus (GPa) = 24.26722 53.72981 38.99851
# Shear Modulus (GPa) = 20.33791 34.60289 27.47040
#
# Velocity S-wave (km/s) = 2.89125 3.77128 3.36020
# Velocity P-wave (km/s) = 4.59566 6.40683 5.57528
#
# Compressibility (1/GPa) = 0.04120786
#
# Stress axis : x y z
#
# Youngs Moduli (GPa) = 103.45115 13.91575 99.07657
#
# Poissons Ratio (x) = 0.16311 -0.07527
# Poissons Ratio (y) = 1.21258 1.41134
# Poissons Ratio (z) = -0.07860 0.19823
#
# Static dielectric constant tensor:
#      x y z
#    x 1.950100 0.000000 0.000000 
#    y 0.000000 1.903250 0.000000 
#    z 0.000000 0.000000 1.961550 
# 
# From -- ./inp_files/5326.got.cif
#   From: 2010.05.17/outbox.cif.g08.bks.cpg/sg33_3_cif.got.tgz:5326.got - 2010.06.03 17:15:25.
