data_PCOD9345711
_publ_section_title
;
Structure prediction by ZEFSAII (Michael W. Deem and Ramdas Pophale) SiO2 
 PCOD9345711
Probable space group: P N A 21
;
_chemical_formula_sum "Si O2"
_cell_formula_units_Z 24
_cell_length_a 14.673929
_cell_length_b 7.616158
_cell_length_c 8.548182
_cell_angle_alpha 90.000000
_cell_angle_beta 90.000000
_cell_angle_gamma 90.000000
_cell_volume 955.335945
_symmetry_space_group_name_H-M "P N A 21"
_symmetry_group_IT_number 33
_symmetry_cell_setting 'orthorhombic'
loop_
_space_group_symop_operation_xyz
x,y,z
-x,-y,1/2+z
1/2-x,1/2+y,1/2+z
1/2+x,1/2-y,z
loop_
_atom_site_type_symbol
_atom_site_label
_atom_site_fract_x
_atom_site_fract_y
_atom_site_fract_z
Si Si1 0.426687 0.057604 0.299000
Si Si2 0.508895 0.501211 0.622876
Si Si3 0.118278 0.273566 0.200406
Si Si4 0.957983 0.225943 0.871956
Si Si5 0.675270 0.870738 0.100648
Si Si6 0.139797 0.295441 0.553272
O O1 0.472189 0.886597 0.385282
O O2 0.375052 0.975910 0.147811
O O3 0.516262 0.156432 0.239479
O O4 0.367949 0.161399 0.427837
O O5 0.406985 0.588618 0.619394
O O6 0.574051 0.641000 0.534838
O O7 0.510907 0.446965 0.805619
O O8 0.545525 0.312876 0.563971
O O9 0.172718 0.418086 0.105966
O O10 0.163051 0.283954 0.370856
O O11 0.885385 0.290946 0.743478
O O12 0.775886 0.802380 0.130187
#
# Coordination Sequence:
#
# PCOD9345711 Si02
#       6
#     4   4   4   4   4   4
#     4  10  22  43  67  93 130 186 227 269 337 421
#     4  11  21  40  70  97 130 178 234 277 328 425
#     4  11  22  44  70  94 130 186 233 272 339 423
#     4  10  22  40  67  98 134 179 230 278 336 415
#     4  11  25  43  65 101 140 173 222 294 350 397
#     4  11  26  42  67 103 138 176 230 294 352 395
#
# _framework density 25.122053000000001
#
# number of rings (size 3 to 8) (size 9 to 14) (size 15 to 20)
#    0.000    1.333    3.333    3.000    4.667    1.333 
#    3.000    1.667    0.000    0.000    0.000    0.000 
#    0.000    0.000    0.000    0.000    0.000    0.000 
#
# Total GULP energy -133617.758536 kJ/mol
# GULP energy per Si atom -5567.406606 kJ/mol
# Density = 2.506487 g / cm^3
# Si number density = 25.122053 Si / 1000 Ang^3
#
#
#
# Elastic Constant Matrix: (Units=GPa)
#
#
# Indices 1 2 3 4 5 6 
#
# 1 77.7436 16.1367 21.7926 0.0000 0.0000 0.0000
# 2 16.1367 72.3001 16.2469 0.0000 0.0000 0.0000
# 3 21.7926 16.2469 59.4820 0.0000 0.0000 0.0000
# 4 0.0000 0.0000 0.0000 56.5785 0.0000 0.0000
# 5 0.0000 0.0000 0.0000 0.0000 21.2021 0.0000
# 6 0.0000 0.0000 0.0000 0.0000 0.0000 24.2878
#
#
#
# Elastic Compliance Matrix: (Units=1/GPa)
#
#
# Indices 1 2 3 4 5 6 
#
# 1 0.014656 -0.002199 -0.004769 0.000000 0.000000 0.000000
# 2 -0.002199 0.015066 -0.003309 0.000000 0.000000 0.000000
# 3 -0.004769 -0.003309 0.019463 0.000000 0.000000 0.000000
# 4 0.000000 0.000000 0.000000 0.017675 0.000000 0.000000
# 5 0.000000 0.000000 0.000000 0.000000 0.047165 0.000000
# 6 0.000000 0.000000 0.000000 0.000000 0.000000 0.041173
#
#
# Mechanical properties :
#
#
# Convention : Reuss Voigt Hill
#
# Bulk Modulus (GPa) = 34.92885 35.31981 35.12433
# Shear Modulus (GPa) = 26.98391 30.77032 28.87711
#
# Velocity S-wave (km/s) = 3.28092 3.50356 3.39407
# Velocity P-wave (km/s) = 5.31850 5.51873 5.41954
#
# Compressibility (1/GPa) = 0.02862963
#
# Stress axis : x y z
#
# Youngs Moduli (GPa) = 68.23094 66.37563 51.37989
#
# Poissons Ratio (x) = 0.14599 0.24502
# Poissons Ratio (y) = 0.15007 0.17003
# Poissons Ratio (z) = 0.32538 0.21965
#
# Static dielectric constant tensor:
#      x y z
#    x 1.908710 0.000000 0.000000 
#    y 0.000000 2.107510 0.000000 
#    z 0.000000 0.000000 2.233150 
# 
# From -- ./inp_files/4241.got.cif
#   From: 2010.05.17/outbox.cif.g08.bks.cpg/sg33_3_cif.got.tgz:4241.got - 2010.06.03 17:15:25.
