data_PCOD9345686
_publ_section_title
;
Structure prediction by ZEFSAII (Michael W. Deem and Ramdas Pophale) SiO2 
 PCOD9345686
Probable space group: P N A 21
;
_chemical_formula_sum "Si O2"
_cell_formula_units_Z 32
_cell_length_a 5.595971
_cell_length_b 20.028708
_cell_length_c 11.643986
_cell_angle_alpha 90.000000
_cell_angle_beta 90.000000
_cell_angle_gamma 90.000000
_cell_volume 1305.058756
_symmetry_space_group_name_H-M "P N A 21"
_symmetry_group_IT_number 33
_symmetry_cell_setting 'orthorhombic'
loop_
_space_group_symop_operation_xyz
x,y,z
-x,-y,1/2+z
1/2-x,1/2+y,1/2+z
1/2+x,1/2-y,z
loop_
_atom_site_type_symbol
_atom_site_label
_atom_site_fract_x
_atom_site_fract_y
_atom_site_fract_z
Si Si1 0.108178 0.262326 0.362180
Si Si2 0.040743 0.495521 0.781010
Si Si3 0.283297 0.617805 0.290663
Si Si4 0.674703 0.599544 0.873374
Si Si5 0.319664 0.209160 0.004603
Si Si6 0.417898 0.477650 0.960867
Si Si7 0.627888 0.405640 0.161190
Si Si8 0.433888 0.714976 0.115285
O O1 0.353851 0.242229 0.300606
O O2 0.156156 0.338422 0.404992
O O3 0.081878 0.216602 0.476621
O O4 0.159171 0.486605 0.906493
O O5 0.226429 0.528661 0.695880
O O6 0.936854 0.425121 0.743710
O O7 0.838226 0.549899 0.799759
O O8 0.199103 0.675407 0.378248
O O9 0.438968 0.567015 0.367244
O O10 0.428279 0.646860 0.184685
O O11 0.545326 0.550358 0.963729
O O12 0.477548 0.622206 0.779757
O O13 0.578045 0.245145 0.017128
O O14 0.284131 0.148206 0.093480
O O15 0.428317 0.433691 0.074348
O O16 0.681734 0.750412 0.147402
#
# Coordination Sequence:
#
# PCOD9345686 Si02
#       8
#     4   4   4   4   4   4   4   4
#     4  10  24  43  64  95 134 179 222 275 339 413
#     4  10  23  43  70  99 136 188 230 303 355 426
#     4  10  22  40  70  97 138 177 235 293 355 422
#     4  10  23  43  65  97 134 183 231 287 350 423
#     4  11  26  43  70 105 140 192 235 303 357 428
#     4   9  22  43  65  98 132 178 229 297 353 413
#     4  10  24  43  69 101 139 179 249 289 363 431
#     4  10  22  40  63  98 137 176 221 275 342 418
#
# _framework density 24.519971000000002
#
# number of rings (size 3 to 8) (size 9 to 14) (size 15 to 20)
#    0.000    2.000    0.000    0.750   10.500    5.000 
#   11.250    0.000    0.000    0.000    0.000    0.000 
#    0.000    0.000    0.000    0.000    0.000    0.000 
#
# Total GULP energy -178878.031495 kJ/mol
# GULP energy per Si atom -5589.938484 kJ/mol
# Density = 2.446416 g / cm^3
# Si number density = 24.519971 Si / 1000 Ang^3
#
#
#
# Elastic Constant Matrix: (Units=GPa)
#
#
# Indices 1 2 3 4 5 6 
#
# 1 130.4543 41.0900 5.7006 0.0000 0.0000 0.0000
# 2 41.0900 78.7000 43.4312 0.0000 0.0000 0.0000
# 3 5.7006 43.4312 87.6948 0.0000 0.0000 0.0000
# 4 0.0000 0.0000 0.0000 32.3362 0.0000 0.0000
# 5 0.0000 0.0000 0.0000 0.0000 12.4228 0.0000
# 6 0.0000 0.0000 0.0000 0.0000 0.0000 37.2907
#
#
#
# Elastic Compliance Matrix: (Units=1/GPa)
#
#
# Indices 1 2 3 4 5 6 
#
# 1 0.009571 -0.006404 0.002550 0.000000 0.000000 0.000000
# 2 -0.006404 0.021771 -0.010366 0.000000 0.000000 0.000000
# 3 0.002550 -0.010366 0.016371 0.000000 0.000000 0.000000
# 4 0.000000 0.000000 0.000000 0.030925 0.000000 0.000000
# 5 0.000000 0.000000 0.000000 0.000000 0.080497 0.000000
# 6 0.000000 0.000000 0.000000 0.000000 0.000000 0.026816
#
#
# Mechanical properties :
#
#
# Convention : Reuss Voigt Hill
#
# Bulk Modulus (GPa) = 51.88811 53.03252 52.46031
# Shear Modulus (GPa) = 22.64327 30.18510 26.41419
#
# Velocity S-wave (km/s) = 3.04215 3.51243 3.28571
# Velocity P-wave (km/s) = 5.79198 6.17453 5.98631
#
# Compressibility (1/GPa) = 0.01927224
#
# Stress axis : x y z
#
# Youngs Moduli (GPa) = 104.47910 45.93367 61.08338
#
# Poissons Ratio (x) = 0.29417 -0.15573
# Poissons Ratio (y) = 0.66911 0.63317
# Poissons Ratio (z) = -0.26637 0.47613
#
# Static dielectric constant tensor:
#      x y z
#    x 1.985310 0.000000 0.000000 
#    y 0.000000 1.970480 0.000000 
#    z 0.000000 0.000000 1.922760 
# 
# From -- ./inp_files/5563.got.cif
#   From: 2010.05.17/outbox.cif.g08.bks.cpg/sg33_3_cif.got.tgz:5563.got - 2010.06.03 17:15:25.
