data_PCOD9345004
_publ_section_title
;
Structure prediction by ZEFSAII (Michael W. Deem and Ramdas Pophale) SiO2 
 PCOD9345004
Probable space group: P N A 21
;
_chemical_formula_sum "Si O2"
_cell_formula_units_Z 28
_cell_length_a 10.910450
_cell_length_b 8.603631
_cell_length_c 11.929204
_cell_angle_alpha 90.000000
_cell_angle_beta 90.000000
_cell_angle_gamma 90.000000
_cell_volume 1119.788246
_symmetry_space_group_name_H-M "P N A 21"
_symmetry_group_IT_number 33
_symmetry_cell_setting 'orthorhombic'
loop_
_space_group_symop_operation_xyz
x,y,z
-x,-y,1/2+z
1/2-x,1/2+y,1/2+z
1/2+x,1/2-y,z
loop_
_atom_site_type_symbol
_atom_site_label
_atom_site_fract_x
_atom_site_fract_y
_atom_site_fract_z
Si Si1 0.916332 0.763000 0.900470
Si Si2 0.645300 0.594287 0.508129
Si Si3 0.666106 0.631870 0.886305
Si Si4 0.828626 0.007476 0.634143
Si Si5 0.581556 0.188653 0.042754
Si Si6 0.567703 0.405845 0.731950
Si Si7 0.436051 0.923958 0.132751
O O1 0.794010 0.698180 0.845426
O O2 0.049609 0.768779 0.845242
O O3 0.931797 0.653338 0.009099
O O4 0.890479 0.939411 0.939084
O O5 0.548879 0.740112 0.490648
O O6 0.788362 0.636548 0.485924
O O7 0.624593 0.518021 0.633777
O O8 0.638739 0.460341 0.841240
O O9 0.662325 0.617418 0.022325
O O10 0.878166 0.839750 0.607930
O O11 0.688152 0.987834 0.659505
O O12 0.921310 0.072085 0.725067
O O13 0.545001 0.045041 0.122717
O O14 0.575036 0.223885 0.712055
#
# Coordination Sequence:
#
# PCOD9345004 Si02
#       7
#     4   4   4   4   4   4   4
#     4  10  21  40  66  98 132 173 220 269 333 403
#     4  10  21  37  63  93 132 176 220 269 328 395
#     4  11  21  41  69  98 134 174 220 273 332 398
#     4  10  21  41  63  95 135 166 218 273 327 398
#     4  11  19  36  66  93 125 177 213 269 331 389
#     4  10  23  39  65  92 134 176 224 271 328 400
#     4  10  20  38  68  93 126 180 215 268 339 391
#
# _framework density 25.004728
#
# number of rings (size 3 to 8) (size 9 to 14) (size 15 to 20)
#    0.000    1.714    5.714    0.857    4.000    2.286 
#    0.000    4.286    6.286    0.000    0.000    0.000 
#    0.000    0.000    0.000    0.000    0.000    0.000 
#
# Total GULP energy -156258.838621 kJ/mol
# GULP energy per Si atom -5580.672808 kJ/mol
# Density = 2.494782 g / cm^3
# Si number density = 25.004728 Si / 1000 Ang^3
#
#
#
# Elastic Constant Matrix: (Units=GPa)
#
#
# Indices 1 2 3 4 5 6 
#
# 1 186.4806 48.5823 13.4310 0.0000 0.0000 0.0000
# 2 48.5823 69.5383 -7.7702 0.0000 0.0000 0.0000
# 3 13.4310 -7.7702 39.1796 0.0000 0.0000 0.0000
# 4 0.0000 0.0000 0.0000 18.5466 0.0000 0.0000
# 5 0.0000 0.0000 0.0000 0.0000 14.0273 0.0000
# 6 0.0000 0.0000 0.0000 0.0000 0.0000 38.8030
#
#
#
# Elastic Compliance Matrix: (Units=1/GPa)
#
#
# Indices 1 2 3 4 5 6 
#
# 1 0.006981 -0.005261 -0.003436 0.000000 0.000000 0.000000
# 2 -0.005261 0.018671 0.005506 0.000000 0.000000 0.000000
# 3 -0.003436 0.005506 0.027794 0.000000 0.000000 0.000000
# 4 0.000000 0.000000 0.000000 0.053918 0.000000 0.000000
# 5 0.000000 0.000000 0.000000 0.000000 0.071290 0.000000
# 6 0.000000 0.000000 0.000000 0.000000 0.000000 0.025771
#
#
# Mechanical properties :
#
#
# Convention : Reuss Voigt Hill
#
# Bulk Modulus (GPa) = 21.24775 44.85386 33.05080
# Shear Modulus (GPa) = 22.07563 30.33907 26.20735
#
# Velocity S-wave (km/s) = 2.97452 3.48707 3.24094
# Velocity P-wave (km/s) = 4.50699 5.84722 5.22029
#
# Compressibility (1/GPa) = 0.04706381
#
# Stress axis : x y z
#
# Youngs Moduli (GPa) = 143.25503 53.55809 35.97960
#
# Poissons Ratio (x) = 0.28176 0.12364
# Poissons Ratio (y) = 0.75365 -0.19812
# Poissons Ratio (z) = 0.49227 -0.29491
#
# Static dielectric constant tensor:
#      x y z
#    x 2.081970 0.000000 0.000000 
#    y 0.000000 2.089500 0.000000 
#    z 0.000000 0.000000 2.109220 
# 
# From -- ./inp_files/7908.got.cif
#   From: 2010.05.17/outbox.cif.g08.bks.cpg/sg33_4_cif.got.tgz:7908.got - 2010.06.03 17:15:25.
