data_PCOD9345310
_publ_section_title
;
Structure prediction by ZEFSAII (Michael W. Deem and Ramdas Pophale) SiO2 
 PCOD9345310
Probable space group: P N A 21
;
_chemical_formula_sum "Si O2"
_cell_formula_units_Z 32
_cell_length_a 10.382975
_cell_length_b 28.239349
_cell_length_c 5.150935
_cell_angle_alpha 90.000000
_cell_angle_beta 90.000000
_cell_angle_gamma 90.000000
_cell_volume 1510.297692
_symmetry_space_group_name_H-M "P N A 21"
_symmetry_group_IT_number 33
_symmetry_cell_setting 'orthorhombic'
loop_
_space_group_symop_operation_xyz
x,y,z
-x,-y,1/2+z
1/2-x,1/2+y,1/2+z
1/2+x,1/2-y,z
loop_
_atom_site_type_symbol
_atom_site_label
_atom_site_fract_x
_atom_site_fract_y
_atom_site_fract_z
Si Si1 0.911408 0.796178 0.564860
Si Si2 0.075344 0.440790 0.369832
Si Si3 0.661478 0.013111 0.866986
Si Si4 0.159575 0.119304 0.392600
Si Si5 0.889938 0.288219 0.977930
Si Si6 0.463641 0.604027 0.393035
Si Si7 0.429156 0.485542 0.064858
Si Si8 0.068646 0.649963 0.982979
O O1 0.884233 0.825947 0.831468
O O2 0.766725 0.780488 0.473568
O O3 0.974059 0.839314 0.401293
O O4 0.017029 0.755147 0.557362
O O5 0.167675 0.465771 0.578992
O O6 0.945304 0.472298 0.379915
O O7 0.044530 0.388038 0.463273
O O8 0.121274 0.446593 0.075317
O O9 0.795363 0.993905 0.969413
O O10 0.066023 0.094175 0.595438
O O11 0.151731 0.096789 0.105232
O O12 0.297686 0.121848 0.524032
O O13 0.913038 0.326687 0.202273
O O14 0.936229 0.310587 0.705690
O O15 0.536424 0.501857 0.857064
O O16 0.573863 0.571246 0.510501
#
# Coordination Sequence:
#
# PCOD9345310 Si02
#       8
#     4   4   4   4   4   4   4   4
#     4   9  23  40  62  88 124 162 203 259 308 380
#     4  10  22  41  65  86 125 170 200 266 313 362
#     4  10  23  42  60  91 130 162 209 257 320 375
#     4   9  19  38  61  85 114 160 202 251 299 366
#     4  11  23  38  64  91 124 155 215 254 319 373
#     4  10  21  39  60  87 122 164 193 259 314 355
#     4  12  26  40  65  97 127 166 216 262 316 393
#     4  11  21  38  63  91 116 159 214 258 293 390
#
# _framework density 21.187875999999999
#
# number of rings (size 3 to 8) (size 9 to 14) (size 15 to 20)
#    0.750    1.000    1.250    2.250    5.250    0.000 
#    4.500    0.000    0.000    0.000    0.000    0.000 
#    0.000    0.000    0.000    0.000    0.000    0.000 
#
# Total GULP energy -178301.460303 kJ/mol
# GULP energy per Si atom -5571.920634 kJ/mol
# Density = 2.113965 g / cm^3
# Si number density = 21.187876 Si / 1000 Ang^3
#
#
#
# Elastic Constant Matrix: (Units=GPa)
#
#
# Indices 1 2 3 4 5 6 
#
# 1 54.5882 22.9193 -10.7627 0.0000 0.0000 0.0000
# 2 22.9193 60.1773 -3.2241 0.0000 0.0000 0.0000
# 3 -10.7627 -3.2241 61.7050 0.0000 0.0000 0.0000
# 4 0.0000 0.0000 0.0000 29.1316 0.0000 0.0000
# 5 0.0000 0.0000 0.0000 0.0000 18.9694 0.0000
# 6 0.0000 0.0000 0.0000 0.0000 0.0000 28.8995
#
#
#
# Elastic Compliance Matrix: (Units=1/GPa)
#
#
# Indices 1 2 3 4 5 6 
#
# 1 0.022532 -0.008394 0.003491 0.000000 0.000000 0.000000
# 2 -0.008394 0.019792 -0.000430 0.000000 0.000000 0.000000
# 3 0.003491 -0.000430 0.016793 0.000000 0.000000 0.000000
# 4 0.000000 0.000000 0.000000 0.034327 0.000000 0.000000
# 5 0.000000 0.000000 0.000000 0.000000 0.052716 0.000000
# 6 0.000000 0.000000 0.000000 0.000000 0.000000 0.034603
#
#
# Mechanical properties :
#
#
# Convention : Reuss Voigt Hill
#
# Bulk Modulus (GPa) = 20.63986 21.59283 21.11635
# Shear Modulus (GPa) = 24.08728 26.56931 25.32829
#
# Velocity S-wave (km/s) = 3.37537 3.54501 3.46123
# Velocity P-wave (km/s) = 4.99533 5.19320 5.09523
#
# Compressibility (1/GPa) = 0.04844994
#
# Stress axis : x y z
#
# Youngs Moduli (GPa) = 44.38159 50.52630 59.54985
#
# Poissons Ratio (x) = 0.42414 -0.20791
# Poissons Ratio (y) = 0.37256 0.02561
# Poissons Ratio (z) = -0.15496 0.02173
#
# Static dielectric constant tensor:
#      x y z
#    x 1.792640 0.000000 0.000000 
#    y 0.000000 1.831900 0.000000 
#    z 0.000000 0.000000 1.755490 
# 
# From -- ./inp_files/1152.got.cif
#   From: 2010.05.17/outbox.cif.g08.bks.cpg/sg33_1_cif.got.tgz:1152.got - 2010.06.03 17:15:25.
