data_PCOD9345126
_publ_section_title
;
Structure prediction by ZEFSAII (Michael W. Deem and Ramdas Pophale) SiO2 
 PCOD9345126
Probable space group: P N A 21
;
_chemical_formula_sum "Si O2"
_cell_formula_units_Z 32
_cell_length_a 15.526949
_cell_length_b 10.046635
_cell_length_c 10.483142
_cell_angle_alpha 90.000000
_cell_angle_beta 90.000000
_cell_angle_gamma 90.000000
_cell_volume 1635.302947
_symmetry_space_group_name_H-M "P N A 21"
_symmetry_group_IT_number 33
_symmetry_cell_setting 'orthorhombic'
loop_
_space_group_symop_operation_xyz
x,y,z
-x,-y,1/2+z
1/2-x,1/2+y,1/2+z
1/2+x,1/2-y,z
loop_
_atom_site_type_symbol
_atom_site_label
_atom_site_fract_x
_atom_site_fract_y
_atom_site_fract_z
Si Si1 0.455567 0.178321 0.009400
Si Si2 0.442737 0.790735 0.257653
Si Si3 0.039103 0.599760 0.029142
Si Si4 0.161813 0.031297 0.754337
Si Si5 0.245345 0.646189 0.499598
Si Si6 0.779893 0.556533 0.520429
Si Si7 0.072883 0.759286 0.785164
Si Si8 0.296877 0.022722 0.254414
O O1 0.353967 0.193451 0.984538
O O2 0.474620 0.235854 0.150168
O O3 0.472536 0.020658 0.013091
O O4 0.515457 0.230278 0.896372
O O5 0.518146 0.828536 0.160622
O O6 0.393555 0.659135 0.215948
O O7 0.373665 0.912499 0.254694
O O8 0.132177 0.528487 0.031711
O O9 0.028825 0.698897 0.910083
O O10 0.217686 0.981650 0.635224
O O11 0.100818 0.910645 0.797085
O O12 0.220937 0.077367 0.872110
O O13 0.295512 0.784734 0.523752
O O14 0.248927 0.543560 0.618811
O O15 0.743729 0.517448 0.379903
O O16 0.158123 0.666152 0.774033
#
# Coordination Sequence:
#
# PCOD9345126 Si02
#       8
#     4   4   4   4   4   4   4   4
#     4  11  19  41  69  89 127 172 222 266 323 400
#     4  12  23  41  66  99 129 173 224 276 324 405
#     4  11  21  42  70  96 124 178 228 265 326 409
#     4  12  25  42  64  99 140 171 214 290 344 380
#     4  11  22  42  70  96 135 178 221 279 340 392
#     4  11  22  44  68  98 133 178 220 279 334 397
#     4  10  22  40  63  93 130 165 220 273 324 391
#     4  10  20  42  66  92 130 167 227 262 321 406
#
# _framework density 19.568239999999999
#
# number of rings (size 3 to 8) (size 9 to 14) (size 15 to 20)
#    0.000    1.000    8.750    0.750    0.000    3.000 
#    2.250    1.250    0.000    0.000    0.000    0.000 
#    0.000    0.000    0.000    0.000    0.000    0.000 
#
# Total GULP energy -178593.973822 kJ/mol
# GULP energy per Si atom -5581.061682 kJ/mol
# Density = 1.952370 g / cm^3
# Si number density = 19.568240 Si / 1000 Ang^3
#
#
#
# Elastic Constant Matrix: (Units=GPa)
#
#
# Indices 1 2 3 4 5 6 
#
# 1 43.7592 23.0072 39.5899 0.0000 0.0000 0.0000
# 2 23.0072 84.3901 39.4897 0.0000 0.0000 0.0000
# 3 39.5899 39.4897 140.9677 0.0000 0.0000 0.0000
# 4 0.0000 0.0000 0.0000 21.3659 0.0000 0.0000
# 5 0.0000 0.0000 0.0000 0.0000 22.4245 0.0000
# 6 0.0000 0.0000 0.0000 0.0000 0.0000 23.4485
#
#
#
# Elastic Compliance Matrix: (Units=1/GPa)
#
#
# Indices 1 2 3 4 5 6 
#
# 1 0.032569 -0.005293 -0.007664 0.000000 0.000000 0.000000
# 2 -0.005293 0.014498 -0.002575 0.000000 0.000000 0.000000
# 3 -0.007664 -0.002575 0.009968 0.000000 0.000000 0.000000
# 4 0.000000 0.000000 0.000000 0.046804 0.000000 0.000000
# 5 0.000000 0.000000 0.000000 0.000000 0.044594 0.000000
# 6 0.000000 0.000000 0.000000 0.000000 0.000000 0.042647
#
#
# Mechanical properties :
#
#
# Convention : Reuss Voigt Hill
#
# Bulk Modulus (GPa) = 38.50506 52.58782 45.54644
# Shear Modulus (GPa) = 21.66386 24.58310 23.12348
#
# Velocity S-wave (km/s) = 3.33091 3.54824 3.44129
# Velocity P-wave (km/s) = 5.87480 6.61204 6.25430
#
# Compressibility (1/GPa) = 0.02597062
#
# Stress axis : x y z
#
# Youngs Moduli (GPa) = 30.70396 68.97701 100.32586
#
# Poissons Ratio (x) = 0.36509 0.76891
# Poissons Ratio (y) = 0.16251 0.25832
# Poissons Ratio (z) = 0.23532 0.17760
#
# Static dielectric constant tensor:
#      x y z
#    x 1.699820 0.000000 0.000000 
#    y 0.000000 1.656100 0.000000 
#    z 0.000000 0.000000 1.731600 
# 
# From -- ./inp_files/6799.got.cif
#   From: 2010.05.17/outbox.cif.g08.bks.cpg/sg33_4_cif.got.tgz:6799.got - 2010.06.03 17:15:25.
