data_PCOD9345056
_publ_section_title
;
Structure prediction by ZEFSAII (Michael W. Deem and Ramdas Pophale) SiO2 
 PCOD9345056
Probable space group: P N A 21
;
_chemical_formula_sum "Si O2"
_cell_formula_units_Z 28
_cell_length_a 12.881287
_cell_length_b 19.237245
_cell_length_c 5.040569
_cell_angle_alpha 90.000000
_cell_angle_beta 90.000000
_cell_angle_gamma 90.000000
_cell_volume 1249.055387
_symmetry_space_group_name_H-M "P N A 21"
_symmetry_group_IT_number 33
_symmetry_cell_setting 'orthorhombic'
loop_
_space_group_symop_operation_xyz
x,y,z
-x,-y,1/2+z
1/2-x,1/2+y,1/2+z
1/2+x,1/2-y,z
loop_
_atom_site_type_symbol
_atom_site_label
_atom_site_fract_x
_atom_site_fract_y
_atom_site_fract_z
Si Si1 0.306143 0.106688 0.607990
Si Si2 0.985213 0.542749 0.287351
Si Si3 0.868953 0.989485 0.014371
Si Si4 0.218442 0.175819 0.096466
Si Si5 0.252634 0.913200 0.177508
Si Si6 0.997149 0.882991 0.745507
Si Si7 0.794042 0.173639 0.182669
O O1 0.424694 0.091789 0.674341
O O2 0.234972 0.037833 0.660376
O O3 0.280887 0.128367 0.307942
O O4 0.265718 0.165265 0.807209
O O5 0.007660 0.523453 0.590715
O O6 0.869378 0.569990 0.259050
O O7 0.940154 0.921044 0.990027
O O8 0.822819 0.021304 0.738918
O O9 0.939896 0.051207 0.125393
O O10 0.099744 0.150217 0.093445
O O11 0.234468 0.254216 0.193285
O O12 0.212232 0.854699 0.383010
O O13 0.251936 0.883540 0.882811
O O14 0.085518 0.824921 0.775295
#
# Coordination Sequence:
#
# PCOD9345056 Si02
#       7
#     4   4   4   4   4   4   4
#     4  11  24  41  67  96 134 169 219 279 328 403
#     4  12  24  40  65  99 132 174 208 268 350 398
#     4  10  20  40  64 104 126 170 216 286 346 392
#     4  11  25  44  64  95 131 179 225 268 323 400
#     4  11  24  41  67  96 134 169 219 279 328 403
#     4  10  22  38  69  93 130 170 212 278 332 390
#     4  11  25  44  64  95 131 179 225 268 323 400
#
# _framework density 22.416937999999998
#
# number of rings (size 3 to 8) (size 9 to 14) (size 15 to 20)
#    0.000    1.143    1.429    4.286    4.000    5.714 
#    0.000    0.000    0.000    0.000    0.000    0.000 
#    0.000    0.000    0.000    0.000    0.000    0.000 
#
# Total GULP energy -156425.575689 kJ/mol
# GULP energy per Si atom -5586.627703 kJ/mol
# Density = 2.236592 g / cm^3
# Si number density = 22.416938 Si / 1000 Ang^3
#
#
#
# Elastic Constant Matrix: (Units=GPa)
#
#
# Indices 1 2 3 4 5 6 
#
# 1 129.6446 15.0278 -3.3375 0.0000 0.0000 0.0000
# 2 15.0278 66.3263 9.3457 0.0000 0.0000 0.0000
# 3 -3.3375 9.3457 58.7386 0.0000 0.0000 0.0000
# 4 0.0000 0.0000 0.0000 31.5959 0.0000 0.0000
# 5 0.0000 0.0000 0.0000 0.0000 22.6002 0.0000
# 6 0.0000 0.0000 0.0000 0.0000 0.0000 24.9467
#
#
#
# Elastic Compliance Matrix: (Units=1/GPa)
#
#
# Indices 1 2 3 4 5 6 
#
# 1 0.007954 -0.001909 0.000756 0.000000 0.000000 0.000000
# 2 -0.001909 0.015881 -0.002635 0.000000 0.000000 0.000000
# 3 0.000756 -0.002635 0.017487 0.000000 0.000000 0.000000
# 4 0.000000 0.000000 0.000000 0.031650 0.000000 0.000000
# 5 0.000000 0.000000 0.000000 0.000000 0.044247 0.000000
# 6 0.000000 0.000000 0.000000 0.000000 0.000000 0.040085
#
#
# Mechanical properties :
#
#
# Convention : Reuss Voigt Hill
#
# Bulk Modulus (GPa) = 29.63385 32.97572 31.30478
# Shear Modulus (GPa) = 28.38828 31.40679 29.89754
#
# Velocity S-wave (km/s) = 3.56248 3.74709 3.65595
# Velocity P-wave (km/s) = 5.49270 5.78473 5.64060
#
# Compressibility (1/GPa) = 0.03374520
#
# Stress axis : x y z
#
# Youngs Moduli (GPa) = 125.72149 62.96942 57.18600
#
# Poissons Ratio (x) = 0.12019 -0.04321
# Poissons Ratio (y) = 0.23996 0.15070
# Poissons Ratio (z) = -0.09500 0.16594
#
# Static dielectric constant tensor:
#      x y z
#    x 1.831500 0.000000 0.000000 
#    y 0.000000 1.845390 0.000000 
#    z 0.000000 0.000000 1.849250 
# 
# From -- ./inp_files/1003.got.cif
#   From: 2010.05.17/outbox.cif.g08.bks.cpg/sg33_1_cif.got.tgz:1003.got - 2010.06.03 17:15:25.
