data_PCOD9345668
_publ_section_title
;
Structure prediction by ZEFSAII (Michael W. Deem and Ramdas Pophale) SiO2 
 PCOD9345668
Probable space group: P N A 21
;
_chemical_formula_sum "Si O2"
_cell_formula_units_Z 28
_cell_length_a 18.979190
_cell_length_b 13.365747
_cell_length_c 5.133283
_cell_angle_alpha 90.000000
_cell_angle_beta 90.000000
_cell_angle_gamma 90.000000
_cell_volume 1302.165298
_symmetry_space_group_name_H-M "P N A 21"
_symmetry_group_IT_number 33
_symmetry_cell_setting 'orthorhombic'
loop_
_space_group_symop_operation_xyz
x,y,z
-x,-y,1/2+z
1/2-x,1/2+y,1/2+z
1/2+x,1/2-y,z
loop_
_atom_site_type_symbol
_atom_site_label
_atom_site_fract_x
_atom_site_fract_y
_atom_site_fract_z
Si Si1 0.259536 0.073336 0.130260
Si Si2 0.969272 0.552400 0.584640
Si Si3 0.351982 0.903245 0.227919
Si Si4 0.421288 0.763688 0.839512
Si Si5 0.039448 0.034558 0.438127
Si Si6 0.690163 0.508581 0.653646
Si Si7 0.765313 0.710864 0.593728
O O1 0.233480 0.044629 0.419290
O O2 0.278894 0.188557 0.106255
O O3 0.321676 0.995490 0.066927
O O4 0.198620 0.054027 0.917807
O O5 0.889047 0.547632 0.479464
O O6 0.973819 0.669615 0.663261
O O7 0.014383 0.512456 0.340990
O O8 0.288372 0.830508 0.310812
O O9 0.408864 0.832985 0.091864
O O10 0.341647 0.763024 0.720590
O O11 0.446946 0.652862 0.896681
O O12 0.111120 0.987640 0.551329
O O13 0.017705 0.986585 0.163086
O O14 0.722975 0.617480 0.707344
#
# Coordination Sequence:
#
# PCOD9345668 Si02
#       7
#     4   4   4   4   4   4   4
#     4  11  22  40  70 102 133 169 221 296 351 410
#     4  11  23  41  67  98 136 180 232 286 337 422
#     4  10  22  40  69 102 133 180 230 278 359 428
#     4  11  22  45  74  94 136 188 240 277 365 417
#     4  12  28  46  70 101 143 197 240 288 341 437
#     4  11  23  43  68 101 136 172 237 282 345 423
#     4  10  22  39  70 102 131 176 224 297 358 399
#
# _framework density 21.502645000000001
#
# number of rings (size 3 to 8) (size 9 to 14) (size 15 to 20)
#    0.000    1.143    4.286    1.714    4.000    0.000 
#    2.571    1.429    3.143    0.000    0.000    0.000 
#    0.000    0.000    0.000    0.000    0.000    0.000 
#
# Total GULP energy -156280.946891 kJ/mol
# GULP energy per Si atom -5581.462389 kJ/mol
# Density = 2.145370 g / cm^3
# Si number density = 21.502645 Si / 1000 Ang^3
#
#
#
# Elastic Constant Matrix: (Units=GPa)
#
#
# Indices 1 2 3 4 5 6 
#
# 1 51.5733 50.1817 19.9357 0.0000 0.0000 0.0000
# 2 50.1817 187.2770 55.3333 0.0000 0.0000 0.0000
# 3 19.9357 55.3333 105.4517 0.0000 0.0000 0.0000
# 4 0.0000 0.0000 0.0000 25.3697 0.0000 0.0000
# 5 0.0000 0.0000 0.0000 0.0000 39.1646 0.0000
# 6 0.0000 0.0000 0.0000 0.0000 0.0000 38.6812
#
#
#
# Elastic Compliance Matrix: (Units=1/GPa)
#
#
# Indices 1 2 3 4 5 6 
#
# 1 0.026431 -0.006635 -0.001515 0.000000 0.000000 0.000000
# 2 -0.006635 0.007985 -0.002936 0.000000 0.000000 0.000000
# 3 -0.001515 -0.002936 0.011310 0.000000 0.000000 0.000000
# 4 0.000000 0.000000 0.000000 0.039417 0.000000 0.000000
# 5 0.000000 0.000000 0.000000 0.000000 0.025533 0.000000
# 6 0.000000 0.000000 0.000000 0.000000 0.000000 0.025852
#
#
# Mechanical properties :
#
#
# Convention : Reuss Voigt Hill
#
# Bulk Modulus (GPa) = 42.45448 66.13373 54.29410
# Shear Modulus (GPa) = 30.02075 35.23319 32.62697
#
# Velocity S-wave (km/s) = 3.74055 4.05229 3.89954
# Velocity P-wave (km/s) = 6.20019 7.26069 6.75130
#
# Compressibility (1/GPa) = 0.02355464
#
# Stress axis : x y z
#
# Youngs Moduli (GPa) = 37.83401 125.23784 88.41821
#
# Poissons Ratio (x) = 0.83090 0.13400
# Poissons Ratio (y) = 0.25101 0.25956
# Poissons Ratio (z) = 0.05734 0.36764
#
# Static dielectric constant tensor:
#      x y z
#    x 1.838580 0.000000 0.000000 
#    y 0.000000 1.772330 0.000000 
#    z 0.000000 0.000000 1.859010 
# 
# From -- ./inp_files/1997.got.cif
#   From: 2010.05.17/outbox.cif.g08.bks.cpg/sg33_1_cif.got.tgz:1997.got - 2010.06.03 17:15:25.
