data_PCOD9345097
_publ_section_title
;
Structure prediction by ZEFSAII (Michael W. Deem and Ramdas Pophale) SiO2 
 PCOD9345097
Probable space group: P N A 21
;
_chemical_formula_sum "Si O2"
_cell_formula_units_Z 32
_cell_length_a 12.998947
_cell_length_b 10.445254
_cell_length_c 11.138050
_cell_angle_alpha 90.000000
_cell_angle_beta 90.000000
_cell_angle_gamma 90.000000
_cell_volume 1512.294391
_symmetry_space_group_name_H-M "P N A 21"
_symmetry_group_IT_number 33
_symmetry_cell_setting 'orthorhombic'
loop_
_space_group_symop_operation_xyz
x,y,z
-x,-y,1/2+z
1/2-x,1/2+y,1/2+z
1/2+x,1/2-y,z
loop_
_atom_site_type_symbol
_atom_site_label
_atom_site_fract_x
_atom_site_fract_y
_atom_site_fract_z
Si Si1 0.365080 0.105994 0.229050
Si Si2 0.607627 0.105885 0.192038
Si Si3 0.210426 0.065079 0.726692
Si Si4 0.270325 0.841913 0.129158
Si Si5 0.694066 0.299833 0.384409
Si Si6 0.246282 0.760894 0.528551
Si Si7 0.896790 0.037403 0.983133
Si Si8 0.631971 0.491422 0.975558
O O1 0.487320 0.098046 0.215266
O O2 0.309050 0.147579 0.353713
O O3 0.326172 0.217600 0.139481
O O4 0.322088 0.967489 0.186748
O O5 0.651825 0.214234 0.278710
O O6 0.655114 0.152064 0.064547
O O7 0.670928 0.979061 0.224609
O O8 0.215105 0.219827 0.717427
O O9 0.151888 0.988506 0.833548
O O10 0.156549 0.013302 0.605362
O O11 0.315949 0.783794 0.004758
O O12 0.163423 0.898702 0.071207
O O13 0.622624 0.423923 0.390629
O O14 0.169050 0.839735 0.445420
O O15 0.290207 0.626556 0.488739
O O16 0.017019 0.055211 0.998471
#
# Coordination Sequence:
#
# PCOD9345097 Si02
#       8
#     4   4   4   4   4   4   4   4
#     4  10  22  39  66  91 127 177 215 266 337 389
#     4  10  20  41  67  89 125 177 211 271 335 384
#     4  10  23  42  62  95 135 163 230 276 318 410
#     4  10  23  43  60  99 135 163 226 278 320 402
#     4  10  22  40  62  95 131 163 223 274 320 404
#     4   9  21  40  59  93 131 158 223 273 315 406
#     4  10  23  40  64  95 127 174 218 275 334 391
#     4  11  22  41  68  89 131 181 212 279 341 380
#
# _framework density 21.159901000000001
#
# number of rings (size 3 to 8) (size 9 to 14) (size 15 to 20)
#    0.000    2.000    1.250    0.750    3.500    5.000 
#    6.750    0.000    0.000    0.000    0.000    0.000 
#    0.000    0.000    0.000    0.000    0.000    0.000 
#
# Total GULP energy -178178.893080 kJ/mol
# GULP energy per Si atom -5568.090409 kJ/mol
# Density = 2.111174 g / cm^3
# Si number density = 21.159901 Si / 1000 Ang^3
#
#
#
# Elastic Constant Matrix: (Units=GPa)
#
#
# Indices 1 2 3 4 5 6 
#
# 1 113.0183 20.6214 20.3684 0.0000 0.0000 0.0000
# 2 20.6214 99.9763 3.7091 0.0000 0.0000 0.0000
# 3 20.3684 3.7091 30.5357 0.0000 0.0000 0.0000
# 4 0.0000 0.0000 0.0000 20.8243 0.0000 0.0000
# 5 0.0000 0.0000 0.0000 0.0000 15.3575 0.0000
# 6 0.0000 0.0000 0.0000 0.0000 0.0000 22.1818
#
#
#
# Elastic Compliance Matrix: (Units=1/GPa)
#
#
# Indices 1 2 3 4 5 6 
#
# 1 0.010403 -0.001897 -0.006709 0.000000 0.000000 0.000000
# 2 -0.001897 0.010394 0.000003 0.000000 0.000000 0.000000
# 3 -0.006709 0.000003 0.037223 0.000000 0.000000 0.000000
# 4 0.000000 0.000000 0.000000 0.048021 0.000000 0.000000
# 5 0.000000 0.000000 0.000000 0.000000 0.065115 0.000000
# 6 0.000000 0.000000 0.000000 0.000000 0.000000 0.045082
#
#
# Mechanical properties :
#
#
# Convention : Reuss Voigt Hill
#
# Bulk Modulus (GPa) = 24.50135 36.99202 30.74668
# Shear Modulus (GPa) = 20.23891 24.92813 22.58352
#
# Velocity S-wave (km/s) = 3.09605 3.43605 3.27047
# Velocity P-wave (km/s) = 4.93811 5.76732 5.36875
#
# Compressibility (1/GPa) = 0.04081408
#
# Stress axis : x y z
#
# Youngs Moduli (GPa) = 96.12280 96.21365 26.86484
#
# Poissons Ratio (x) = 0.18251 0.18024
# Poissons Ratio (y) = 0.18234 -0.00008
# Poissons Ratio (z) = 0.64489 -0.00027
#
# Static dielectric constant tensor:
#      x y z
#    x 1.735460 0.000000 0.000000 
#    y 0.000000 1.794870 0.000000 
#    z 0.000000 0.000000 1.889930 
# 
# From -- ./inp_files/6500.got.cif
#   From: 2010.05.17/outbox.cif.g08.bks.cpg/sg33_4_cif.got.tgz:6500.got - 2010.06.03 17:15:25.
