data_PCOD9345997
_publ_section_title
;
Structure prediction by ZEFSAII (Michael W. Deem and Ramdas Pophale) SiO2 
 PCOD9345997
Probable space group: P N A 21
;
_chemical_formula_sum "Si O2"
_cell_formula_units_Z 28
_cell_length_a 8.520097
_cell_length_b 29.001507
_cell_length_c 5.036930
_cell_angle_alpha 90.000000
_cell_angle_beta 90.000000
_cell_angle_gamma 90.000000
_cell_volume 1244.603506
_symmetry_space_group_name_H-M "P N A 21"
_symmetry_group_IT_number 33
_symmetry_cell_setting 'orthorhombic'
loop_
_space_group_symop_operation_xyz
x,y,z
-x,-y,1/2+z
1/2-x,1/2+y,1/2+z
1/2+x,1/2-y,z
loop_
_atom_site_type_symbol
_atom_site_label
_atom_site_fract_x
_atom_site_fract_y
_atom_site_fract_z
Si Si1 0.104335 0.997248 0.724840
Si Si2 0.193349 0.226662 0.325219
Si Si3 0.715638 0.187359 0.141693
Si Si4 0.145432 0.097086 0.824887
Si Si5 0.582016 0.603035 0.827396
Si Si6 0.105019 0.672563 0.413322
Si Si7 0.588121 0.728112 0.170870
O O1 0.166198 0.946448 0.789213
O O2 0.196941 0.043623 0.795702
O O3 0.048193 0.999083 0.419990
O O4 0.292628 0.190982 0.164694
O O5 0.287554 0.273505 0.422344
O O6 0.075663 0.212176 0.552308
O O7 0.106009 0.261157 0.123392
O O8 0.844371 0.200936 0.914440
O O9 0.799048 0.144900 0.301109
O O10 0.567568 0.159500 0.006242
O O11 0.012850 0.104475 0.601606
O O12 0.291259 0.131431 0.796186
O O13 0.053501 0.105110 0.100933
O O14 0.096510 0.716265 0.209477
#
# Coordination Sequence:
#
# PCOD9345997 Si02
#       7
#     4   4   4   4   4   4   4
#     4   8  16  38  62  94 126 158 206 266 320 384
#     4  11  24  41  61  83 132 176 216 263 321 376
#     4  11  25  40  60  97 127 167 219 269 320 383
#     4  10  23  39  68  97 126 166 216 266 323 391
#     4  10  23  39  68  97 126 166 216 266 323 391
#     4  11  25  40  60  97 127 167 219 269 320 383
#     4  11  24  41  61  83 132 176 216 263 321 376
#
# _framework density 22.497126999999999
#
# number of rings (size 3 to 8) (size 9 to 14) (size 15 to 20)
#    0.000    1.714    2.857    0.000    8.000    0.000 
#    0.000    0.000    0.000   12.000    0.000    0.000 
#    0.000    0.000    0.000    0.000    0.000    0.000 
#
# Total GULP energy -156161.582638 kJ/mol
# GULP energy per Si atom -5577.199380 kJ/mol
# Density = 2.244592 g / cm^3
# Si number density = 22.497127 Si / 1000 Ang^3
#
#
#
# Elastic Constant Matrix: (Units=GPa)
#
#
# Indices 1 2 3 4 5 6 
#
# 1 92.4496 47.3797 17.7518 0.0000 0.0000 0.0000
# 2 47.3797 179.5112 20.0848 0.0000 0.0000 0.0000
# 3 17.7518 20.0848 94.2971 0.0000 0.0000 0.0000
# 4 0.0000 0.0000 0.0000 27.2270 0.0000 0.0000
# 5 0.0000 0.0000 0.0000 0.0000 21.6420 0.0000
# 6 0.0000 0.0000 0.0000 0.0000 0.0000 23.9369
#
#
#
# Elastic Compliance Matrix: (Units=1/GPa)
#
#
# Indices 1 2 3 4 5 6 
#
# 1 0.012778 -0.003179 -0.001728 0.000000 0.000000 0.000000
# 2 -0.003179 0.006498 -0.000785 0.000000 0.000000 0.000000
# 3 -0.001728 -0.000785 0.011097 0.000000 0.000000 0.000000
# 4 0.000000 0.000000 0.000000 0.036728 0.000000 0.000000
# 5 0.000000 0.000000 0.000000 0.000000 0.046206 0.000000
# 6 0.000000 0.000000 0.000000 0.000000 0.000000 0.041777
#
#
# Mechanical properties :
#
#
# Convention : Reuss Voigt Hill
#
# Bulk Modulus (GPa) = 52.66763 59.63231 56.14997
# Shear Modulus (GPa) = 28.93533 33.29729 31.11631
#
# Velocity S-wave (km/s) = 3.59022 3.85134 3.72307
# Velocity P-wave (km/s) = 6.37557 6.80744 6.59504
#
# Compressibility (1/GPa) = 0.01898700
#
# Stress axis : x y z
#
# Youngs Moduli (GPa) = 78.26026 153.90126 90.11084
#
# Poissons Ratio (x) = 0.48928 0.15574
# Poissons Ratio (y) = 0.24880 0.07078
# Poissons Ratio (z) = 0.13526 0.12089
#
# Static dielectric constant tensor:
#      x y z
#    x 1.896760 0.000000 0.000000 
#    y 0.000000 1.917180 0.000000 
#    z 0.000000 0.000000 1.992610 
# 
# From -- ./inp_files/538.got.cif
#   From: 2010.05.17/outbox.cif.g08.bks.cpg/sg33_1_cif.got.tgz:538.got - 2010.06.03 17:15:25.
