data_PCOD9345231
_publ_section_title
;
Structure prediction by ZEFSAII (Michael W. Deem and Ramdas Pophale) SiO2 
 PCOD9345231
Probable space group: P N A 21
;
_chemical_formula_sum "Si O2"
_cell_formula_units_Z 28
_cell_length_a 25.679273
_cell_length_b 9.720567
_cell_length_c 4.901561
_cell_angle_alpha 90.000000
_cell_angle_beta 90.000000
_cell_angle_gamma 90.000000
_cell_volume 1223.513411
_symmetry_space_group_name_H-M "P N A 21"
_symmetry_group_IT_number 33
_symmetry_cell_setting 'orthorhombic'
loop_
_space_group_symop_operation_xyz
x,y,z
-x,-y,1/2+z
1/2-x,1/2+y,1/2+z
1/2+x,1/2-y,z
loop_
_atom_site_type_symbol
_atom_site_label
_atom_site_fract_x
_atom_site_fract_y
_atom_site_fract_z
Si Si1 0.226048 0.849146 0.160500
Si Si2 0.123462 0.509767 0.476461
Si Si3 0.488377 0.215051 0.582047
Si Si4 0.389371 0.319486 0.879774
Si Si5 0.967226 0.972412 0.072417
Si Si6 0.266482 0.016509 0.669588
Si Si7 0.059061 0.442590 0.958011
O O1 0.166331 0.853719 0.257822
O O2 0.240889 0.684205 0.142912
O O3 0.259701 0.937264 0.381469
O O4 0.229358 0.931931 0.876375
O O5 0.117462 0.673335 0.529381
O O6 0.177932 0.495139 0.320021
O O7 0.109098 0.435724 0.757155
O O8 0.080816 0.457370 0.260191
O O9 0.433864 0.288694 0.654097
O O10 0.530257 0.318452 0.455518
O O11 0.516933 0.164662 0.855568
O O12 0.470994 0.086226 0.406840
O O13 0.414720 0.442754 0.050724
O O14 0.011295 0.038600 0.877642
#
# Coordination Sequence:
#
# PCOD9345231 Si02
#       7
#     4   4   4   4   4   4   4
#     4  11  24  45  73 101 132 181 224 294 344 419
#     4  10  22  40  64  89 126 170 216 263 332 401
#     4  10  21  38  62  92 131 169 211 266 309 396
#     4   9  21  40  64  90 123 174 213 253 330 396
#     4  10  21  37  58  86 121 163 205 255 301 371
#     4  11  24  46  71  99 136 173 233 288 358 400
#     4  11  21  36  60  95 127 172 214 261 320 391
#
# _framework density 22.884917000000002
#
# number of rings (size 3 to 8) (size 9 to 14) (size 15 to 20)
#    0.000    1.714    0.000    4.286    0.000   11.429 
#    7.714    0.000    0.000    0.000    0.000    0.000 
#    0.000    0.000    0.000    0.000    0.000    0.000 
#
# Total GULP energy -156198.961340 kJ/mol
# GULP energy per Si atom -5578.534334 kJ/mol
# Density = 2.283283 g / cm^3
# Si number density = 22.884917 Si / 1000 Ang^3
#
#
#
# Elastic Constant Matrix: (Units=GPa)
#
#
# Indices 1 2 3 4 5 6 
#
# 1 81.9753 29.0894 -14.9604 0.0000 0.0000 0.0000
# 2 29.0894 119.8356 15.8918 0.0000 0.0000 0.0000
# 3 -14.9604 15.8918 70.3885 0.0000 0.0000 0.0000
# 4 0.0000 0.0000 0.0000 28.7653 0.0000 0.0000
# 5 0.0000 0.0000 0.0000 0.0000 27.3294 0.0000
# 6 0.0000 0.0000 0.0000 0.0000 0.0000 30.6546
#
#
#
# Elastic Compliance Matrix: (Units=1/GPa)
#
#
# Indices 1 2 3 4 5 6 
#
# 1 0.014341 -0.004005 0.003952 0.000000 0.000000 0.000000
# 2 -0.004005 0.009721 -0.003046 0.000000 0.000000 0.000000
# 3 0.003952 -0.003046 0.015735 0.000000 0.000000 0.000000
# 4 0.000000 0.000000 0.000000 0.034764 0.000000 0.000000
# 5 0.000000 0.000000 0.000000 0.000000 0.036591 0.000000
# 6 0.000000 0.000000 0.000000 0.000000 0.000000 0.032622
#
#
# Mechanical properties :
#
#
# Convention : Reuss Voigt Hill
#
# Bulk Modulus (GPa) = 29.76277 36.91566 33.33921
# Shear Modulus (GPa) = 31.02291 33.49509 32.25900
#
# Velocity S-wave (km/s) = 3.68585 3.82989 3.75856
# Velocity P-wave (km/s) = 5.58100 5.97691 5.78235
#
# Compressibility (1/GPa) = 0.03359902
#
# Stress axis : x y z
#
# Youngs Moduli (GPa) = 69.72784 102.86987 63.55402
#
# Poissons Ratio (x) = 0.41204 -0.25119
# Poissons Ratio (y) = 0.27929 0.19359
# Poissons Ratio (z) = -0.27560 0.31335
#
# Static dielectric constant tensor:
#      x y z
#    x 1.864250 0.000000 0.000000 
#    y 0.000000 1.961160 0.000000 
#    z 0.000000 0.000000 1.913630 
# 
# From -- ./inp_files/2431.got.cif
#   From: 2010.05.17/outbox.cif.g08.bks.cpg/sg33_2_cif.got.tgz:2431.got - 2010.06.03 17:15:25.
