data_PCOD9345044
_publ_section_title
;
Structure prediction by ZEFSAII (Michael W. Deem and Ramdas Pophale) SiO2 
 PCOD9345044
Probable space group: P N A 21
;
_chemical_formula_sum "Si O2"
_cell_formula_units_Z 32
_cell_length_a 13.646466
_cell_length_b 11.261461
_cell_length_c 7.951406
_cell_angle_alpha 90.000000
_cell_angle_beta 90.000000
_cell_angle_gamma 90.000000
_cell_volume 1221.965273
_symmetry_space_group_name_H-M "P N A 21"
_symmetry_group_IT_number 33
_symmetry_cell_setting 'orthorhombic'
loop_
_space_group_symop_operation_xyz
x,y,z
-x,-y,1/2+z
1/2-x,1/2+y,1/2+z
1/2+x,1/2-y,z
loop_
_atom_site_type_symbol
_atom_site_label
_atom_site_fract_x
_atom_site_fract_y
_atom_site_fract_z
Si Si1 0.380901 0.435662 0.464710
Si Si2 0.750210 0.969746 0.004514
Si Si3 0.797331 0.726165 0.843101
Si Si4 0.384194 0.048021 0.181556
Si Si5 0.855462 0.162042 0.836028
Si Si6 0.223002 0.157833 0.976157
Si Si7 0.486697 0.236980 0.359947
Si Si8 0.924867 0.385010 0.694281
O O1 0.291283 0.360480 0.384446
O O2 0.373564 0.412654 0.665944
O O3 0.366594 0.573984 0.427756
O O4 0.476889 0.377567 0.380395
O O5 0.834820 0.069558 0.987643
O O6 0.791503 0.839365 0.967734
O O7 0.682184 0.991362 0.839271
O O8 0.675344 0.961040 0.161670
O O9 0.794884 0.775197 0.652421
O O10 0.906789 0.681209 0.866831
O O11 0.310958 0.065075 0.026197
O O12 0.427118 0.180366 0.208610
O O13 0.479364 0.965976 0.189166
O O14 0.928799 0.276148 0.828115
O O15 0.756483 0.244099 0.843136
O O16 0.429840 0.188465 0.521411
#
# Coordination Sequence:
#
# PCOD9345044 Si02
#       8
#     4   4   4   4   4   4   4   4
#     4  11  21  46  63  93 133 169 218 261 333 398
#     4  10  21  41  62  89 132 168 211 266 331 384
#     4  11  21  43  67  88 132 176 206 276 326 386
#     4  10  20  40  60  94 124 163 220 271 309 377
#     4  11  23  39  63  96 125 168 213 261 330 391
#     4  11  24  40  70  95 129 173 212 275 333 383
#     4  10  22  38  66  91 120 175 219 256 327 397
#     4  10  22  37  63  96 127 166 221 270 319 390
#
# _framework density 26.187325000000001
#
# number of rings (size 3 to 8) (size 9 to 14) (size 15 to 20)
#    0.000    1.500    7.500    0.750    7.000    0.000 
#    0.000    3.750    0.000    0.000    0.000    0.000 
#    0.000    0.000    0.000    0.000    0.000    0.000 
#
# Total GULP energy -178657.969091 kJ/mol
# GULP energy per Si atom -5583.061534 kJ/mol
# Density = 2.612772 g / cm^3
# Si number density = 26.187325 Si / 1000 Ang^3
#
#
#
# Elastic Constant Matrix: (Units=GPa)
#
#
# Indices 1 2 3 4 5 6 
#
# 1 60.2709 -1.8383 10.1288 0.0000 0.0000 0.0000
# 2 -1.8383 74.8422 17.2149 0.0000 0.0000 0.0000
# 3 10.1288 17.2149 82.4047 0.0000 0.0000 0.0000
# 4 0.0000 0.0000 0.0000 35.9351 0.0000 0.0000
# 5 0.0000 0.0000 0.0000 0.0000 10.8892 0.0000
# 6 0.0000 0.0000 0.0000 0.0000 0.0000 52.8014
#
#
#
# Elastic Compliance Matrix: (Units=1/GPa)
#
#
# Indices 1 2 3 4 5 6 
#
# 1 0.017005 0.000944 -0.002287 0.000000 0.000000 0.000000
# 2 0.000944 0.014088 -0.003059 0.000000 0.000000 0.000000
# 3 -0.002287 -0.003059 0.013055 0.000000 0.000000 0.000000
# 4 0.000000 0.000000 0.000000 0.027828 0.000000 0.000000
# 5 0.000000 0.000000 0.000000 0.000000 0.091834 0.000000
# 6 0.000000 0.000000 0.000000 0.000000 0.000000 0.018939
#
#
# Mechanical properties :
#
#
# Convention : Reuss Voigt Hill
#
# Bulk Modulus (GPa) = 28.29390 29.83653 29.06522
# Shear Modulus (GPa) = 24.58985 32.72597 28.65791
#
# Velocity S-wave (km/s) = 3.06763 3.53893 3.31167
# Velocity P-wave (km/s) = 4.83477 5.30254 5.07405
#
# Compressibility (1/GPa) = 0.03534330
#
# Stress axis : x y z
#
# Youngs Moduli (GPa) = 58.80643 70.98101 76.59637
#
# Poissons Ratio (x) = -0.06699 0.17520
# Poissons Ratio (y) = -0.05550 0.23432
# Poissons Ratio (z) = 0.13451 0.21714
#
# Static dielectric constant tensor:
#      x y z
#    x 2.069150 0.000000 0.000000 
#    y 0.000000 2.156810 0.000000 
#    z 0.000000 0.000000 2.073820 
# 
# From -- ./inp_files/4459.got.cif
#   From: 2010.05.17/outbox.cif.g08.bks.cpg/sg33_3_cif.got.tgz:4459.got - 2010.06.03 17:15:25.
