data_PCOD9345725
_publ_section_title
;
Structure prediction by ZEFSAII (Michael W. Deem and Ramdas Pophale) SiO2 
 PCOD9345725
Probable space group: P N A 21
;
_chemical_formula_sum "Si O2"
_cell_formula_units_Z 24
_cell_length_a 21.968022
_cell_length_b 5.373698
_cell_length_c 8.196300
_cell_angle_alpha 90.000000
_cell_angle_beta 90.000000
_cell_angle_gamma 90.000000
_cell_volume 967.569247
_symmetry_space_group_name_H-M "P N A 21"
_symmetry_group_IT_number 33
_symmetry_cell_setting 'orthorhombic'
loop_
_space_group_symop_operation_xyz
x,y,z
-x,-y,1/2+z
1/2-x,1/2+y,1/2+z
1/2+x,1/2-y,z
loop_
_atom_site_type_symbol
_atom_site_label
_atom_site_fract_x
_atom_site_fract_y
_atom_site_fract_z
Si Si1 0.234435 0.277455 0.115050
Si Si2 0.565050 0.476034 0.834781
Si Si3 0.656047 0.457880 0.537782
Si Si4 0.945778 0.741210 0.839709
Si Si5 0.948771 0.457583 0.520603
Si Si6 0.227137 0.775864 0.994156
O O1 0.256680 0.272402 0.302222
O O2 0.294200 0.753366 0.080574
O O3 0.201245 0.033679 0.054388
O O4 0.197629 0.523492 0.061849
O O5 0.610264 0.496739 0.684427
O O6 0.496481 0.558129 0.782206
O O7 0.581386 0.704721 0.955716
O O8 0.564725 0.202934 0.912266
O O9 0.615976 0.373728 0.387203
O O10 0.702406 0.685752 0.511696
O O11 0.937330 0.535826 0.703457
O O12 0.979042 0.607778 0.993038
#
# Coordination Sequence:
#
# PCOD9345725 Si02
#       6
#     4   4   4   4   4   4
#     4  10  23  45  69 100 126 175 214 286 335 397
#     4  10  23  40  61  91 130 176 214 273 322 403
#     4  10  24  41  68  95 135 174 223 270 347 393
#     4  10  22  41  62  94 131 178 217 272 324 403
#     4  10  23  37  62  86 135 170 220 261 322 379
#     4  10  23  44  72  92 133 167 222 276 344 387
#
# _framework density 24.804428999999999
#
# number of rings (size 3 to 8) (size 9 to 14) (size 15 to 20)
#    2.000    0.000    0.000    3.000    4.667    1.333 
#    6.000    0.000    0.000    0.000    0.000    0.000 
#    0.000    0.000    0.000    0.000    0.000    0.000 
#
# Total GULP energy -134070.259087 kJ/mol
# GULP energy per Si atom -5586.260795 kJ/mol
# Density = 2.474797 g / cm^3
# Si number density = 24.804429 Si / 1000 Ang^3
#
#
#
# Elastic Constant Matrix: (Units=GPa)
#
#
# Indices 1 2 3 4 5 6 
#
# 1 81.3272 17.4937 2.7416 0.0000 0.0000 0.0000
# 2 17.4937 186.2653 41.3618 0.0000 0.0000 0.0000
# 3 2.7416 41.3618 95.0933 0.0000 0.0000 0.0000
# 4 0.0000 0.0000 0.0000 44.7687 0.0000 0.0000
# 5 0.0000 0.0000 0.0000 0.0000 37.4951 0.0000
# 6 0.0000 0.0000 0.0000 0.0000 0.0000 24.8854
#
#
#
# Elastic Compliance Matrix: (Units=1/GPa)
#
#
# Indices 1 2 3 4 5 6 
#
# 1 0.012552 -0.001216 0.000167 0.000000 0.000000 0.000000
# 2 -0.001216 0.006060 -0.002601 0.000000 0.000000 0.000000
# 3 0.000167 -0.002601 0.011643 0.000000 0.000000 0.000000
# 4 0.000000 0.000000 0.000000 0.022337 0.000000 0.000000
# 5 0.000000 0.000000 0.000000 0.000000 0.026670 0.000000
# 6 0.000000 0.000000 0.000000 0.000000 0.000000 0.040184
#
#
# Mechanical properties :
#
#
# Convention : Reuss Voigt Hill
#
# Bulk Modulus (GPa) = 43.56346 53.98667 48.77507
# Shear Modulus (GPa) = 37.20296 41.50241 39.35268
#
# Velocity S-wave (km/s) = 3.87699 4.09490 3.98743
# Velocity P-wave (km/s) = 6.13533 6.64603 6.39578
#
# Compressibility (1/GPa) = 0.02295502
#
# Stress axis : x y z
#
# Youngs Moduli (GPa) = 79.66902 165.00389 85.89214
#
# Poissons Ratio (x) = 0.20063 -0.01434
# Poissons Ratio (y) = 0.09687 0.22341
# Poissons Ratio (z) = -0.01331 0.42918
#
# Static dielectric constant tensor:
#      x y z
#    x 1.983900 0.000000 0.000000 
#    y 0.000000 2.088350 0.000000 
#    z 0.000000 0.000000 1.953070 
# 
# From -- ./inp_files/5089.got.cif
#   From: 2010.05.17/outbox.cif.g08.bks.cpg/sg33_3_cif.got.tgz:5089.got - 2010.06.03 17:15:25.
