data_PCOD9345222
_publ_section_title
;
Structure prediction by ZEFSAII (Michael W. Deem and Ramdas Pophale) SiO2 
 PCOD9345222
Probable space group: P N A 21
;
_chemical_formula_sum "Si O2"
_cell_formula_units_Z 32
_cell_length_a 5.243240
_cell_length_b 17.201906
_cell_length_c 14.889356
_cell_angle_alpha 90.000000
_cell_angle_beta 90.000000
_cell_angle_gamma 90.000000
_cell_volume 1342.926430
_symmetry_space_group_name_H-M "P N A 21"
_symmetry_group_IT_number 33
_symmetry_cell_setting 'orthorhombic'
loop_
_space_group_symop_operation_xyz
x,y,z
-x,-y,1/2+z
1/2-x,1/2+y,1/2+z
1/2+x,1/2-y,z
loop_
_atom_site_type_symbol
_atom_site_label
_atom_site_fract_x
_atom_site_fract_y
_atom_site_fract_z
Si Si1 0.882088 0.204486 0.225200
Si Si2 0.712449 0.280043 0.775980
Si Si3 0.067177 0.086523 0.882163
Si Si4 0.472877 0.931838 0.715994
Si Si5 0.281852 0.537452 0.083184
Si Si6 0.659429 0.284947 0.568973
Si Si7 0.114848 0.121338 0.074831
Si Si8 0.933622 0.493750 0.394508
O O1 0.653824 0.261560 0.254480
O O2 0.769781 0.119483 0.246447
O O3 0.939140 0.187754 0.119127
O O4 0.491797 0.226528 0.816311
O O5 0.606140 0.365151 0.792502
O O6 0.721805 0.258400 0.671403
O O7 0.273310 0.017876 0.882795
O O8 0.149752 0.135673 0.969945
O O9 0.775364 0.062121 0.890447
O O10 0.635829 0.888201 0.638104
O O11 0.631670 0.943721 0.806440
O O12 0.386695 0.012522 0.669321
O O13 0.397899 0.623523 0.079361
O O14 0.478216 0.464518 0.077635
O O15 0.106959 0.537973 0.994036
O O16 0.429317 0.237557 0.524724
#
# Coordination Sequence:
#
# PCOD9345222 Si02
#       8
#     4   4   4   4   4   4   4   4
#     4  11  23  41  64  94 132 174 222 268 322 393
#     4  10  21  37  55  88 122 162 204 248 316 396
#     4  11  23  41  59  94 131 161 211 276 324 388
#     4  11  23  42  70  97 130 176 223 273 333 390
#     4  10  23  43  65  98 130 170 216 277 325 390
#     4  10  23  39  64  89 123 166 209 256 323 385
#     4  10  23  40  67  95 130 170 225 263 333 394
#     4  11  25  39  66  97 124 165 220 275 326 382
#
# _framework density 23.828561000000001
#
# number of rings (size 3 to 8) (size 9 to 14) (size 15 to 20)
#    0.000    1.500    2.500    1.500    7.000    2.000 
#    0.000    1.250    0.000    0.000    0.000    0.000 
#    0.000    0.000    0.000    0.000    0.000    0.000 
#
# Total GULP energy -178323.874545 kJ/mol
# GULP energy per Si atom -5572.621080 kJ/mol
# Density = 2.377433 g / cm^3
# Si number density = 23.828561 Si / 1000 Ang^3
#
#
#
# Elastic Constant Matrix: (Units=GPa)
#
#
# Indices 1 2 3 4 5 6 
#
# 1 72.6605 1.4804 -0.9268 0.0000 0.0000 0.0000
# 2 1.4804 44.3419 -13.8869 0.0000 0.0000 0.0000
# 3 -0.9268 -13.8869 46.6625 0.0000 0.0000 0.0000
# 4 0.0000 0.0000 0.0000 16.9097 0.0000 0.0000
# 5 0.0000 0.0000 0.0000 0.0000 20.3770 0.0000
# 6 0.0000 0.0000 0.0000 0.0000 0.0000 32.6016
#
#
#
# Elastic Compliance Matrix: (Units=1/GPa)
#
#
# Indices 1 2 3 4 5 6 
#
# 1 0.013773 -0.000413 0.000151 0.000000 0.000000 0.000000
# 2 -0.000413 0.024882 0.007397 0.000000 0.000000 0.000000
# 3 0.000151 0.007397 0.023635 0.000000 0.000000 0.000000
# 4 0.000000 0.000000 0.000000 0.059138 0.000000 0.000000
# 5 0.000000 0.000000 0.000000 0.000000 0.049075 0.000000
# 6 0.000000 0.000000 0.000000 0.000000 0.000000 0.030673
#
#
# Mechanical properties :
#
#
# Convention : Reuss Voigt Hill
#
# Bulk Modulus (GPa) = 13.06163 15.22204 14.14183
# Shear Modulus (GPa) = 23.53762 25.77755 24.65759
#
# Velocity S-wave (km/s) = 3.14632 3.29263 3.22031
# Velocity P-wave (km/s) = 4.32349 4.56697 4.44690
#
# Compressibility (1/GPa) = 0.07656013
#
# Stress axis : x y z
#
# Youngs Moduli (GPa) = 72.60603 40.18916 42.31044
#
# Poissons Ratio (x) = 0.01658 -0.00638
# Poissons Ratio (y) = 0.02996 -0.31296
# Poissons Ratio (z) = -0.01095 -0.29727
#
# Static dielectric constant tensor:
#      x y z
#    x 1.999100 0.000000 0.000000 
#    y 0.000000 1.963390 0.000000 
#    z 0.000000 0.000000 1.966310 
# 
# From -- ./inp_files/7435.got.cif
#   From: 2010.05.17/outbox.cif.g08.bks.cpg/sg33_4_cif.got.tgz:7435.got - 2010.06.03 17:15:25.
