data_PCOD9345751
_publ_section_title
;
Structure prediction by ZEFSAII (Michael W. Deem and Ramdas Pophale) SiO2 
 PCOD9345751
Probable space group: P N A 21
;
_chemical_formula_sum "Si O2"
_cell_formula_units_Z 32
_cell_length_a 14.922057
_cell_length_b 11.716971
_cell_length_c 8.791195
_cell_angle_alpha 90.000000
_cell_angle_beta 90.000000
_cell_angle_gamma 90.000000
_cell_volume 1537.064043
_symmetry_space_group_name_H-M "P N A 21"
_symmetry_group_IT_number 33
_symmetry_cell_setting 'orthorhombic'
loop_
_space_group_symop_operation_xyz
x,y,z
-x,-y,1/2+z
1/2-x,1/2+y,1/2+z
1/2+x,1/2-y,z
loop_
_atom_site_type_symbol
_atom_site_label
_atom_site_fract_x
_atom_site_fract_y
_atom_site_fract_z
Si Si1 0.468390 0.753268 0.447550
Si Si2 0.419017 0.752744 0.949719
Si Si3 0.929356 0.171516 0.221811
Si Si4 0.011025 0.439730 0.687218
Si Si5 0.696392 0.232257 0.174881
Si Si6 0.869911 0.912858 0.218785
Si Si7 0.804894 0.488227 0.609600
Si Si8 0.328403 0.109837 0.273918
O O1 0.551602 0.712809 0.549117
O O2 0.486601 0.862009 0.339953
O O3 0.391052 0.772788 0.569600
O O4 0.424595 0.656732 0.343440
O O5 0.486440 0.697892 0.829379
O O6 0.334824 0.789813 0.848279
O O7 0.461376 0.857312 0.045984
O O8 0.392215 0.653812 0.064576
O O9 0.858449 0.258885 0.293814
O O10 0.907182 0.039918 0.224645
O O11 0.087943 0.537148 0.706608
O O12 0.909241 0.482994 0.661697
O O13 0.739233 0.114421 0.115870
O O14 0.743024 0.357361 0.168376
O O15 0.761223 0.915716 0.218641
O O16 0.803350 0.444640 0.435431
#
# Coordination Sequence:
#
# PCOD9345751 Si02
#       8
#     4   4   4   4   4   4   4   4
#     4  10  24  43  66 101 131 177 230 281 340 407
#     4  10  22  41  68  95 133 183 226 281 342 412
#     4  11  22  41  67  95 135 183 225 275 349 405
#     4  11  24  42  69 100 134 176 231 282 334 415
#     4  11  23  42  67  97 137 173 223 286 344 406
#     4  11  23  42  66  97 142 173 228 285 342 415
#     4  12  24  43  67 102 138 177 229 286 345 411
#     4  12  24  42  68 101 134 176 228 282 346 407
#
# _framework density 20.818912000000001
#
# number of rings (size 3 to 8) (size 9 to 14) (size 15 to 20)
#    0.000    1.000    5.000    2.250    0.000    2.000 
#    0.000    0.000    5.500    0.000    0.000    0.000 
#    0.000    0.000    0.000    0.000    0.000    0.000 
#
# Total GULP energy -178379.943277 kJ/mol
# GULP energy per Si atom -5574.373227 kJ/mol
# Density = 2.077153 g / cm^3
# Si number density = 20.818912 Si / 1000 Ang^3
#
#
#
# Elastic Constant Matrix: (Units=GPa)
#
#
# Indices 1 2 3 4 5 6 
#
# 1 84.8733 40.8588 34.1812 0.0000 0.0000 0.0000
# 2 40.8588 144.7673 57.5016 0.0000 0.0000 0.0000
# 3 34.1812 57.5016 105.1365 0.0000 0.0000 0.0000
# 4 0.0000 0.0000 0.0000 17.3405 0.0000 0.0000
# 5 0.0000 0.0000 0.0000 0.0000 19.9030 0.0000
# 6 0.0000 0.0000 0.0000 0.0000 0.0000 39.6077
#
#
#
# Elastic Compliance Matrix: (Units=1/GPa)
#
#
# Indices 1 2 3 4 5 6 
#
# 1 0.014404 -0.002817 -0.003142 0.000000 0.000000 0.000000
# 2 -0.002817 0.009376 -0.004212 0.000000 0.000000 0.000000
# 3 -0.003142 -0.004212 0.012837 0.000000 0.000000 0.000000
# 4 0.000000 0.000000 0.000000 0.057668 0.000000 0.000000
# 5 0.000000 0.000000 0.000000 0.000000 0.050244 0.000000
# 6 0.000000 0.000000 0.000000 0.000000 0.000000 0.025248
#
#
# Mechanical properties :
#
#
# Convention : Reuss Voigt Hill
#
# Bulk Modulus (GPa) = 61.44861 66.65115 64.04988
# Shear Modulus (GPa) = 25.56981 28.85261 27.21121
#
# Velocity S-wave (km/s) = 3.50837 3.72679 3.61923
# Velocity P-wave (km/s) = 6.78170 7.11356 6.94961
#
# Compressibility (1/GPa) = 0.01627376
#
# Stress axis : x y z
#
# Youngs Moduli (GPa) = 69.42539 106.65821 77.90263
#
# Poissons Ratio (x) = 0.30049 0.24477
# Poissons Ratio (y) = 0.19559 0.32812
# Poissons Ratio (z) = 0.21814 0.44923
#
# Static dielectric constant tensor:
#      x y z
#    x 2.491800 0.000000 0.000000 
#    y 0.000000 1.765440 0.000000 
#    z 0.000000 0.000000 1.798890 
# 
# From -- ./inp_files/4860.got.cif
#   From: 2010.05.17/outbox.cif.g08.bks.cpg/sg33_3_cif.got.tgz:4860.got - 2010.06.03 17:15:25.
