data_PCOD9345568
_publ_section_title
;
Structure prediction by ZEFSAII (Michael W. Deem and Ramdas Pophale) SiO2 
 PCOD9345568
Probable space group: P N A 21
;
_chemical_formula_sum "Si O2"
_cell_formula_units_Z 28
_cell_length_a 10.316514
_cell_length_b 10.602305
_cell_length_c 9.431660
_cell_angle_alpha 90.000000
_cell_angle_beta 90.000000
_cell_angle_gamma 90.000000
_cell_volume 1031.623917
_symmetry_space_group_name_H-M "P N A 21"
_symmetry_group_IT_number 33
_symmetry_cell_setting 'orthorhombic'
loop_
_space_group_symop_operation_xyz
x,y,z
-x,-y,1/2+z
1/2-x,1/2+y,1/2+z
1/2+x,1/2-y,z
loop_
_atom_site_type_symbol
_atom_site_label
_atom_site_fract_x
_atom_site_fract_y
_atom_site_fract_z
Si Si1 0.606251 0.143607 0.108720
Si Si2 0.804709 0.262354 0.294879
Si Si3 0.953722 0.471039 0.877167
Si Si4 0.275605 0.981923 0.128144
Si Si5 0.509886 0.411020 0.013372
Si Si6 0.601770 0.718476 0.251435
Si Si7 0.446714 0.684770 0.982139
O O1 0.749804 0.181243 0.161179
O O2 0.432133 0.294071 0.370989
O O3 0.585226 0.077159 0.956250
O O4 0.524073 0.274670 0.092505
O O5 0.809079 0.404677 0.234793
O O6 0.685507 0.271602 0.407517
O O7 0.874587 0.345534 0.836091
O O8 0.941808 0.556081 0.738112
O O9 0.882995 0.533222 0.009643
O O10 0.229270 0.854188 0.201979
O O11 0.149762 0.030690 0.044428
O O12 0.476743 0.373912 0.853881
O O13 0.425374 0.538724 0.031922
O O14 0.508784 0.748753 0.120394
#
# Coordination Sequence:
#
# PCOD9345568 Si02
#       7
#     4   4   4   4   4   4   4
#     4  10  23  43  72 104 154 204 250 330 394 471
#     4  11  23  44  75 113 160 204 263 330 398 473
#     4  11  24  45  71 108 155 201 265 329 409 465
#     4  10  21  44  71 104 147 197 258 328 386 479
#     4   9  20  43  70 103 141 198 265 317 382 471
#     4  10  22  43  70 106 144 206 265 321 385 483
#     4  11  23  42  77 114 155 206 268 325 394 486
#
# _framework density 27.141672
#
# number of rings (size 3 to 8) (size 9 to 14) (size 15 to 20)
#    0.000    1.714    1.429    2.571    2.000    1.143 
#    7.714    0.000    0.000    0.000    0.000    0.000 
#    0.000    0.000    0.000    0.000    0.000    0.000 
#
# Total GULP energy -156595.284775 kJ/mol
# GULP energy per Si atom -5592.688742 kJ/mol
# Density = 2.707990 g / cm^3
# Si number density = 27.141672 Si / 1000 Ang^3
#
#
#
# Elastic Constant Matrix: (Units=GPa)
#
#
# Indices 1 2 3 4 5 6 
#
# 1 87.6612 24.7998 28.9830 0.0000 0.0000 0.0000
# 2 24.7998 143.8003 47.6506 0.0000 0.0000 0.0000
# 3 28.9830 47.6506 125.8775 0.0000 0.0000 0.0000
# 4 0.0000 0.0000 0.0000 72.8093 0.0000 0.0000
# 5 0.0000 0.0000 0.0000 0.0000 49.7729 0.0000
# 6 0.0000 0.0000 0.0000 0.0000 0.0000 25.9307
#
#
#
# Elastic Compliance Matrix: (Units=1/GPa)
#
#
# Indices 1 2 3 4 5 6 
#
# 1 0.012584 -0.001384 -0.002374 0.000000 0.000000 0.000000
# 2 -0.001384 0.008104 -0.002749 0.000000 0.000000 0.000000
# 3 -0.002374 -0.002749 0.009531 0.000000 0.000000 0.000000
# 4 0.000000 0.000000 0.000000 0.013735 0.000000 0.000000
# 5 0.000000 0.000000 0.000000 0.000000 0.020091 0.000000
# 6 0.000000 0.000000 0.000000 0.000000 0.000000 0.038564
#
#
# Mechanical properties :
#
#
# Convention : Reuss Voigt Hill
#
# Bulk Modulus (GPa) = 58.11854 62.24509 60.18181
# Shear Modulus (GPa) = 41.20077 46.76294 43.98186
#
# Velocity S-wave (km/s) = 3.90037 4.15531 4.02985
# Velocity P-wave (km/s) = 6.46091 6.78272 6.62377
#
# Compressibility (1/GPa) = 0.01720621
#
# Stress axis : x y z
#
# Youngs Moduli (GPa) = 79.46745 123.40114 104.91658
#
# Poissons Ratio (x) = 0.17075 0.24903
# Poissons Ratio (y) = 0.10996 0.28842
# Poissons Ratio (z) = 0.18862 0.33923
#
# Static dielectric constant tensor:
#      x y z
#    x 2.162020 0.000000 0.000000 
#    y 0.000000 2.182790 0.000000 
#    z 0.000000 0.000000 2.103560 
# 
# From -- ./inp_files/6436.got.cif
#   From: 2010.05.17/outbox.cif.g08.bks.cpg/sg33_4_cif.got.tgz:6436.got - 2010.06.03 17:15:25.
