data_PCOD9345157
_publ_section_title
;
Structure prediction by ZEFSAII (Michael W. Deem and Ramdas Pophale) SiO2 
 PCOD9345157
Probable space group: P N A 21
;
_chemical_formula_sum "Si O2"
_cell_formula_units_Z 28
_cell_length_a 17.872523
_cell_length_b 9.211720
_cell_length_c 7.325822
_cell_angle_alpha 90.000000
_cell_angle_beta 90.000000
_cell_angle_gamma 90.000000
_cell_volume 1206.098995
_symmetry_space_group_name_H-M "P N A 21"
_symmetry_group_IT_number 33
_symmetry_cell_setting 'orthorhombic'
loop_
_space_group_symop_operation_xyz
x,y,z
-x,-y,1/2+z
1/2-x,1/2+y,1/2+z
1/2+x,1/2-y,z
loop_
_atom_site_type_symbol
_atom_site_label
_atom_site_fract_x
_atom_site_fract_y
_atom_site_fract_z
Si Si1 0.136483 0.222518 0.565070
Si Si2 0.058046 0.079539 0.901539
Si Si3 0.173520 0.205873 0.173251
Si Si4 0.965555 0.326398 0.008943
Si Si5 0.027528 0.741958 0.940448
Si Si6 0.182286 0.533768 0.618087
Si Si7 0.117846 0.498005 0.015375
O O1 0.113109 0.119201 0.732310
O O2 0.168994 0.155385 0.382032
O O3 0.189964 0.360539 0.595498
O O4 0.055339 0.286776 0.512258
O O5 0.041904 0.912480 0.928789
O O6 0.102709 0.136362 0.075457
O O7 0.981761 0.174373 0.906330
O O8 0.247330 0.137269 0.086020
O O9 0.161926 0.380153 0.138584
O O10 0.969484 0.305334 0.228716
O O11 0.886046 0.405665 0.994372
O O12 0.039167 0.419842 0.958246
O O13 0.085651 0.655280 0.069381
O O14 0.162941 0.536030 0.833343
#
# Coordination Sequence:
#
# PCOD9345157 Si02
#       7
#     4   4   4   4   4   4   4
#     4  12  23  44  77 106 147 194 248 307 384 446
#     4  11  24  46  72 109 153 185 254 319 364 454
#     4  11  26  49  70 108 153 194 249 304 381 464
#     4  10  20  43  72 105 139 183 252 307 348 447
#     4  11  22  40  76 110 138 197 242 315 378 420
#     4  11  24  44  75 105 145 198 239 304 389 443
#     4  10  21  46  72 101 143 181 254 304 348 460
#
# _framework density 23.215340999999999
#
# number of rings (size 3 to 8) (size 9 to 14) (size 15 to 20)
#    0.000    1.143    7.143    0.857    0.000    3.429 
#   10.286    1.429    0.000    0.000    0.000    0.000 
#    0.000    0.000    0.000    0.000    0.000    0.000 
#
# Total GULP energy -156219.248500 kJ/mol
# GULP energy per Si atom -5579.258875 kJ/mol
# Density = 2.316250 g / cm^3
# Si number density = 23.215341 Si / 1000 Ang^3
#
#
#
# Elastic Constant Matrix: (Units=GPa)
#
#
# Indices 1 2 3 4 5 6 
#
# 1 72.5577 39.8482 18.5650 0.0000 0.0000 0.0000
# 2 39.8482 144.4461 23.3303 0.0000 0.0000 0.0000
# 3 18.5650 23.3303 45.6514 0.0000 0.0000 0.0000
# 4 0.0000 0.0000 0.0000 18.2193 0.0000 0.0000
# 5 0.0000 0.0000 0.0000 0.0000 21.6743 0.0000
# 6 0.0000 0.0000 0.0000 0.0000 0.0000 33.5508
#
#
#
# Elastic Compliance Matrix: (Units=1/GPa)
#
#
# Indices 1 2 3 4 5 6 
#
# 1 0.017226 -0.003946 -0.004988 0.000000 0.000000 0.000000
# 2 -0.003946 0.008450 -0.002714 0.000000 0.000000 0.000000
# 3 -0.004988 -0.002714 0.025320 0.000000 0.000000 0.000000
# 4 0.000000 0.000000 0.000000 0.054887 0.000000 0.000000
# 5 0.000000 0.000000 0.000000 0.000000 0.046138 0.000000
# 6 0.000000 0.000000 0.000000 0.000000 0.000000 0.029806
#
#
# Mechanical properties :
#
#
# Convention : Reuss Voigt Hill
#
# Bulk Modulus (GPa) = 36.10143 47.34913 41.72528
# Shear Modulus (GPa) = 23.32569 26.74967 25.03768
#
# Velocity S-wave (km/s) = 3.17322 3.39815 3.28761
# Velocity P-wave (km/s) = 5.38611 5.98636 5.69415
#
# Compressibility (1/GPa) = 0.02769973
#
# Stress axis : x y z
#
# Youngs Moduli (GPa) = 58.05251 118.34391 39.49369
#
# Poissons Ratio (x) = 0.46703 0.19701
# Poissons Ratio (y) = 0.22910 0.10717
# Poissons Ratio (z) = 0.28959 0.32113
#
# Static dielectric constant tensor:
#      x y z
#    x 1.883370 0.000000 0.000000 
#    y 0.000000 1.983370 0.000000 
#    z 0.000000 0.000000 1.949960 
# 
# From -- ./inp_files/4742.got.cif
#   From: 2010.05.17/outbox.cif.g08.bks.cpg/sg33_3_cif.got.tgz:4742.got - 2010.06.03 17:15:25.
