data_PCOD9345063
_publ_section_title
;
Structure prediction by ZEFSAII (Michael W. Deem and Ramdas Pophale) SiO2 
 PCOD9345063
Probable space group: P N A 21
;
_chemical_formula_sum "Si O2"
_cell_formula_units_Z 28
_cell_length_a 17.106045
_cell_length_b 12.802898
_cell_length_c 5.388791
_cell_angle_alpha 90.000000
_cell_angle_beta 90.000000
_cell_angle_gamma 90.000000
_cell_volume 1180.182677
_symmetry_space_group_name_H-M "P N A 21"
_symmetry_group_IT_number 33
_symmetry_cell_setting 'orthorhombic'
loop_
_space_group_symop_operation_xyz
x,y,z
-x,-y,1/2+z
1/2-x,1/2+y,1/2+z
1/2+x,1/2-y,z
loop_
_atom_site_type_symbol
_atom_site_label
_atom_site_fract_x
_atom_site_fract_y
_atom_site_fract_z
Si Si1 0.575920 0.234399 0.347230
Si Si2 0.436021 0.201806 0.022888
Si Si3 0.096989 0.471845 0.611030
Si Si4 0.185077 0.375552 0.998856
Si Si5 0.773054 0.032102 0.390317
Si Si6 0.184634 0.170017 0.681219
Si Si7 0.157814 0.750013 0.021887
O O1 0.516625 0.252567 0.122515
O O2 0.605946 0.328057 0.517917
O O3 0.553118 0.132084 0.511234
O O4 0.655614 0.192018 0.228838
O O5 0.445704 0.076615 0.034678
O O6 0.378723 0.228256 0.252498
O O7 0.399590 0.232958 0.758113
O O8 0.118879 0.453875 0.899163
O O9 0.185578 0.483369 0.498512
O O10 0.190706 0.285635 0.797244
O O11 0.260057 0.434411 0.100890
O O12 0.816459 0.128250 0.517324
O O13 0.815722 0.921591 0.381774
O O14 0.268996 0.170364 0.547297
#
# Coordination Sequence:
#
# PCOD9345063 Si02
#       7
#     4   4   4   4   4   4   4
#     4  10  25  42  66 103 146 193 237 295 374 459
#     4  12  28  43  70 105 153 190 233 309 375 428
#     4  10  22  37  68 104 145 184 241 298 378 440
#     4  10  20  40  65 102 141 177 244 291 362 438
#     4  11  22  40  68 106 135 192 243 305 353 436
#     4  11  22  43  72 101 141 190 238 301 364 428
#     4  12  25  45  67 109 143 186 248 303 358 437
#
# _framework density 23.725138999999999
#
# number of rings (size 3 to 8) (size 9 to 14) (size 15 to 20)
#    0.000    1.143    5.714    1.714    8.000    1.143 
#    0.000    0.000    3.143    0.000    0.000    0.000 
#    0.000    0.000    0.000    0.000    0.000    0.000 
#
# Total GULP energy -156273.406549 kJ/mol
# GULP energy per Si atom -5581.193091 kJ/mol
# Density = 2.367114 g / cm^3
# Si number density = 23.725139 Si / 1000 Ang^3
#
#
#
# Elastic Constant Matrix: (Units=GPa)
#
#
# Indices 1 2 3 4 5 6 
#
# 1 73.1001 37.9618 32.4308 0.0000 0.0000 0.0000
# 2 37.9618 95.6347 26.3655 0.0000 0.0000 0.0000
# 3 32.4308 26.3655 94.3032 0.0000 0.0000 0.0000
# 4 0.0000 0.0000 0.0000 33.6918 0.0000 0.0000
# 5 0.0000 0.0000 0.0000 0.0000 45.4163 0.0000
# 6 0.0000 0.0000 0.0000 0.0000 0.0000 24.4096
#
#
#
# Elastic Compliance Matrix: (Units=1/GPa)
#
#
# Indices 1 2 3 4 5 6 
#
# 1 0.019052 -0.006237 -0.004808 0.000000 0.000000 0.000000
# 2 -0.006237 0.013372 -0.001594 0.000000 0.000000 0.000000
# 3 -0.004808 -0.001594 0.012703 0.000000 0.000000 0.000000
# 4 0.000000 0.000000 0.000000 0.029681 0.000000 0.000000
# 5 0.000000 0.000000 0.000000 0.000000 0.022019 0.000000
# 6 0.000000 0.000000 0.000000 0.000000 0.000000 0.040968
#
#
# Mechanical properties :
#
#
# Convention : Reuss Voigt Hill
#
# Bulk Modulus (GPa) = 50.37999 50.72823 50.55411
# Shear Modulus (GPa) = 29.46594 31.78886 30.62740
#
# Velocity S-wave (km/s) = 3.52798 3.66441 3.59684
# Velocity P-wave (km/s) = 6.15439 6.27152 6.21323
#
# Compressibility (1/GPa) = 0.01984915
#
# Stress axis : x y z
#
# Youngs Moduli (GPa) = 52.48796 74.78574 78.72057
#
# Poissons Ratio (x) = 0.46644 0.37850
# Poissons Ratio (y) = 0.32737 0.12544
# Poissons Ratio (z) = 0.25237 0.11917
#
# Static dielectric constant tensor:
#      x y z
#    x 1.982770 0.000000 0.000000 
#    y 0.000000 1.890650 0.000000 
#    z 0.000000 0.000000 2.042930 
# 
# From -- ./inp_files/1717.got.cif
#   From: 2010.05.17/outbox.cif.g08.bks.cpg/sg33_1_cif.got.tgz:1717.got - 2010.06.03 17:15:25.
