data_PCOD9345214
_publ_section_title
;
Structure prediction by ZEFSAII (Michael W. Deem and Ramdas Pophale) SiO2 
 PCOD9345214
Probable space group: P N A 21
;
_chemical_formula_sum "Si O2"
_cell_formula_units_Z 24
_cell_length_a 15.657070
_cell_length_b 12.694287
_cell_length_c 5.010464
_cell_angle_alpha 90.000000
_cell_angle_beta 90.000000
_cell_angle_gamma 90.000000
_cell_volume 995.856477
_symmetry_space_group_name_H-M "P N A 21"
_symmetry_group_IT_number 33
_symmetry_cell_setting 'orthorhombic'
loop_
_space_group_symop_operation_xyz
x,y,z
-x,-y,1/2+z
1/2-x,1/2+y,1/2+z
1/2+x,1/2-y,z
loop_
_atom_site_type_symbol
_atom_site_label
_atom_site_fract_x
_atom_site_fract_y
_atom_site_fract_z
Si Si1 0.476906 0.832025 0.406720
Si Si2 0.652907 0.926200 0.321768
Si Si3 0.359461 0.844529 0.906206
Si Si4 0.751473 0.355866 0.288008
Si Si5 0.885951 0.013804 0.529913
Si Si6 0.062409 0.882186 0.520413
O O1 0.550791 0.913155 0.323867
O O2 0.408520 0.864477 0.627594
O O3 0.523568 0.733002 0.544128
O O4 0.424367 0.808230 0.137828
O O5 0.687827 0.841373 0.533786
O O6 0.675928 0.038562 0.456812
O O7 0.697651 0.906458 0.037598
O O8 0.290408 0.753531 0.876026
O O9 0.676528 0.429164 0.164141
O O10 0.875762 0.066231 0.240509
O O11 0.893470 0.109490 0.735036
O O12 0.977429 0.955015 0.515142
#
# Coordination Sequence:
#
# PCOD9345214 Si02
#       6
#     4   4   4   4   4   4
#     4  12  24  46  75 104 139 190 246 296 346 432
#     4  12  28  46  71 108 141 184 246 301 355 428
#     4  12  26  48  76  99 140 195 237 292 362 433
#     4  12  26  46  71 102 147 190 230 296 378 421
#     4  10  21  38  62 102 138 176 226 279 352 421
#     4  10  21  36  67 101 133 175 233 288 335 413
#
# _framework density 24.099858000000001
#
# number of rings (size 3 to 8) (size 9 to 14) (size 15 to 20)
#    0.000    0.667    1.667    6.000    4.667    4.000 
#    0.000    0.000    0.000    0.000    0.000    0.000 
#    0.000    0.000    0.000    0.000    0.000    0.000 
#
# Total GULP energy -134237.244455 kJ/mol
# GULP energy per Si atom -5593.218519 kJ/mol
# Density = 2.404501 g / cm^3
# Si number density = 24.099858 Si / 1000 Ang^3
#
#
#
# Elastic Constant Matrix: (Units=GPa)
#
#
# Indices 1 2 3 4 5 6 
#
# 1 66.4125 7.6617 29.3044 0.0000 0.0000 0.0000
# 2 7.6617 81.6536 -3.9550 0.0000 0.0000 0.0000
# 3 29.3044 -3.9550 119.8283 0.0000 0.0000 0.0000
# 4 0.0000 0.0000 0.0000 20.3291 0.0000 0.0000
# 5 0.0000 0.0000 0.0000 0.0000 47.2852 0.0000
# 6 0.0000 0.0000 0.0000 0.0000 0.0000 25.3400
#
#
#
# Elastic Compliance Matrix: (Units=1/GPa)
#
#
# Indices 1 2 3 4 5 6 
#
# 1 0.017143 -0.001815 -0.004252 0.000000 0.000000 0.000000
# 2 -0.001815 0.012459 0.000855 0.000000 0.000000 0.000000
# 3 -0.004252 0.000855 0.009413 0.000000 0.000000 0.000000
# 4 0.000000 0.000000 0.000000 0.049191 0.000000 0.000000
# 5 0.000000 0.000000 0.000000 0.000000 0.021148 0.000000
# 6 0.000000 0.000000 0.000000 0.000000 0.000000 0.039463
#
#
# Mechanical properties :
#
#
# Convention : Reuss Voigt Hill
#
# Bulk Modulus (GPa) = 34.97571 37.10184 36.03878
# Shear Modulus (GPa) = 29.62588 34.24974 31.93781
#
# Velocity S-wave (km/s) = 3.50994 3.77392 3.64432
# Velocity P-wave (km/s) = 5.56512 5.86672 5.71791
#
# Compressibility (1/GPa) = 0.02859127
#
# Stress axis : x y z
#
# Youngs Moduli (GPa) = 58.33267 80.26635 106.23152
#
# Poissons Ratio (x) = 0.14564 0.45173
# Poissons Ratio (y) = 0.10585 -0.09082
# Poissons Ratio (z) = 0.24805 -0.06862
#
# Static dielectric constant tensor:
#      x y z
#    x 2.018810 0.000000 0.000000 
#    y 0.000000 1.909790 0.000000 
#    z 0.000000 0.000000 1.857590 
# 
# From -- ./inp_files/1341.got.cif
#   From: 2010.05.17/outbox.cif.g08.bks.cpg/sg33_1_cif.got.tgz:1341.got - 2010.06.03 17:15:25.
