data_PCOD9345060
_publ_section_title
;
Structure prediction by ZEFSAII (Michael W. Deem and Ramdas Pophale) SiO2 
 PCOD9345060
Probable space group: P N A 21
;
_chemical_formula_sum "Si O2"
_cell_formula_units_Z 32
_cell_length_a 20.460672
_cell_length_b 5.329700
_cell_length_c 12.086095
_cell_angle_alpha 90.000000
_cell_angle_beta 90.000000
_cell_angle_gamma 90.000000
_cell_volume 1317.979517
_symmetry_space_group_name_H-M "P N A 21"
_symmetry_group_IT_number 33
_symmetry_cell_setting 'orthorhombic'
loop_
_space_group_symop_operation_xyz
x,y,z
-x,-y,1/2+z
1/2-x,1/2+y,1/2+z
1/2+x,1/2-y,z
loop_
_atom_site_type_symbol
_atom_site_label
_atom_site_fract_x
_atom_site_fract_y
_atom_site_fract_z
Si Si1 0.114191 0.004366 0.462250
Si Si2 0.060908 0.733647 0.745394
Si Si3 0.502863 0.365043 0.603903
Si Si4 0.731364 0.486979 0.313527
Si Si5 0.179433 0.623458 0.617623
Si Si6 0.599859 0.448668 0.944602
Si Si7 0.259486 0.494602 0.425531
Si Si8 0.511881 0.861459 0.350701
O O1 0.160627 0.890645 0.560421
O O2 0.070880 0.773651 0.411363
O O3 0.063662 0.195132 0.521941
O O4 0.158447 0.076297 0.356512
O O5 0.117270 0.556405 0.694314
O O6 0.001862 0.649353 0.824799
O O7 0.025115 0.858094 0.642591
O O8 0.100425 0.925259 0.822710
O O9 0.436898 0.381423 0.534510
O O10 0.493563 0.232183 0.721938
O O11 0.756759 0.407453 0.193739
O O12 0.742202 0.783115 0.337931
O O13 0.772689 0.288061 0.386491
O O14 0.199320 0.470572 0.509657
O O15 0.673667 0.401479 0.977850
O O16 0.552343 0.216000 0.920963
#
# Coordination Sequence:
#
# PCOD9345060 Si02
#       8
#     4   4   4   4   4   4   4   4
#     4   9  22  42  62 100 134 177 237 280 349 415
#     4  10  20  40  64  91 127 177 220 275 348 408
#     4   9  21  38  61  94 130 171 217 283 345 397
#     4  11  24  45  68  98 134 181 229 284 337 417
#     4  10  22  42  68  94 136 183 222 283 347 408
#     4  10  21  39  60  94 131 168 224 279 337 414
#     4  11  25  43  68 101 133 176 234 278 339 414
#     4  10  21  39  65  94 131 173 229 284 342 407
#
# _framework density 24.279585999999998
#
# number of rings (size 3 to 8) (size 9 to 14) (size 15 to 20)
#    0.000    2.000    1.250    0.750    3.500    5.000 
#   11.250    0.000    0.000    0.000    0.000    0.000 
#    0.000    0.000    0.000    0.000    0.000    0.000 
#
# Total GULP energy -178148.006148 kJ/mol
# GULP energy per Si atom -5567.125192 kJ/mol
# Density = 2.422432 g / cm^3
# Si number density = 24.279586 Si / 1000 Ang^3
#
#
#
# Elastic Constant Matrix: (Units=GPa)
#
#
# Indices 1 2 3 4 5 6 
#
# 1 80.0239 4.3354 28.9875 0.0000 0.0000 0.0000
# 2 4.3354 32.8487 18.2480 0.0000 0.0000 0.0000
# 3 28.9875 18.2480 118.5683 0.0000 0.0000 0.0000
# 4 0.0000 0.0000 0.0000 21.2018 0.0000 0.0000
# 5 0.0000 0.0000 0.0000 0.0000 45.5784 0.0000
# 6 0.0000 0.0000 0.0000 0.0000 0.0000 21.1598
#
#
#
# Elastic Compliance Matrix: (Units=1/GPa)
#
#
# Indices 1 2 3 4 5 6 
#
# 1 0.013711 0.000057 -0.003361 0.000000 0.000000 0.000000
# 2 0.000057 0.033289 -0.005137 0.000000 0.000000 0.000000
# 3 -0.003361 -0.005137 0.010046 0.000000 0.000000 0.000000
# 4 0.000000 0.000000 0.000000 0.047166 0.000000 0.000000
# 5 0.000000 0.000000 0.000000 0.000000 0.021940 0.000000
# 6 0.000000 0.000000 0.000000 0.000000 0.000000 0.047259
#
#
# Mechanical properties :
#
#
# Convention : Reuss Voigt Hill
#
# Bulk Modulus (GPa) = 24.89768 37.17586 31.03677
# Shear Modulus (GPa) = 24.54825 29.57934 27.06380
#
# Velocity S-wave (km/s) = 3.18318 3.49417 3.34229
# Velocity P-wave (km/s) = 4.87719 5.62351 5.26359
#
# Compressibility (1/GPa) = 0.04016439
#
# Stress axis : x y z
#
# Youngs Moduli (GPa) = 72.93649 30.04005 99.53974
#
# Poissons Ratio (x) = -0.00172 0.33453
# Poissons Ratio (y) = -0.00419 0.51136
# Poissons Ratio (z) = 0.24512 0.15432
#
# Static dielectric constant tensor:
#      x y z
#    x 1.945890 0.000000 0.000000 
#    y 0.000000 2.117490 0.000000 
#    z 0.000000 0.000000 1.987670 
# 
# From -- ./inp_files/7314.got.cif
#   From: 2010.05.17/outbox.cif.g08.bks.cpg/sg33_4_cif.got.tgz:7314.got - 2010.06.03 17:15:25.
