data_PCOD9345584
_publ_section_title
;
Structure prediction by ZEFSAII (Michael W. Deem and Ramdas Pophale) SiO2 
 PCOD9345584
Probable space group: P N A 21
;
_chemical_formula_sum "Si O2"
_cell_formula_units_Z 32
_cell_length_a 12.945400
_cell_length_b 8.679557
_cell_length_c 13.638976
_cell_angle_alpha 90.000000
_cell_angle_beta 90.000000
_cell_angle_gamma 90.000000
_cell_volume 1532.479942
_symmetry_space_group_name_H-M "P N A 21"
_symmetry_group_IT_number 33
_symmetry_cell_setting 'orthorhombic'
loop_
_space_group_symop_operation_xyz
x,y,z
-x,-y,1/2+z
1/2-x,1/2+y,1/2+z
1/2+x,1/2-y,z
loop_
_atom_site_type_symbol
_atom_site_label
_atom_site_fract_x
_atom_site_fract_y
_atom_site_fract_z
Si Si1 0.991019 0.680075 0.809210
Si Si2 0.151497 0.481272 0.921919
Si Si3 0.153941 0.900368 0.714481
Si Si4 0.122478 0.183711 0.816448
Si Si5 0.196629 0.266149 0.455707
Si Si6 0.139958 0.297522 0.122667
Si Si7 0.877412 0.006482 0.501253
Si Si8 0.952200 0.846961 0.114549
O O1 0.892020 0.725073 0.873655
O O2 0.945817 0.651570 0.700974
O O3 0.049718 0.548248 0.869343
O O4 0.078940 0.808960 0.787461
O O5 0.179392 0.334495 0.854138
O O6 0.234350 0.616685 0.931254
O O7 0.134175 0.410235 0.029350
O O8 0.248559 0.807890 0.673683
O O9 0.195637 0.055768 0.766424
O O10 0.086018 0.975449 0.627755
O O11 0.041738 0.210868 0.727085
O O12 0.076940 0.092656 0.910168
O O13 0.271283 0.413332 0.466981
O O14 0.136791 0.242879 0.557944
O O15 0.133514 0.122448 0.084921
O O16 0.948159 0.141808 0.546154
#
# Coordination Sequence:
#
# PCOD9345584 Si02
#       8
#     4   4   4   4   4   4   4   4
#     4  12  25  42  69  97 136 184 227 284 350 417
#     4  11  24  42  67  97 135 174 233 287 338 417
#     4  10  21  46  63  92 135 177 225 278 341 424
#     4   9  21  42  62  93 132 170 222 276 341 402
#     4  12  25  41  67  99 132 179 235 283 348 416
#     4  11  23  45  68  99 135 183 229 285 352 418
#     4  11  23  43  70  97 135 184 226 280 353 415
#     4  10  22  43  66  94 134 177 221 283 343 413
#
# _framework density 20.881188000000002
#
# number of rings (size 3 to 8) (size 9 to 14) (size 15 to 20)
#    0.750    0.500    2.500    3.750    0.000    5.000 
#    0.000    5.000    0.000    0.000    0.000    0.000 
#    0.000    0.000    0.000    0.000    0.000    0.000 
#
# Total GULP energy -178348.511380 kJ/mol
# GULP energy per Si atom -5573.390981 kJ/mol
# Density = 2.083366 g / cm^3
# Si number density = 20.881188 Si / 1000 Ang^3
#
#
#
# Elastic Constant Matrix: (Units=GPa)
#
#
# Indices 1 2 3 4 5 6 
#
# 1 90.7964 48.6592 54.1696 0.0000 0.0000 0.0000
# 2 48.6592 72.9486 43.2494 0.0000 0.0000 0.0000
# 3 54.1696 43.2494 122.1435 0.0000 0.0000 0.0000
# 4 0.0000 0.0000 0.0000 28.6619 0.0000 0.0000
# 5 0.0000 0.0000 0.0000 0.0000 36.2642 0.0000
# 6 0.0000 0.0000 0.0000 0.0000 0.0000 24.3855
#
#
#
# Elastic Compliance Matrix: (Units=1/GPa)
#
#
# Indices 1 2 3 4 5 6 
#
# 1 0.019344 -0.009894 -0.005076 0.000000 0.000000 0.000000
# 2 -0.009894 0.022411 -0.003548 0.000000 0.000000 0.000000
# 3 -0.005076 -0.003548 0.011694 0.000000 0.000000 0.000000
# 4 0.000000 0.000000 0.000000 0.034890 0.000000 0.000000
# 5 0.000000 0.000000 0.000000 0.000000 0.027575 0.000000
# 6 0.000000 0.000000 0.000000 0.000000 0.000000 0.041008
#
#
# Mechanical properties :
#
#
# Convention : Reuss Voigt Hill
#
# Bulk Modulus (GPa) = 60.91938 64.22721 62.57329
# Shear Modulus (GPa) = 25.07162 27.18300 26.12731
#
# Velocity S-wave (km/s) = 3.46884 3.61195 3.54112
# Velocity P-wave (km/s) = 6.72915 6.94407 6.83745
#
# Compressibility (1/GPa) = 0.01641514
#
# Stress axis : x y z
#
# Youngs Moduli (GPa) = 51.69531 44.62056 85.51210
#
# Poissons Ratio (x) = 0.44147 0.43403
# Poissons Ratio (y) = 0.51147 0.30336
# Poissons Ratio (z) = 0.26239 0.15830
#
# Static dielectric constant tensor:
#      x y z
#    x 1.741700 0.000000 0.000000 
#    y 0.000000 1.760030 0.000000 
#    z 0.000000 0.000000 1.810390 
# 
# From -- ./inp_files/7932.got.cif
#   From: 2010.05.17/outbox.cif.g08.bks.cpg/sg33_4_cif.got.tgz:7932.got - 2010.06.03 17:15:25.
