data_PCOD9345764
_publ_section_title
;
Structure prediction by ZEFSAII (Michael W. Deem and Ramdas Pophale) SiO2 
 PCOD9345764
Probable space group: P N A 21
;
_chemical_formula_sum "Si O2"
_cell_formula_units_Z 24
_cell_length_a 13.948889
_cell_length_b 7.756911
_cell_length_c 10.721958
_cell_angle_alpha 90.000000
_cell_angle_beta 90.000000
_cell_angle_gamma 90.000000
_cell_volume 1160.118971
_symmetry_space_group_name_H-M "P N A 21"
_symmetry_group_IT_number 33
_symmetry_cell_setting 'orthorhombic'
loop_
_space_group_symop_operation_xyz
x,y,z
-x,-y,1/2+z
1/2-x,1/2+y,1/2+z
1/2+x,1/2-y,z
loop_
_atom_site_type_symbol
_atom_site_label
_atom_site_fract_x
_atom_site_fract_y
_atom_site_fract_z
Si Si1 0.179570 0.292452 0.273140
Si Si2 0.620765 0.204228 0.545533
Si Si3 0.497066 0.979095 0.857767
Si Si4 0.380170 0.356245 0.358947
Si Si5 0.501696 0.655555 0.254952
Si Si6 0.312675 0.439621 0.637059
O O1 0.164370 0.221167 0.416221
O O2 0.088002 0.418039 0.262378
O O3 0.283488 0.381225 0.278310
O O4 0.182807 0.139202 0.175230
O O5 0.554418 0.049944 0.491482
O O6 0.553237 0.328506 0.623083
O O7 0.705562 0.133523 0.631494
O O8 0.581980 0.839700 0.850063
O O9 0.524896 0.173523 0.831364
O O10 0.464921 0.480987 0.316044
O O11 0.352621 0.406543 0.498985
O O12 0.614956 0.653193 0.231507
#
# Coordination Sequence:
#
# PCOD9345764 Si02
#       6
#     4   4   4   4   4   4
#     4   9  21  43  62  93 134 161 212 271 311 378
#     4   9  22  39  61  97 128 161 217 270 305 390
#     4  10  22  42  59  94 132 157 214 268 309 382
#     4  11  23  44  64  96 131 169 216 265 318 387
#     4  12  23  40  71  91 127 175 214 256 338 381
#     4  11  21  42  69  91 132 173 211 264 329 378
#
# _framework density 20.687533999999999
#
# number of rings (size 3 to 8) (size 9 to 14) (size 15 to 20)
#    1.000    0.667    3.333    1.000    2.333    1.333 
#    3.000    1.667    0.000    0.000    0.000    0.000 
#    0.000    0.000    0.000    0.000    0.000    0.000 
#
# Total GULP energy -133816.326727 kJ/mol
# GULP energy per Si atom -5575.680280 kJ/mol
# Density = 2.064045 g / cm^3
# Si number density = 20.687534 Si / 1000 Ang^3
#
#
#
# Elastic Constant Matrix: (Units=GPa)
#
#
# Indices 1 2 3 4 5 6 
#
# 1 62.8631 -13.1478 4.1040 0.0000 0.0000 0.0000
# 2 -13.1478 59.3530 11.8320 0.0000 0.0000 0.0000
# 3 4.1040 11.8320 26.8425 0.0000 0.0000 0.0000
# 4 0.0000 0.0000 0.0000 23.9607 0.0000 0.0000
# 5 0.0000 0.0000 0.0000 0.0000 34.7112 0.0000
# 6 0.0000 0.0000 0.0000 0.0000 0.0000 17.6227
#
#
#
# Elastic Compliance Matrix: (Units=1/GPa)
#
#
# Indices 1 2 3 4 5 6 
#
# 1 0.017211 0.004755 -0.004727 0.000000 0.000000 0.000000
# 2 0.004755 0.019785 -0.009448 0.000000 0.000000 0.000000
# 3 -0.004727 -0.009448 0.042142 0.000000 0.000000 0.000000
# 4 0.000000 0.000000 0.000000 0.041735 0.000000 0.000000
# 5 0.000000 0.000000 0.000000 0.000000 0.028809 0.000000
# 6 0.000000 0.000000 0.000000 0.000000 0.000000 0.056745
#
#
# Mechanical properties :
#
#
# Convention : Reuss Voigt Hill
#
# Bulk Modulus (GPa) = 16.58473 17.18168 16.88321
# Shear Modulus (GPa) = 20.37767 25.01029 22.69398
#
# Velocity S-wave (km/s) = 3.14191 3.48077 3.31567
# Velocity P-wave (km/s) = 4.60395 4.94750 4.77881
#
# Compressibility (1/GPa) = 0.06029642
#
# Stress axis : x y z
#
# Youngs Moduli (GPa) = 58.10341 50.54305 23.72944
#
# Poissons Ratio (x) = -0.24033 0.11218
# Poissons Ratio (y) = -0.27627 0.22420
# Poissons Ratio (z) = 0.27467 0.47754
#
# Static dielectric constant tensor:
#      x y z
#    x 1.786430 0.000000 0.000000 
#    y 0.000000 1.703850 0.000000 
#    z 0.000000 0.000000 1.752590 
# 
# From -- ./inp_files/8072.got.cif
#   From: 2010.05.17/outbox.cif.g08.bks.cpg/sg33_5_cif.got.tgz:8072.got - 2010.06.03 17:15:25.
