data_PCOD9345325
_publ_section_title
;
Structure prediction by ZEFSAII (Michael W. Deem and Ramdas Pophale) SiO2 
 PCOD9345325
Probable space group: P N A 21
;
_chemical_formula_sum "Si O2"
_cell_formula_units_Z 28
_cell_length_a 13.839479
_cell_length_b 7.735340
_cell_length_c 12.109261
_cell_angle_alpha 90.000000
_cell_angle_beta 90.000000
_cell_angle_gamma 90.000000
_cell_volume 1296.333632
_symmetry_space_group_name_H-M "P N A 21"
_symmetry_group_IT_number 33
_symmetry_cell_setting 'orthorhombic'
loop_
_space_group_symop_operation_xyz
x,y,z
-x,-y,1/2+z
1/2-x,1/2+y,1/2+z
1/2+x,1/2-y,z
loop_
_atom_site_type_symbol
_atom_site_label
_atom_site_fract_x
_atom_site_fract_y
_atom_site_fract_z
Si Si1 0.375405 0.507748 0.711070
Si Si2 0.823407 0.203708 0.399903
Si Si3 0.034559 0.058269 0.996126
Si Si4 0.155310 0.558921 0.692252
Si Si5 0.001258 0.298858 0.794606
Si Si6 0.857277 0.492671 0.951457
Si Si7 0.357345 0.630105 0.957779
O O1 0.414929 0.616390 0.608370
O O2 0.262101 0.471669 0.694281
O O3 0.442782 0.339409 0.721129
O O4 0.379740 0.604562 0.827730
O O5 0.914759 0.122623 0.460022
O O6 0.844935 0.284098 0.280421
O O7 0.759391 0.351607 0.463629
O O8 0.747075 0.043955 0.401540
O O9 0.921460 0.015161 0.013853
O O10 0.048307 0.187899 0.894459
O O11 0.076605 0.420965 0.733265
O O12 0.143217 0.613230 0.564871
O O13 0.922424 0.413791 0.857755
O O14 0.893600 0.681065 0.990279
#
# Coordination Sequence:
#
# PCOD9345325 Si02
#       7
#     4   4   4   4   4   4   4
#     4  10  21  39  63  90 129 167 209 258 319 373
#     4   9  21  38  64  85 126 165 204 258 309 384
#     4  11  20  39  62  89 126 166 202 263 320 362
#     4  11  22  42  66  93 127 172 212 257 322 375
#     4  11  26  36  66  98 129 160 222 263 308 390
#     4  10  21  42  61  91 126 161 209 266 305 377
#     4   8  19  36  58  84 119 161 202 251 305 373
#
# _framework density 21.599377
#
# number of rings (size 3 to 8) (size 9 to 14) (size 15 to 20)
#    0.857    1.143    1.429    1.714    2.000    3.429 
#    0.000    0.000   15.714    0.000    0.000    0.000 
#    0.000    0.000    0.000    0.000    0.000    0.000 
#
# Total GULP energy -156015.999599 kJ/mol
# GULP energy per Si atom -5571.999986 kJ/mol
# Density = 2.155022 g / cm^3
# Si number density = 21.599377 Si / 1000 Ang^3
#
#
#
# Elastic Constant Matrix: (Units=GPa)
#
#
# Indices 1 2 3 4 5 6 
#
# 1 76.6775 21.6557 19.0352 0.0000 0.0000 0.0000
# 2 21.6557 55.4080 25.8726 0.0000 0.0000 0.0000
# 3 19.0352 25.8726 52.5647 0.0000 0.0000 0.0000
# 4 0.0000 0.0000 0.0000 13.0593 0.0000 0.0000
# 5 0.0000 0.0000 0.0000 0.0000 21.6940 0.0000
# 6 0.0000 0.0000 0.0000 0.0000 0.0000 20.6598
#
#
#
# Elastic Compliance Matrix: (Units=1/GPa)
#
#
# Indices 1 2 3 4 5 6 
#
# 1 0.015095 -0.004346 -0.003327 0.000000 0.000000 0.000000
# 2 -0.004346 0.024685 -0.010576 0.000000 0.000000 0.000000
# 3 -0.003327 -0.010576 0.025435 0.000000 0.000000 0.000000
# 4 0.000000 0.000000 0.000000 0.076574 0.000000 0.000000
# 5 0.000000 0.000000 0.000000 0.000000 0.046096 0.000000
# 6 0.000000 0.000000 0.000000 0.000000 0.000000 0.048403
#
#
# Mechanical properties :
#
#
# Convention : Reuss Voigt Hill
#
# Bulk Modulus (GPa) = 34.82408 35.30857 35.06633
# Shear Modulus (GPa) = 17.70797 18.95507 18.33152
#
# Velocity S-wave (km/s) = 2.86639 2.96560 2.91642
# Velocity P-wave (km/s) = 5.20698 5.30178 5.25460
#
# Compressibility (1/GPa) = 0.02871576
#
# Stress axis : x y z
#
# Youngs Moduli (GPa) = 66.24683 40.51022 39.31630
#
# Poissons Ratio (x) = 0.17606 0.13081
# Poissons Ratio (y) = 0.28792 0.41582
# Poissons Ratio (z) = 0.22041 0.42845
#
# Static dielectric constant tensor:
#      x y z
#    x 1.849690 0.000000 0.000000 
#    y 0.000000 1.782850 0.000000 
#    z 0.000000 0.000000 1.787670 
# 
# From -- ./inp_files/6698.got.cif
#   From: 2010.05.17/outbox.cif.g08.bks.cpg/sg33_4_cif.got.tgz:6698.got - 2010.06.03 17:15:25.
