data_PCOD9345456
_publ_section_title
;
Structure prediction by ZEFSAII (Michael W. Deem and Ramdas Pophale) SiO2 
 PCOD9345456
Probable space group: P N A 21
;
_chemical_formula_sum "Si O2"
_cell_formula_units_Z 28
_cell_length_a 18.531718
_cell_length_b 5.619506
_cell_length_c 10.217111
_cell_angle_alpha 90.000000
_cell_angle_beta 90.000000
_cell_angle_gamma 90.000000
_cell_volume 1064.000749
_symmetry_space_group_name_H-M "P N A 21"
_symmetry_group_IT_number 33
_symmetry_cell_setting 'orthorhombic'
loop_
_space_group_symop_operation_xyz
x,y,z
-x,-y,1/2+z
1/2-x,1/2+y,1/2+z
1/2+x,1/2-y,z
loop_
_atom_site_type_symbol
_atom_site_label
_atom_site_fract_x
_atom_site_fract_y
_atom_site_fract_z
Si Si1 0.259763 0.656709 0.814740
Si Si2 0.652686 0.193712 0.754797
Si Si3 0.598009 0.207144 0.344355
Si Si4 0.052828 0.607202 0.567038
Si Si5 0.912956 0.363600 0.625162
Si Si6 0.231502 0.903607 0.060277
Si Si7 0.474097 0.504448 0.243871
O O1 0.201000 0.456951 0.854773
O O2 0.341060 0.593451 0.857564
O O3 0.256630 0.632426 0.655989
O O4 0.245546 0.887986 0.904684
O O5 0.709325 0.261869 0.638822
O O6 0.600206 0.400938 0.802608
O O7 0.594480 0.010898 0.690566
O O8 0.519108 0.315674 0.326534
O O9 0.598190 0.001763 0.450889
O O10 0.619909 0.071651 0.212764
O O11 0.046120 0.881513 0.604792
O O12 0.972032 0.508357 0.540678
O O13 0.849199 0.196509 0.577040
O O14 0.967377 0.205344 0.712991
#
# Coordination Sequence:
#
# PCOD9345456 Si02
#       7
#     4   4   4   4   4   4   4
#     4  10  21  42  70  99 142 193 248 308 375 462
#     4   9  21  40  67 100 137 192 240 303 375 449
#     4  11  21  42  70 100 140 192 247 307 381 455
#     4  10  22  40  67  98 137 187 245 299 380 450
#     4  10  23  39  65 102 136 185 241 307 377 451
#     4  10  21  42  68  98 146 184 252 305 378 462
#     4  10  21  41  65  97 146 179 249 309 370 459
#
# _framework density 26.315767999999998
#
# number of rings (size 3 to 8) (size 9 to 14) (size 15 to 20)
#    0.857    1.143    2.857    0.000    0.000    8.000 
#    0.000    4.286    0.000    0.000    0.000    0.000 
#    0.000    0.000    0.000    0.000    0.000    0.000 
#
# Total GULP energy -156034.994349 kJ/mol
# GULP energy per Si atom -5572.678370 kJ/mol
# Density = 2.625587 g / cm^3
# Si number density = 26.315768 Si / 1000 Ang^3
#
#
#
# Elastic Constant Matrix: (Units=GPa)
#
#
# Indices 1 2 3 4 5 6 
#
# 1 174.7972 38.2549 33.4880 0.0000 0.0000 0.0000
# 2 38.2549 68.6498 33.8059 0.0000 0.0000 0.0000
# 3 33.4880 33.8059 99.1814 0.0000 0.0000 0.0000
# 4 0.0000 0.0000 0.0000 23.4260 0.0000 0.0000
# 5 0.0000 0.0000 0.0000 0.0000 11.5085 0.0000
# 6 0.0000 0.0000 0.0000 0.0000 0.0000 35.3599
#
#
#
# Elastic Compliance Matrix: (Units=1/GPa)
#
#
# Indices 1 2 3 4 5 6 
#
# 1 0.006628 -0.003114 -0.001176 0.000000 0.000000 0.000000
# 2 -0.003114 0.018968 -0.005414 0.000000 0.000000 0.000000
# 3 -0.001176 -0.005414 0.012325 0.000000 0.000000 0.000000
# 4 0.000000 0.000000 0.000000 0.042688 0.000000 0.000000
# 5 0.000000 0.000000 0.000000 0.000000 0.086892 0.000000
# 6 0.000000 0.000000 0.000000 0.000000 0.000000 0.028281
#
#
# Mechanical properties :
#
#
# Convention : Reuss Voigt Hill
#
# Bulk Modulus (GPa) = 54.01803 61.52511 57.77157
# Shear Modulus (GPa) = 22.58763 29.86421 26.22592
#
# Velocity S-wave (km/s) = 2.93291 3.37239 3.16030
# Velocity P-wave (km/s) = 5.66045 6.21244 5.94286
#
# Compressibility (1/GPa) = 0.01851234
#
# Stress axis : x y z
#
# Youngs Moduli (GPa) = 150.87945 52.72058 81.13576
#
# Poissons Ratio (x) = 0.16417 0.09545
# Poissons Ratio (y) = 0.46984 0.43925
# Poissons Ratio (z) = 0.17750 0.28542
#
# Static dielectric constant tensor:
#      x y z
#    x 2.083650 0.000000 0.000000 
#    y 0.000000 2.103270 0.000000 
#    z 0.000000 0.000000 2.114510 
# 
# From -- ./inp_files/6959.got.cif
#   From: 2010.05.17/outbox.cif.g08.bks.cpg/sg33_4_cif.got.tgz:6959.got - 2010.06.03 17:15:25.
