data_PCOD9345249
_publ_section_title
;
Structure prediction by ZEFSAII (Michael W. Deem and Ramdas Pophale) SiO2 
 PCOD9345249
Probable space group: P N A 21
;
_chemical_formula_sum "Si O2"
_cell_formula_units_Z 28
_cell_length_a 26.486457
_cell_length_b 7.973733
_cell_length_c 5.431594
_cell_angle_alpha 90.000000
_cell_angle_beta 90.000000
_cell_angle_gamma 90.000000
_cell_volume 1147.130580
_symmetry_space_group_name_H-M "P N A 21"
_symmetry_group_IT_number 33
_symmetry_cell_setting 'orthorhombic'
loop_
_space_group_symop_operation_xyz
x,y,z
-x,-y,1/2+z
1/2-x,1/2+y,1/2+z
1/2+x,1/2-y,z
loop_
_atom_site_type_symbol
_atom_site_label
_atom_site_fract_x
_atom_site_fract_y
_atom_site_fract_z
Si Si1 0.794135 0.580520 0.268430
Si Si2 0.636495 0.414326 0.767638
Si Si3 0.684305 0.484514 0.268819
Si Si4 0.032386 0.002208 0.761367
Si Si5 0.065387 0.449584 0.327099
Si Si6 0.823990 0.603680 0.769054
Si Si7 0.049397 0.643586 0.826796
O O1 0.827678 0.749621 0.266891
O O2 0.734242 0.595750 0.272341
O O3 0.810980 0.501529 0.525277
O O4 0.808683 0.500579 0.008995
O O5 0.651770 0.506024 0.515209
O O6 0.577263 0.362011 0.763435
O O7 0.652312 0.504182 0.020686
O O8 0.702759 0.286501 0.267775
O O9 0.064744 0.833166 0.786849
O O10 0.002241 0.990588 0.504867
O O11 0.116827 0.350825 0.283145
O O12 0.067373 0.535635 0.594697
O O13 0.012108 0.355105 0.314174
O O14 0.063187 0.577479 0.096078
#
# Coordination Sequence:
#
# PCOD9345249 Si02
#       7
#     4   4   4   4   4   4   4
#     4  10  21  38  63  94 128 168 222 278 341 401
#     4  10  23  41  64  95 134 174 216 276 345 400
#     4  10  21  41  62  93 127 166 226 275 332 404
#     4  12  26  42  69 104 139 182 230 281 337 408
#     4  10  21  41  64  91 128 177 222 270 332 397
#     4  10  21  37  65  90 125 167 223 263 347 390
#     4  10  23  40  61  95 135 172 225 273 322 398
#
# _framework density 24.408726999999999
#
# number of rings (size 3 to 8) (size 9 to 14) (size 15 to 20)
#    0.000    1.714    0.000    3.429    8.000    0.000 
#    0.000   17.143    0.000    0.000    0.000    0.000 
#    0.000    0.000    0.000    0.000    0.000    0.000 
#
# Total GULP energy -156468.767928 kJ/mol
# GULP energy per Si atom -5588.170283 kJ/mol
# Density = 2.435317 g / cm^3
# Si number density = 24.408727 Si / 1000 Ang^3
#
#
#
# Elastic Constant Matrix: (Units=GPa)
#
#
# Indices 1 2 3 4 5 6 
#
# 1 157.8358 8.3344 64.8073 0.0000 0.0000 0.0000
# 2 8.3344 47.9111 -1.6565 0.0000 0.0000 0.0000
# 3 64.8073 -1.6565 200.6486 0.0000 0.0000 0.0000
# 4 0.0000 0.0000 0.0000 11.7798 0.0000 0.0000
# 5 0.0000 0.0000 0.0000 0.0000 44.5033 0.0000
# 6 0.0000 0.0000 0.0000 0.0000 0.0000 27.1556
#
#
#
# Elastic Compliance Matrix: (Units=1/GPa)
#
#
# Indices 1 2 3 4 5 6 
#
# 1 0.007393 -0.001369 -0.002399 0.000000 0.000000 0.000000
# 2 -0.001369 0.021131 0.000617 0.000000 0.000000 0.000000
# 3 -0.002399 0.000617 0.005764 0.000000 0.000000 0.000000
# 4 0.000000 0.000000 0.000000 0.084891 0.000000 0.000000
# 5 0.000000 0.000000 0.000000 0.000000 0.022470 0.000000
# 6 0.000000 0.000000 0.000000 0.000000 0.000000 0.036825
#
#
# Mechanical properties :
#
#
# Convention : Reuss Voigt Hill
#
# Bulk Modulus (GPa) = 35.73315 61.04069 48.38692
# Shear Modulus (GPa) = 25.75910 39.01510 32.38710
#
# Velocity S-wave (km/s) = 3.25210 4.00235 3.64657
# Velocity P-wave (km/s) = 5.36403 6.81325 6.13161
#
# Compressibility (1/GPa) = 0.02798522
#
# Stress axis : x y z
#
# Youngs Moduli (GPa) = 135.26134 47.32284 173.49544
#
# Poissons Ratio (x) = 0.06479 0.41625
# Poissons Ratio (y) = 0.18518 -0.10698
# Poissons Ratio (z) = 0.32452 -0.02918
#
# Static dielectric constant tensor:
#      x y z
#    x 2.008270 0.000000 0.000000 
#    y 0.000000 2.008520 0.000000 
#    z 0.000000 0.000000 2.089340 
# 
# From -- ./inp_files/2209.got.cif
#   From: 2010.05.17/outbox.cif.g08.bks.cpg/sg33_2_cif.got.tgz:2209.got - 2010.06.03 17:15:25.
