data_PCOD9345488
_publ_section_title
;
Structure prediction by ZEFSAII (Michael W. Deem and Ramdas Pophale) SiO2 
 PCOD9345488
Probable space group: P N A 21
;
_chemical_formula_sum "Si O2"
_cell_formula_units_Z 20
_cell_length_a 13.756614
_cell_length_b 6.962977
_cell_length_c 7.977640
_cell_angle_alpha 90.000000
_cell_angle_beta 90.000000
_cell_angle_gamma 90.000000
_cell_volume 764.154098
_symmetry_space_group_name_H-M "P N A 21"
_symmetry_group_IT_number 33
_symmetry_cell_setting 'orthorhombic'
loop_
_space_group_symop_operation_xyz
x,y,z
-x,-y,1/2+z
1/2-x,1/2+y,1/2+z
1/2+x,1/2-y,z
loop_
_atom_site_type_symbol
_atom_site_label
_atom_site_fract_x
_atom_site_fract_y
_atom_site_fract_z
Si Si1 0.696184 0.515899 0.365910
Si Si2 0.799445 0.350249 0.067177
Si Si3 0.895777 0.947013 0.408251
Si Si4 0.965540 0.768507 0.757062
Si Si5 0.949501 0.334497 0.810667
O O1 0.779356 0.437244 0.247255
O O2 0.722759 0.622150 0.538115
O O3 0.618238 0.347356 0.384214
O O4 0.637472 0.686362 0.265087
O O5 0.718733 0.440750 0.940756
O O6 0.907807 0.373714 0.999602
O O7 0.940916 0.883001 0.587267
O O8 0.949495 0.780741 0.298645
O O9 0.936402 0.146758 0.337747
O O10 0.952782 0.543449 0.735620
#
# Coordination Sequence:
#
# PCOD9345488 Si02
#       5
#     4   4   4   4   4
#     4   8  19  39  58  88 128 162 216 262 318 392
#     4   9  19  40  61  89 133 169 214 271 321 392
#     4  10  22  41  62  92 125 165 215 262 322 388
#     4  10  21  42  61  90 129 165 212 274 315 390
#     4   9  21  40  60  93 127 165 211 273 316 396
#
# _framework density 26.172730000000001
#
# number of rings (size 3 to 8) (size 9 to 14) (size 15 to 20)
#    1.200    1.600    0.000    0.000    0.000    8.000 
#   18.000    0.000    0.000    0.000    0.000    0.000 
#    0.000    0.000    0.000    0.000    0.000    0.000 
#
# Total GULP energy -111535.412857 kJ/mol
# GULP energy per Si atom -5576.770643 kJ/mol
# Density = 2.611316 g / cm^3
# Si number density = 26.172730 Si / 1000 Ang^3
#
#
#
# Elastic Constant Matrix: (Units=GPa)
#
#
# Indices 1 2 3 4 5 6 
#
# 1 98.6982 31.5660 9.0303 0.0000 0.0000 0.0000
# 2 31.5660 158.4363 32.8185 0.0000 0.0000 0.0000
# 3 9.0303 32.8185 67.5346 0.0000 0.0000 0.0000
# 4 0.0000 0.0000 0.0000 9.8215 0.0000 0.0000
# 5 0.0000 0.0000 0.0000 0.0000 40.4573 0.0000
# 6 0.0000 0.0000 0.0000 0.0000 0.0000 49.1496
#
#
#
# Elastic Compliance Matrix: (Units=1/GPa)
#
#
# Indices 1 2 3 4 5 6 
#
# 1 0.010833 -0.002066 -0.000444 0.000000 0.000000 0.000000
# 2 -0.002066 0.007412 -0.003326 0.000000 0.000000 0.000000
# 3 -0.000444 -0.003326 0.016483 0.000000 0.000000 0.000000
# 4 0.000000 0.000000 0.000000 0.101817 0.000000 0.000000
# 5 0.000000 0.000000 0.000000 0.000000 0.024717 0.000000
# 6 0.000000 0.000000 0.000000 0.000000 0.000000 0.020346
#
#
# Mechanical properties :
#
#
# Convention : Reuss Voigt Hill
#
# Bulk Modulus (GPa) = 43.37355 52.38874 47.88114
# Shear Modulus (GPa) = 24.87969 36.63596 30.75783
#
# Velocity S-wave (km/s) = 3.08652 3.74542 3.43182
# Velocity P-wave (km/s) = 5.41388 6.22609 5.83414
#
# Compressibility (1/GPa) = 0.02305553
#
# Stress axis : x y z
#
# Youngs Moduli (GPa) = 92.30695 134.91172 60.66935
#
# Poissons Ratio (x) = 0.27877 0.02696
# Poissons Ratio (y) = 0.19074 0.20177
# Poissons Ratio (z) = 0.04102 0.44868
#
# Static dielectric constant tensor:
#      x y z
#    x 2.095190 0.000000 0.000000 
#    y 0.000000 2.094350 0.000000 
#    z 0.000000 0.000000 2.232700 
# 
# From -- ./inp_files/4617.got.cif
#   From: 2010.05.17/outbox.cif.g08.bks.cpg/sg33_3_cif.got.tgz:4617.got - 2010.06.03 17:15:25.
