data_PCOD9345312
_publ_section_title
;
Structure prediction by ZEFSAII (Michael W. Deem and Ramdas Pophale) SiO2 
 PCOD9345312
Probable space group: P N A 21
;
_chemical_formula_sum "Si O2"
_cell_formula_units_Z 32
_cell_length_a 11.568187
_cell_length_b 14.327175
_cell_length_c 8.136493
_cell_angle_alpha 90.000000
_cell_angle_beta 90.000000
_cell_angle_gamma 90.000000
_cell_volume 1348.537790
_symmetry_space_group_name_H-M "P N A 21"
_symmetry_group_IT_number 33
_symmetry_cell_setting 'orthorhombic'
loop_
_space_group_symop_operation_xyz
x,y,z
-x,-y,1/2+z
1/2-x,1/2+y,1/2+z
1/2+x,1/2-y,z
loop_
_atom_site_type_symbol
_atom_site_label
_atom_site_fract_x
_atom_site_fract_y
_atom_site_fract_z
Si Si1 0.667749 0.852081 0.420790
Si Si2 0.332323 0.828033 0.960297
Si Si3 0.673497 0.360389 0.626578
Si Si4 0.682999 0.672401 0.630338
Si Si5 0.672065 0.020166 0.971709
Si Si6 0.518546 0.518867 0.772110
Si Si7 0.986251 0.554341 0.180144
Si Si8 0.318786 0.484257 0.579793
O O1 0.762891 0.819876 0.287447
O O2 0.649266 0.771521 0.554028
O O3 0.558715 0.881992 0.308746
O O4 0.725524 0.943617 0.504044
O O5 0.275426 0.824156 0.780342
O O6 0.232356 0.880561 0.066511
O O7 0.361713 0.724222 0.013607
O O8 0.442022 0.889308 0.019509
O O9 0.763736 0.427348 0.533417
O O10 0.572411 0.426471 0.689190
O O11 0.746433 0.608681 0.495318
O O12 0.574052 0.611944 0.693180
O O13 0.568061 0.025227 0.106400
O O14 0.617957 0.016866 0.791768
O O15 0.381274 0.515118 0.747125
O O16 0.573915 0.512601 0.951587
#
# Coordination Sequence:
#
# PCOD9345312 Si02
#       8
#     4   4   4   4   4   4   4   4
#     4  10  22  41  62  86 124 167 215 263 323 392
#     4  11  23  39  61  92 128 162 213 271 325 385
#     4   9  21  39  57  86 120 161 207 261 316 383
#     4  10  22  41  61  89 125 167 214 268 321 389
#     4  10  21  39  61  86 122 162 207 257 319 383
#     4   9  21  39  60  84 122 163 207 257 315 380
#     4  11  22  39  65  93 125 169 210 264 327 389
#     4  10  22  41  61  90 126 165 211 263 318 385
#
# _framework density 23.729405
#
# number of rings (size 3 to 8) (size 9 to 14) (size 15 to 20)
#    0.000    2.000    0.000    4.500    0.000   11.000 
#    0.000    5.000    0.000    0.000    0.000    0.000 
#    0.000    0.000    0.000    0.000    0.000    0.000 
#
# Total GULP energy -178871.255728 kJ/mol
# GULP energy per Si atom -5589.726741 kJ/mol
# Density = 2.367540 g / cm^3
# Si number density = 23.729405 Si / 1000 Ang^3
#
#
#
# Elastic Constant Matrix: (Units=GPa)
#
#
# Indices 1 2 3 4 5 6 
#
# 1 51.1278 3.4570 18.0764 0.0000 0.0000 0.0000
# 2 3.4570 76.3203 26.9340 0.0000 0.0000 0.0000
# 3 18.0764 26.9340 103.3256 0.0000 0.0000 0.0000
# 4 0.0000 0.0000 0.0000 11.8900 0.0000 0.0000
# 5 0.0000 0.0000 0.0000 0.0000 57.9744 0.0000
# 6 0.0000 0.0000 0.0000 0.0000 0.0000 -1.1070
#
#
#
# Elastic Compliance Matrix: (Units=1/GPa)
#
#
# Indices 1 2 3 4 5 6 
#
# 1 0.020858 0.000378 -0.003748 0.000000 0.000000 0.000000
# 2 0.000378 0.014437 -0.003829 0.000000 0.000000 0.000000
# 3 -0.003748 -0.003829 0.011332 0.000000 0.000000 0.000000
# 4 0.000000 0.000000 0.000000 0.084105 0.000000 0.000000
# 5 0.000000 0.000000 0.000000 0.000000 0.017249 0.000000
# 6 0.000000 0.000000 0.000000 0.000000 0.000000 -0.903355
#
#
# Mechanical properties :
#
#
# Convention : Reuss Voigt Hill
#
# Bulk Modulus (GPa) = 31.02814 36.41206 33.72010
# Shear Modulus (GPa) = -6.84713 25.90523 9.52905
#
# Velocity S-wave (km/s) = -1.70052 3.30766 2.00610
# Velocity P-wave (km/s) = 3.04114 5.47408 4.42798
#
# Compressibility (1/GPa) = 0.03222881
#
# Stress axis : x y z
#
# Youngs Moduli (GPa) = 47.94273 69.26659 88.24595
#
# Poissons Ratio (x) = -0.02616 0.33070
# Poissons Ratio (y) = -0.01811 0.33793
# Poissons Ratio (z) = 0.17967 0.26525
#
# Static dielectric constant tensor:
#      x y z
#    x 1.991740 0.000000 0.000000 
#    y 0.000000 1.805260 0.000000 
#    z 0.000000 0.000000 1.981180 
# 
# From -- ./inp_files/3980.got.cif
#   From: 2010.05.17/outbox.cif.g08.bks.cpg/sg33_2_cif.got.tgz:3980.got - 2010.06.03 17:15:25.
