data_PCOD9345240
_publ_section_title
;
Structure prediction by ZEFSAII (Michael W. Deem and Ramdas Pophale) SiO2 
 PCOD9345240
Probable space group: P N A 21
;
_chemical_formula_sum "Si O2"
_cell_formula_units_Z 32
_cell_length_a 5.346050
_cell_length_b 31.807232
_cell_length_c 8.331846
_cell_angle_alpha 90.000000
_cell_angle_beta 90.000000
_cell_angle_gamma 90.000000
_cell_volume 1416.772528
_symmetry_space_group_name_H-M "P N A 21"
_symmetry_group_IT_number 33
_symmetry_cell_setting 'orthorhombic'
loop_
_space_group_symop_operation_xyz
x,y,z
-x,-y,1/2+z
1/2-x,1/2+y,1/2+z
1/2+x,1/2-y,z
loop_
_atom_site_type_symbol
_atom_site_label
_atom_site_fract_x
_atom_site_fract_y
_atom_site_fract_z
Si Si1 0.645788 0.056962 0.778220
Si Si2 0.753184 0.421917 0.015466
Si Si3 0.334331 0.770636 0.758277
Si Si4 0.599632 0.132687 0.232362
Si Si5 0.537241 0.053946 0.425556
Si Si6 0.120866 0.864210 0.396151
Si Si7 0.469032 0.520618 0.763255
Si Si8 0.760886 0.730446 0.371930
O O1 0.509981 0.047233 0.613499
O O2 0.705283 0.106092 0.790923
O O3 0.891899 0.028062 0.761830
O O4 0.477453 0.051285 0.937024
O O5 0.555549 0.454072 0.094987
O O6 0.864145 0.389217 0.145310
O O7 0.637758 0.389359 0.888307
O O8 0.559267 0.741370 0.820980
O O9 0.414834 0.818916 0.781280
O O10 0.301492 0.764244 0.564974
O O11 0.627959 0.101362 0.381386
O O12 0.800654 0.132080 0.085703
O O13 0.270169 0.041047 0.353910
O O14 0.765030 0.028565 0.343124
O O15 0.152133 0.816226 0.349938
O O16 0.041534 0.738805 0.309823
#
# Coordination Sequence:
#
# PCOD9345240 Si02
#       8
#     4   4   4   4   4   4   4   4
#     4  11  26  38  64  91 126 163 214 258 311 372
#     4  10  22  40  60  90 123 168 201 264 306 378
#     4   9  18  28  52  87 116 148 196 251 302 361
#     4   9  20  37  59  85 124 160 201 253 314 367
#     4  11  25  43  63  92 121 168 209 259 308 374
#     4  10  21  37  62  89 124 162 204 257 316 368
#     4  11  25  43  64  87 126 166 214 257 315 362
#     4   9  19  32  54  87 120 151 197 253 306 366
#
# _framework density 22.586546999999999
#
# number of rings (size 3 to 8) (size 9 to 14) (size 15 to 20)
#    0.000    2.000    1.250    0.750   15.750    0.000 
#    0.000    0.000    0.000    1.500    0.000    0.000 
#    0.000    0.000    0.000    0.000    0.000    0.000 
#
# Total GULP energy -178428.266482 kJ/mol
# GULP energy per Si atom -5575.883328 kJ/mol
# Density = 2.253514 g / cm^3
# Si number density = 22.586547 Si / 1000 Ang^3
#
#
#
# Elastic Constant Matrix: (Units=GPa)
#
#
# Indices 1 2 3 4 5 6 
#
# 1 80.5324 27.6059 11.3666 0.0000 0.0000 0.0000
# 2 27.6059 109.0661 29.5948 0.0000 0.0000 0.0000
# 3 11.3666 29.5948 27.2526 0.0000 0.0000 0.0000
# 4 0.0000 0.0000 0.0000 20.3397 0.0000 0.0000
# 5 0.0000 0.0000 0.0000 0.0000 16.7353 0.0000
# 6 0.0000 0.0000 0.0000 0.0000 0.0000 30.9343
#
#
#
# Elastic Compliance Matrix: (Units=1/GPa)
#
#
# Indices 1 2 3 4 5 6 
#
# 1 0.013743 -0.002727 -0.002771 0.000000 0.000000 0.000000
# 2 -0.002727 0.013540 -0.013567 0.000000 0.000000 0.000000
# 3 -0.002771 -0.013567 0.052582 0.000000 0.000000 0.000000
# 4 0.000000 0.000000 0.000000 0.049165 0.000000 0.000000
# 5 0.000000 0.000000 0.000000 0.000000 0.059754 0.000000
# 6 0.000000 0.000000 0.000000 0.000000 0.000000 0.032327
#
#
# Mechanical properties :
#
#
# Convention : Reuss Voigt Hill
#
# Bulk Modulus (GPa) = 23.95969 39.33175 31.64572
# Shear Modulus (GPa) = 18.30483 23.48744 20.89613
#
# Velocity S-wave (km/s) = 2.84989 3.22823 3.04494
# Velocity P-wave (km/s) = 4.63251 5.59883 5.13843
#
# Compressibility (1/GPa) = 0.04173676
#
# Stress axis : x y z
#
# Youngs Moduli (GPa) = 72.76352 73.85437 19.01785
#
# Poissons Ratio (x) = 0.20137 0.05270
# Poissons Ratio (y) = 0.19840 0.25801
# Poissons Ratio (z) = 0.20164 1.00196
#
# Static dielectric constant tensor:
#      x y z
#    x 1.889920 0.000000 0.000000 
#    y 0.000000 1.834060 0.000000 
#    z 0.000000 0.000000 1.996260 
# 
# From -- ./inp_files/2856.got.cif
#   From: 2010.05.17/outbox.cif.g08.bks.cpg/sg33_2_cif.got.tgz:2856.got - 2010.06.03 17:15:25.
