data_PCOD9345094
_publ_section_title
;
Structure prediction by ZEFSAII (Michael W. Deem and Ramdas Pophale) SiO2 
 PCOD9345094
Probable space group: P N A 21
;
_chemical_formula_sum "Si O2"
_cell_formula_units_Z 32
_cell_length_a 11.292607
_cell_length_b 15.106804
_cell_length_c 8.804358
_cell_angle_alpha 90.000000
_cell_angle_beta 90.000000
_cell_angle_gamma 90.000000
_cell_volume 1501.981219
_symmetry_space_group_name_H-M "P N A 21"
_symmetry_group_IT_number 33
_symmetry_cell_setting 'orthorhombic'
loop_
_space_group_symop_operation_xyz
x,y,z
-x,-y,1/2+z
1/2-x,1/2+y,1/2+z
1/2+x,1/2-y,z
loop_
_atom_site_type_symbol
_atom_site_label
_atom_site_fract_x
_atom_site_fract_y
_atom_site_fract_z
Si Si1 0.056791 0.896068 0.795430
Si Si2 0.626830 0.817711 0.289154
Si Si3 0.793434 0.846951 0.701802
Si Si4 0.402132 0.218497 0.438499
Si Si5 0.430378 0.929442 0.466649
Si Si6 0.210421 0.823392 0.518174
Si Si7 0.058371 0.414699 0.326087
Si Si8 0.278472 0.533973 0.410816
O O1 0.103260 0.822783 0.913146
O O2 0.124125 0.870261 0.638523
O O3 0.918973 0.877280 0.768211
O O4 0.097662 0.991032 0.859896
O O5 0.518695 0.868320 0.370293
O O6 0.645178 0.729146 0.385472
O O7 0.739000 0.883233 0.307470
O O8 0.607102 0.802683 0.113797
O O9 0.696781 0.827737 0.831969
O O10 0.786801 0.753846 0.605849
O O11 0.764977 0.924674 0.578950
O O12 0.529193 0.183967 0.376520
O O13 0.298208 0.895367 0.449001
O O14 0.454716 0.923320 0.646119
O O15 0.459249 0.026723 0.409850
O O16 0.181924 0.456872 0.378544
#
# Coordination Sequence:
#
# PCOD9345094 Si02
#       8
#     4   4   4   4   4   4   4   4
#     4  11  23  42  69  93 134 180 223 276 342 419
#     4  10  23  41  59  95 135 166 221 284 329 401
#     4  10  23  43  66  94 135 177 219 276 339 405
#     4  11  24  40  65  99 130 173 228 283 329 395
#     4  11  21  38  66  94 124 168 212 279 335 391
#     4  10  20  41  65  93 127 176 218 265 342 400
#     4  11  20  39  65  95 127 163 219 276 336 386
#     4  10  22  42  67  93 130 177 220 273 346 409
#
# _framework density 21.305192999999999
#
# number of rings (size 3 to 8) (size 9 to 14) (size 15 to 20)
#    0.000    1.500    1.250    6.000    1.750    2.000 
#    6.750    1.250    0.000    0.000    0.000    0.000 
#    0.000    0.000    0.000    0.000    0.000    0.000 
#
# Total GULP energy -178792.995999 kJ/mol
# GULP energy per Si atom -5587.281125 kJ/mol
# Density = 2.125670 g / cm^3
# Si number density = 21.305193 Si / 1000 Ang^3
#
#
#
# Elastic Constant Matrix: (Units=GPa)
#
#
# Indices 1 2 3 4 5 6 
#
# 1 42.7881 -9.9460 26.6202 0.0000 0.0000 0.0000
# 2 -9.9460 29.7915 29.7218 0.0000 0.0000 0.0000
# 3 26.6202 29.7218 126.9072 0.0000 0.0000 0.0000
# 4 0.0000 0.0000 0.0000 20.8251 0.0000 0.0000
# 5 0.0000 0.0000 0.0000 0.0000 24.5959 0.0000
# 6 0.0000 0.0000 0.0000 0.0000 0.0000 30.1990
#
#
#
# Elastic Compliance Matrix: (Units=1/GPa)
#
#
# Indices 1 2 3 4 5 6 
#
# 1 0.038855 0.027537 -0.014599 0.000000 0.000000 0.000000
# 2 0.027537 0.063317 -0.020605 0.000000 0.000000 0.000000
# 3 -0.014599 -0.020605 0.015768 0.000000 0.000000 0.000000
# 4 0.000000 0.000000 0.000000 0.048019 0.000000 0.000000
# 5 0.000000 0.000000 0.000000 0.000000 0.040657 0.000000
# 6 0.000000 0.000000 0.000000 0.000000 0.000000 0.033114
#
#
# Mechanical properties :
#
#
# Convention : Reuss Voigt Hill
#
# Bulk Modulus (GPa) = 9.74617 32.47542 21.11079
# Shear Modulus (GPa) = 17.28517 25.33007 21.30762
#
# Velocity S-wave (km/s) = 2.85144 3.45181 3.16589
# Velocity P-wave (km/s) = 3.92753 5.58235 4.82639
#
# Compressibility (1/GPa) = 0.10260442
#
# Stress axis : x y z
#
# Youngs Moduli (GPa) = 25.73693 15.79361 63.42012
#
# Poissons Ratio (x) = -0.43491 0.92589
# Poissons Ratio (y) = -0.70872 1.30677
# Poissons Ratio (z) = 0.37574 0.32543
#
# Static dielectric constant tensor:
#      x y z
#    x 1.790880 0.000000 0.000000 
#    y 0.000000 1.802060 0.000000 
#    z 0.000000 0.000000 1.728220 
# 
# From -- ./inp_files/3955.got.cif
#   From: 2010.05.17/outbox.cif.g08.bks.cpg/sg33_2_cif.got.tgz:3955.got - 2010.06.03 17:15:25.
