data_PCOD9345161
_publ_section_title
;
Structure prediction by ZEFSAII (Michael W. Deem and Ramdas Pophale) SiO2 
 PCOD9345161
Probable space group: P N A 21
;
_chemical_formula_sum "Si O2"
_cell_formula_units_Z 32
_cell_length_a 18.244126
_cell_length_b 10.752326
_cell_length_c 7.066739
_cell_angle_alpha 90.000000
_cell_angle_beta 90.000000
_cell_angle_gamma 90.000000
_cell_volume 1386.259508
_symmetry_space_group_name_H-M "P N A 21"
_symmetry_group_IT_number 33
_symmetry_cell_setting 'orthorhombic'
loop_
_space_group_symop_operation_xyz
x,y,z
-x,-y,1/2+z
1/2-x,1/2+y,1/2+z
1/2+x,1/2-y,z
loop_
_atom_site_type_symbol
_atom_site_label
_atom_site_fract_x
_atom_site_fract_y
_atom_site_fract_z
Si Si1 0.567066 0.897622 0.025660
Si Si2 0.681768 0.615854 0.520553
Si Si3 0.057245 0.820425 0.288272
Si Si4 0.285447 0.644151 0.509685
Si Si5 0.405512 0.580315 0.212037
Si Si6 0.975123 0.362859 0.129686
Si Si7 0.613198 0.275279 0.321460
Si Si8 0.694811 0.021799 0.257609
O O1 0.549505 0.760280 0.099484
O O2 0.630545 0.942012 0.165823
O O3 0.504826 0.003869 0.054467
O O4 0.580420 0.890110 0.801441
O O5 0.635974 0.619018 0.326693
O O6 0.726140 0.745327 0.531405
O O7 0.621327 0.561145 0.670633
O O8 0.748568 0.527341 0.580928
O O9 0.987488 0.911557 0.295223
O O10 0.052579 0.718946 0.456929
O O11 0.348118 0.653701 0.346097
O O12 0.335908 0.637397 0.692470
O O13 0.236786 0.532098 0.436530
O O14 0.402765 0.653564 0.013799
O O15 0.040963 0.280178 0.219624
O O16 0.662538 0.151309 0.329493
#
# Coordination Sequence:
#
# PCOD9345161 Si02
#       8
#     4   4   4   4   4   4   4   4
#     4  11  21  39  67 101 133 174 235 288 350 412
#     4  10  24  44  66  96 139 185 229 277 350 418
#     4  12  23  43  67  98 142 181 229 293 347 422
#     4  10  20  44  65  93 139 180 224 293 338 408
#     4  11  24  42  68  97 136 186 232 281 349 416
#     4  11  22  38  66  99 132 173 220 292 352 401
#     4  10  21  38  65  97 128 173 230 276 347 407
#     4   9  21  42  66  97 137 176 231 292 343 412
#
# _framework density 23.0837
#
# number of rings (size 3 to 8) (size 9 to 14) (size 15 to 20)
#    0.000    1.500    5.000    0.000    0.000    2.000 
#    9.000    1.250    0.000    0.000    0.000    0.000 
#    0.000    0.000    0.000    0.000    0.000    0.000 
#
# Total GULP energy -178464.423242 kJ/mol
# GULP energy per Si atom -5577.013226 kJ/mol
# Density = 2.303116 g / cm^3
# Si number density = 23.083700 Si / 1000 Ang^3
#
#
#
# Elastic Constant Matrix: (Units=GPa)
#
#
# Indices 1 2 3 4 5 6 
#
# 1 74.6970 38.4700 26.3212 0.0000 0.0000 0.0000
# 2 38.4700 63.8206 21.7165 0.0000 0.0000 0.0000
# 3 26.3212 21.7165 90.3258 0.0000 0.0000 0.0000
# 4 0.0000 0.0000 0.0000 13.5779 0.0000 0.0000
# 5 0.0000 0.0000 0.0000 0.0000 30.3967 0.0000
# 6 0.0000 0.0000 0.0000 0.0000 0.0000 12.1352
#
#
#
# Elastic Compliance Matrix: (Units=1/GPa)
#
#
# Indices 1 2 3 4 5 6 
#
# 1 0.020244 -0.011104 -0.003230 0.000000 0.000000 0.000000
# 2 -0.011104 0.023155 -0.002331 0.000000 0.000000 0.000000
# 3 -0.003230 -0.002331 0.012573 0.000000 0.000000 0.000000
# 4 0.000000 0.000000 0.000000 0.073649 0.000000 0.000000
# 5 0.000000 0.000000 0.000000 0.000000 0.032898 0.000000
# 6 0.000000 0.000000 0.000000 0.000000 0.000000 0.082405
#
#
# Mechanical properties :
#
#
# Convention : Reuss Voigt Hill
#
# Bulk Modulus (GPa) = 44.16467 44.65096 44.40781
# Shear Modulus (GPa) = 17.49467 20.71101 19.10284
#
# Velocity S-wave (km/s) = 2.75595 2.99860 2.87983
# Velocity P-wave (km/s) = 5.41303 5.60124 5.50794
#
# Compressibility (1/GPa) = 0.02264254
#
# Stress axis : x y z
#
# Youngs Moduli (GPa) = 49.39716 43.18633 79.53757
#
# Poissons Ratio (x) = 0.47953 0.25687
# Poissons Ratio (y) = 0.54850 0.18544
# Poissons Ratio (z) = 0.15953 0.10069
#
# Static dielectric constant tensor:
#      x y z
#    x 1.881270 0.000000 0.000000 
#    y 0.000000 1.901080 0.000000 
#    z 0.000000 0.000000 1.868300 
# 
# From -- ./inp_files/2042.got.cif
#   From: 2010.05.17/outbox.cif.g08.bks.cpg/sg33_2_cif.got.tgz:2042.got - 2010.06.03 17:15:25.
