data_PCOD9345279
_publ_section_title
;
Structure prediction by ZEFSAII (Michael W. Deem and Ramdas Pophale) SiO2 
 PCOD9345279
Probable space group: P N A 21
;
_chemical_formula_sum "Si O2"
_cell_formula_units_Z 24
_cell_length_a 11.759869
_cell_length_b 7.058193
_cell_length_c 12.181760
_cell_angle_alpha 90.000000
_cell_angle_beta 90.000000
_cell_angle_gamma 90.000000
_cell_volume 1011.127803
_symmetry_space_group_name_H-M "P N A 21"
_symmetry_group_IT_number 33
_symmetry_cell_setting 'orthorhombic'
loop_
_space_group_symop_operation_xyz
x,y,z
-x,-y,1/2+z
1/2-x,1/2+y,1/2+z
1/2+x,1/2-y,z
loop_
_atom_site_type_symbol
_atom_site_label
_atom_site_fract_x
_atom_site_fract_y
_atom_site_fract_z
Si Si1 0.165647 0.588646 0.918660
Si Si2 0.440748 0.557068 0.553521
Si Si3 0.181153 0.064538 0.614986
Si Si4 0.438543 0.043986 0.003695
Si Si5 0.275865 0.137636 0.176580
Si Si6 0.279335 0.648809 0.367324
O O1 0.193736 0.677588 0.801591
O O2 0.199131 0.368991 0.894413
O O3 0.034645 0.592147 0.955246
O O4 0.243154 0.655316 0.019431
O O5 0.548848 0.430586 0.582639
O O6 0.492656 0.767159 0.538111
O O7 0.349039 0.558357 0.651681
O O8 0.370691 0.530540 0.440431
O O9 0.216838 0.841207 0.617222
O O10 0.205481 0.128813 0.738033
O O11 0.344877 0.089286 0.910795
O O12 0.367133 0.003270 0.114654
#
# Coordination Sequence:
#
# PCOD9345279 Si02
#       6
#     4   4   4   4   4   4
#     4  11  22  38  60  87 116 154 196 241 297 349
#     4   9  18  39  61  79 117 160 191 234 301 343
#     4  11  22  38  60  87 116 154 196 241 297 349
#     4   9  18  39  61  79 117 160 191 234 301 343
#     4  10  21  38  62  84 116 157 194 243 293 349
#     4  10  21  38  62  84 116 157 194 243 293 349
#
# _framework density 23.735872000000001
#
# number of rings (size 3 to 8) (size 9 to 14) (size 15 to 20)
#    0.000    2.000    6.667    0.000    4.667    0.000 
#    6.000    1.667    0.000    0.000    0.000    0.000 
#    0.000    0.000    0.000    0.000    0.000    0.000 
#
# Total GULP energy -134243.290197 kJ/mol
# GULP energy per Si atom -5593.470425 kJ/mol
# Density = 2.368185 g / cm^3
# Si number density = 23.735872 Si / 1000 Ang^3
#
#
#
# Elastic Constant Matrix: (Units=GPa)
#
#
# Indices 1 2 3 4 5 6 
#
# 1 184.1943 14.3826 59.8266 0.0000 0.0000 0.0000
# 2 14.3826 53.3677 17.6689 0.0000 0.0000 0.0000
# 3 59.8266 17.6689 165.4373 0.0000 0.0000 0.0000
# 4 0.0000 0.0000 0.0000 40.2846 0.0000 0.0000
# 5 0.0000 0.0000 0.0000 0.0000 29.3210 0.0000
# 6 0.0000 0.0000 0.0000 0.0000 0.0000 15.1022
#
#
#
# Elastic Compliance Matrix: (Units=1/GPa)
#
#
# Indices 1 2 3 4 5 6 
#
# 1 0.006199 -0.000962 -0.002139 0.000000 0.000000 0.000000
# 2 -0.000962 0.019574 -0.001742 0.000000 0.000000 0.000000
# 3 -0.002139 -0.001742 0.007004 0.000000 0.000000 0.000000
# 4 0.000000 0.000000 0.000000 0.024823 0.000000 0.000000
# 5 0.000000 0.000000 0.000000 0.000000 0.034105 0.000000
# 6 0.000000 0.000000 0.000000 0.000000 0.000000 0.066215
#
#
# Mechanical properties :
#
#
# Convention : Reuss Voigt Hill
#
# Bulk Modulus (GPa) = 43.30959 65.19505 54.25232
# Shear Modulus (GPa) = 28.52162 37.68298 33.10230
#
# Velocity S-wave (km/s) = 3.47021 3.98879 3.73850
# Velocity P-wave (km/s) = 5.86025 6.98143 6.44527
#
# Compressibility (1/GPa) = 0.02308958
#
# Stress axis : x y z
#
# Youngs Moduli (GPa) = 161.31831 51.08763 142.77204
#
# Poissons Ratio (x) = 0.04917 0.30538
# Poissons Ratio (y) = 0.15526 0.24878
# Poissons Ratio (z) = 0.34504 0.08902
#
# Static dielectric constant tensor:
#      x y z
#    x 1.866340 0.000000 0.000000 
#    y 0.000000 2.020980 0.000000 
#    z 0.000000 0.000000 1.858030 
# 
# From -- ./inp_files/6284.got.cif
#   From: 2010.05.17/outbox.cif.g08.bks.cpg/sg33_4_cif.got.tgz:6284.got - 2010.06.03 17:15:25.
