data_PCOD9345446
_publ_section_title
;
Structure prediction by ZEFSAII (Michael W. Deem and Ramdas Pophale) SiO2 
 PCOD9345446
Probable space group: P N A 21
;
_chemical_formula_sum "Si O2"
_cell_formula_units_Z 28
_cell_length_a 12.195538
_cell_length_b 9.157500
_cell_length_c 10.205034
_cell_angle_alpha 90.000000
_cell_angle_beta 90.000000
_cell_angle_gamma 90.000000
_cell_volume 1139.704721
_symmetry_space_group_name_H-M "P N A 21"
_symmetry_group_IT_number 33
_symmetry_cell_setting 'orthorhombic'
loop_
_space_group_symop_operation_xyz
x,y,z
-x,-y,1/2+z
1/2-x,1/2+y,1/2+z
1/2+x,1/2-y,z
loop_
_atom_site_type_symbol
_atom_site_label
_atom_site_fract_x
_atom_site_fract_y
_atom_site_fract_z
Si Si1 0.160284 0.192983 0.033690
Si Si2 0.193268 0.969796 0.535303
Si Si3 0.224639 0.525405 0.315019
Si Si4 0.546607 0.573935 0.090045
Si Si5 0.991451 0.567636 0.428016
Si Si6 0.761311 0.242200 0.463113
Si Si7 0.432830 0.852018 0.153601
O O1 0.263506 0.304403 0.040395
O O2 0.124385 0.061965 0.131707
O O3 0.183297 0.101257 0.902049
O O4 0.059693 0.300551 0.009531
O O5 0.246521 0.038966 0.666164
O O6 0.246111 0.087161 0.436155
O O7 0.063190 0.997002 0.532773
O O8 0.218919 0.352608 0.341824
O O9 0.111838 0.588680 0.367620
O O10 0.619455 0.676404 0.994437
O O11 0.496143 0.699250 0.183333
O O12 0.924852 0.559932 0.289612
O O13 0.004732 0.442508 0.538826
O O14 0.681817 0.187915 0.582662
#
# Coordination Sequence:
#
# PCOD9345446 Si02
#       7
#     4   4   4   4   4   4   4
#     4  11  22  38  62  93 126 169 221 267 320 387
#     4  11  22  42  67  91 125 171 216 265 325 388
#     4  10  22  39  59  90 129 163 211 269 321 387
#     4  10  21  41  63  94 135 171 214 275 327 378
#     4  11  21  40  65  94 130 174 218 268 326 387
#     4   9  20  40  61  90 127 165 209 263 325 390
#     4  10  22  40  67  96 132 173 215 267 330 393
#
# _framework density 24.567768000000001
#
# number of rings (size 3 to 8) (size 9 to 14) (size 15 to 20)
#    0.000    1.714    0.000    5.143    0.000    0.000 
#    0.000   40.000    0.000    0.000    0.000    0.000 
#    0.000    0.000    0.000    0.000    0.000    0.000 
#
# Total GULP energy -155967.128179 kJ/mol
# GULP energy per Si atom -5570.254578 kJ/mol
# Density = 2.451185 g / cm^3
# Si number density = 24.567768 Si / 1000 Ang^3
#
#
#
# Elastic Constant Matrix: (Units=GPa)
#
#
# Indices 1 2 3 4 5 6 
#
# 1 98.7304 57.3739 8.8696 0.0000 0.0000 0.0000
# 2 57.3739 151.5418 45.4471 0.0000 0.0000 0.0000
# 3 8.8696 45.4471 65.4968 0.0000 0.0000 0.0000
# 4 0.0000 0.0000 0.0000 23.6818 0.0000 0.0000
# 5 0.0000 0.0000 0.0000 0.0000 26.3582 0.0000
# 6 0.0000 0.0000 0.0000 0.0000 0.0000 30.1370
#
#
#
# Elastic Compliance Matrix: (Units=1/GPa)
#
#
# Indices 1 2 3 4 5 6 
#
# 1 0.013216 -0.005640 0.002124 0.000000 0.000000 0.000000
# 2 -0.005640 0.010740 -0.006689 0.000000 0.000000 0.000000
# 3 0.002124 -0.006689 0.019621 0.000000 0.000000 0.000000
# 4 0.000000 0.000000 0.000000 0.042227 0.000000 0.000000
# 5 0.000000 0.000000 0.000000 0.000000 0.037939 0.000000
# 6 0.000000 0.000000 0.000000 0.000000 0.000000 0.033182
#
#
# Mechanical properties :
#
#
# Convention : Reuss Voigt Hill
#
# Bulk Modulus (GPa) = 43.16428 59.90558 51.53493
# Shear Modulus (GPa) = 27.01875 29.64061 28.32968
#
# Velocity S-wave (km/s) = 3.31987 3.47722 3.39945
# Velocity P-wave (km/s) = 5.68357 6.36853 6.03577
#
# Compressibility (1/GPa) = 0.02316730
#
# Stress axis : x y z
#
# Youngs Moduli (GPa) = 75.66863 93.10790 50.96475
#
# Poissons Ratio (x) = 0.52517 -0.10826
# Poissons Ratio (y) = 0.42680 0.34088
# Poissons Ratio (z) = -0.16073 0.62276
#
# Static dielectric constant tensor:
#      x y z
#    x 2.010300 0.000000 0.000000 
#    y 0.000000 2.019620 0.000000 
#    z 0.000000 0.000000 1.937480 
# 
# From -- ./inp_files/6336.got.cif
#   From: 2010.05.17/outbox.cif.g08.bks.cpg/sg33_4_cif.got.tgz:6336.got - 2010.06.03 17:15:25.
