data_PCOD9345904
_publ_section_title
;
Structure prediction by ZEFSAII (Michael W. Deem and Ramdas Pophale) SiO2 
 PCOD9345904
Probable space group: P N A 21
;
_chemical_formula_sum "Si O2"
_cell_formula_units_Z 32
_cell_length_a 9.541177
_cell_length_b 28.624592
_cell_length_c 5.167011
_cell_angle_alpha 90.000000
_cell_angle_beta 90.000000
_cell_angle_gamma 90.000000
_cell_volume 1411.174252
_symmetry_space_group_name_H-M "P N A 21"
_symmetry_group_IT_number 33
_symmetry_cell_setting 'orthorhombic'
loop_
_space_group_symop_operation_xyz
x,y,z
-x,-y,1/2+z
1/2-x,1/2+y,1/2+z
1/2+x,1/2-y,z
loop_
_atom_site_type_symbol
_atom_site_label
_atom_site_fract_x
_atom_site_fract_y
_atom_site_fract_z
Si Si1 0.414761 0.496483 0.271070
Si Si2 0.329782 0.756523 0.599513
Si Si3 0.167520 0.898354 0.553240
Si Si4 0.049594 0.353237 0.199031
Si Si5 0.598477 0.403172 0.676643
Si Si6 0.922520 0.245884 0.748083
Si Si7 0.367975 0.154790 0.688162
Si Si8 0.502416 0.327372 0.336327
O O1 0.452995 0.502211 0.571895
O O2 0.348605 0.446380 0.215440
O O3 0.341054 0.544593 0.183901
O O4 0.378674 0.802516 0.752910
O O5 0.169964 0.756783 0.509205
O O6 0.419397 0.757386 0.332347
O O7 0.386178 0.708995 0.726488
O O8 0.333593 0.888222 0.578843
O O9 0.054735 0.905312 0.316372
O O10 0.112387 0.848244 0.648928
O O11 0.960504 0.367578 0.454688
O O12 0.948289 0.345532 0.958006
O O13 0.720154 0.368250 0.765966
O O14 0.570875 0.377625 0.406310
O O15 0.857002 0.290725 0.605954
O O16 0.930683 0.199311 0.577593
#
# Coordination Sequence:
#
# PCOD9345904 Si02
#       8
#     4   4   4   4   4   4   4   4
#     4  10  22  44  70 104 132 166 226 296 348 390
#     4  11  24  39  58  93 134 182 222 273 329 408
#     4  11  25  43  70 100 132 176 235 290 347 410
#     4  11  26  44  64  97 142 183 221 277 341 413
#     4  11  25  43  70 100 132 176 235 290 347 410
#     4  11  24  39  58  93 134 182 222 273 329 408
#     4  11  26  44  64  97 142 183 221 277 341 413
#     4  12  22  38  70  98 124 178 230 286 330 406
#
# _framework density 22.676152999999999
#
# number of rings (size 3 to 8) (size 9 to 14) (size 15 to 20)
#    0.000    1.000    2.500    3.750   10.500    2.000 
#    0.000    1.250    0.000    0.000    0.000    0.000 
#    0.000    0.000    0.000    0.000    0.000    0.000 
#
# Total GULP energy -178262.920550 kJ/mol
# GULP energy per Si atom -5570.716267 kJ/mol
# Density = 2.262454 g / cm^3
# Si number density = 22.676153 Si / 1000 Ang^3
#
#
#
# Elastic Constant Matrix: (Units=GPa)
#
#
# Indices 1 2 3 4 5 6 
#
# 1 57.9059 11.2167 13.4886 0.0000 0.0000 0.0000
# 2 11.2167 102.1353 19.7216 0.0000 0.0000 0.0000
# 3 13.4886 19.7216 66.1334 0.0000 0.0000 0.0000
# 4 0.0000 0.0000 0.0000 33.4324 0.0000 0.0000
# 5 0.0000 0.0000 0.0000 0.0000 25.9070 0.0000
# 6 0.0000 0.0000 0.0000 0.0000 0.0000 20.5194
#
#
#
# Elastic Compliance Matrix: (Units=1/GPa)
#
#
# Indices 1 2 3 4 5 6 
#
# 1 0.018309 -0.001368 -0.003326 0.000000 0.000000 0.000000
# 2 -0.001368 0.010491 -0.002850 0.000000 0.000000 0.000000
# 3 -0.003326 -0.002850 0.016649 0.000000 0.000000 0.000000
# 4 0.000000 0.000000 0.000000 0.029911 0.000000 0.000000
# 5 0.000000 0.000000 0.000000 0.000000 0.038600 0.000000
# 6 0.000000 0.000000 0.000000 0.000000 0.000000 0.048734
#
#
# Mechanical properties :
#
#
# Convention : Reuss Voigt Hill
#
# Bulk Modulus (GPa) = 32.93667 35.00316 33.96992
# Shear Modulus (GPa) = 26.60934 28.08828 27.34881
#
# Velocity S-wave (km/s) = 3.42928 3.52329 3.47661
# Velocity P-wave (km/s) = 5.49875 5.65872 5.57931
#
# Compressibility (1/GPa) = 0.03036130
#
# Stress axis : x y z
#
# Youngs Moduli (GPa) = 54.61700 95.31575 60.06311
#
# Poissons Ratio (x) = 0.13044 0.19979
# Poissons Ratio (y) = 0.07474 0.17115
# Poissons Ratio (z) = 0.18167 0.27161
#
# Static dielectric constant tensor:
#      x y z
#    x 1.957850 0.000000 0.000000 
#    y 0.000000 1.897610 0.000000 
#    z 0.000000 0.000000 1.966540 
# 
# From -- ./inp_files/603.got.cif
#   From: 2010.05.17/outbox.cif.g08.bks.cpg/sg33_1_cif.got.tgz:603.got - 2010.06.03 17:15:25.
