data_PCOD9345962
_publ_section_title
;
Structure prediction by ZEFSAII (Michael W. Deem and Ramdas Pophale) SiO2 
 PCOD9345962
Probable space group: P N A 21
;
_chemical_formula_sum "Si O2"
_cell_formula_units_Z 16
_cell_length_a 11.576227
_cell_length_b 7.235485
_cell_length_c 9.072557
_cell_angle_alpha 90.000000
_cell_angle_beta 90.000000
_cell_angle_gamma 90.000000
_cell_volume 759.913898
_symmetry_space_group_name_H-M "P N A 21"
_symmetry_group_IT_number 33
_symmetry_cell_setting 'orthorhombic'
loop_
_space_group_symop_operation_xyz
x,y,z
-x,-y,1/2+z
1/2-x,1/2+y,1/2+z
1/2+x,1/2-y,z
loop_
_atom_site_type_symbol
_atom_site_label
_atom_site_fract_x
_atom_site_fract_y
_atom_site_fract_z
Si Si1 0.359570 0.577870 0.346560
Si Si2 0.571220 0.470889 0.514298
Si Si3 0.122006 0.362547 0.348229
Si Si4 0.517748 0.144667 0.023508
O O1 0.441149 0.450059 0.450229
O O2 0.234798 0.489021 0.339196
O O3 0.378191 0.777616 0.421480
O O4 0.411880 0.584237 0.182827
O O5 0.647534 0.342901 0.408744
O O6 0.579791 0.693567 0.507398
O O7 0.035642 0.457296 0.464867
O O8 0.061537 0.358364 0.189763
#
# Coordination Sequence:
#
# PCOD9345962 Si02
#       4
#     4   4   4   4
#     4  10  24  44  67  99 133 178 219 284 330 401
#     4  10  22  47  64  99 139 163 238 276 319 418
#     4  12  24  44  74  93 138 188 210 287 353 377
#     4  10  24  43  65 103 134 167 239 269 324 420
#
# _framework density 21.055018
#
# number of rings (size 3 to 8) (size 9 to 14) (size 15 to 20)
#    1.500    0.000    2.500    1.500    3.500    4.000 
#    0.000    0.000    0.000    0.000    0.000    0.000 
#    0.000    0.000    0.000    0.000    0.000    0.000 
#
# Total GULP energy -89166.821639 kJ/mol
# GULP energy per Si atom -5572.926352 kJ/mol
# Density = 2.100710 g / cm^3
# Si number density = 21.055018 Si / 1000 Ang^3
#
#
#
# Elastic Constant Matrix: (Units=GPa)
#
#
# Indices 1 2 3 4 5 6 
#
# 1 62.7397 15.7010 49.8785 0.0000 0.0000 0.0000
# 2 15.7010 62.0767 37.3119 0.0000 0.0000 0.0000
# 3 49.8785 37.3119 127.0747 0.0000 0.0000 0.0000
# 4 0.0000 0.0000 0.0000 22.2291 0.0000 0.0000
# 5 0.0000 0.0000 0.0000 0.0000 6.2852 0.0000
# 6 0.0000 0.0000 0.0000 0.0000 0.0000 5.4392
#
#
#
# Elastic Compliance Matrix: (Units=1/GPa)
#
#
# Indices 1 2 3 4 5 6 
#
# 1 0.023180 -0.000479 -0.008958 0.000000 0.000000 0.000000
# 2 -0.000479 0.019571 -0.005559 0.000000 0.000000 0.000000
# 3 -0.008958 -0.005559 0.013018 0.000000 0.000000 0.000000
# 4 0.000000 0.000000 0.000000 0.044986 0.000000 0.000000
# 5 0.000000 0.000000 0.000000 0.000000 0.159103 0.000000
# 6 0.000000 0.000000 0.000000 0.000000 0.000000 0.183850
#
#
# Mechanical properties :
#
#
# Convention : Reuss Voigt Hill
#
# Bulk Modulus (GPa) = 38.79190 50.85264 44.82227
# Shear Modulus (GPa) = 10.36718 16.72404 13.54561
#
# Velocity S-wave (km/s) = 2.22138 2.82139 2.53917
# Velocity P-wave (km/s) = 5.00434 5.90071 5.47092
#
# Compressibility (1/GPa) = 0.02577858
#
# Stress axis : x y z
#
# Youngs Moduli (GPa) = 43.13994 51.09529 76.81860
#
# Poissons Ratio (x) = 0.02446 0.68815
# Poissons Ratio (y) = 0.02065 0.42701
# Poissons Ratio (z) = 0.38645 0.28402
#
# Static dielectric constant tensor:
#      x y z
#    x 1.742800 0.000000 0.000000 
#    y 0.000000 1.798060 0.000000 
#    z 0.000000 0.000000 1.707530 
# 
# From -- ./inp_files/3615.got.cif
#   From: 2010.05.17/outbox.cif.g08.bks.cpg/sg33_2_cif.got.tgz:3615.got - 2010.06.03 17:15:25.
