data_PCOD9345570
_publ_section_title
;
Structure prediction by ZEFSAII (Michael W. Deem and Ramdas Pophale) SiO2 
 PCOD9345570
Probable space group: P N A 21
;
_chemical_formula_sum "Si O2"
_cell_formula_units_Z 28
_cell_length_a 5.141152
_cell_length_b 16.332780
_cell_length_c 12.722496
_cell_angle_alpha 90.000000
_cell_angle_beta 90.000000
_cell_angle_gamma 90.000000
_cell_volume 1068.299141
_symmetry_space_group_name_H-M "P N A 21"
_symmetry_group_IT_number 33
_symmetry_cell_setting 'orthorhombic'
loop_
_space_group_symop_operation_xyz
x,y,z
-x,-y,1/2+z
1/2-x,1/2+y,1/2+z
1/2+x,1/2-y,z
loop_
_atom_site_type_symbol
_atom_site_label
_atom_site_fract_x
_atom_site_fract_y
_atom_site_fract_z
Si Si1 0.666344 0.305809 0.553720
Si Si2 0.397417 0.282285 0.820674
Si Si3 0.460995 0.522593 0.140193
Si Si4 0.078919 0.704742 0.548767
Si Si5 0.042451 0.530658 0.755225
Si Si6 0.698730 0.303293 0.311104
Si Si7 0.235404 0.435284 0.949705
O O1 0.402724 0.255868 0.562101
O O2 0.644315 0.385843 0.625445
O O3 0.695941 0.334175 0.431781
O O4 0.640202 0.244943 0.761937
O O5 0.380664 0.372252 0.869811
O O6 0.376109 0.225982 0.925399
O O7 0.754716 0.519802 0.182044
O O8 0.254999 0.478464 0.218371
O O9 0.435977 0.479727 0.026540
O O10 0.360461 0.731563 0.591803
O O11 0.165499 0.621740 0.749424
O O12 0.074535 0.493941 0.872691
O O13 0.946047 0.616919 0.530976
O O14 0.403839 0.271469 0.297555
#
# Coordination Sequence:
#
# PCOD9345570 Si02
#       7
#     4   4   4   4   4   4   4
#     4  10  21  44  72  98 136 189 239 292 355 413
#     4   8  16  32  56  86 113 164 207 236 312 412
#     4  12  27  44  68 107 137 177 237 293 364 419
#     4   8  16  32  56  86 113 164 207 236 312 412
#     4  12  27  44  68 107 137 177 237 293 364 419
#     4  10  21  44  72  98 136 189 239 292 355 413
#     4  10  22  44  64  88 136 176 210 294 346 398
#
# _framework density 26.209886999999998
#
# number of rings (size 3 to 8) (size 9 to 14) (size 15 to 20)
#    0.000    2.286    1.429    1.714    0.000   10.286 
#    0.000   25.714    0.000    0.000    0.000    0.000 
#    0.000    0.000    0.000    0.000    0.000    0.000 
#
# Total GULP energy -156627.926135 kJ/mol
# GULP energy per Si atom -5593.854505 kJ/mol
# Density = 2.615023 g / cm^3
# Si number density = 26.209887 Si / 1000 Ang^3
#
#
#
# Elastic Constant Matrix: (Units=GPa)
#
#
# Indices 1 2 3 4 5 6 
#
# 1 141.5908 -2.2303 -4.5505 0.0000 0.0000 0.0000
# 2 -2.2303 104.6252 -1.2190 0.0000 0.0000 0.0000
# 3 -4.5505 -1.2190 75.2653 0.0000 0.0000 0.0000
# 4 0.0000 0.0000 0.0000 41.5645 0.0000 0.0000
# 5 0.0000 0.0000 0.0000 0.0000 54.1220 0.0000
# 6 0.0000 0.0000 0.0000 0.0000 0.0000 14.2128
#
#
#
# Elastic Compliance Matrix: (Units=1/GPa)
#
#
# Indices 1 2 3 4 5 6 
#
# 1 0.007079 0.000156 0.000431 0.000000 0.000000 0.000000
# 2 0.000156 0.009563 0.000164 0.000000 0.000000 0.000000
# 3 0.000431 0.000164 0.013315 0.000000 0.000000 0.000000
# 4 0.000000 0.000000 0.000000 0.024059 0.000000 0.000000
# 5 0.000000 0.000000 0.000000 0.000000 0.018477 0.000000
# 6 0.000000 0.000000 0.000000 0.000000 0.000000 0.070359
#
#
# Mechanical properties :
#
#
# Convention : Reuss Voigt Hill
#
# Bulk Modulus (GPa) = 31.78784 33.94241 32.86513
# Shear Modulus (GPa) = 32.93017 43.94527 38.43772
#
# Velocity S-wave (km/s) = 3.54842 4.09916 3.83369
# Velocity P-wave (km/s) = 5.37986 5.94831 5.67122
#
# Compressibility (1/GPa) = 0.03145857
#
# Stress axis : x y z
#
# Youngs Moduli (GPa) = 141.26496 104.56792 75.10310
#
# Poissons Ratio (x) = -0.01630 -0.03233
# Poissons Ratio (y) = -0.02203 -0.01234
# Poissons Ratio (z) = -0.06082 -0.01718
#
# Static dielectric constant tensor:
#      x y z
#    x 2.210050 0.000000 0.000000 
#    y 0.000000 2.060090 0.000000 
#    z 0.000000 0.000000 2.216370 
# 
# From -- ./inp_files/5530.got.cif
#   From: 2010.05.17/outbox.cif.g08.bks.cpg/sg33_3_cif.got.tgz:5530.got - 2010.06.03 17:15:25.
