data_PCOD9345665
_publ_section_title
;
Structure prediction by ZEFSAII (Michael W. Deem and Ramdas Pophale) SiO2 
 PCOD9345665
Probable space group: P N A 21
;
_chemical_formula_sum "Si O2"
_cell_formula_units_Z 28
_cell_length_a 9.112247
_cell_length_b 8.025389
_cell_length_c 16.221425
_cell_angle_alpha 90.000000
_cell_angle_beta 90.000000
_cell_angle_gamma 90.000000
_cell_volume 1186.261891
_symmetry_space_group_name_H-M "P N A 21"
_symmetry_group_IT_number 33
_symmetry_cell_setting 'orthorhombic'
loop_
_space_group_symop_operation_xyz
x,y,z
-x,-y,1/2+z
1/2-x,1/2+y,1/2+z
1/2+x,1/2-y,z
loop_
_atom_site_type_symbol
_atom_site_label
_atom_site_fract_x
_atom_site_fract_y
_atom_site_fract_z
Si Si1 0.863687 0.209540 0.130440
Si Si2 0.382261 0.475617 0.368405
Si Si3 0.877680 0.712851 0.901103
Si Si4 0.495887 0.621860 0.213617
Si Si5 0.642865 0.976370 0.920577
Si Si6 0.343088 0.958473 0.224373
Si Si7 0.882309 0.799245 0.518035
O O1 0.899617 0.369134 0.185683
O O2 0.907372 0.031950 0.170713
O O3 0.699432 0.258368 0.103299
O O4 0.949999 0.212324 0.044121
O O5 0.225792 0.399308 0.343429
O O6 0.504420 0.333296 0.359420
O O7 0.443100 0.616155 0.309170
O O8 0.364143 0.534562 0.463133
O O9 0.763999 0.838219 0.944157
O O10 0.984179 0.590228 0.949955
O O11 0.441097 0.805686 0.189429
O O12 0.670537 0.588037 0.207008
O O13 0.646172 0.005514 0.822409
O O14 0.668390 0.152431 0.959573
#
# Coordination Sequence:
#
# PCOD9345665 Si02
#       7
#     4   4   4   4   4   4   4
#     4  12  28  52  72 108 162 196 242 308 399 435
#     4  11  23  45  74 110 145 191 259 302 371 438
#     4  10  22  39  68 111 140 184 236 322 351 432
#     4  12  28  49  77 110 150 203 254 305 370 465
#     4  11  23  45  74 108 143 189 255 303 369 435
#     4  12  28  49  77 110 148 205 251 308 373 459
#     4  12  26  49  72 107 152 196 237 318 375 442
#
# _framework density 23.603556000000001
#
# number of rings (size 3 to 8) (size 9 to 14) (size 15 to 20)
#    0.000    0.571    4.286    3.429    4.000    0.000 
#   15.429    0.000    0.000    0.000    0.000    0.000 
#    0.000    0.000    0.000    0.000    0.000    0.000 
#
# Total GULP energy -156265.935642 kJ/mol
# GULP energy per Si atom -5580.926273 kJ/mol
# Density = 2.354983 g / cm^3
# Si number density = 23.603556 Si / 1000 Ang^3
#
#
#
# Elastic Constant Matrix: (Units=GPa)
#
#
# Indices 1 2 3 4 5 6 
#
# 1 136.6725 35.3232 13.0406 0.0000 0.0000 0.0000
# 2 35.3232 144.5028 41.9152 0.0000 0.0000 0.0000
# 3 13.0406 41.9152 63.7925 0.0000 0.0000 0.0000
# 4 0.0000 0.0000 0.0000 29.6032 0.0000 0.0000
# 5 0.0000 0.0000 0.0000 0.0000 20.5089 0.0000
# 6 0.0000 0.0000 0.0000 0.0000 0.0000 24.7796
#
#
#
# Elastic Compliance Matrix: (Units=1/GPa)
#
#
# Indices 1 2 3 4 5 6 
#
# 1 0.007819 -0.001789 -0.000423 0.000000 0.000000 0.000000
# 2 -0.001789 0.008959 -0.005521 0.000000 0.000000 0.000000
# 3 -0.000423 -0.005521 0.019390 0.000000 0.000000 0.000000
# 4 0.000000 0.000000 0.000000 0.033780 0.000000 0.000000
# 5 0.000000 0.000000 0.000000 0.000000 0.048759 0.000000
# 6 0.000000 0.000000 0.000000 0.000000 0.000000 0.040356
#
#
# Mechanical properties :
#
#
# Convention : Reuss Voigt Hill
#
# Bulk Modulus (GPa) = 48.30287 58.39175 53.34731
# Shear Modulus (GPa) = 27.55888 31.95761 29.75825
#
# Velocity S-wave (km/s) = 3.42068 3.68357 3.55456
# Velocity P-wave (km/s) = 6.00917 6.54858 6.28466
#
# Compressibility (1/GPa) = 0.02070270
#
# Stress axis : x y z
#
# Youngs Moduli (GPa) = 127.88667 111.62054 51.57342
#
# Poissons Ratio (x) = 0.19965 0.02183
# Poissons Ratio (y) = 0.22875 0.28473
# Poissons Ratio (z) = 0.05412 0.61624
#
# Static dielectric constant tensor:
#      x y z
#    x 1.891790 0.000000 0.000000 
#    y 0.000000 1.940330 0.000000 
#    z 0.000000 0.000000 1.964480 
# 
# From -- ./inp_files/8464.got.cif
#   From: 2010.05.17/outbox.cif.g08.bks.cpg/sg33_5_cif.got.tgz:8464.got - 2010.06.03 17:15:25.
