data_PCOD9345318
_publ_section_title
;
Structure prediction by ZEFSAII (Michael W. Deem and Ramdas Pophale) SiO2 
 PCOD9345318
Probable space group: P N A 21
;
_chemical_formula_sum "Si O2"
_cell_formula_units_Z 32
_cell_length_a 12.192994
_cell_length_b 5.113514
_cell_length_c 22.217880
_cell_angle_alpha 90.000000
_cell_angle_beta 90.000000
_cell_angle_gamma 90.000000
_cell_volume 1385.263611
_symmetry_space_group_name_H-M "P N A 21"
_symmetry_group_IT_number 33
_symmetry_cell_setting 'orthorhombic'
loop_
_space_group_symop_operation_xyz
x,y,z
-x,-y,1/2+z
1/2-x,1/2+y,1/2+z
1/2+x,1/2-y,z
loop_
_atom_site_type_symbol
_atom_site_label
_atom_site_fract_x
_atom_site_fract_y
_atom_site_fract_z
Si Si1 0.189625 0.538930 0.014130
Si Si2 0.876118 0.766304 0.232492
Si Si3 0.156820 0.780066 0.899004
Si Si4 0.485755 0.235633 0.289036
Si Si5 0.810375 0.038930 0.808005
Si Si6 0.014245 0.764368 0.533099
Si Si7 0.843180 0.280066 0.923131
Si Si8 0.123882 0.266305 0.589643
O O1 0.256227 0.698482 0.063336
O O2 0.111863 0.317424 0.040605
O O3 0.122105 0.712715 0.966791
O O4 0.278171 0.419270 0.967471
O O5 0.954812 0.547314 0.263081
O O6 0.756227 0.698482 0.258799
O O7 0.879535 0.750000 0.161068
O O8 0.913270 0.052440 0.252856
O O9 0.048085 0.797465 0.858375
O O10 0.221829 0.580730 0.854664
O O11 0.250000 1.000000 0.911068
O O12 0.611863 0.317424 0.281530
O O13 0.877895 0.212716 0.855344
O O14 0.048085 0.702535 0.463760
O O15 0.086730 0.552441 0.569279
O O16 0.045188 0.047314 0.559054
#
# Coordination Sequence:
#
# PCOD9345318 Si02
#       8
#     4   4   4   4   4   4   4   4
#     4  10  24  40  67  98 134 181 221 277 347 406
#     4  11  25  47  66  96 134 177 234 290 325 402
#     4  10  21  39  62 100 138 173 216 279 340 413
#     4  11  25  41  70 100 135 179 229 274 349 410
#     4  10  24  40  67  98 134 181 221 277 347 406
#     4  11  25  41  70 100 135 179 229 274 349 410
#     4  10  21  39  62 100 138 173 216 279 340 413
#     4  11  25  47  66  96 134 177 234 290 325 402
#
# _framework density 23.100297999999999
#
# number of rings (size 3 to 8) (size 9 to 14) (size 15 to 20)
#    0.000    1.500    2.500    0.750    7.000    1.000 
#    0.000    5.000    0.000    0.000    0.000    0.000 
#    0.000    0.000    0.000    0.000    0.000    0.000 
#
# Total GULP energy -178640.077398 kJ/mol
# GULP energy per Si atom -5582.502419 kJ/mol
# Density = 2.304772 g / cm^3
# Si number density = 23.100298 Si / 1000 Ang^3
#
#
#
# Elastic Constant Matrix: (Units=GPa)
#
#
# Indices 1 2 3 4 5 6 
#
# 1 70.8133 -9.0559 20.9646 0.0000 0.0000 0.0000
# 2 -9.0559 53.6144 21.0540 0.0000 0.0000 0.0000
# 3 20.9646 21.0540 125.6426 0.0000 0.0000 0.0000
# 4 0.0000 0.0000 0.0000 19.7672 0.0000 0.0000
# 5 0.0000 0.0000 0.0000 0.0000 10.5307 0.0000
# 6 0.0000 0.0000 0.0000 0.0000 0.0000 38.7270
#
#
#
# Elastic Compliance Matrix: (Units=1/GPa)
#
#
# Indices 1 2 3 4 5 6 
#
# 1 0.015586 0.003911 -0.003256 0.000000 0.000000 0.000000
# 2 0.003911 0.020947 -0.004163 0.000000 0.000000 0.000000
# 3 -0.003256 -0.004163 0.009200 0.000000 0.000000 0.000000
# 4 0.000000 0.000000 0.000000 0.050589 0.000000 0.000000
# 5 0.000000 0.000000 0.000000 0.000000 0.094960 0.000000
# 6 0.000000 0.000000 0.000000 0.000000 0.000000 0.025822
#
#
# Mechanical properties :
#
#
# Convention : Reuss Voigt Hill
#
# Bulk Modulus (GPa) = 25.82806 35.11064 30.46935
# Shear Modulus (GPa) = 21.09486 28.27883 24.68684
#
# Velocity S-wave (km/s) = 3.02517 3.50262 3.27261
# Velocity P-wave (km/s) = 4.83811 5.62050 5.24392
#
# Compressibility (1/GPa) = 0.03871758
#
# Stress axis : x y z
#
# Youngs Moduli (GPa) = 64.16110 47.73950 108.69646
#
# Poissons Ratio (x) = -0.18672 0.35392
# Poissons Ratio (y) = -0.25095 0.45247
# Poissons Ratio (z) = 0.20891 0.19873
#
# Static dielectric constant tensor:
#      x y z
#    x 2.024900 0.000000 0.000000 
#    y 0.000000 1.962170 0.000000 
#    z 0.000000 0.000000 1.845570 
# 
# From -- ./inp_files/9080.got.cif
#   From: 2010.05.17/outbox.cif.g08.bks.cpg/sg33_5_cif.got.tgz:9080.got - 2010.06.03 17:15:25.
