data_PCOD9345859
_publ_section_title
;
Structure prediction by ZEFSAII (Michael W. Deem and Ramdas Pophale) SiO2 
 PCOD9345859
Probable space group: P N A 21
;
_chemical_formula_sum "Si O2"
_cell_formula_units_Z 32
_cell_length_a 22.872203
_cell_length_b 10.570542
_cell_length_c 5.036154
_cell_angle_alpha 90.000000
_cell_angle_beta 90.000000
_cell_angle_gamma 90.000000
_cell_volume 1217.598922
_symmetry_space_group_name_H-M "P N A 21"
_symmetry_group_IT_number 33
_symmetry_cell_setting 'orthorhombic'
loop_
_space_group_symop_operation_xyz
x,y,z
-x,-y,1/2+z
1/2-x,1/2+y,1/2+z
1/2+x,1/2-y,z
loop_
_atom_site_type_symbol
_atom_site_label
_atom_site_fract_x
_atom_site_fract_y
_atom_site_fract_z
Si Si1 0.863572 0.641563 0.194920
Si Si2 0.486018 0.578673 0.791229
Si Si3 0.219315 0.154278 0.668595
Si Si4 0.140050 0.007136 0.254344
Si Si5 0.797945 0.562747 0.675091
Si Si6 0.693689 0.675270 0.863438
Si Si7 0.089208 0.759841 0.565930
Si Si8 0.036024 0.501263 0.479637
O O1 0.837276 0.775937 0.291624
O O2 0.834749 0.548070 0.409769
O O3 0.930496 0.610052 0.140605
O O4 0.838021 0.620530 0.901365
O O5 0.502919 0.461735 0.594751
O O6 0.417117 0.596114 0.744967
O O7 0.530533 0.687115 0.703761
O O8 0.263700 0.263223 0.574809
O O9 0.190535 0.077355 0.419563
O O10 0.266258 0.059806 0.795613
O O11 0.115320 0.877537 0.394864
O O12 0.164155 0.952986 0.976997
O O13 0.740727 0.650579 0.631513
O O14 0.640061 0.760496 0.779783
O O15 0.075678 0.625968 0.434305
O O16 0.013015 0.460763 0.194496
#
# Coordination Sequence:
#
# PCOD9345859 Si02
#       8
#     4   4   4   4   4   4   4   4
#     4  11  27  48  73 103 150 194 239 303 371 436
#     4  10  22  43  70 106 139 182 246 306 367 430
#     4  11  24  42  73 105 150 184 244 305 365 452
#     4  11  24  46  70 114 141 201 243 312 374 445
#     4  11  24  46  69 110 143 192 238 291 369 446
#     4  11  24  43  73 106 154 191 244 297 382 439
#     4  11  25  46  77 101 148 193 245 314 370 441
#     4  12  30  52  75 107 143 197 255 300 372 451
#
# _framework density 26.281230000000001
#
# number of rings (size 3 to 8) (size 9 to 14) (size 15 to 20)
#    0.000    1.000    2.500    3.000    5.250    4.000 
#    6.750    0.000    0.000    0.000    0.000    0.000 
#    0.000    0.000    0.000    0.000    0.000    0.000 
#
# Total GULP energy -178894.745732 kJ/mol
# GULP energy per Si atom -5590.460804 kJ/mol
# Density = 2.622141 g / cm^3
# Si number density = 26.281230 Si / 1000 Ang^3
#
#
#
# Elastic Constant Matrix: (Units=GPa)
#
#
# Indices 1 2 3 4 5 6 
#
# 1 95.5854 -3.2982 37.4028 0.0000 0.0000 0.0000
# 2 -3.2982 73.4362 2.5995 0.0000 0.0000 0.0000
# 3 37.4028 2.5995 94.8770 0.0000 0.0000 0.0000
# 4 0.0000 0.0000 0.0000 15.1273 0.0000 0.0000
# 5 0.0000 0.0000 0.0000 0.0000 48.2794 0.0000
# 6 0.0000 0.0000 0.0000 0.0000 0.0000 35.3293
#
#
#
# Elastic Compliance Matrix: (Units=1/GPa)
#
#
# Indices 1 2 3 4 5 6 
#
# 1 0.012409 0.000731 -0.004912 0.000000 0.000000 0.000000
# 2 0.000731 0.013674 -0.000663 0.000000 0.000000 0.000000
# 3 -0.004912 -0.000663 0.012495 0.000000 0.000000 0.000000
# 4 0.000000 0.000000 0.000000 0.066106 0.000000 0.000000
# 5 0.000000 0.000000 0.000000 0.000000 0.020713 0.000000
# 6 0.000000 0.000000 0.000000 0.000000 0.000000 0.028305
#
#
# Mechanical properties :
#
#
# Convention : Reuss Voigt Hill
#
# Bulk Modulus (GPa) = 34.61423 37.47854 36.04639
# Shear Modulus (GPa) = 28.89869 34.89350 31.89610
#
# Velocity S-wave (km/s) = 3.31961 3.64771 3.48752
# Velocity P-wave (km/s) = 5.28132 5.65973 5.47380
#
# Compressibility (1/GPa) = 0.02888985
#
# Stress axis : x y z
#
# Youngs Moduli (GPa) = 80.58551 73.13379 80.03474
#
# Poissons Ratio (x) = -0.05348 0.39313
# Poissons Ratio (y) = -0.05892 0.05305
# Poissons Ratio (z) = 0.39584 0.04848
#
# Static dielectric constant tensor:
#      x y z
#    x 2.058250 0.000000 0.000000 
#    y 0.000000 2.239430 0.000000 
#    z 0.000000 0.000000 2.035580 
# 
# From -- ./inp_files/2084.got.cif
#   From: 2010.05.17/outbox.cif.g08.bks.cpg/sg33_2_cif.got.tgz:2084.got - 2010.06.03 17:15:25.
