data_PCOD9345835
_publ_section_title
;
Structure prediction by ZEFSAII (Michael W. Deem and Ramdas Pophale) SiO2 
 PCOD9345835
Probable space group: P N A 21
;
_chemical_formula_sum "Si O2"
_cell_formula_units_Z 24
_cell_length_a 14.000413
_cell_length_b 7.561415
_cell_length_c 8.049304
_cell_angle_alpha 90.000000
_cell_angle_beta 90.000000
_cell_angle_gamma 90.000000
_cell_volume 852.122929
_symmetry_space_group_name_H-M "P N A 21"
_symmetry_group_IT_number 33
_symmetry_cell_setting 'orthorhombic'
loop_
_space_group_symop_operation_xyz
x,y,z
-x,-y,1/2+z
1/2-x,1/2+y,1/2+z
1/2+x,1/2-y,z
loop_
_atom_site_type_symbol
_atom_site_label
_atom_site_fract_x
_atom_site_fract_y
_atom_site_fract_z
Si Si1 0.486779 0.969569 0.531840
Si Si2 0.217075 0.925824 0.992841
Si Si3 0.698393 0.172017 0.857707
Si Si4 0.386344 0.355326 0.024374
Si Si5 0.889398 0.681624 0.811507
Si Si6 0.957978 0.052447 0.673040
O O1 0.407593 0.895895 0.400594
O O2 0.573893 0.834280 0.583085
O O3 0.419462 0.981227 0.693282
O O4 0.543153 0.139485 0.467774
O O5 0.265564 0.890475 0.175306
O O6 0.107914 0.875182 0.026014
O O7 0.280707 0.814122 0.866998
O O8 0.213013 0.120130 0.906949
O O9 0.777447 0.100469 0.989239
O O10 0.434113 0.510314 0.129775
O O11 0.438248 0.356861 0.845355
O O12 0.913887 0.855975 0.709879
#
# Coordination Sequence:
#
# PCOD9345835 Si02
#       6
#     4   4   4   4   4   4
#     4  11  23  42  70 100 140 186 245 300 368 446
#     4  11  23  46  68 104 144 184 239 303 370 455
#     4  11  23  44  70 100 144 186 236 306 373 449
#     4  10  22  43  66  95 144 179 236 293 364 429
#     4  11  23  44  70 104 138 190 245 299 373 448
#     4  10  24  45  66 103 138 187 241 295 368 447
#
# _framework density 28.164950000000001
#
# number of rings (size 3 to 8) (size 9 to 14) (size 15 to 20)
#    0.000    1.333    5.000    1.000    2.333    4.000 
#    6.000    0.000    0.000    0.000    0.000    0.000 
#    0.000    0.000    0.000    0.000    0.000    0.000 
#
# Total GULP energy -134285.559432 kJ/mol
# GULP energy per Si atom -5595.231643 kJ/mol
# Density = 2.810085 g / cm^3
# Si number density = 28.164950 Si / 1000 Ang^3
#
#
#
# Elastic Constant Matrix: (Units=GPa)
#
#
# Indices 1 2 3 4 5 6 
#
# 1 117.3667 12.7713 25.6105 0.0000 0.0000 0.0000
# 2 12.7713 92.5472 24.4974 0.0000 0.0000 0.0000
# 3 25.6105 24.4974 99.4846 0.0000 0.0000 0.0000
# 4 0.0000 0.0000 0.0000 37.8182 0.0000 0.0000
# 5 0.0000 0.0000 0.0000 0.0000 53.4065 0.0000
# 6 0.0000 0.0000 0.0000 0.0000 0.0000 29.8675
#
#
#
# Elastic Compliance Matrix: (Units=1/GPa)
#
#
# Indices 1 2 3 4 5 6 
#
# 1 0.009067 -0.000678 -0.002167 0.000000 0.000000 0.000000
# 2 -0.000678 0.011609 -0.002684 0.000000 0.000000 0.000000
# 3 -0.002167 -0.002684 0.011271 0.000000 0.000000 0.000000
# 4 0.000000 0.000000 0.000000 0.026442 0.000000 0.000000
# 5 0.000000 0.000000 0.000000 0.000000 0.018724 0.000000
# 6 0.000000 0.000000 0.000000 0.000000 0.000000 0.033481
#
#
# Mechanical properties :
#
#
# Convention : Reuss Voigt Hill
#
# Bulk Modulus (GPa) = 47.87262 48.35078 48.11170
# Shear Modulus (GPa) = 38.87543 40.65308 39.76425
#
# Velocity S-wave (km/s) = 3.71924 3.80332 3.76152
# Velocity P-wave (km/s) = 5.95632 6.04080 5.99871
#
# Compressibility (1/GPa) = 0.02088877
#
# Stress axis : x y z
#
# Youngs Moduli (GPa) = 110.29069 86.13761 88.72539
#
# Poissons Ratio (x) = 0.05836 0.19229
# Poissons Ratio (y) = 0.07473 0.23817
# Poissons Ratio (z) = 0.23903 0.23122
#
# Static dielectric constant tensor:
#      x y z
#    x 2.137930 0.000000 0.000000 
#    y 0.000000 2.314030 0.000000 
#    z 0.000000 0.000000 2.250010 
# 
# From -- ./inp_files/4256.got.cif
#   From: 2010.05.17/outbox.cif.g08.bks.cpg/sg33_3_cif.got.tgz:4256.got - 2010.06.03 17:15:25.
