data_PCOD9345092
_publ_section_title
;
Structure prediction by ZEFSAII (Michael W. Deem and Ramdas Pophale) SiO2 
 PCOD9345092
Probable space group: P N A 21
;
_chemical_formula_sum "Si O2"
_cell_formula_units_Z 32
_cell_length_a 9.491801
_cell_length_b 13.971655
_cell_length_c 10.210200
_cell_angle_alpha 90.000000
_cell_angle_beta 90.000000
_cell_angle_gamma 90.000000
_cell_volume 1354.037608
_symmetry_space_group_name_H-M "P N A 21"
_symmetry_group_IT_number 33
_symmetry_cell_setting 'orthorhombic'
loop_
_space_group_symop_operation_xyz
x,y,z
-x,-y,1/2+z
1/2-x,1/2+y,1/2+z
1/2+x,1/2-y,z
loop_
_atom_site_type_symbol
_atom_site_label
_atom_site_fract_x
_atom_site_fract_y
_atom_site_fract_z
Si Si1 0.147816 0.660811 0.024850
Si Si2 0.925256 0.775356 0.914780
Si Si3 0.685871 0.022804 0.850425
Si Si4 0.128135 0.360016 0.186307
Si Si5 0.271473 0.556713 0.274230
Si Si6 0.447627 0.141726 0.935928
Si Si7 0.448214 0.546075 0.740415
Si Si8 0.885907 0.156055 0.023213
O O1 0.217590 0.625334 0.158241
O O2 0.262418 0.724530 0.950013
O O3 0.128379 0.566681 0.934347
O O4 0.012523 0.727810 0.031195
O O5 0.945249 0.707208 0.790455
O O6 0.960747 0.881900 0.865484
O O7 0.556384 0.094900 0.831050
O O8 0.785823 0.986451 0.734171
O O9 0.800848 0.078335 0.939305
O O10 0.197518 0.453776 0.249524
O O11 0.260176 0.305825 0.118498
O O12 0.015942 0.386884 0.074877
O O13 0.205734 0.600909 0.404779
O O14 0.437367 0.537553 0.263260
O O15 0.444060 0.256293 0.939867
O O16 0.499965 0.603946 0.613421
#
# Coordination Sequence:
#
# PCOD9345092 Si02
#       8
#     4   4   4   4   4   4   4   4
#     4  11  22  44  66  96 132 177 220 278 339 401
#     4  11  23  40  72  97 128 174 238 279 320 413
#     4  10  22  42  66  94 130 171 224 277 332 408
#     4  10  21  40  69  99 131 174 233 276 338 404
#     4  11  23  44  64  95 145 174 214 288 349 418
#     4  11  22  41  66 102 134 174 225 292 341 399
#     4  10  21  42  67  91 128 182 223 272 337 406
#     4  10  20  41  64  96 132 174 223 278 342 405
#
# _framework density 23.633020999999999
#
# number of rings (size 3 to 8) (size 9 to 14) (size 15 to 20)
#    0.000    1.500    5.000    2.250    0.000    2.000 
#    6.750    0.000    0.000    0.000    0.000    0.000 
#    0.000    0.000    0.000    0.000    0.000    0.000 
#
# Total GULP energy -178918.689089 kJ/mol
# GULP energy per Si atom -5591.209034 kJ/mol
# Density = 2.357923 g / cm^3
# Si number density = 23.633021 Si / 1000 Ang^3
#
#
#
# Elastic Constant Matrix: (Units=GPa)
#
#
# Indices 1 2 3 4 5 6 
#
# 1 68.2733 41.3537 19.9629 0.0000 0.0000 0.0000
# 2 41.3537 82.3132 7.6480 0.0000 0.0000 0.0000
# 3 19.9629 7.6480 29.2172 0.0000 0.0000 0.0000
# 4 0.0000 0.0000 0.0000 27.5064 0.0000 0.0000
# 5 0.0000 0.0000 0.0000 0.0000 27.1382 0.0000
# 6 0.0000 0.0000 0.0000 0.0000 0.0000 41.2877
#
#
#
# Elastic Compliance Matrix: (Units=1/GPa)
#
#
# Indices 1 2 3 4 5 6 
#
# 1 0.026054 -0.011721 -0.014734 0.000000 0.000000 0.000000
# 2 -0.011721 0.017724 0.003369 0.000000 0.000000 0.000000
# 3 -0.014734 0.003369 0.043412 0.000000 0.000000 0.000000
# 4 0.000000 0.000000 0.000000 0.036355 0.000000 0.000000
# 5 0.000000 0.000000 0.000000 0.000000 0.036848 0.000000
# 6 0.000000 0.000000 0.000000 0.000000 0.000000 0.024220
#
#
# Mechanical properties :
#
#
# Convention : Reuss Voigt Hill
#
# Bulk Modulus (GPa) = 24.37920 35.30365 29.84142
# Shear Modulus (GPa) = 20.45337 26.57574 23.51456
#
# Velocity S-wave (km/s) = 2.94506 3.35702 3.15776
# Velocity P-wave (km/s) = 4.68002 5.47693 5.09409
#
# Compressibility (1/GPa) = 0.04101858
#
# Stress axis : x y z
#
# Youngs Moduli (GPa) = 38.38124 56.42037 23.03528
#
# Poissons Ratio (x) = 0.66128 0.33940
# Poissons Ratio (y) = 0.44985 -0.07760
# Poissons Ratio (z) = 0.56550 -0.19006
#
# Static dielectric constant tensor:
#      x y z
#    x 1.906440 0.000000 0.000000 
#    y 0.000000 1.888650 0.000000 
#    z 0.000000 0.000000 1.966750 
# 
# From -- ./inp_files/6036.got.cif
#   From: 2010.05.17/outbox.cif.g08.bks.cpg/sg33_4_cif.got.tgz:6036.got - 2010.06.03 17:15:25.
