data_PCOD9345728
_publ_section_title
;
Structure prediction by ZEFSAII (Michael W. Deem and Ramdas Pophale) SiO2 
 PCOD9345728
Probable space group: P N A 21
;
_chemical_formula_sum "Si O2"
_cell_formula_units_Z 28
_cell_length_a 15.927381
_cell_length_b 6.691424
_cell_length_c 12.448849
_cell_angle_alpha 90.000000
_cell_angle_beta 90.000000
_cell_angle_gamma 90.000000
_cell_volume 1326.759231
_symmetry_space_group_name_H-M "P N A 21"
_symmetry_group_IT_number 33
_symmetry_cell_setting 'orthorhombic'
loop_
_space_group_symop_operation_xyz
x,y,z
-x,-y,1/2+z
1/2-x,1/2+y,1/2+z
1/2+x,1/2-y,z
loop_
_atom_site_type_symbol
_atom_site_label
_atom_site_fract_x
_atom_site_fract_y
_atom_site_fract_z
Si Si1 0.986862 0.048393 0.733610
Si Si2 0.653171 0.200060 0.685833
Si Si3 0.954494 0.342552 0.143486
Si Si4 0.743507 0.300445 0.461046
Si Si5 0.613849 0.655371 0.433223
Si Si6 0.894452 0.378668 0.603675
Si Si7 0.712316 0.958391 0.300273
O O1 0.961486 0.086504 0.856429
O O2 0.918256 0.165731 0.659636
O O3 0.073590 0.154217 0.700914
O O4 0.995409 0.812835 0.716681
O O5 0.696232 0.211111 0.567716
O O6 0.720011 0.289518 0.768878
O O7 0.615923 0.978186 0.700418
O O8 0.020290 0.497540 0.090496
O O9 0.914055 0.205601 0.052296
O O10 0.686826 0.490762 0.431944
O O11 0.837148 0.351673 0.500128
O O12 0.747079 0.149314 0.361564
O O13 0.647287 0.858646 0.381573
O O14 0.836756 0.497627 0.689693
#
# Coordination Sequence:
#
# PCOD9345728 Si02
#       7
#     4   4   4   4   4   4   4
#     4  10  22  41  62  96 127 173 220 273 323 402
#     4  10  22  41  64  91 131 173 218 277 337 384
#     4  11  21  43  66  92 135 174 218 280 327 402
#     4  11  21  41  64  93 131 174 222 278 332 400
#     4  11  23  38  67  94 127 178 219 265 344 388
#     4   9  23  40  64  92 132 169 217 276 336 383
#     4  10  22  42  61  96 129 169 222 275 323 409
#
# _framework density 21.104056
#
# number of rings (size 3 to 8) (size 9 to 14) (size 15 to 20)
#    0.000    1.714    2.857    0.857    0.000    4.571 
#    2.571    0.000    0.000    0.000    0.000    0.000 
#    0.000    0.000    0.000    0.000    0.000    0.000 
#
# Total GULP energy -156352.950236 kJ/mol
# GULP energy per Si atom -5584.033937 kJ/mol
# Density = 2.105602 g / cm^3
# Si number density = 21.104056 Si / 1000 Ang^3
#
#
#
# Elastic Constant Matrix: (Units=GPa)
#
#
# Indices 1 2 3 4 5 6 
#
# 1 70.7426 10.1569 8.3007 0.0000 0.0000 0.0000
# 2 10.1569 82.4982 13.1891 0.0000 0.0000 0.0000
# 3 8.3007 13.1891 37.1917 0.0000 0.0000 0.0000
# 4 0.0000 0.0000 0.0000 23.5749 0.0000 0.0000
# 5 0.0000 0.0000 0.0000 0.0000 27.8881 0.0000
# 6 0.0000 0.0000 0.0000 0.0000 0.0000 32.9975
#
#
#
# Elastic Compliance Matrix: (Units=1/GPa)
#
#
# Indices 1 2 3 4 5 6 
#
# 1 0.014658 -0.001359 -0.002790 0.000000 0.000000 0.000000
# 2 -0.001359 0.012976 -0.004298 0.000000 0.000000 0.000000
# 3 -0.002790 -0.004298 0.029035 0.000000 0.000000 0.000000
# 4 0.000000 0.000000 0.000000 0.042418 0.000000 0.000000
# 5 0.000000 0.000000 0.000000 0.000000 0.035858 0.000000
# 6 0.000000 0.000000 0.000000 0.000000 0.000000 0.030305
#
#
# Mechanical properties :
#
#
# Convention : Reuss Voigt Hill
#
# Bulk Modulus (GPa) = 25.14122 28.19176 26.66649
# Shear Modulus (GPa) = 25.58833 27.47781 26.53307
#
# Velocity S-wave (km/s) = 3.48585 3.61226 3.54962
# Velocity P-wave (km/s) = 5.30475 5.54845 5.42797
#
# Compressibility (1/GPa) = 0.03977532
#
# Stress axis : x y z
#
# Youngs Moduli (GPa) = 68.22140 77.06567 34.44161
#
# Poissons Ratio (x) = 0.10471 0.09608
# Poissons Ratio (y) = 0.09269 0.14804
# Poissons Ratio (z) = 0.19032 0.33126
#
# Static dielectric constant tensor:
#      x y z
#    x 1.764280 0.000000 0.000000 
#    y 0.000000 1.757670 0.000000 
#    z 0.000000 0.000000 1.781800 
# 
# From -- ./inp_files/6958.got.cif
#   From: 2010.05.17/outbox.cif.g08.bks.cpg/sg33_4_cif.got.tgz:6958.got - 2010.06.03 17:15:25.
