data_PCOD9345393
_publ_section_title
;
Structure prediction by ZEFSAII (Michael W. Deem and Ramdas Pophale) SiO2 
 PCOD9345393
Probable space group: P N A 21
;
_chemical_formula_sum "Si O2"
_cell_formula_units_Z 32
_cell_length_a 14.779575
_cell_length_b 12.158820
_cell_length_c 8.225651
_cell_angle_alpha 90.000000
_cell_angle_beta 90.000000
_cell_angle_gamma 90.000000
_cell_volume 1478.167516
_symmetry_space_group_name_H-M "P N A 21"
_symmetry_group_IT_number 33
_symmetry_cell_setting 'orthorhombic'
loop_
_space_group_symop_operation_xyz
x,y,z
-x,-y,1/2+z
1/2-x,1/2+y,1/2+z
1/2+x,1/2-y,z
loop_
_atom_site_type_symbol
_atom_site_label
_atom_site_fract_x
_atom_site_fract_y
_atom_site_fract_z
Si Si1 0.695382 0.736481 0.846030
Si Si2 0.530497 0.865402 0.984782
Si Si3 0.469400 0.889353 0.359073
Si Si4 0.857060 0.001041 0.414324
Si Si5 0.625784 0.293903 0.459655
Si Si6 0.799589 0.759785 0.320850
Si Si7 0.971607 0.009373 0.083028
Si Si8 0.884819 0.229483 0.987014
O O1 0.704903 0.609129 0.902148
O O2 0.656015 0.737191 0.666012
O O3 0.622414 0.796902 0.960409
O O4 0.790797 0.797600 0.839218
O O5 0.500389 0.877566 0.171717
O O6 0.448376 0.795431 0.907686
O O7 0.541708 0.984367 0.906252
O O8 0.377077 0.821282 0.389987
O O9 0.550822 0.832482 0.455858
O O10 0.926793 0.012574 0.261075
O O11 0.809931 0.883753 0.390693
O O12 0.920704 0.003451 0.572502
O O13 0.675569 0.264281 0.630259
O O14 0.573614 0.405628 0.494965
O O15 0.698662 0.721993 0.362600
O O16 0.945606 0.120344 0.988570
#
# Coordination Sequence:
#
# PCOD9345393 Si02
#       8
#     4   4   4   4   4   4   4   4
#     4  11  24  40  63  95 125 161 206 255 309 367
#     4  11  24  43  65  90 126 166 208 256 311 370
#     4  11  24  43  65  90 126 166 208 256 311 370
#     4  10  21  40  64  90 120 157 204 254 307 361
#     4  10  23  42  63  90 123 164 205 251 308 367
#     4  10  23  42  63  90 123 164 205 251 308 367
#     4  10  21  40  64  90 120 157 204 254 307 361
#     4  11  24  40  63  95 125 161 206 255 309 367
#
# _framework density 21.648425
#
# number of rings (size 3 to 8) (size 9 to 14) (size 15 to 20)
#    0.000    1.500    2.500    1.500    3.500    4.000 
#    0.000    0.000    0.000    0.000    0.000    0.000 
#    0.000    0.000    0.000    0.000    0.000    0.000 
#
# Total GULP energy -178957.832382 kJ/mol
# GULP energy per Si atom -5592.432262 kJ/mol
# Density = 2.159915 g / cm^3
# Si number density = 21.648425 Si / 1000 Ang^3
#
#
#
# Elastic Constant Matrix: (Units=GPa)
#
#
# Indices 1 2 3 4 5 6 
#
# 1 62.9254 17.7442 -3.4567 0.0000 0.0000 0.0000
# 2 17.7442 96.2547 17.6300 0.0000 0.0000 0.0000
# 3 -3.4567 17.6300 16.8723 0.0000 0.0000 0.0000
# 4 0.0000 0.0000 0.0000 20.7451 0.0000 0.0000
# 5 0.0000 0.0000 0.0000 0.0000 30.3633 0.0000
# 6 0.0000 0.0000 0.0000 0.0000 0.0000 10.5415
#
#
#
# Elastic Compliance Matrix: (Units=1/GPa)
#
#
# Indices 1 2 3 4 5 6 
#
# 1 0.017744 -0.004869 0.008723 0.000000 0.000000 0.000000
# 2 -0.004869 0.014184 -0.015818 0.000000 0.000000 0.000000
# 3 0.008723 -0.015818 0.077585 0.000000 0.000000 0.000000
# 4 0.000000 0.000000 0.000000 0.048204 0.000000 0.000000
# 5 0.000000 0.000000 0.000000 0.000000 0.032935 0.000000
# 6 0.000000 0.000000 0.000000 0.000000 0.000000 0.094863
#
#
# Mechanical properties :
#
#
# Convention : Reuss Voigt Hill
#
# Bulk Modulus (GPa) = 11.68450 26.65417 19.16934
# Shear Modulus (GPa) = 14.79415 21.93896 18.36656
#
# Velocity S-wave (km/s) = 2.61699 3.18688 2.91589
# Velocity P-wave (km/s) = 3.81322 5.08730 4.49562
#
# Compressibility (1/GPa) = 0.08558347
#
# Stress axis : x y z
#
# Youngs Moduli (GPa) = 56.35749 70.50239 12.88914
#
# Poissons Ratio (x) = 0.34325 -0.11243
# Poissons Ratio (y) = 0.27438 0.20389
# Poissons Ratio (z) = -0.49158 1.11523
#
# Static dielectric constant tensor:
#      x y z
#    x 1.755400 0.000000 0.000000 
#    y 0.000000 1.750180 0.000000 
#    z 0.000000 0.000000 1.823320 
# 
# From -- ./inp_files/4438.got.cif
#   From: 2010.05.17/outbox.cif.g08.bks.cpg/sg33_3_cif.got.tgz:4438.got - 2010.06.03 17:15:25.
