data_PCOD9345567
_publ_section_title
;
Structure prediction by ZEFSAII (Michael W. Deem and Ramdas Pophale) SiO2 
 PCOD9345567
Probable space group: P N A 21
;
_chemical_formula_sum "Si O2"
_cell_formula_units_Z 28
_cell_length_a 5.278956
_cell_length_b 22.929251
_cell_length_c 9.241125
_cell_angle_alpha 90.000000
_cell_angle_beta 90.000000
_cell_angle_gamma 90.000000
_cell_volume 1118.568939
_symmetry_space_group_name_H-M "P N A 21"
_symmetry_group_IT_number 33
_symmetry_cell_setting 'orthorhombic'
loop_
_space_group_symop_operation_xyz
x,y,z
-x,-y,1/2+z
1/2-x,1/2+y,1/2+z
1/2+x,1/2-y,z
loop_
_atom_site_type_symbol
_atom_site_label
_atom_site_fract_x
_atom_site_fract_y
_atom_site_fract_z
Si Si1 0.540194 0.021169 0.836250
Si Si2 0.971408 0.383938 0.324627
Si Si3 0.670275 0.501022 0.058188
Si Si4 0.181105 0.904135 0.566031
Si Si5 0.403847 0.717818 0.541114
Si Si6 0.633392 0.280248 0.693920
Si Si7 0.980660 0.127520 0.478739
O O1 0.556407 0.952008 0.869360
O O2 0.606456 0.021142 0.667285
O O3 0.275061 0.033092 0.917142
O O4 0.724959 0.066412 0.917241
O O5 0.704448 0.356460 0.366884
O O6 0.073243 0.388010 0.161080
O O7 0.207064 0.357318 0.413123
O O8 0.481675 0.456372 0.138721
O O9 0.531515 0.558927 0.009316
O O10 0.008248 0.847339 0.560153
O O11 0.129865 0.739444 0.595771
O O12 0.373870 0.722084 0.366914
O O13 0.915100 0.264518 0.644318
O O14 0.545638 0.340891 0.627573
#
# Coordination Sequence:
#
# PCOD9345567 Si02
#       7
#     4   4   4   4   4   4   4
#     4  11  23  42  66 103 145 191 232 299 364 449
#     4  11  24  42  63 103 144 182 235 295 350 451
#     4  11  25  42  70 106 147 191 246 293 384 443
#     4  12  25  44  73  99 151 194 241 302 385 433
#     4  10  25  46  70 103 138 183 250 309 359 437
#     4  10  21  44  71 101 134 182 243 301 359 431
#     4  11  23  44  65  99 143 181 233 299 359 428
#
# _framework density 25.031984999999999
#
# number of rings (size 3 to 8) (size 9 to 14) (size 15 to 20)
#    0.000    1.143    2.857    2.571    4.000    0.000 
#    7.714    4.286    0.000    0.000    0.000    0.000 
#    0.000    0.000    0.000    0.000    0.000    0.000 
#
# Total GULP energy -156530.175163 kJ/mol
# GULP energy per Si atom -5590.363399 kJ/mol
# Density = 2.497501 g / cm^3
# Si number density = 25.031985 Si / 1000 Ang^3
#
#
#
# Elastic Constant Matrix: (Units=GPa)
#
#
# Indices 1 2 3 4 5 6 
#
# 1 133.0057 16.7310 41.4618 0.0000 0.0000 0.0000
# 2 16.7310 59.5177 10.4085 0.0000 0.0000 0.0000
# 3 41.4618 10.4085 55.5326 0.0000 0.0000 0.0000
# 4 0.0000 0.0000 0.0000 30.7564 0.0000 0.0000
# 5 0.0000 0.0000 0.0000 0.0000 34.6386 0.0000
# 6 0.0000 0.0000 0.0000 0.0000 0.0000 29.0048
#
#
#
# Elastic Compliance Matrix: (Units=1/GPa)
#
#
# Indices 1 2 3 4 5 6 
#
# 1 0.009935 -0.001546 -0.007128 0.000000 0.000000 0.000000
# 2 -0.001546 0.017612 -0.002147 0.000000 0.000000 0.000000
# 3 -0.007128 -0.002147 0.023732 0.000000 0.000000 0.000000
# 4 0.000000 0.000000 0.000000 0.032514 0.000000 0.000000
# 5 0.000000 0.000000 0.000000 0.000000 0.028870 0.000000
# 6 0.000000 0.000000 0.000000 0.000000 0.000000 0.034477
#
#
# Mechanical properties :
#
#
# Convention : Reuss Voigt Hill
#
# Bulk Modulus (GPa) = 33.74155 42.80652 38.27403
# Shear Modulus (GPa) = 27.98632 30.84358 29.41495
#
# Velocity S-wave (km/s) = 3.34731 3.51403 3.43168
# Velocity P-wave (km/s) = 5.33366 5.79676 5.57003
#
# Compressibility (1/GPa) = 0.02963705
#
# Stress axis : x y z
#
# Youngs Moduli (GPa) = 100.65494 56.78012 42.13806
#
# Poissons Ratio (x) = 0.08780 0.30035
# Poissons Ratio (y) = 0.15564 0.09045
# Poissons Ratio (z) = 0.71745 0.12188
#
# Static dielectric constant tensor:
#      x y z
#    x 2.057630 0.000000 0.000000 
#    y 0.000000 1.923740 0.000000 
#    z 0.000000 0.000000 2.008700 
# 
# From -- ./inp_files/2750.got.cif
#   From: 2010.05.17/outbox.cif.g08.bks.cpg/sg33_2_cif.got.tgz:2750.got - 2010.06.03 17:15:25.
