data_PCOD9345503
_publ_section_title
;
Structure prediction by ZEFSAII (Michael W. Deem and Ramdas Pophale) SiO2 
 PCOD9345503
Probable space group: P N A 21
;
_chemical_formula_sum "Si O2"
_cell_formula_units_Z 32
_cell_length_a 13.244138
_cell_length_b 12.556848
_cell_length_c 7.913616
_cell_angle_alpha 90.000000
_cell_angle_beta 90.000000
_cell_angle_gamma 90.000000
_cell_volume 1316.070963
_symmetry_space_group_name_H-M "P N A 21"
_symmetry_group_IT_number 33
_symmetry_cell_setting 'orthorhombic'
loop_
_space_group_symop_operation_xyz
x,y,z
-x,-y,1/2+z
1/2-x,1/2+y,1/2+z
1/2+x,1/2-y,z
loop_
_atom_site_type_symbol
_atom_site_label
_atom_site_fract_x
_atom_site_fract_y
_atom_site_fract_z
Si Si1 0.098170 0.602533 0.655400
Si Si2 0.811297 0.369626 0.646176
Si Si3 0.481151 0.320523 0.096130
Si Si4 0.513412 0.107390 0.517753
Si Si5 0.537537 0.338512 0.475690
Si Si6 0.309408 0.468568 0.951732
Si Si7 0.171049 0.870160 0.097787
Si Si8 0.799427 0.904700 0.488350
O O1 0.036731 0.696477 0.564419
O O2 0.217939 0.625549 0.634525
O O3 0.079942 0.493297 0.557407
O O4 0.051922 0.596782 0.844241
O O5 0.931101 0.380379 0.666239
O O6 0.781882 0.481296 0.556303
O O7 0.802055 0.252256 0.558860
O O8 0.746075 0.361416 0.814956
O O9 0.481009 0.333298 0.297622
O O10 0.588303 0.362553 0.027008
O O11 0.384313 0.384176 0.034137
O O12 0.572688 0.218611 0.510544
O O13 0.622570 0.424621 0.447171
O O14 0.452442 0.371179 0.611812
O O15 0.283680 0.414188 0.773740
O O16 0.195001 0.966838 0.972316
#
# Coordination Sequence:
#
# PCOD9345503 Si02
#       8
#     4   4   4   4   4   4   4   4
#     4  11  25  45  70  99 143 187 235 295 361 427
#     4  11  27  44  68 108 143 191 235 299 359 436
#     4  11  25  43  70 102 136 186 234 301 356 433
#     4  10  24  46  66 100 141 184 234 287 361 426
#     4  10  21  42  66  99 136 180 228 293 357 417
#     4  12  22  42  71 103 140 181 238 293 358 426
#     4  11  24  44  72 104 144 185 242 295 364 430
#     4  12  24  44  69 101 137 184 242 289 356 427
#
# _framework density 24.314799000000001
#
# number of rings (size 3 to 8) (size 9 to 14) (size 15 to 20)
#    0.000    1.000    2.500    3.000    3.500    4.000 
#    0.000    1.250    0.000    0.000    0.000    0.000 
#    0.000    0.000    0.000    0.000    0.000    0.000 
#
# Total GULP energy -178860.184803 kJ/mol
# GULP energy per Si atom -5589.380775 kJ/mol
# Density = 2.425946 g / cm^3
# Si number density = 24.314799 Si / 1000 Ang^3
#
#
#
# Elastic Constant Matrix: (Units=GPa)
#
#
# Indices 1 2 3 4 5 6 
#
# 1 84.6861 29.7147 8.5435 0.0000 0.0000 0.0000
# 2 29.7147 131.3875 23.6059 0.0000 0.0000 0.0000
# 3 8.5435 23.6059 48.9146 0.0000 0.0000 0.0000
# 4 0.0000 0.0000 0.0000 37.9217 0.0000 0.0000
# 5 0.0000 0.0000 0.0000 0.0000 30.9984 0.0000
# 6 0.0000 0.0000 0.0000 0.0000 0.0000 26.0451
#
#
#
# Elastic Compliance Matrix: (Units=1/GPa)
#
#
# Indices 1 2 3 4 5 6 
#
# 1 0.012864 -0.002744 -0.000923 0.000000 0.000000 0.000000
# 2 -0.002744 0.008919 -0.003825 0.000000 0.000000 0.000000
# 3 -0.000923 -0.003825 0.022451 0.000000 0.000000 0.000000
# 4 0.000000 0.000000 0.000000 0.026370 0.000000 0.000000
# 5 0.000000 0.000000 0.000000 0.000000 0.032260 0.000000
# 6 0.000000 0.000000 0.000000 0.000000 0.000000 0.038395
#
#
# Mechanical properties :
#
#
# Convention : Reuss Voigt Hill
#
# Bulk Modulus (GPa) = 34.18682 43.19072 38.68877
# Shear Modulus (GPa) = 30.12201 32.53464 31.32833
#
# Velocity S-wave (km/s) = 3.52353 3.66192 3.59339
# Velocity P-wave (km/s) = 5.53573 5.97338 5.75871
#
# Compressibility (1/GPa) = 0.02925104
#
# Stress axis : x y z
#
# Youngs Moduli (GPa) = 77.73592 112.12304 44.54171
#
# Poissons Ratio (x) = 0.30761 0.04110
# Poissons Ratio (y) = 0.21327 0.17037
# Poissons Ratio (z) = 0.07174 0.42887
#
# Static dielectric constant tensor:
#      x y z
#    x 2.062400 0.000000 0.000000 
#    y 0.000000 1.920710 0.000000 
#    z 0.000000 0.000000 2.003650 
# 
# From -- ./inp_files/4437.got.cif
#   From: 2010.05.17/outbox.cif.g08.bks.cpg/sg33_3_cif.got.tgz:4437.got - 2010.06.03 17:15:25.
