data_PCOD9345797
_publ_section_title
;
Structure prediction by ZEFSAII (Michael W. Deem and Ramdas Pophale) SiO2 
 PCOD9345797
Probable space group: P N A 21
;
_chemical_formula_sum "Si O2"
_cell_formula_units_Z 20
_cell_length_a 9.408587
_cell_length_b 7.655497
_cell_length_c 10.747446
_cell_angle_alpha 90.000000
_cell_angle_beta 90.000000
_cell_angle_gamma 90.000000
_cell_volume 774.110695
_symmetry_space_group_name_H-M "P N A 21"
_symmetry_group_IT_number 33
_symmetry_cell_setting 'orthorhombic'
loop_
_space_group_symop_operation_xyz
x,y,z
-x,-y,1/2+z
1/2-x,1/2+y,1/2+z
1/2+x,1/2-y,z
loop_
_atom_site_type_symbol
_atom_site_label
_atom_site_fract_x
_atom_site_fract_y
_atom_site_fract_z
Si Si1 0.442608 0.803238 0.984680
Si Si2 0.416004 0.694389 0.515272
Si Si3 0.219681 0.919063 0.187042
Si Si4 0.657830 0.878141 0.356778
Si Si5 0.724015 0.962059 0.962635
O O1 0.611120 0.807638 0.982751
O O2 0.379966 0.610637 0.984107
O O3 0.399000 0.925491 0.867098
O O4 0.354888 0.892572 0.097106
O O5 0.388749 0.559225 0.627124
O O6 0.563321 0.766334 0.457497
O O7 0.320966 0.618919 0.401534
O O8 0.333449 0.877716 0.543574
O O9 0.279054 0.987867 0.318252
O O10 0.151601 0.734522 0.231781
#
# Coordination Sequence:
#
# PCOD9345797 Si02
#       5
#     4   4   4   4   4
#     4  10  23  41  62  94 129 169 222 266 317 399
#     4   9  20  40  63  93 127 163 215 265 321 398
#     4  10  22  42  68  92 130 172 206 280 342 368
#     4   9  20  40  63  93 127 163 215 265 321 398
#     4  10  23  41  62  94 129 169 222 266 317 399
#
# _framework density 25.836098
#
# number of rings (size 3 to 8) (size 9 to 14) (size 15 to 20)
#    0.000    2.400    0.000    0.000    0.000   17.600 
#    0.000    0.000    0.000    0.000    0.000    0.000 
#    0.000    0.000    0.000    0.000    0.000    0.000 
#
# Total GULP energy -111751.758465 kJ/mol
# GULP energy per Si atom -5587.587923 kJ/mol
# Density = 2.577729 g / cm^3
# Si number density = 25.836098 Si / 1000 Ang^3
#
#
#
# Elastic Constant Matrix: (Units=GPa)
#
#
# Indices 1 2 3 4 5 6 
#
# 1 100.4532 2.8894 17.4885 0.0000 0.0000 0.0000
# 2 2.8894 98.4632 42.3500 0.0000 0.0000 0.0000
# 3 17.4885 42.3500 119.9450 0.0000 0.0000 0.0000
# 4 0.0000 0.0000 0.0000 48.8516 0.0000 0.0000
# 5 0.0000 0.0000 0.0000 0.0000 26.0709 0.0000
# 6 0.0000 0.0000 0.0000 0.0000 0.0000 49.4965
#
#
#
# Elastic Compliance Matrix: (Units=1/GPa)
#
#
# Indices 1 2 3 4 5 6 
#
# 1 0.010228 0.000402 -0.001633 0.000000 0.000000 0.000000
# 2 0.000402 0.011990 -0.004292 0.000000 0.000000 0.000000
# 3 -0.001633 -0.004292 0.010091 0.000000 0.000000 0.000000
# 4 0.000000 0.000000 0.000000 0.020470 0.000000 0.000000
# 5 0.000000 0.000000 0.000000 0.000000 0.038357 0.000000
# 6 0.000000 0.000000 0.000000 0.000000 0.000000 0.020203
#
#
# Mechanical properties :
#
#
# Convention : Reuss Voigt Hill
#
# Bulk Modulus (GPa) = 47.03106 49.36856 48.19981
# Shear Modulus (GPa) = 38.61803 41.95937 40.28870
#
# Velocity S-wave (km/s) = 3.87037 4.03433 3.95320
# Velocity P-wave (km/s) = 6.18192 6.39148 6.28757
#
# Compressibility (1/GPa) = 0.02126255
#
# Stress axis : x y z
#
# Youngs Moduli (GPa) = 97.77401 83.40014 99.10027
#
# Poissons Ratio (x) = -0.03356 0.16186
# Poissons Ratio (y) = -0.03934 0.42536
# Poissons Ratio (z) = 0.15970 0.35797
#
# Static dielectric constant tensor:
#      x y z
#    x 1.996520 0.000000 0.000000 
#    y 0.000000 2.131890 0.000000 
#    z 0.000000 0.000000 2.022450 
# 
# From -- ./inp_files/6227.got.cif
#   From: 2010.05.17/outbox.cif.g08.bks.cpg/sg33_4_cif.got.tgz:6227.got - 2010.06.03 17:15:25.
