data_PCOD9345838
_publ_section_title
;
Structure prediction by ZEFSAII (Michael W. Deem and Ramdas Pophale) SiO2 
 PCOD9345838
Probable space group: P N A 21
;
_chemical_formula_sum "Si O2"
_cell_formula_units_Z 28
_cell_length_a 25.083919
_cell_length_b 10.364253
_cell_length_c 5.192912
_cell_angle_alpha 90.000000
_cell_angle_beta 90.000000
_cell_angle_gamma 90.000000
_cell_volume 1350.032920
_symmetry_space_group_name_H-M "P N A 21"
_symmetry_group_IT_number 33
_symmetry_cell_setting 'orthorhombic'
loop_
_space_group_symop_operation_xyz
x,y,z
-x,-y,1/2+z
1/2-x,1/2+y,1/2+z
1/2+x,1/2-y,z
loop_
_atom_site_type_symbol
_atom_site_label
_atom_site_fract_x
_atom_site_fract_y
_atom_site_fract_z
Si Si1 0.677671 0.412879 0.855180
Si Si2 0.463434 0.499984 0.820907
Si Si3 0.105491 0.244091 0.172983
Si Si4 0.668619 0.703188 0.733541
Si Si5 0.216081 0.196721 0.351583
Si Si6 0.465584 0.995877 0.676647
Si Si7 0.105807 0.741409 0.234938
O O1 0.658691 0.550933 0.763364
O O2 0.716244 0.357186 0.638234
O O3 0.627847 0.318050 0.907608
O O4 0.706223 0.414507 0.134894
O O5 0.507395 0.512542 0.594742
O O6 0.426275 0.627038 0.807598
O O7 0.428678 0.372603 0.760937
O O8 0.160930 0.275909 0.319469
O O9 0.069701 0.368249 0.141994
O O10 0.730784 0.728995 0.781536
O O11 0.649797 0.751194 0.457717
O O12 0.633953 0.766925 0.958667
O O13 0.431197 0.117749 0.767536
O O14 0.492406 0.029126 0.404386
#
# Coordination Sequence:
#
# PCOD9345838 Si02
#       7
#     4   4   4   4   4   4   4
#     4  10  22  43  66  97 133 175 227 283 334 403
#     4  12  24  40  69  98 127 178 232 285 348 401
#     4  10  25  44  68  98 137 180 228 284 346 420
#     4  12  23  45  70 101 139 176 232 289 345 414
#     4  10  24  39  68  97 136 177 218 277 348 417
#     4  12  27  47  67  99 143 187 235 290 353 424
#     4  12  25  44  68 104 137 181 226 302 340 409
#
# _framework density 20.740234999999998
#
# number of rings (size 3 to 8) (size 9 to 14) (size 15 to 20)
#    0.857    0.000    1.429    6.000    4.000    2.286 
#    2.571    0.000    0.000    0.000    0.000    0.000 
#    0.000    0.000    0.000    0.000    0.000    0.000 
#
# Total GULP energy -156472.123045 kJ/mol
# GULP energy per Si atom -5588.290109 kJ/mol
# Density = 2.069303 g / cm^3
# Si number density = 20.740235 Si / 1000 Ang^3
#
#
#
# Elastic Constant Matrix: (Units=GPa)
#
#
# Indices 1 2 3 4 5 6 
#
# 1 89.6186 35.1924 -4.5444 0.0000 0.0000 0.0000
# 2 35.1924 85.7545 -9.3908 0.0000 0.0000 0.0000
# 3 -4.5444 -9.3908 52.1736 0.0000 0.0000 0.0000
# 4 0.0000 0.0000 0.0000 20.6292 0.0000 0.0000
# 5 0.0000 0.0000 0.0000 0.0000 35.4442 0.0000
# 6 0.0000 0.0000 0.0000 0.0000 0.0000 23.0166
#
#
#
# Elastic Compliance Matrix: (Units=1/GPa)
#
#
# Indices 1 2 3 4 5 6 
#
# 1 0.013304 -0.005440 0.000180 0.000000 0.000000 0.000000
# 2 -0.005440 0.014120 0.002068 0.000000 0.000000 0.000000
# 3 0.000180 0.002068 0.019555 0.000000 0.000000 0.000000
# 4 0.000000 0.000000 0.000000 0.048475 0.000000 0.000000
# 5 0.000000 0.000000 0.000000 0.000000 0.028213 0.000000
# 6 0.000000 0.000000 0.000000 0.000000 0.000000 0.043447
#
#
# Mechanical properties :
#
#
# Convention : Reuss Voigt Hill
#
# Bulk Modulus (GPa) = 24.63479 30.00682 27.32080
# Shear Modulus (GPa) = 26.73367 29.57063 28.15215
#
# Velocity S-wave (km/s) = 3.59413 3.78002 3.68825
# Velocity P-wave (km/s) = 5.39696 5.79230 5.59812
#
# Compressibility (1/GPa) = 0.04059300
#
# Stress axis : x y z
#
# Youngs Moduli (GPa) = 75.16681 70.82096 51.13891
#
# Poissons Ratio (x) = 0.38527 -0.00919
# Poissons Ratio (y) = 0.40891 -0.10574
# Poissons Ratio (z) = -0.01350 -0.14643
#
# Static dielectric constant tensor:
#      x y z
#    x 1.760930 0.000000 0.000000 
#    y 0.000000 1.705550 0.000000 
#    z 0.000000 0.000000 1.747800 
# 
# From -- ./inp_files/2254.got.cif
#   From: 2010.05.17/outbox.cif.g08.bks.cpg/sg33_2_cif.got.tgz:2254.got - 2010.06.03 17:15:25.
