data_PCOD9345016
_publ_section_title
;
Structure prediction by ZEFSAII (Michael W. Deem and Ramdas Pophale) SiO2 
 PCOD9345016
Probable space group: P N A 21
;
_chemical_formula_sum "Si O2"
_cell_formula_units_Z 24
_cell_length_a 18.676068
_cell_length_b 7.554250
_cell_length_c 6.826992
_cell_angle_alpha 90.000000
_cell_angle_beta 90.000000
_cell_angle_gamma 90.000000
_cell_volume 963.177200
_symmetry_space_group_name_H-M "P N A 21"
_symmetry_group_IT_number 33
_symmetry_cell_setting 'orthorhombic'
loop_
_space_group_symop_operation_xyz
x,y,z
-x,-y,1/2+z
1/2-x,1/2+y,1/2+z
1/2+x,1/2-y,z
loop_
_atom_site_type_symbol
_atom_site_label
_atom_site_fract_x
_atom_site_fract_y
_atom_site_fract_z
Si Si1 0.394135 0.313289 0.476070
Si Si2 0.218031 0.095323 0.835543
Si Si3 0.636513 0.060325 0.428750
Si Si4 0.315390 0.968763 0.506835
Si Si5 0.558375 0.718227 0.404778
Si Si6 0.450604 0.642489 0.095682
O O1 0.349647 0.477382 0.395276
O O2 0.389283 0.315230 0.716690
O O3 0.480166 0.316142 0.455984
O O4 0.357734 0.130432 0.408326
O O5 0.285256 0.021706 0.964754
O O6 0.246484 0.051745 0.617663
O O7 0.205814 0.299551 0.883152
O O8 0.636664 0.093287 0.193631
O O9 0.614703 0.237695 0.534122
O O10 0.577729 0.911428 0.476790
O O11 0.565044 0.562402 0.558799
O O12 0.480595 0.701043 0.305906
#
# Coordination Sequence:
#
# PCOD9345016 Si02
#       6
#     4   4   4   4   4   4
#     4   9  21  39  59  86 122 161 197 257 315 354
#     4  10  20  39  59  86 116 165 203 253 311 379
#     4   9  21  39  59  85 124 162 197 255 318 357
#     4   9  21  39  59  83 124 160 202 261 315 367
#     4   9  21  39  59  85 120 161 196 251 311 361
#     4  10  20  39  61  87 118 161 201 249 306 370
#
# _framework density 24.917532999999999
#
# number of rings (size 3 to 8) (size 9 to 14) (size 15 to 20)
#    2.000    0.667    0.000    1.000    0.000    5.333 
#    9.000    0.000    0.000    0.000    0.000    0.000 
#    0.000    0.000    0.000    0.000    0.000    0.000 
#
# Total GULP energy -134172.440225 kJ/mol
# GULP energy per Si atom -5590.518343 kJ/mol
# Density = 2.486082 g / cm^3
# Si number density = 24.917533 Si / 1000 Ang^3
#
#
#
# Elastic Constant Matrix: (Units=GPa)
#
#
# Indices 1 2 3 4 5 6 
#
# 1 82.6205 36.4375 12.1357 0.0000 0.0000 0.0000
# 2 36.4375 130.8712 32.1687 0.0000 0.0000 0.0000
# 3 12.1357 32.1687 73.8786 0.0000 0.0000 0.0000
# 4 0.0000 0.0000 0.0000 23.5980 0.0000 0.0000
# 5 0.0000 0.0000 0.0000 0.0000 29.9233 0.0000
# 6 0.0000 0.0000 0.0000 0.0000 0.0000 50.0657
#
#
#
# Elastic Compliance Matrix: (Units=1/GPa)
#
#
# Indices 1 2 3 4 5 6 
#
# 1 0.013827 -0.003686 -0.000666 0.000000 0.000000 0.000000
# 2 -0.003686 0.009540 -0.003548 0.000000 0.000000 0.000000
# 3 -0.000666 -0.003548 0.015190 0.000000 0.000000 0.000000
# 4 0.000000 0.000000 0.000000 0.042376 0.000000 0.000000
# 5 0.000000 0.000000 0.000000 0.000000 0.033419 0.000000
# 6 0.000000 0.000000 0.000000 0.000000 0.000000 0.019974
#
#
# Mechanical properties :
#
#
# Convention : Reuss Voigt Hill
#
# Bulk Modulus (GPa) = 43.94529 49.87268 46.90898
# Shear Modulus (GPa) = 31.70333 34.49262 33.09797
#
# Velocity S-wave (km/s) = 3.57084 3.72462 3.64854
# Velocity P-wave (km/s) = 5.88862 6.20931 6.05109
#
# Compressibility (1/GPa) = 0.02275557
#
# Stress axis : x y z
#
# Youngs Moduli (GPa) = 72.32224 104.82680 65.83192
#
# Poissons Ratio (x) = 0.38639 0.04387
# Poissons Ratio (y) = 0.26658 0.23359
# Poissons Ratio (z) = 0.04819 0.37196
#
# Static dielectric constant tensor:
#      x y z
#    x 1.992650 0.000000 0.000000 
#    y 0.000000 1.883640 0.000000 
#    z 0.000000 0.000000 2.018350 
# 
# From -- ./inp_files/7105.got.cif
#   From: 2010.05.17/outbox.cif.g08.bks.cpg/sg33_4_cif.got.tgz:7105.got - 2010.06.03 17:15:25.
