data_PCOD9345286
_publ_section_title
;
Structure prediction by ZEFSAII (Michael W. Deem and Ramdas Pophale) SiO2 
 PCOD9345286
Probable space group: P N A 21
;
_chemical_formula_sum "Si O2"
_cell_formula_units_Z 32
_cell_length_a 13.343901
_cell_length_b 18.552226
_cell_length_c 5.407170
_cell_angle_alpha 90.000000
_cell_angle_beta 90.000000
_cell_angle_gamma 90.000000
_cell_volume 1338.593961
_symmetry_space_group_name_H-M "P N A 21"
_symmetry_group_IT_number 33
_symmetry_cell_setting 'orthorhombic'
loop_
_space_group_symop_operation_xyz
x,y,z
-x,-y,1/2+z
1/2-x,1/2+y,1/2+z
1/2+x,1/2-y,z
loop_
_atom_site_type_symbol
_atom_site_label
_atom_site_fract_x
_atom_site_fract_y
_atom_site_fract_z
Si Si1 0.462349 0.039814 0.703350
Si Si2 0.955501 0.033267 0.329471
Si Si3 0.010823 0.831175 0.096077
Si Si4 0.805501 0.163366 0.905839
Si Si5 0.225223 0.460797 0.211324
Si Si6 0.685903 0.272911 0.560116
Si Si7 0.873862 0.283598 0.299251
Si Si8 0.942324 0.650124 0.886893
O O1 0.507203 0.117660 0.635916
O O2 0.495900 0.990760 0.463489
O O3 0.341455 0.032643 0.694292
O O4 0.834127 0.028620 0.331418
O O5 0.988406 0.116259 0.362666
O O6 0.002529 0.996992 0.573243
O O7 0.898715 0.820263 0.191493
O O8 0.090515 0.861537 0.286512
O O9 0.065085 0.757293 0.016382
O O10 0.736700 0.212335 0.730000
O O11 0.750284 0.089472 0.975620
O O12 0.836755 0.219891 0.120233
O O13 0.145249 0.407542 0.340516
O O14 0.772769 0.314655 0.417171
O O15 0.618413 0.224902 0.375262
O O16 0.959131 0.339226 0.211776
#
# Coordination Sequence:
#
# PCOD9345286 Si02
#       8
#     4   4   4   4   4   4   4   4
#     4  10  23  42  68 103 135 184 243 291 353 426
#     4  12  27  47  71 102 136 190 252 296 353 437
#     4  10  23  41  64  95 137 179 231 294 352 437
#     4  11  20  38  68  99 131 182 239 279 361 435
#     4  11  22  44  73  96 140 193 237 299 364 418
#     4  10  21  38  63  96 140 175 220 290 371 420
#     4  10  21  39  64 102 131 174 228 286 355 432
#     4  10  21  41  67  97 136 175 232 291 355 431
#
# _framework density 23.905678999999999
#
# number of rings (size 3 to 8) (size 9 to 14) (size 15 to 20)
#    0.000    1.500    2.500    2.250    1.750    4.000 
#    6.750    2.500    0.000    0.000    0.000    0.000 
#    0.000    0.000    0.000    0.000    0.000    0.000 
#
# Total GULP energy -178352.806113 kJ/mol
# GULP energy per Si atom -5573.525191 kJ/mol
# Density = 2.385127 g / cm^3
# Si number density = 23.905679 Si / 1000 Ang^3
#
#
#
# Elastic Constant Matrix: (Units=GPa)
#
#
# Indices 1 2 3 4 5 6 
#
# 1 222.2881 34.1895 38.3507 0.0000 0.0000 0.0000
# 2 34.1895 47.0618 8.8528 0.0000 0.0000 0.0000
# 3 38.3507 8.8528 62.9589 0.0000 0.0000 0.0000
# 4 0.0000 0.0000 0.0000 34.8661 0.0000 0.0000
# 5 0.0000 0.0000 0.0000 0.0000 23.7778 0.0000
# 6 0.0000 0.0000 0.0000 0.0000 0.0000 17.8834
#
#
#
# Elastic Compliance Matrix: (Units=1/GPa)
#
#
# Indices 1 2 3 4 5 6 
#
# 1 0.005530 -0.003476 -0.002880 0.000000 0.000000 0.000000
# 2 -0.003476 0.024011 -0.001259 0.000000 0.000000 0.000000
# 3 -0.002880 -0.001259 0.017815 0.000000 0.000000 0.000000
# 4 0.000000 0.000000 0.000000 0.028681 0.000000 0.000000
# 5 0.000000 0.000000 0.000000 0.000000 0.042056 0.000000
# 6 0.000000 0.000000 0.000000 0.000000 0.000000 0.055918
#
#
# Mechanical properties :
#
#
# Convention : Reuss Voigt Hill
#
# Bulk Modulus (GPa) = 31.12730 55.01051 43.06891
# Shear Modulus (GPa) = 25.00650 32.03320 28.51985
#
# Velocity S-wave (km/s) = 3.23778 3.66455 3.45775
# Velocity P-wave (km/s) = 5.19872 6.40052 5.83067
#
# Compressibility (1/GPa) = 0.03212614
#
# Stress axis : x y z
#
# Youngs Moduli (GPa) = 180.82784 41.64830 56.13358
#
# Poissons Ratio (x) = 0.14476 0.16166
# Poissons Ratio (y) = 0.62852 0.07067
# Poissons Ratio (z) = 0.52076 0.05243
#
# Static dielectric constant tensor:
#      x y z
#    x 1.959000 0.000000 0.000000 
#    y 0.000000 2.145350 0.000000 
#    z 0.000000 0.000000 1.977350 
# 
# From -- ./inp_files/1011.got.cif
#   From: 2010.05.17/outbox.cif.g08.bks.cpg/sg33_1_cif.got.tgz:1011.got - 2010.06.03 17:15:25.
