data_PCOD9345281
_publ_section_title
;
Structure prediction by ZEFSAII (Michael W. Deem and Ramdas Pophale) SiO2 
 PCOD9345281
Probable space group: P N A 21
;
_chemical_formula_sum "Si O2"
_cell_formula_units_Z 24
_cell_length_a 9.704209
_cell_length_b 16.783785
_cell_length_c 5.083821
_cell_angle_alpha 90.000000
_cell_angle_beta 90.000000
_cell_angle_gamma 90.000000
_cell_volume 828.018995
_symmetry_space_group_name_H-M "P N A 21"
_symmetry_group_IT_number 33
_symmetry_cell_setting 'orthorhombic'
loop_
_space_group_symop_operation_xyz
x,y,z
-x,-y,1/2+z
1/2-x,1/2+y,1/2+z
1/2+x,1/2-y,z
loop_
_atom_site_type_symbol
_atom_site_label
_atom_site_fract_x
_atom_site_fract_y
_atom_site_fract_z
Si Si1 0.152646 0.290286 0.240920
Si Si2 0.207355 0.011176 0.118870
Si Si3 0.145748 0.619144 0.260608
Si Si4 0.929198 0.872315 0.925445
Si Si5 0.147264 0.456410 0.126166
Si Si6 0.652011 0.707138 0.240478
O O1 0.068579 0.208254 0.249946
O O2 0.074788 0.373051 0.182072
O O3 0.230782 0.293707 0.517583
O O4 0.269609 0.292067 0.016260
O O5 0.070142 0.049874 0.240569
O O6 0.232537 0.964767 0.847610
O O7 0.043452 0.859356 0.150121
O O8 0.293199 0.092227 0.041662
O O9 0.065454 0.539513 0.168211
O O10 0.079740 0.705176 0.232233
O O11 0.283950 0.622197 0.080362
O O12 0.220161 0.461239 0.846797
#
# Coordination Sequence:
#
# PCOD9345281 Si02
#       6
#     4   4   4   4   4   4
#     4  11  22  38  58  93 117 157 213 263 302 380
#     4   9  17  35  56  80 113 162 190 244 321 372
#     4   8  19  38  56  83 116 162 194 247 318 371
#     4  10  21  38  62  85 124 158 207 265 309 368
#     4   9  18  34  61  77 118 158 197 249 321 370
#     4  11  23  35  63  88 120 159 213 254 313 377
#
# _framework density 28.984842
#
# number of rings (size 3 to 8) (size 9 to 14) (size 15 to 20)
#    1.000    1.333    1.667    1.000    2.333    0.000 
#    0.000   10.000    0.000   12.000    0.000    0.000 
#    0.000    0.000    0.000    0.000    0.000    0.000 
#
# Total GULP energy -134378.112436 kJ/mol
# GULP energy per Si atom -5599.088018 kJ/mol
# Density = 2.891887 g / cm^3
# Si number density = 28.984842 Si / 1000 Ang^3
#
#
#
# Elastic Constant Matrix: (Units=GPa)
#
#
# Indices 1 2 3 4 5 6 
#
# 1 105.6808 8.0937 46.1152 0.0000 0.0000 0.0000
# 2 8.0937 151.2633 16.5276 0.0000 0.0000 0.0000
# 3 46.1152 16.5276 183.9392 0.0000 0.0000 0.0000
# 4 0.0000 0.0000 0.0000 58.4890 0.0000 0.0000
# 5 0.0000 0.0000 0.0000 0.0000 26.0748 0.0000
# 6 0.0000 0.0000 0.0000 0.0000 0.0000 28.8647
#
#
#
# Elastic Compliance Matrix: (Units=1/GPa)
#
#
# Indices 1 2 3 4 5 6 
#
# 1 0.010637 -0.000281 -0.002641 0.000000 0.000000 0.000000
# 2 -0.000281 0.006684 -0.000530 0.000000 0.000000 0.000000
# 3 -0.002641 -0.000530 0.006146 0.000000 0.000000 0.000000
# 4 0.000000 0.000000 0.000000 0.017097 0.000000 0.000000
# 5 0.000000 0.000000 0.000000 0.000000 0.038351 0.000000
# 6 0.000000 0.000000 0.000000 0.000000 0.000000 0.034644
#
#
# Mechanical properties :
#
#
# Convention : Reuss Voigt Hill
#
# Bulk Modulus (GPa) = 60.37737 64.70626 62.54181
# Shear Modulus (GPa) = 39.68722 47.36215 43.52469
#
# Velocity S-wave (km/s) = 3.70434 4.04670 3.87930
# Velocity P-wave (km/s) = 6.25876 6.64884 6.45674
#
# Compressibility (1/GPa) = 0.01656250
#
# Stress axis : x y z
#
# Youngs Moduli (GPa) = 94.01514 149.61240 162.69514
#
# Poissons Ratio (x) = 0.04197 0.42976
# Poissons Ratio (y) = 0.02637 0.08627
# Poissons Ratio (z) = 0.24834 0.07933
#
# Static dielectric constant tensor:
#      x y z
#    x 2.266860 0.000000 0.000000 
#    y 0.000000 2.388820 0.000000 
#    z 0.000000 0.000000 2.255990 
# 
# From -- ./inp_files/1860.got.cif
#   From: 2010.05.17/outbox.cif.g08.bks.cpg/sg33_1_cif.got.tgz:1860.got - 2010.06.03 17:15:25.
