data_PCOD9345653
_publ_section_title
;
Structure prediction by ZEFSAII (Michael W. Deem and Ramdas Pophale) SiO2 
 PCOD9345653
Probable space group: P N A 21
;
_chemical_formula_sum "Si O2"
_cell_formula_units_Z 24
_cell_length_a 8.808763
_cell_length_b 19.332305
_cell_length_c 7.684633
_cell_angle_alpha 90.000000
_cell_angle_beta 90.000000
_cell_angle_gamma 90.000000
_cell_volume 1308.644533
_symmetry_space_group_name_H-M "P N A 21"
_symmetry_group_IT_number 33
_symmetry_cell_setting 'orthorhombic'
loop_
_space_group_symop_operation_xyz
x,y,z
-x,-y,1/2+z
1/2-x,1/2+y,1/2+z
1/2+x,1/2-y,z
loop_
_atom_site_type_symbol
_atom_site_label
_atom_site_fract_x
_atom_site_fract_y
_atom_site_fract_z
Si Si1 0.068236 0.918119 0.288680
Si Si2 0.432586 0.073396 0.166922
Si Si3 0.567428 0.426601 0.166907
Si Si4 0.431758 0.918117 0.288694
Si Si5 0.432138 0.173831 0.485619
Si Si6 0.567868 0.326168 0.485606
O O1 0.249997 0.912376 0.283053
O O2 0.010215 0.909258 0.484726
O O3 0.994846 0.863613 0.157402
O O4 0.025668 0.995601 0.225446
O O5 0.250008 0.075491 0.145783
O O6 0.474706 0.126421 0.319871
O O7 0.474337 0.995597 0.225457
O O8 0.510237 0.090742 0.984747
O O9 0.525305 0.373573 0.319847
O O10 0.505153 0.863608 0.157425
O O11 0.500004 0.249999 0.468799
O O12 0.250003 0.177047 0.493968
#
# Coordination Sequence:
#
# PCOD9345653 Si02
#       6
#     4   4   4   4   4   4
#     4  11  22  38  64  94 123 163 206 253 308 363
#     4  10  22  39  62  91 124 162 207 255 304 363
#     4  10  22  39  62  91 124 162 207 255 304 363
#     4  11  22  38  64  94 123 163 206 253 308 363
#     4  11  24  43  63  91 127 164 204 255 309 365
#     4  11  24  43  63  91 127 164 204 255 309 365
#
# _framework density 18.339586000000001
#
# number of rings (size 3 to 8) (size 9 to 14) (size 15 to 20)
#    0.000    1.333    3.333    2.000    0.000    5.333 
#    0.000    3.333    0.000    0.000    0.000    0.000 
#    0.000    0.000    0.000    0.000    0.000    0.000 
#
# Total GULP energy -134195.494983 kJ/mol
# GULP energy per Si atom -5591.478958 kJ/mol
# Density = 1.829784 g / cm^3
# Si number density = 18.339586 Si / 1000 Ang^3
#
#
#
# Elastic Constant Matrix: (Units=GPa)
#
#
# Indices 1 2 3 4 5 6 
#
# 1 36.5007 31.3238 38.6508 0.0000 0.0000 0.0000
# 2 31.3238 111.0120 35.5989 0.0000 0.0000 0.0000
# 3 38.6508 35.5989 133.2386 0.0000 0.0000 0.0000
# 4 0.0000 0.0000 0.0000 33.8040 0.0000 0.0000
# 5 0.0000 0.0000 0.0000 0.0000 37.7557 0.0000
# 6 0.0000 0.0000 0.0000 0.0000 0.0000 24.3610
#
#
#
# Elastic Compliance Matrix: (Units=1/GPa)
#
#
# Indices 1 2 3 4 5 6 
#
# 1 0.047744 -0.009877 -0.011211 0.000000 0.000000 0.000000
# 2 -0.009877 0.011895 -0.000313 0.000000 0.000000 0.000000
# 3 -0.011211 -0.000313 0.010841 0.000000 0.000000 0.000000
# 4 0.000000 0.000000 0.000000 0.029582 0.000000 0.000000
# 5 0.000000 0.000000 0.000000 0.000000 0.026486 0.000000
# 6 0.000000 0.000000 0.000000 0.000000 0.000000 0.041049
#
#
# Mechanical properties :
#
#
# Convention : Reuss Voigt Hill
#
# Bulk Modulus (GPa) = 36.12864 54.65535 45.39199
# Shear Modulus (GPa) = 22.76597 30.86266 26.81431
#
# Velocity S-wave (km/s) = 3.52711 4.10670 3.82789
# Velocity P-wave (km/s) = 6.02743 7.23555 6.65895
#
# Compressibility (1/GPa) = 0.02767887
#
# Stress axis : x y z
#
# Youngs Moduli (GPa) = 20.94502 84.06683 92.24091
#
# Poissons Ratio (x) = 0.83030 1.03412
# Poissons Ratio (y) = 0.20687 0.02888
# Poissons Ratio (z) = 0.23482 0.02632
#
# Static dielectric constant tensor:
#      x y z
#    x 1.612440 0.000000 0.000000 
#    y 0.000000 1.605430 0.000000 
#    z 0.000000 0.000000 1.591600 
# 
# From -- ./inp_files/391.got.cif
#   From: 2010.05.17/outbox.cif.g08.bks.cpg/sg33_1_cif.got.tgz:391.got - 2010.06.03 17:15:25.
