data_PCOD9345576
_publ_section_title
;
Structure prediction by ZEFSAII (Michael W. Deem and Ramdas Pophale) SiO2 
 PCOD9345576
Probable space group: P N A 21
;
_chemical_formula_sum "Si O2"
_cell_formula_units_Z 28
_cell_length_a 9.543079
_cell_length_b 12.514608
_cell_length_c 10.031056
_cell_angle_alpha 90.000000
_cell_angle_beta 90.000000
_cell_angle_gamma 90.000000
_cell_volume 1197.987881
_symmetry_space_group_name_H-M "P N A 21"
_symmetry_group_IT_number 33
_symmetry_cell_setting 'orthorhombic'
loop_
_space_group_symop_operation_xyz
x,y,z
-x,-y,1/2+z
1/2-x,1/2+y,1/2+z
1/2+x,1/2-y,z
loop_
_atom_site_type_symbol
_atom_site_label
_atom_site_fract_x
_atom_site_fract_y
_atom_site_fract_z
Si Si1 0.827841 0.197215 0.771630
Si Si2 0.985050 0.840200 0.826689
Si Si3 0.422591 0.888727 0.770072
Si Si4 0.118502 0.119494 0.692838
Si Si5 0.267410 0.033008 0.217728
Si Si6 0.170401 0.889745 0.573211
Si Si7 0.191364 0.989455 0.934559
O O1 0.749362 0.302808 0.719488
O O2 0.976695 0.187628 0.696737
O O3 0.736427 0.094309 0.730345
O O4 0.840320 0.173349 0.932779
O O5 0.065588 0.840266 0.683655
O O6 0.102470 0.880147 0.930344
O O7 0.931543 0.721801 0.849490
O O8 0.847355 0.912780 0.811911
O O9 0.578268 0.924590 0.738170
O O10 0.325293 0.877046 0.638620
O O11 0.340056 0.969915 0.865278
O O12 0.139079 0.019758 0.588888
O O13 0.101303 0.056273 0.831395
O O14 0.210725 0.051016 0.069474
#
# Coordination Sequence:
#
# PCOD9345576 Si02
#       7
#     4   4   4   4   4   4   4
#     4  12  26  44  74  98 140 195 227 299 369 427
#     4  10  21  45  69  96 127 180 227 283 360 416
#     4  10  24  42  68 101 128 176 237 285 351 421
#     4  10  25  45  69 102 140 180 244 284 371 422
#     4  12  24  42  69  98 133 180 226 278 365 419
#     4  10  24  45  68 103 144 172 235 306 341 443
#     4  10  24  47  61  98 144 163 230 301 331 440
#
# _framework density 23.372523000000001
#
# number of rings (size 3 to 8) (size 9 to 14) (size 15 to 20)
#    0.000    1.714    2.857    2.571   12.000    0.000 
#    7.714    0.000    0.000    0.000    0.000    0.000 
#    0.000    0.000    0.000    0.000    0.000    0.000 
#
# Total GULP energy -156319.707032 kJ/mol
# GULP energy per Si atom -5582.846680 kJ/mol
# Density = 2.331933 g / cm^3
# Si number density = 23.372523 Si / 1000 Ang^3
#
#
#
# Elastic Constant Matrix: (Units=GPa)
#
#
# Indices 1 2 3 4 5 6 
#
# 1 144.4139 16.5056 22.1934 0.0000 0.0000 0.0000
# 2 16.5056 54.8626 -26.1010 0.0000 0.0000 0.0000
# 3 22.1934 -26.1010 86.1546 0.0000 0.0000 0.0000
# 4 0.0000 0.0000 0.0000 176.3855 0.0000 0.0000
# 5 0.0000 0.0000 0.0000 0.0000 18.1722 0.0000
# 6 0.0000 0.0000 0.0000 0.0000 0.0000 43.8553
#
#
#
# Elastic Compliance Matrix: (Units=1/GPa)
#
#
# Indices 1 2 3 4 5 6 
#
# 1 0.007861 -0.003889 -0.003203 0.000000 0.000000 0.000000
# 2 -0.003889 0.023221 0.008037 0.000000 0.000000 0.000000
# 3 -0.003203 0.008037 0.014867 0.000000 0.000000 0.000000
# 4 0.000000 0.000000 0.000000 0.005669 0.000000 0.000000
# 5 0.000000 0.000000 0.000000 0.000000 0.055029 0.000000
# 6 0.000000 0.000000 0.000000 0.000000 0.000000 0.022802
#
#
# Mechanical properties :
#
#
# Convention : Reuss Voigt Hill
#
# Bulk Modulus (GPa) = 20.90396 34.51412 27.70904
# Shear Modulus (GPa) = 34.84146 65.87147 50.35647
#
# Velocity S-wave (km/s) = 3.86515 5.31455 4.64671
# Velocity P-wave (km/s) = 5.37424 7.24281 6.37733
#
# Compressibility (1/GPa) = 0.04783782
#
# Stress axis : x y z
#
# Youngs Moduli (GPa) = 127.20524 43.06475 67.26325
#
# Poissons Ratio (x) = 0.16748 0.21546
# Poissons Ratio (y) = 0.49471 -0.54057
# Poissons Ratio (z) = 0.40747 -0.34610
#
# Static dielectric constant tensor:
#      x y z
#    x 1.844330 0.000000 0.000000 
#    y 0.000000 1.904470 0.000000 
#    z 0.000000 0.000000 1.993670 
# 
# From -- ./inp_files/5859.got.cif
#   From: 2010.05.17/outbox.cif.g08.bks.cpg/sg33_3_cif.got.tgz:5859.got - 2010.06.03 17:15:25.
