data_PCOD9345507
_publ_section_title
;
Structure prediction by ZEFSAII (Michael W. Deem and Ramdas Pophale) SiO2 
 PCOD9345507
Probable space group: P N A 21
;
_chemical_formula_sum "Si O2"
_cell_formula_units_Z 28
_cell_length_a 16.241938
_cell_length_b 7.992830
_cell_length_c 7.816496
_cell_angle_alpha 90.000000
_cell_angle_beta 90.000000
_cell_angle_gamma 90.000000
_cell_volume 1014.730080
_symmetry_space_group_name_H-M "P N A 21"
_symmetry_group_IT_number 33
_symmetry_cell_setting 'orthorhombic'
loop_
_space_group_symop_operation_xyz
x,y,z
-x,-y,1/2+z
1/2-x,1/2+y,1/2+z
1/2+x,1/2-y,z
loop_
_atom_site_type_symbol
_atom_site_label
_atom_site_fract_x
_atom_site_fract_y
_atom_site_fract_z
Si Si1 0.149662 0.520947 0.508540
Si Si2 0.242785 0.084967 0.678991
Si Si3 0.084255 0.976311 0.845388
Si Si4 0.512570 0.818058 0.316629
Si Si5 0.800550 0.030718 0.684628
Si Si6 0.605332 0.014905 0.034946
Si Si7 0.920521 0.781706 0.832413
O O1 0.207477 0.511083 0.340472
O O2 0.217298 0.573214 0.645511
O O3 0.105357 0.339282 0.490312
O O4 0.078838 0.652680 0.467808
O O5 0.152800 0.009726 0.700643
O O6 0.260449 0.283777 0.700391
O O7 0.298475 0.023206 0.521752
O O8 0.027049 0.139633 0.829242
O O9 0.015589 0.833649 0.836793
O O10 0.137248 0.965133 0.020050
O O11 0.439755 0.949490 0.358089
O O12 0.561381 0.871429 0.147546
O O13 0.858328 0.938554 0.821244
O O14 0.593100 0.178187 0.155686
#
# Coordination Sequence:
#
# PCOD9345507 Si02
#       7
#     4   4   4   4   4   4   4
#     4   9  23  43  61  96 129 172 225 269 345 401
#     4   9  22  41  59  90 131 174 209 279 333 398
#     4  11  23  41  67  99 130 177 228 278 341 403
#     4  10  21  42  67  95 130 173 220 279 332 408
#     4  11  22  43  66  90 137 170 220 285 339 406
#     4  10  22  43  65  95 134 174 229 274 347 402
#     4  10  21  43  65  95 129 170 231 282 327 416
#
# _framework density 27.593546
#
# number of rings (size 3 to 8) (size 9 to 14) (size 15 to 20)
#    0.000    2.286    1.429    1.714    6.000    1.143 
#   10.286    0.000    0.000    0.000    0.000    0.000 
#    0.000    0.000    0.000    0.000    0.000    0.000 
#
# Total GULP energy -156726.187929 kJ/mol
# GULP energy per Si atom -5597.363855 kJ/mol
# Density = 2.753074 g / cm^3
# Si number density = 27.593546 Si / 1000 Ang^3
#
#
#
# Elastic Constant Matrix: (Units=GPa)
#
#
# Indices 1 2 3 4 5 6 
#
# 1 251.4956 70.3680 46.0122 0.0000 0.0000 0.0000
# 2 70.3680 122.1711 25.4188 0.0000 0.0000 0.0000
# 3 46.0122 25.4188 102.1927 0.0000 0.0000 0.0000
# 4 0.0000 0.0000 0.0000 23.9047 0.0000 0.0000
# 5 0.0000 0.0000 0.0000 0.0000 36.0654 0.0000
# 6 0.0000 0.0000 0.0000 0.0000 0.0000 37.7330
#
#
#
# Elastic Compliance Matrix: (Units=1/GPa)
#
#
# Indices 1 2 3 4 5 6 
#
# 1 0.004980 -0.002533 -0.001612 0.000000 0.000000 0.000000
# 2 -0.002533 0.009920 -0.001327 0.000000 0.000000 0.000000
# 3 -0.001612 -0.001327 0.010841 0.000000 0.000000 0.000000
# 4 0.000000 0.000000 0.000000 0.041833 0.000000 0.000000
# 5 0.000000 0.000000 0.000000 0.000000 0.027727 0.000000
# 6 0.000000 0.000000 0.000000 0.000000 0.000000 0.026502
#
#
# Mechanical properties :
#
#
# Convention : Reuss Voigt Hill
#
# Bulk Modulus (GPa) = 67.58005 84.38415 75.98210
# Shear Modulus (GPa) = 36.31600 41.81131 39.06366
#
# Velocity S-wave (km/s) = 3.63175 3.89685 3.76664
# Velocity P-wave (km/s) = 6.49081 7.13406 6.82002
#
# Compressibility (1/GPa) = 0.01479727
#
# Stress axis : x y z
#
# Youngs Moduli (GPa) = 200.80901 100.80409 92.23894
#
# Poissons Ratio (x) = 0.25532 0.14870
# Poissons Ratio (y) = 0.50862 0.12241
# Poissons Ratio (z) = 0.32374 0.13378
#
# Static dielectric constant tensor:
#      x y z
#    x 2.159200 0.000000 0.000000 
#    y 0.000000 2.201100 0.000000 
#    z 0.000000 0.000000 2.257620 
# 
# From -- ./inp_files/6735.got.cif
#   From: 2010.05.17/outbox.cif.g08.bks.cpg/sg33_4_cif.got.tgz:6735.got - 2010.06.03 17:15:25.
