data_PCOD9345132
_publ_section_title
;
Structure prediction by ZEFSAII (Michael W. Deem and Ramdas Pophale) SiO2 
 PCOD9345132
Probable space group: P N A 21
;
_chemical_formula_sum "Si O2"
_cell_formula_units_Z 32
_cell_length_a 10.150108
_cell_length_b 23.146132
_cell_length_c 6.668229
_cell_angle_alpha 90.000000
_cell_angle_beta 90.000000
_cell_angle_gamma 90.000000
_cell_volume 1566.605312
_symmetry_space_group_name_H-M "P N A 21"
_symmetry_group_IT_number 33
_symmetry_cell_setting 'orthorhombic'
loop_
_space_group_symop_operation_xyz
x,y,z
-x,-y,1/2+z
1/2-x,1/2+y,1/2+z
1/2+x,1/2-y,z
loop_
_atom_site_type_symbol
_atom_site_label
_atom_site_fract_x
_atom_site_fract_y
_atom_site_fract_z
Si Si1 0.234145 0.664106 0.651680
Si Si2 0.473853 0.340162 0.315130
Si Si3 0.384540 0.968894 0.511997
Si Si4 0.502552 0.783307 0.911686
Si Si5 0.214432 0.936687 0.901572
Si Si6 0.733302 0.213993 0.068658
Si Si7 0.825506 0.465731 0.143936
Si Si8 0.875442 0.637290 0.220752
O O1 0.381399 0.653597 0.727386
O O2 0.134584 0.690817 0.815120
O O3 0.243983 0.719319 0.506971
O O4 0.181318 0.601556 0.593519
O O5 0.483376 0.284709 0.463709
O O6 0.422274 0.403176 0.376402
O O7 0.363217 0.315277 0.162707
O O8 0.292429 0.947461 0.693767
O O9 0.527502 0.987777 0.588815
O O10 0.413746 0.915459 0.364146
O O11 0.315959 0.018792 0.379567
O O12 0.384598 0.787793 0.739976
O O13 0.476144 0.822368 0.103772
O O14 0.293348 0.892133 0.042621
O O15 0.220268 0.997068 0.019944
O O16 0.699574 0.178892 0.872049
#
# Coordination Sequence:
#
# PCOD9345132 Si02
#       8
#     4   4   4   4   4   4   4   4
#     4  10  23  41  64  95 136 167 210 272 326 381
#     4  10  21  44  61  89 138 174 197 265 333 383
#     4  11  22  39  69  95 121 160 222 276 313 371
#     4  10  21  40  68  95 129 166 217 272 311 384
#     4  11  22  41  64  88 129 166 213 264 317 384
#     4  10  20  42  68  93 131 169 210 265 326 390
#     4  11  23  40  64  95 122 166 219 267 319 374
#     4  11  20  37  72  98 120 166 216 263 319 381
#
# _framework density 20.426331000000001
#
# number of rings (size 3 to 8) (size 9 to 14) (size 15 to 20)
#    0.000    1.500    3.750    1.500    1.750    0.000 
#   11.250    2.500    0.000    0.000    0.000    0.000 
#    0.000    0.000    0.000    0.000    0.000    0.000 
#
# Total GULP energy -178374.681559 kJ/mol
# GULP energy per Si atom -5574.208799 kJ/mol
# Density = 2.037984 g / cm^3
# Si number density = 20.426331 Si / 1000 Ang^3
#
#
#
# Elastic Constant Matrix: (Units=GPa)
#
#
# Indices 1 2 3 4 5 6 
#
# 1 82.3107 -2.8315 8.7322 0.0000 0.0000 0.0000
# 2 -2.8315 101.1298 16.7547 0.0000 0.0000 0.0000
# 3 8.7322 16.7547 68.2759 0.0000 0.0000 0.0000
# 4 0.0000 0.0000 0.0000 25.3646 0.0000 0.0000
# 5 0.0000 0.0000 0.0000 0.0000 12.3122 0.0000
# 6 0.0000 0.0000 0.0000 0.0000 0.0000 36.9232
#
#
#
# Elastic Compliance Matrix: (Units=1/GPa)
#
#
# Indices 1 2 3 4 5 6 
#
# 1 0.012355 0.000633 -0.001736 0.000000 0.000000 0.000000
# 2 0.000633 0.010340 -0.002618 0.000000 0.000000 0.000000
# 3 -0.001736 -0.002618 0.015511 0.000000 0.000000 0.000000
# 4 0.000000 0.000000 0.000000 0.039425 0.000000 0.000000
# 5 0.000000 0.000000 0.000000 0.000000 0.081220 0.000000
# 6 0.000000 0.000000 0.000000 0.000000 0.000000 0.027083
#
#
# Mechanical properties :
#
#
# Convention : Reuss Voigt Hill
#
# Bulk Modulus (GPa) = 32.50470 33.00302 32.75386
# Shear Modulus (GPa) = 24.55430 30.19073 27.37252
#
# Velocity S-wave (km/s) = 3.47088 3.84869 3.66465
# Velocity P-wave (km/s) = 5.65777 5.99517 5.82891
#
# Compressibility (1/GPa) = 0.03076478
#
# Stress axis : x y z
#
# Youngs Moduli (GPa) = 80.93889 96.71345 64.47043
#
# Poissons Ratio (x) = -0.06126 0.11190
# Poissons Ratio (y) = -0.05127 0.16881
# Poissons Ratio (z) = 0.14048 0.25323
#
# Static dielectric constant tensor:
#      x y z
#    x 1.743700 0.000000 0.000000 
#    y 0.000000 1.776500 0.000000 
#    z 0.000000 0.000000 1.752320 
# 
# From -- ./inp_files/1128.got.cif
#   From: 2010.05.17/outbox.cif.g08.bks.cpg/sg33_1_cif.got.tgz:1128.got - 2010.06.03 17:15:25.
