data_PCOD9345487
_publ_section_title
;
Structure prediction by ZEFSAII (Michael W. Deem and Ramdas Pophale) SiO2 
 PCOD9345487
Probable space group: P N A 21
;
_chemical_formula_sum "Si O2"
_cell_formula_units_Z 32
_cell_length_a 17.958061
_cell_length_b 6.127771
_cell_length_c 12.533579
_cell_angle_alpha 90.000000
_cell_angle_beta 90.000000
_cell_angle_gamma 90.000000
_cell_volume 1379.231198
_symmetry_space_group_name_H-M "P N A 21"
_symmetry_group_IT_number 33
_symmetry_cell_setting 'orthorhombic'
loop_
_space_group_symop_operation_xyz
x,y,z
-x,-y,1/2+z
1/2-x,1/2+y,1/2+z
1/2+x,1/2-y,z
loop_
_atom_site_type_symbol
_atom_site_label
_atom_site_fract_x
_atom_site_fract_y
_atom_site_fract_z
Si Si1 0.297636 0.852288 0.694830
Si Si2 0.042836 0.344609 0.649941
Si Si3 0.456462 0.475774 0.518379
Si Si4 0.296251 0.700739 0.075788
Si Si5 0.208570 0.949513 0.355796
Si Si6 0.459209 0.385252 0.840436
Si Si7 0.459072 0.772779 0.717714
Si Si8 0.201716 0.096209 0.975247
O O1 0.270891 0.653975 0.775484
O O2 0.382242 0.903943 0.731183
O O3 0.305758 0.754117 0.576588
O O4 0.248642 0.065409 0.666656
O O5 0.126225 0.279512 0.624423
O O6 0.011931 0.241916 0.759994
O O7 0.027400 0.595488 0.671805
O O8 0.991330 0.254195 0.553605
O O9 0.514197 0.638938 0.460791
O O10 0.441386 0.582665 0.633736
O O11 0.378840 0.487514 0.454783
O O12 0.308475 0.548591 0.972798
O O13 0.253716 0.904897 0.021982
O O14 0.128112 0.859272 0.320349
O O15 0.265101 0.750181 0.381795
O O16 0.476206 0.644087 0.824635
#
# Coordination Sequence:
#
# PCOD9345487 Si02
#       8
#     4   4   4   4   4   4   4   4
#     4   9  21  42  62  90 135 174 221 272 350 411
#     4  11  23  38  63  93 129 169 219 272 335 396
#     4  10  21  42  61  88 129 168 212 275 322 392
#     4  11  23  39  64  98 130 175 222 292 336 403
#     4  10  22  42  66  94 129 179 226 279 341 414
#     4  10  22  39  62  89 129 168 218 272 327 396
#     4   9  21  39  62  90 122 172 214 263 332 398
#     4  10  23  39  66  96 129 173 226 283 339 404
#
# _framework density 23.201331
#
# number of rings (size 3 to 8) (size 9 to 14) (size 15 to 20)
#    0.000    2.000    1.250    1.500    1.750    7.000 
#    0.000    0.000    0.000    0.000    0.000    0.000 
#    0.000    0.000    0.000    0.000    0.000    0.000 
#
# Total GULP energy -178373.082103 kJ/mol
# GULP energy per Si atom -5574.158816 kJ/mol
# Density = 2.314852 g / cm^3
# Si number density = 23.201331 Si / 1000 Ang^3
#
#
#
# Elastic Constant Matrix: (Units=GPa)
#
#
# Indices 1 2 3 4 5 6 
#
# 1 76.8104 17.2904 -11.6123 0.0000 0.0000 0.0000
# 2 17.2904 47.7401 -0.5688 0.0000 0.0000 0.0000
# 3 -11.6123 -0.5688 79.4108 0.0000 0.0000 0.0000
# 4 0.0000 0.0000 0.0000 41.3987 0.0000 0.0000
# 5 0.0000 0.0000 0.0000 0.0000 29.4702 0.0000
# 6 0.0000 0.0000 0.0000 0.0000 0.0000 15.2439
#
#
#
# Elastic Compliance Matrix: (Units=1/GPa)
#
#
# Indices 1 2 3 4 5 6 
#
# 1 0.014512 -0.005231 0.002085 0.000000 0.000000 0.000000
# 2 -0.005231 0.022834 -0.000601 0.000000 0.000000 0.000000
# 3 0.002085 -0.000601 0.012893 0.000000 0.000000 0.000000
# 4 0.000000 0.000000 0.000000 0.024155 0.000000 0.000000
# 5 0.000000 0.000000 0.000000 0.000000 0.033933 0.000000
# 6 0.000000 0.000000 0.000000 0.000000 0.000000 0.065600
#
#
# Mechanical properties :
#
#
# Convention : Reuss Voigt Hill
#
# Bulk Modulus (GPa) = 23.39530 23.79776 23.59653
# Shear Modulus (GPa) = 25.55317 30.47937 28.01627
#
# Velocity S-wave (km/s) = 3.32228 3.62842 3.47872
# Velocity P-wave (km/s) = 4.98219 5.27572 5.13106
#
# Compressibility (1/GPa) = 0.04274362
#
# Stress axis : x y z
#
# Youngs Moduli (GPa) = 68.90974 43.79410 77.55985
#
# Poissons Ratio (x) = 0.22909 -0.16168
# Poissons Ratio (y) = 0.36047 0.04664
# Poissons Ratio (z) = -0.14365 0.02634
#
# Static dielectric constant tensor:
#      x y z
#    x 1.901630 0.000000 0.000000 
#    y 0.000000 1.975980 0.000000 
#    z 0.000000 0.000000 1.912990 
# 
# From -- ./inp_files/8243.got.cif
#   From: 2010.05.17/outbox.cif.g08.bks.cpg/sg33_5_cif.got.tgz:8243.got - 2010.06.03 17:15:25.
