data_PCOD9345205
_publ_section_title
;
Structure prediction by ZEFSAII (Michael W. Deem and Ramdas Pophale) SiO2 
 PCOD9345205
Probable space group: P N A 21
;
_chemical_formula_sum "Si O2"
_cell_formula_units_Z 24
_cell_length_a 24.702228
_cell_length_b 5.064837
_cell_length_c 7.500582
_cell_angle_alpha 90.000000
_cell_angle_beta 90.000000
_cell_angle_gamma 90.000000
_cell_volume 938.418503
_symmetry_space_group_name_H-M "P N A 21"
_symmetry_group_IT_number 33
_symmetry_cell_setting 'orthorhombic'
loop_
_space_group_symop_operation_xyz
x,y,z
-x,-y,1/2+z
1/2-x,1/2+y,1/2+z
1/2+x,1/2-y,z
loop_
_atom_site_type_symbol
_atom_site_label
_atom_site_fract_x
_atom_site_fract_y
_atom_site_fract_z
Si Si1 0.952801 0.473648 0.959500
Si Si2 0.552883 0.716745 0.818839
Si Si3 0.301168 0.764795 0.715377
Si Si4 0.632633 0.719926 0.267715
Si Si5 0.386140 0.792773 0.258844
Si Si6 0.697500 0.504407 0.573471
O O1 0.928373 0.323082 0.787802
O O2 0.002741 0.662146 0.922538
O O3 0.964799 0.261405 0.112924
O O4 0.906890 0.655473 0.054470
O O5 0.603215 0.922653 0.845967
O O6 0.573056 0.421330 0.842833
O O7 0.330162 0.043409 0.704186
O O8 0.245263 0.795074 0.613521
O O9 0.346029 0.542000 0.670156
O O10 0.284770 0.695369 0.918384
O O11 0.649522 0.662869 0.474885
O O12 0.327472 0.661794 0.236722
#
# Coordination Sequence:
#
# PCOD9345205 Si02
#       6
#     4   4   4   4   4   4
#     4  10  21  40  63  86 125 164 203 255 308 383
#     4  10  22  34  64  89 117 162 211 244 309 370
#     4  10  22  33  65  85 120 152 217 244 315 369
#     4  10  21  37  61  86 115 167 198 251 312 377
#     4  10  21  36  62  85 121 163 202 246 319 374
#     4  10  21  40  61  89 118 166 203 260 309 385
#
# _framework density 25.574942
#
# number of rings (size 3 to 8) (size 9 to 14) (size 15 to 20)
#    2.000    0.000    3.333    0.000    4.667    0.000 
#    0.000    1.667    0.000    0.000    0.000    0.000 
#    0.000    0.000    0.000    0.000    0.000    0.000 
#
# Total GULP energy -133999.448408 kJ/mol
# GULP energy per Si atom -5583.310350 kJ/mol
# Density = 2.551673 g / cm^3
# Si number density = 25.574942 Si / 1000 Ang^3
#
#
#
# Elastic Constant Matrix: (Units=GPa)
#
#
# Indices 1 2 3 4 5 6 
#
# 1 51.8078 3.2697 42.6364 0.0000 0.0000 0.0000
# 2 3.2697 129.5735 -5.3741 0.0000 0.0000 0.0000
# 3 42.6364 -5.3741 27.8887 0.0000 0.0000 0.0000
# 4 0.0000 0.0000 0.0000 1.0124 0.0000 0.0000
# 5 0.0000 0.0000 0.0000 0.0000 38.7906 0.0000
# 6 0.0000 0.0000 0.0000 0.0000 0.0000 38.2953
#
#
#
# Elastic Compliance Matrix: (Units=1/GPa)
#
#
# Indices 1 2 3 4 5 6 
#
# 1 -0.069439 0.006205 0.107354 0.000000 0.000000 0.000000
# 2 0.006205 0.007225 -0.008094 0.000000 0.000000 0.000000
# 3 0.107354 -0.008094 -0.129827 0.000000 0.000000 0.000000
# 4 0.000000 0.000000 0.000000 0.987733 0.000000 0.000000
# 5 0.000000 0.000000 0.000000 0.000000 0.025779 0.000000
# 6 0.000000 0.000000 0.000000 0.000000 0.000000 0.026113
#
#
# Mechanical properties :
#
#
# Convention : Reuss Voigt Hill
#
# Bulk Modulus (GPa) = 52.93564 32.25932 42.59748
# Shear Modulus (GPa) = 7.77664 26.86887 17.32276
#
# Velocity S-wave (km/s) = 1.74566 3.24480 2.60539
# Velocity P-wave (km/s) = 4.98059 5.16521 5.07374
#
# Compressibility (1/GPa) = 0.01889086
#
# Stress axis : x y z
#
# Youngs Moduli (GPa) = -14.40110 138.40118 -7.70258
#
# Poissons Ratio (x) = -0.85875 0.82691
# Poissons Ratio (y) = 0.08936 -0.06234
# Poissons Ratio (z) = 1.54602 1.12016
#
# Static dielectric constant tensor:
#      x y z
#    x 2.054160 0.000000 0.000000 
#    y 0.000000 1.980420 0.000000 
#    z 0.000000 0.000000 2.096630 
# 
# From -- ./inp_files/5230.got.cif
#   From: 2010.05.17/outbox.cif.g08.bks.cpg/sg33_3_cif.got.tgz:5230.got - 2010.06.03 17:15:25.
