data_PCOD9345771
_publ_section_title
;
Structure prediction by ZEFSAII (Michael W. Deem and Ramdas Pophale) SiO2 
 PCOD9345771
Probable space group: P N A 21
;
_chemical_formula_sum "Si O2"
_cell_formula_units_Z 20
_cell_length_a 17.952636
_cell_length_b 5.445219
_cell_length_c 7.887680
_cell_angle_alpha 90.000000
_cell_angle_beta 90.000000
_cell_angle_gamma 90.000000
_cell_volume 771.068319
_symmetry_space_group_name_H-M "P N A 21"
_symmetry_group_IT_number 33
_symmetry_cell_setting 'orthorhombic'
loop_
_space_group_symop_operation_xyz
x,y,z
-x,-y,1/2+z
1/2-x,1/2+y,1/2+z
1/2+x,1/2-y,z
loop_
_atom_site_type_symbol
_atom_site_label
_atom_site_fract_x
_atom_site_fract_y
_atom_site_fract_z
Si Si1 0.237184 0.585701 0.853540
Si Si2 0.128490 0.808229 0.286331
Si Si3 0.994839 0.150386 0.218864
Si Si4 0.658408 0.548978 0.626529
Si Si5 0.417031 0.968445 0.474146
O O1 0.296520 0.451130 0.733365
O O2 0.204698 0.832060 0.776502
O O3 0.289423 0.625059 0.017214
O O4 0.164755 0.419565 0.895434
O O5 0.063579 0.008430 0.297120
O O6 0.143830 0.735485 0.482044
O O7 0.104438 0.615348 0.146906
O O8 0.029930 0.257642 0.045525
O O9 0.923673 0.975947 0.184643
O O10 0.962043 0.360634 0.342301
#
# Coordination Sequence:
#
# PCOD9345771 Si02
#       5
#     4   4   4   4   4
#     4   9  21  42  61  97 132 172 232 272 341 417
#     4  10  22  42  63  96 129 175 224 281 339 410
#     4  11  22  41  66  99 138 173 234 279 341 416
#     4   9  20  41  63  93 134 176 223 283 342 405
#     4  11  23  42  67  97 133 180 223 283 343 414
#
# _framework density 25.938037999999999
#
# number of rings (size 3 to 8) (size 9 to 14) (size 15 to 20)
#    1.200    0.800    0.000    3.600    0.000    0.000 
#   18.000    2.000    0.000    0.000    0.000    0.000 
#    0.000    0.000    0.000    0.000    0.000    0.000 
#
# Total GULP energy -111788.937673 kJ/mol
# GULP energy per Si atom -5589.446884 kJ/mol
# Density = 2.587900 g / cm^3
# Si number density = 25.938038 Si / 1000 Ang^3
#
#
#
# Elastic Constant Matrix: (Units=GPa)
#
#
# Indices 1 2 3 4 5 6 
#
# 1 228.1217 51.2510 65.0680 0.0000 0.0000 0.0000
# 2 51.2510 35.8327 22.9189 0.0000 0.0000 0.0000
# 3 65.0680 22.9189 105.2651 0.0000 0.0000 0.0000
# 4 0.0000 0.0000 0.0000 35.2493 0.0000 0.0000
# 5 0.0000 0.0000 0.0000 0.0000 67.9044 0.0000
# 6 0.0000 0.0000 0.0000 0.0000 0.0000 35.4155
#
#
#
# Elastic Compliance Matrix: (Units=1/GPa)
#
#
# Indices 1 2 3 4 5 6 
#
# 1 0.006978 -0.008390 -0.002487 0.000000 0.000000 0.000000
# 2 -0.008390 0.042510 -0.004070 0.000000 0.000000 0.000000
# 3 -0.002487 -0.004070 0.011923 0.000000 0.000000 0.000000
# 4 0.000000 0.000000 0.000000 0.028369 0.000000 0.000000
# 5 0.000000 0.000000 0.000000 0.000000 0.014727 0.000000
# 6 0.000000 0.000000 0.000000 0.000000 0.000000 0.028236
#
#
# Mechanical properties :
#
#
# Convention : Reuss Voigt Hill
#
# Bulk Modulus (GPa) = 31.72674 71.96614 51.84644
# Shear Modulus (GPa) = 28.87817 43.04595 35.96206
#
# Velocity S-wave (km/s) = 3.34031 4.07820 3.72756
# Velocity P-wave (km/s) = 5.20915 7.06974 6.20953
#
# Compressibility (1/GPa) = 0.03151916
#
# Stress axis : x y z
#
# Youngs Moduli (GPa) = 143.31242 23.52373 83.87241
#
# Poissons Ratio (x) = 0.19736 0.20855
# Poissons Ratio (y) = 1.20236 0.34132
# Poissons Ratio (z) = 0.35635 0.09573
#
# Static dielectric constant tensor:
#      x y z
#    x 1.993770 0.000000 0.000000 
#    y 0.000000 2.045360 0.000000 
#    z 0.000000 0.000000 2.097040 
# 
# From -- ./inp_files/4638.got.cif
#   From: 2010.05.17/outbox.cif.g08.bks.cpg/sg33_3_cif.got.tgz:4638.got - 2010.06.03 17:15:25.
