data_PCOD9345285
_publ_section_title
;
Structure prediction by ZEFSAII (Michael W. Deem and Ramdas Pophale) SiO2 
 PCOD9345285
Probable space group: P N A 21
;
_chemical_formula_sum "Si O2"
_cell_formula_units_Z 28
_cell_length_a 22.548825
_cell_length_b 6.726978
_cell_length_c 8.016054
_cell_angle_alpha 90.000000
_cell_angle_beta 90.000000
_cell_angle_gamma 90.000000
_cell_volume 1215.918756
_symmetry_space_group_name_H-M "P N A 21"
_symmetry_group_IT_number 33
_symmetry_cell_setting 'orthorhombic'
loop_
_space_group_symop_operation_xyz
x,y,z
-x,-y,1/2+z
1/2-x,1/2+y,1/2+z
1/2+x,1/2-y,z
loop_
_atom_site_type_symbol
_atom_site_label
_atom_site_fract_x
_atom_site_fract_y
_atom_site_fract_z
Si Si1 0.274294 0.457123 0.198720
Si Si2 0.491835 0.062700 0.069570
Si Si3 0.314169 0.753170 0.934084
Si Si4 0.640881 0.919851 0.694123
Si Si5 0.517629 0.313269 0.736083
Si Si6 0.922024 0.842771 0.728721
Si Si7 0.360732 0.708012 0.388273
O O1 0.216015 0.352897 0.272008
O O2 0.322306 0.280575 0.195301
O O3 0.298865 0.613977 0.334928
O O4 0.275018 0.584787 0.027779
O O5 0.426817 0.115885 0.138926
O O6 0.543782 0.138278 0.191846
O O7 0.492899 0.823988 0.074627
O O8 0.503668 0.176857 0.898197
O O9 0.376652 0.660013 0.879667
O O10 0.328614 0.929748 0.062568
O O11 0.640302 0.053050 0.863399
O O12 0.473268 0.494724 0.737609
O O13 0.586876 0.361160 0.760621
O O14 0.881726 0.871646 0.564802
#
# Coordination Sequence:
#
# PCOD9345285 Si02
#       7
#     4   4   4   4   4   4   4
#     4  11  25  46  67  91 132 182 222 289 335 401
#     4  10  21  39  64  96 128 169 210 272 340 411
#     4  11  27  43  68  98 132 176 237 279 346 417
#     4  10  22  43  66  93 135 172 224 274 345 403
#     4  10  21  38  63  95 133 165 213 267 336 405
#     4  11  23  40  66 100 132 167 225 278 344 412
#     4   9  23  41  64  97 130 177 223 273 334 417
#
# _framework density 23.027854999999999
#
# number of rings (size 3 to 8) (size 9 to 14) (size 15 to 20)
#    0.000    1.714    0.000    2.571    4.000   12.571 
#    2.571    0.000    0.000    0.000    0.000    0.000 
#    0.000    0.000    0.000    0.000    0.000    0.000 
#
# Total GULP energy -156543.872572 kJ/mol
# GULP energy per Si atom -5590.852592 kJ/mol
# Density = 2.297544 g / cm^3
# Si number density = 23.027855 Si / 1000 Ang^3
#
#
#
# Elastic Constant Matrix: (Units=GPa)
#
#
# Indices 1 2 3 4 5 6 
#
# 1 79.6581 11.7843 3.8843 0.0000 0.0000 0.0000
# 2 11.7843 58.8978 17.0039 0.0000 0.0000 0.0000
# 3 3.8843 17.0039 74.1750 0.0000 0.0000 0.0000
# 4 0.0000 0.0000 0.0000 23.5290 0.0000 0.0000
# 5 0.0000 0.0000 0.0000 0.0000 33.1768 0.0000
# 6 0.0000 0.0000 0.0000 0.0000 0.0000 42.4761
#
#
#
# Elastic Compliance Matrix: (Units=1/GPa)
#
#
# Indices 1 2 3 4 5 6 
#
# 1 0.012937 -0.002562 -0.000090 0.000000 0.000000 0.000000
# 2 -0.002562 0.018689 -0.004150 0.000000 0.000000 0.000000
# 3 -0.000090 -0.004150 0.014438 0.000000 0.000000 0.000000
# 4 0.000000 0.000000 0.000000 0.042501 0.000000 0.000000
# 5 0.000000 0.000000 0.000000 0.000000 0.030142 0.000000
# 6 0.000000 0.000000 0.000000 0.000000 0.000000 0.023543
#
#
# Mechanical properties :
#
#
# Convention : Reuss Voigt Hill
#
# Bulk Modulus (GPa) = 30.80820 30.89732 30.85276
# Shear Modulus (GPa) = 29.99863 31.84027 30.91945
#
# Velocity S-wave (km/s) = 3.61322 3.72248 3.66826
# Velocity P-wave (km/s) = 5.55112 5.64998 5.60077
#
# Compressibility (1/GPa) = 0.03245889
#
# Stress axis : x y z
#
# Youngs Moduli (GPa) = 77.29699 53.50620 69.26288
#
# Poissons Ratio (x) = 0.13711 0.00624
# Poissons Ratio (y) = 0.19807 0.28745
# Poissons Ratio (z) = 0.00696 0.22206
#
# Static dielectric constant tensor:
#      x y z
#    x 1.846250 0.000000 0.000000 
#    y 0.000000 1.843730 0.000000 
#    z 0.000000 0.000000 1.948390 
# 
# From -- ./inp_files/5132.got.cif
#   From: 2010.05.17/outbox.cif.g08.bks.cpg/sg33_3_cif.got.tgz:5132.got - 2010.06.03 17:15:25.
