data_PCOD9345401
_publ_section_title
;
Structure prediction by ZEFSAII (Michael W. Deem and Ramdas Pophale) SiO2 
 PCOD9345401
Probable space group: P N A 21
;
_chemical_formula_sum "Si O2"
_cell_formula_units_Z 32
_cell_length_a 10.437508
_cell_length_b 14.232125
_cell_length_c 9.514159
_cell_angle_alpha 90.000000
_cell_angle_beta 90.000000
_cell_angle_gamma 90.000000
_cell_volume 1413.308516
_symmetry_space_group_name_H-M "P N A 21"
_symmetry_group_IT_number 33
_symmetry_cell_setting 'orthorhombic'
loop_
_space_group_symop_operation_xyz
x,y,z
-x,-y,1/2+z
1/2-x,1/2+y,1/2+z
1/2+x,1/2-y,z
loop_
_atom_site_type_symbol
_atom_site_label
_atom_site_fract_x
_atom_site_fract_y
_atom_site_fract_z
Si Si1 0.631693 0.019994 0.845230
Si Si2 0.605126 0.119890 0.323962
Si Si3 0.135372 0.039587 0.185714
Si Si4 0.638520 0.197930 0.638699
Si Si5 0.790691 0.299931 0.038173
Si Si6 0.120484 0.852120 0.770568
Si Si7 0.929169 0.675210 0.524394
Si Si8 0.084619 0.826653 0.093174
O O1 0.617852 0.105723 0.734121
O O2 0.513265 0.951009 0.825355
O O3 0.771562 0.975593 0.820510
O O4 0.618178 0.070237 0.994533
O O5 0.616209 0.166043 0.476739
O O6 0.750557 0.085181 0.293380
O O7 0.572387 0.188069 0.192774
O O8 0.227996 0.102784 0.087997
O O9 0.002456 0.093157 0.211836
O O10 0.103127 0.936941 0.125840
O O11 0.787508 0.224052 0.648509
O O12 0.539903 0.281700 0.661713
O O13 0.830423 0.230302 0.167165
O O14 0.676503 0.244796 0.961784
O O15 0.927658 0.315049 0.967036
O O16 0.083728 0.815568 0.924869
#
# Coordination Sequence:
#
# PCOD9345401 Si02
#       8
#     4   4   4   4   4   4   4   4
#     4  11  24  40  64  96 130 175 213 276 332 398
#     4  10  21  40  66  94 125 166 226 268 324 398
#     4  11  24  43  63  98 137 169 219 282 332 396
#     4  10  23  42  63  90 134 170 214 268 334 387
#     4  11  22  42  65  95 130 174 217 276 332 395
#     4  10  23  39  66  95 124 170 222 273 330 395
#     4  11  23  39  67  93 127 170 222 266 334 390
#     4  10  24  41  64  95 127 174 221 269 328 399
#
# _framework density 22.641908000000001
#
# number of rings (size 3 to 8) (size 9 to 14) (size 15 to 20)
#    0.000    1.500    2.500    1.500    7.000    5.000 
#    2.250    0.000    0.000    0.000    0.000    0.000 
#    0.000    0.000    0.000    0.000    0.000    0.000 
#
# Total GULP energy -178692.460426 kJ/mol
# GULP energy per Si atom -5584.139388 kJ/mol
# Density = 2.259037 g / cm^3
# Si number density = 22.641908 Si / 1000 Ang^3
#
#
#
# Elastic Constant Matrix: (Units=GPa)
#
#
# Indices 1 2 3 4 5 6 
#
# 1 192.8902 69.8092 18.2735 0.0000 0.0000 0.0000
# 2 69.8092 78.1028 2.5836 0.0000 0.0000 0.0000
# 3 18.2735 2.5836 55.6481 0.0000 0.0000 0.0000
# 4 0.0000 0.0000 0.0000 23.9278 0.0000 0.0000
# 5 0.0000 0.0000 0.0000 0.0000 24.0234 0.0000
# 6 0.0000 0.0000 0.0000 0.0000 0.0000 43.7124
#
#
#
# Elastic Compliance Matrix: (Units=1/GPa)
#
#
# Indices 1 2 3 4 5 6 
#
# 1 0.007942 -0.007023 -0.002282 0.000000 0.000000 0.000000
# 2 -0.007023 0.019034 0.001423 0.000000 0.000000 0.000000
# 3 -0.002282 0.001423 0.018653 0.000000 0.000000 0.000000
# 4 0.000000 0.000000 0.000000 0.041792 0.000000 0.000000
# 5 0.000000 0.000000 0.000000 0.000000 0.041626 0.000000
# 6 0.000000 0.000000 0.000000 0.000000 0.000000 0.022877
#
#
# Mechanical properties :
#
#
# Convention : Reuss Voigt Hill
#
# Bulk Modulus (GPa) = 33.48483 56.44151 44.96317
# Shear Modulus (GPa) = 28.14590 34.06437 31.10514
#
# Velocity S-wave (km/s) = 3.52957 3.88297 3.71048
# Velocity P-wave (km/s) = 5.60638 6.71456 6.18534
#
# Compressibility (1/GPa) = 0.02986427
#
# Stress axis : x y z
#
# Youngs Moduli (GPa) = 125.90715 52.53687 53.60961
#
# Poissons Ratio (x) = 0.36899 0.12234
# Poissons Ratio (y) = 0.88431 -0.07627
# Poissons Ratio (z) = 0.28732 -0.07474
#
# Static dielectric constant tensor:
#      x y z
#    x 1.871650 0.000000 0.000000 
#    y 0.000000 1.839950 0.000000 
#    z 0.000000 0.000000 1.889040 
# 
# From -- ./inp_files/5984.got.cif
#   From: 2010.05.17/outbox.cif.g08.bks.cpg/sg33_3_cif.got.tgz:5984.got - 2010.06.03 17:15:25.
