data_PCOD9345619
_publ_section_title
;
Structure prediction by ZEFSAII (Michael W. Deem and Ramdas Pophale) SiO2 
 PCOD9345619
Probable space group: P N A 21
;
_chemical_formula_sum "Si O2"
_cell_formula_units_Z 28
_cell_length_a 12.591999
_cell_length_b 10.185814
_cell_length_c 9.181919
_cell_angle_alpha 90.000000
_cell_angle_beta 90.000000
_cell_angle_gamma 90.000000
_cell_volume 1177.670725
_symmetry_space_group_name_H-M "P N A 21"
_symmetry_group_IT_number 33
_symmetry_cell_setting 'orthorhombic'
loop_
_space_group_symop_operation_xyz
x,y,z
-x,-y,1/2+z
1/2-x,1/2+y,1/2+z
1/2+x,1/2-y,z
loop_
_atom_site_type_symbol
_atom_site_label
_atom_site_fract_x
_atom_site_fract_y
_atom_site_fract_z
Si Si1 0.061374 0.055651 0.177330
Si Si2 0.131544 0.934868 0.902781
Si Si3 0.672145 0.239308 0.348968
Si Si4 0.714274 0.833352 0.299490
Si Si5 0.493217 0.233176 0.940751
Si Si6 0.891634 0.684962 0.169347
Si Si7 0.065304 0.477184 0.143565
O O1 0.970082 0.052309 0.298937
O O2 0.158725 0.127423 0.259126
O O3 0.015363 0.155289 0.055470
O O4 0.098474 0.938482 0.072238
O O5 0.206232 0.060435 0.868824
O O6 0.207740 0.812854 0.863038
O O7 0.221862 0.292522 0.744416
O O8 0.622214 0.245108 0.509760
O O9 0.601207 0.129240 0.264328
O O10 0.629627 0.797813 0.422386
O O11 0.651510 0.907753 0.168329
O O12 0.531970 0.263436 0.778772
O O13 0.557697 0.104875 0.995312
O O14 0.949837 0.544722 0.160075
#
# Coordination Sequence:
#
# PCOD9345619 Si02
#       7
#     4   4   4   4   4   4   4
#     4  11  26  45  73 101 146 184 239 298 354 421
#     4  11  25  46  69 103 145 187 241 293 364 422
#     4  10  25  46  68 104 141 190 239 289 359 432
#     4  10  22  37  68  99 138 177 240 284 355 419
#     4  10  22  43  71  98 137 189 232 294 354 425
#     4  11  20  39  66 101 137 174 239 288 342 419
#     4   9  20  42  65  96 138 185 232 288 348 426
#
# _framework density 23.775745000000001
#
# number of rings (size 3 to 8) (size 9 to 14) (size 15 to 20)
#    0.000    1.714    1.429    2.571    4.000    4.571 
#    2.571    0.000    0.000    0.000    0.000    0.000 
#    0.000    0.000    0.000    0.000    0.000    0.000 
#
# Total GULP energy -156411.855019 kJ/mol
# GULP energy per Si atom -5586.137679 kJ/mol
# Density = 2.372163 g / cm^3
# Si number density = 23.775745 Si / 1000 Ang^3
#
#
#
# Elastic Constant Matrix: (Units=GPa)
#
#
# Indices 1 2 3 4 5 6 
#
# 1 121.0880 38.2761 54.2943 0.0000 0.0000 0.0000
# 2 38.2761 40.6146 31.0131 0.0000 0.0000 0.0000
# 3 54.2943 31.0131 146.7096 0.0000 0.0000 0.0000
# 4 0.0000 0.0000 0.0000 24.2683 0.0000 0.0000
# 5 0.0000 0.0000 0.0000 0.0000 42.1097 0.0000
# 6 0.0000 0.0000 0.0000 0.0000 0.0000 36.5591
#
#
#
# Elastic Compliance Matrix: (Units=1/GPa)
#
#
# Indices 1 2 3 4 5 6 
#
# 1 0.012514 -0.009847 -0.002550 0.000000 0.000000 0.000000
# 2 -0.009847 0.037109 -0.004200 0.000000 0.000000 0.000000
# 3 -0.002550 -0.004200 0.008648 0.000000 0.000000 0.000000
# 4 0.000000 0.000000 0.000000 0.041206 0.000000 0.000000
# 5 0.000000 0.000000 0.000000 0.000000 0.023747 0.000000
# 6 0.000000 0.000000 0.000000 0.000000 0.000000 0.027353
#
#
# Mechanical properties :
#
#
# Convention : Reuss Voigt Hill
#
# Bulk Modulus (GPa) = 39.87705 61.73103 50.80404
# Shear Modulus (GPa) = 26.02397 32.90933 29.46665
#
# Velocity S-wave (km/s) = 3.31200 3.72446 3.52427
# Velocity P-wave (km/s) = 5.60664 6.67201 6.16239
#
# Compressibility (1/GPa) = 0.02507708
#
# Stress axis : x y z
#
# Youngs Moduli (GPa) = 79.90833 26.94764 115.63713
#
# Poissons Ratio (x) = 0.26535 0.29485
# Poissons Ratio (y) = 0.78684 0.48572
# Poissons Ratio (z) = 0.20375 0.11319
#
# Static dielectric constant tensor:
#      x y z
#    x 1.915230 0.000000 0.000000 
#    y 0.000000 1.967210 0.000000 
#    z 0.000000 0.000000 1.871300 
# 
# From -- ./inp_files/3886.got.cif
#   From: 2010.05.17/outbox.cif.g08.bks.cpg/sg33_2_cif.got.tgz:3886.got - 2010.06.03 17:15:25.
