data_PCOD9345267
_publ_section_title
;
Structure prediction by ZEFSAII (Michael W. Deem and Ramdas Pophale) SiO2 
 PCOD9345267
Probable space group: P N A 21
;
_chemical_formula_sum "Si O2"
_cell_formula_units_Z 20
_cell_length_a 4.958258
_cell_length_b 25.512096
_cell_length_c 5.657465
_cell_angle_alpha 90.000000
_cell_angle_beta 90.000000
_cell_angle_gamma 90.000000
_cell_volume 715.644170
_symmetry_space_group_name_H-M "P N A 21"
_symmetry_group_IT_number 33
_symmetry_cell_setting 'orthorhombic'
loop_
_space_group_symop_operation_xyz
x,y,z
-x,-y,1/2+z
1/2-x,1/2+y,1/2+z
1/2+x,1/2-y,z
loop_
_atom_site_type_symbol
_atom_site_label
_atom_site_fract_x
_atom_site_fract_y
_atom_site_fract_z
Si Si1 0.788670 0.360174 0.705540
Si Si2 0.971545 0.721369 0.908027
Si Si3 0.326875 0.935621 0.701488
Si Si4 0.827817 0.961772 0.421331
Si Si5 0.289023 0.331989 0.014779
O O1 0.720635 0.421671 0.704116
O O2 0.575793 0.333564 0.886727
O O3 0.843070 0.328825 0.465460
O O4 0.081577 0.353750 0.822846
O O5 0.675174 0.734241 0.009052
O O6 0.862205 0.716932 0.637380
O O7 0.636779 0.937615 0.625019
O O8 0.217411 0.876573 0.722336
O O9 0.138728 0.957980 0.489015
O O10 0.266113 0.978781 0.896303
#
# Coordination Sequence:
#
# PCOD9345267 Si02
#       5
#     4   4   4   4   4
#     4  10  23  43  63  92 132 166 210 271 327 387
#     4  12  26  42  66  98 120 172 228 264 330 384
#     4  10  21  38  60  92 124 165 206 251 322 386
#     4  10  21  38  60  92 124 165 206 251 322 386
#     4  10  23  43  63  92 132 166 210 271 327 387
#
# _framework density 27.946853999999998
#
# number of rings (size 3 to 8) (size 9 to 14) (size 15 to 20)
#    0.000    1.600    0.000    3.600    2.800    4.800 
#    3.600    0.000    0.000    0.000    0.000    0.000 
#    0.000    0.000    0.000    0.000    0.000    0.000 
#
# Total GULP energy -111615.817609 kJ/mol
# GULP energy per Si atom -5580.790880 kJ/mol
# Density = 2.788325 g / cm^3
# Si number density = 27.946854 Si / 1000 Ang^3
#
#
#
# Elastic Constant Matrix: (Units=GPa)
#
#
# Indices 1 2 3 4 5 6 
#
# 1 191.1470 46.0567 40.7538 0.0000 0.0000 0.0000
# 2 46.0567 76.9942 32.4718 0.0000 0.0000 0.0000
# 3 40.7538 32.4718 41.2046 0.0000 0.0000 0.0000
# 4 0.0000 0.0000 0.0000 34.8313 0.0000 0.0000
# 5 0.0000 0.0000 0.0000 0.0000 43.0669 0.0000
# 6 0.0000 0.0000 0.0000 0.0000 0.0000 43.5039
#
#
#
# Elastic Compliance Matrix: (Units=1/GPa)
#
#
# Indices 1 2 3 4 5 6 
#
# 1 0.006800 -0.001844 -0.005272 0.000000 0.000000 0.000000
# 2 -0.001844 0.019954 -0.013901 0.000000 0.000000 0.000000
# 3 -0.005272 -0.013901 0.040439 0.000000 0.000000 0.000000
# 4 0.000000 0.000000 0.000000 0.028710 0.000000 0.000000
# 5 0.000000 0.000000 0.000000 0.000000 0.023220 0.000000
# 6 0.000000 0.000000 0.000000 0.000000 0.000000 0.022986
#
#
# Mechanical properties :
#
#
# Convention : Reuss Voigt Hill
#
# Bulk Modulus (GPa) = 39.74936 60.87893 50.31415
# Shear Modulus (GPa) = 25.97016 36.95130 31.46073
#
# Velocity S-wave (km/s) = 3.05170 3.64015 3.35884
# Velocity P-wave (km/s) = 5.16442 6.28480 5.75195
#
# Compressibility (1/GPa) = 0.02515763
#
# Stress axis : x y z
#
# Youngs Moduli (GPa) = 147.05879 50.11604 24.72890
#
# Poissons Ratio (x) = 0.09242 0.13038
# Poissons Ratio (y) = 0.27119 0.34375
# Poissons Ratio (z) = 0.77535 0.69666
#
# Static dielectric constant tensor:
#      x y z
#    x 2.035830 0.000000 0.000000 
#    y 0.000000 2.503250 0.000000 
#    z 0.000000 0.000000 2.292640 
# 
# From -- ./inp_files/193.got.cif
#   From: 2010.05.17/outbox.cif.g08.bks.cpg/sg33_1_cif.got.tgz:193.got - 2010.06.03 17:15:25.
