data_PCOD9345841
_publ_section_title
;
Structure prediction by ZEFSAII (Michael W. Deem and Ramdas Pophale) SiO2 
 PCOD9345841
Probable space group: P N A 21
;
_chemical_formula_sum "Si O2"
_cell_formula_units_Z 20
_cell_length_a 17.934865
_cell_length_b 7.798492
_cell_length_c 6.453559
_cell_angle_alpha 90.000000
_cell_angle_beta 90.000000
_cell_angle_gamma 90.000000
_cell_volume 902.626392
_symmetry_space_group_name_H-M "P N A 21"
_symmetry_group_IT_number 33
_symmetry_cell_setting 'orthorhombic'
loop_
_space_group_symop_operation_xyz
x,y,z
-x,-y,1/2+z
1/2-x,1/2+y,1/2+z
1/2+x,1/2-y,z
loop_
_atom_site_type_symbol
_atom_site_label
_atom_site_fract_x
_atom_site_fract_y
_atom_site_fract_z
Si Si1 0.049716 0.247627 0.535510
Si Si2 0.182003 0.425226 0.574642
Si Si3 0.078641 0.631984 0.274265
Si Si4 0.966404 0.136102 0.156347
Si Si5 0.177354 0.738377 0.894744
O O1 0.131242 0.264030 0.643045
O O2 0.993903 0.391224 0.630660
O O3 0.032537 0.222758 0.289716
O O4 0.019383 0.061425 0.610420
O O5 0.119083 0.490488 0.413255
O O6 0.195580 0.571700 0.747927
O O7 0.252937 0.358183 0.450521
O O8 0.051461 0.768439 0.443181
O O9 0.143195 0.684183 0.114763
O O10 0.889769 0.162554 0.283344
#
# Coordination Sequence:
#
# PCOD9345841 Si02
#       5
#     4   4   4   4   4
#     4  11  23  41  70  99 134 179 232 289 353 418
#     4  11  27  42  71  97 141 183 237 286 359 418
#     4  10  24  44  66  98 140 173 237 283 353 421
#     4  10  22  43  67 100 133 181 227 289 349 420
#     4  10  26  46  64 102 136 188 231 291 350 425
#
# _framework density 22.157564000000001
#
# number of rings (size 3 to 8) (size 9 to 14) (size 15 to 20)
#    0.000    1.600    2.000    0.000   14.000    1.600 
#    0.000    0.000    0.000    0.000    0.000    0.000 
#    0.000    0.000    0.000    0.000    0.000    0.000 
#
# Total GULP energy -111438.113034 kJ/mol
# GULP energy per Si atom -5571.905652 kJ/mol
# Density = 2.210713 g / cm^3
# Si number density = 22.157564 Si / 1000 Ang^3
#
#
#
# Elastic Constant Matrix: (Units=GPa)
#
#
# Indices 1 2 3 4 5 6 
#
# 1 94.5133 14.1633 18.8182 0.0000 0.0000 0.0000
# 2 14.1633 57.6563 16.8005 0.0000 0.0000 0.0000
# 3 18.8182 16.8005 68.1442 0.0000 0.0000 0.0000
# 4 0.0000 0.0000 0.0000 13.0516 0.0000 0.0000
# 5 0.0000 0.0000 0.0000 0.0000 17.9931 0.0000
# 6 0.0000 0.0000 0.0000 0.0000 0.0000 27.3178
#
#
#
# Elastic Compliance Matrix: (Units=1/GPa)
#
#
# Indices 1 2 3 4 5 6 
#
# 1 0.011413 -0.002031 -0.002651 0.000000 0.000000 0.000000
# 2 -0.002031 0.019048 -0.004135 0.000000 0.000000 0.000000
# 3 -0.002651 -0.004135 0.016426 0.000000 0.000000 0.000000
# 4 0.000000 0.000000 0.000000 0.076619 0.000000 0.000000
# 5 0.000000 0.000000 0.000000 0.000000 0.055577 0.000000
# 6 0.000000 0.000000 0.000000 0.000000 0.000000 0.036606
#
#
# Mechanical properties :
#
#
# Convention : Reuss Voigt Hill
#
# Bulk Modulus (GPa) = 34.18503 35.54199 34.86351
# Shear Modulus (GPa) = 20.56983 23.04130 21.80556
#
# Velocity S-wave (km/s) = 3.05018 3.22822 3.14046
# Velocity P-wave (km/s) = 5.27887 5.47454 5.37759
#
# Compressibility (1/GPa) = 0.02925257
#
# Stress axis : x y z
#
# Youngs Moduli (GPa) = 87.62168 52.49873 60.87785
#
# Poissons Ratio (x) = 0.10663 0.16138
# Poissons Ratio (y) = 0.17797 0.25175
# Poissons Ratio (z) = 0.23228 0.21710
#
# Static dielectric constant tensor:
#      x y z
#    x 1.974520 0.000000 0.000000 
#    y 0.000000 2.150830 0.000000 
#    z 0.000000 0.000000 2.038820 
# 
# From -- ./inp_files/1597.got.cif
#   From: 2010.05.17/outbox.cif.g08.bks.cpg/sg33_1_cif.got.tgz:1597.got - 2010.06.03 17:15:25.
