data_PCOD9345699
_publ_section_title
;
Structure prediction by ZEFSAII (Michael W. Deem and Ramdas Pophale) SiO2 
 PCOD9345699
Probable space group: P N A 21
;
_chemical_formula_sum "Si O2"
_cell_formula_units_Z 28
_cell_length_a 13.441949
_cell_length_b 8.576099
_cell_length_c 11.115001
_cell_angle_alpha 90.000000
_cell_angle_beta 90.000000
_cell_angle_gamma 90.000000
_cell_volume 1281.331595
_symmetry_space_group_name_H-M "P N A 21"
_symmetry_group_IT_number 33
_symmetry_cell_setting 'orthorhombic'
loop_
_space_group_symop_operation_xyz
x,y,z
-x,-y,1/2+z
1/2-x,1/2+y,1/2+z
1/2+x,1/2-y,z
loop_
_atom_site_type_symbol
_atom_site_label
_atom_site_fract_x
_atom_site_fract_y
_atom_site_fract_z
Si Si1 0.014938 0.236301 0.285570
Si Si2 0.796363 0.710060 0.157332
Si Si3 0.274638 0.858055 0.765403
Si Si4 0.372296 0.317309 0.476308
Si Si5 0.145267 0.685157 0.319252
Si Si6 0.993991 0.898189 0.183780
Si Si7 0.136064 0.642066 0.603016
O O1 0.132037 0.251581 0.302730
O O2 0.952264 0.286097 0.403515
O O3 0.967660 0.327207 0.172524
O O4 0.992459 0.055857 0.258544
O O5 0.741918 0.711414 0.286525
O O6 0.886408 0.830908 0.152424
O O7 0.829796 0.534611 0.128193
O O8 0.709898 0.756362 0.063243
O O9 0.196534 0.888567 0.872555
O O10 0.213784 0.767128 0.661980
O O11 0.329212 0.023055 0.752537
O O12 0.439348 0.423626 0.563771
O O13 0.130656 0.664032 0.460528
O O14 0.050356 0.767067 0.260869
#
# Coordination Sequence:
#
# PCOD9345699 Si02
#       7
#     4   4   4   4   4   4   4
#     4  11  25  43  70 103 135 181 231 279 346 408
#     4  11  22  46  69  96 145 176 226 285 340 405
#     4  11  22  46  69  96 145 176 226 285 340 405
#     4  10  22  40  66 100 130 178 224 270 340 402
#     4  11  25  44  70 104 137 180 228 283 344 407
#     4  11  25  43  70 103 135 181 231 279 346 408
#     4  11  25  44  70 104 137 180 228 283 344 407
#
# _framework density 21.852264999999999
#
# number of rings (size 3 to 8) (size 9 to 14) (size 15 to 20)
#    0.000    1.143    1.429    5.143    2.000    1.143 
#   20.571    0.000    0.000    0.000    0.000    0.000 
#    0.000    0.000    0.000    0.000    0.000    0.000 
#
# Total GULP energy -156324.756840 kJ/mol
# GULP energy per Si atom -5583.027030 kJ/mol
# Density = 2.180253 g / cm^3
# Si number density = 21.852265 Si / 1000 Ang^3
#
#
#
# Elastic Constant Matrix: (Units=GPa)
#
#
# Indices 1 2 3 4 5 6 
#
# 1 130.7835 6.7273 22.2844 0.0000 0.0000 0.0000
# 2 6.7273 45.2401 30.5228 0.0000 0.0000 0.0000
# 3 22.2844 30.5228 59.6243 0.0000 0.0000 0.0000
# 4 0.0000 0.0000 0.0000 2.0349 0.0000 0.0000
# 5 0.0000 0.0000 0.0000 0.0000 29.7596 0.0000
# 6 0.0000 0.0000 0.0000 0.0000 0.0000 31.9731
#
#
#
# Elastic Compliance Matrix: (Units=1/GPa)
#
#
# Indices 1 2 3 4 5 6 
#
# 1 0.008216 0.001298 -0.003735 0.000000 0.000000 0.000000
# 2 0.001298 0.033972 -0.017876 0.000000 0.000000 0.000000
# 3 -0.003735 -0.017876 0.027319 0.000000 0.000000 0.000000
# 4 0.000000 0.000000 0.000000 0.491433 0.000000 0.000000
# 5 0.000000 0.000000 0.000000 0.000000 0.033603 0.000000
# 6 0.000000 0.000000 0.000000 0.000000 0.000000 0.031276
#
#
# Mechanical properties :
#
#
# Convention : Reuss Voigt Hill
#
# Bulk Modulus (GPa) = 34.62531 39.41299 37.01915
# Shear Modulus (GPa) = 7.39567 24.49441 15.94504
#
# Velocity S-wave (km/s) = 1.84167 3.35163 2.70418
# Velocity P-wave (km/s) = 4.51685 5.74919 5.16987
#
# Compressibility (1/GPa) = 0.02888061
#
# Stress axis : x y z
#
# Youngs Moduli (GPa) = 121.71506 29.43602 36.60462
#
# Poissons Ratio (x) = -0.03822 0.13673
# Poissons Ratio (y) = -0.15804 0.65435
# Poissons Ratio (z) = 0.45465 0.52620
#
# Static dielectric constant tensor:
#      x y z
#    x 1.840840 0.000000 0.000000 
#    y 0.000000 1.823380 0.000000 
#    z 0.000000 0.000000 1.837990 
# 
# From -- ./inp_files/6731.got.cif
#   From: 2010.05.17/outbox.cif.g08.bks.cpg/sg33_4_cif.got.tgz:6731.got - 2010.06.03 17:15:25.
