data_PCOD9345822
_publ_section_title
;
Structure prediction by ZEFSAII (Michael W. Deem and Ramdas Pophale) SiO2 
 PCOD9345822
Probable space group: P N A 21
;
_chemical_formula_sum "Si O2"
_cell_formula_units_Z 24
_cell_length_a 7.873664
_cell_length_b 13.372884
_cell_length_c 9.013764
_cell_angle_alpha 90.000000
_cell_angle_beta 90.000000
_cell_angle_gamma 90.000000
_cell_volume 949.091619
_symmetry_space_group_name_H-M "P N A 21"
_symmetry_group_IT_number 33
_symmetry_cell_setting 'orthorhombic'
loop_
_space_group_symop_operation_xyz
x,y,z
-x,-y,1/2+z
1/2-x,1/2+y,1/2+z
1/2+x,1/2-y,z
loop_
_atom_site_type_symbol
_atom_site_label
_atom_site_fract_x
_atom_site_fract_y
_atom_site_fract_z
Si Si1 0.009867 0.511688 0.684710
Si Si2 0.186296 0.358991 0.393785
Si Si3 0.300041 0.144482 0.393780
Si Si4 0.955948 0.865960 0.421298
Si Si5 0.504543 0.560066 0.091635
Si Si6 0.054444 0.638724 0.404383
O O1 0.327070 0.398801 0.506916
O O2 0.171548 0.568315 0.758095
O O3 0.845469 0.560734 0.764991
O O4 0.015557 0.400008 0.747341
O O5 0.996798 0.552255 0.519296
O O6 0.993415 0.343034 0.452181
O O7 0.244463 0.252128 0.334618
O O8 0.162954 0.109288 0.514372
O O9 0.754966 0.864473 0.405774
O O10 0.006242 0.751004 0.444873
O O11 0.007086 0.942809 0.550566
O O12 0.019087 0.909041 0.262797
#
# Coordination Sequence:
#
# PCOD9345822 Si02
#       6
#     4   4   4   4   4   4
#     4  10  27  47  79 113 173 207 276 336 416 484
#     4  10  22  42  77 119 159 215 270 332 408 486
#     4  10  23  40  80 115 160 217 263 339 403 487
#     4  12  33  50  87 119 168 215 287 338 424 502
#     4  12  27  52  75 121 166 212 281 333 416 492
#     4  12  30  53  82 125 162 222 279 346 421 501
#
# _framework density 25.28734
#
# number of rings (size 3 to 8) (size 9 to 14) (size 15 to 20)
#    1.000    0.000    3.333    0.000   11.667    2.667 
#    0.000    0.000    0.000    0.000    0.000    0.000 
#    0.000    0.000    0.000    0.000    0.000    0.000 
#
# Total GULP energy -134349.878626 kJ/mol
# GULP energy per Si atom -5597.911609 kJ/mol
# Density = 2.522979 g / cm^3
# Si number density = 25.287340 Si / 1000 Ang^3
#
#
#
# Elastic Constant Matrix: (Units=GPa)
#
#
# Indices 1 2 3 4 5 6 
#
# 1 150.8759 17.7503 18.9682 0.0000 0.0000 0.0000
# 2 17.7503 138.9376 -16.9837 0.0000 0.0000 0.0000
# 3 18.9682 -16.9837 82.0275 0.0000 0.0000 0.0000
# 4 0.0000 0.0000 0.0000 14.7210 0.0000 0.0000
# 5 0.0000 0.0000 0.0000 0.0000 39.8456 0.0000
# 6 0.0000 0.0000 0.0000 0.0000 0.0000 26.8404
#
#
#
# Elastic Compliance Matrix: (Units=1/GPa)
#
#
# Indices 1 2 3 4 5 6 
#
# 1 0.006992 -0.001119 -0.001849 0.000000 0.000000 0.000000
# 2 -0.001119 0.007564 0.001825 0.000000 0.000000 0.000000
# 3 -0.001849 0.001825 0.012996 0.000000 0.000000 0.000000
# 4 0.000000 0.000000 0.000000 0.067930 0.000000 0.000000
# 5 0.000000 0.000000 0.000000 0.000000 0.025097 0.000000
# 6 0.000000 0.000000 0.000000 0.000000 0.000000 0.037257
#
#
# Mechanical properties :
#
#
# Convention : Reuss Voigt Hill
#
# Bulk Modulus (GPa) = 39.57905 45.70119 42.64012
# Shear Modulus (GPa) = 29.66577 39.75514 34.71045
#
# Velocity S-wave (km/s) = 3.42884 3.96932 3.70894
# Velocity P-wave (km/s) = 5.60014 6.25454 5.93637
#
# Compressibility (1/GPa) = 0.02526589
#
# Stress axis : x y z
#
# Youngs Moduli (GPa) = 143.01964 132.21332 76.94479
#
# Poissons Ratio (x) = 0.14798 0.14224
# Poissons Ratio (y) = 0.16008 -0.14041
# Poissons Ratio (z) = 0.26438 -0.24127
#
# Static dielectric constant tensor:
#      x y z
#    x 1.988040 0.000000 0.000000 
#    y 0.000000 2.022250 0.000000 
#    z 0.000000 0.000000 2.020700 
# 
# From -- ./inp_files/5809.got.cif
#   From: 2010.05.17/outbox.cif.g08.bks.cpg/sg33_3_cif.got.tgz:5809.got - 2010.06.03 17:15:25.
