data_PCOD9345628
_publ_section_title
;
Structure prediction by ZEFSAII (Michael W. Deem and Ramdas Pophale) SiO2 
 PCOD9345628
Probable space group: P N A 21
;
_chemical_formula_sum "Si O2"
_cell_formula_units_Z 32
_cell_length_a 21.645438
_cell_length_b 7.368380
_cell_length_c 7.868079
_cell_angle_alpha 90.000000
_cell_angle_beta 90.000000
_cell_angle_gamma 90.000000
_cell_volume 1254.894180
_symmetry_space_group_name_H-M "P N A 21"
_symmetry_group_IT_number 33
_symmetry_cell_setting 'orthorhombic'
loop_
_space_group_symop_operation_xyz
x,y,z
-x,-y,1/2+z
1/2-x,1/2+y,1/2+z
1/2+x,1/2-y,z
loop_
_atom_site_type_symbol
_atom_site_label
_atom_site_fract_x
_atom_site_fract_y
_atom_site_fract_z
Si Si1 0.312260 0.591994 0.367340
Si Si2 0.198500 0.659935 0.549668
Si Si3 0.877276 0.250859 0.446324
Si Si4 0.780088 0.482636 0.628397
Si Si5 0.620575 0.229018 0.171120
Si Si6 0.606396 0.604451 0.321379
Si Si7 0.076538 0.496896 0.684914
Si Si8 0.994989 0.705227 0.450135
O O1 0.253976 0.533078 0.483886
O O2 0.358272 0.426589 0.340835
O O3 0.272163 0.649977 0.206500
O O4 0.348185 0.732107 0.485044
O O5 0.239661 0.830856 0.620883
O O6 0.157679 0.777569 0.416842
O O7 0.148710 0.533119 0.643905
O O8 0.815740 0.372886 0.481059
O O9 0.899450 0.181930 0.629659
O O10 0.927942 0.358276 0.340939
O O11 0.841376 0.554900 0.730086
O O12 0.550337 0.214988 0.111838
O O13 0.627363 0.397608 0.296038
O O14 0.541479 0.628574 0.417382
O O15 0.044253 0.328388 0.778324
O O16 0.041283 0.545838 0.511870
#
# Coordination Sequence:
#
# PCOD9345628 Si02
#       8
#     4   4   4   4   4   4   4   4
#     4  10  22  38  61  98 130 166 204 267 326 387
#     4  10  22  40  63  95 130 166 219 261 325 395
#     4  11  21  38  66  95 130 167 217 262 334 389
#     4  11  21  38  64  91 132 167 203 264 328 388
#     4  10  24  40  63  92 131 166 217 261 327 381
#     4  10  23  42  62  92 129 172 212 273 316 381
#     4  11  23  40  66  95 122 171 222 271 320 389
#     4  11  24  44  67  90 132 173 224 273 324 382
#
# _framework density 25.500157999999999
#
# number of rings (size 3 to 8) (size 9 to 14) (size 15 to 20)
#    0.000    1.500    3.750    0.750    1.750    4.000 
#    0.000    1.250    0.000    0.000    0.000    0.000 
#    0.000    0.000    0.000    0.000    0.000    0.000 
#
# Total GULP energy -178173.565037 kJ/mol
# GULP energy per Si atom -5567.923907 kJ/mol
# Density = 2.544212 g / cm^3
# Si number density = 25.500158 Si / 1000 Ang^3
#
#
#
# Elastic Constant Matrix: (Units=GPa)
#
#
# Indices 1 2 3 4 5 6 
#
# 1 106.6951 7.9818 16.9413 0.0000 0.0000 0.0000
# 2 7.9818 62.9241 -9.0613 0.0000 0.0000 0.0000
# 3 16.9413 -9.0613 41.7598 0.0000 0.0000 0.0000
# 4 0.0000 0.0000 0.0000 17.9196 0.0000 0.0000
# 5 0.0000 0.0000 0.0000 0.0000 54.8204 0.0000
# 6 0.0000 0.0000 0.0000 0.0000 0.0000 16.2232
#
#
#
# Elastic Compliance Matrix: (Units=1/GPa)
#
#
# Indices 1 2 3 4 5 6 
#
# 1 0.010247 -0.001960 -0.004582 0.000000 0.000000 0.000000
# 2 -0.001960 0.016780 0.004436 0.000000 0.000000 0.000000
# 3 -0.004582 0.004436 0.026768 0.000000 0.000000 0.000000
# 4 0.000000 0.000000 0.000000 0.055805 0.000000 0.000000
# 5 0.000000 0.000000 0.000000 0.000000 0.018241 0.000000
# 6 0.000000 0.000000 0.000000 0.000000 0.000000 0.061640
#
#
# Mechanical properties :
#
#
# Convention : Reuss Voigt Hill
#
# Bulk Modulus (GPa) = 20.16842 27.01139 23.58991
# Shear Modulus (GPa) = 23.78469 30.82714 27.30592
#
# Velocity S-wave (km/s) = 3.05737 3.48070 3.27588
# Velocity P-wave (km/s) = 4.51549 5.17390 4.85587
#
# Compressibility (1/GPa) = 0.04958246
#
# Stress axis : x y z
#
# Youngs Moduli (GPa) = 97.59278 59.59648 37.35814
#
# Poissons Ratio (x) = 0.11679 0.17118
# Poissons Ratio (y) = 0.19124 -0.16572
# Poissons Ratio (z) = 0.44718 -0.26436
#
# Static dielectric constant tensor:
#      x y z
#    x 2.024120 0.000000 0.000000 
#    y 0.000000 2.025810 0.000000 
#    z 0.000000 0.000000 2.250700 
# 
# From -- ./inp_files/4969.got.cif
#   From: 2010.05.17/outbox.cif.g08.bks.cpg/sg33_3_cif.got.tgz:4969.got - 2010.06.03 17:15:25.
