data_PCOD9345648
_publ_section_title
;
Structure prediction by ZEFSAII (Michael W. Deem and Ramdas Pophale) SiO2 
 PCOD9345648
Probable space group: P N A 21
;
_chemical_formula_sum "Si O2"
_cell_formula_units_Z 32
_cell_length_a 18.767202
_cell_length_b 13.980716
_cell_length_c 5.254043
_cell_angle_alpha 90.000000
_cell_angle_beta 90.000000
_cell_angle_gamma 90.000000
_cell_volume 1378.550135
_symmetry_space_group_name_H-M "P N A 21"
_symmetry_group_IT_number 33
_symmetry_cell_setting 'orthorhombic'
loop_
_space_group_symop_operation_xyz
x,y,z
-x,-y,1/2+z
1/2-x,1/2+y,1/2+z
1/2+x,1/2-y,z
loop_
_atom_site_type_symbol
_atom_site_label
_atom_site_fract_x
_atom_site_fract_y
_atom_site_fract_z
Si Si1 0.930810 0.579783 0.656500
Si Si2 0.953922 0.988922 0.092896
Si Si3 0.151549 0.933921 0.236939
Si Si4 0.493867 0.876604 0.155607
Si Si5 0.767831 0.549405 0.597698
Si Si6 0.356357 0.226609 0.613322
Si Si7 0.232077 0.734191 0.632699
Si Si8 0.837543 0.901299 0.368739
O O1 0.982686 0.488034 0.671036
O O2 0.851973 0.539948 0.610089
O O3 0.956766 0.644711 0.423261
O O4 0.939451 0.633226 0.923213
O O5 0.904115 0.898102 0.174070
O O6 0.895573 0.065834 0.993375
O O7 0.996336 0.021809 0.344458
O O8 0.234126 0.943194 0.315662
O O9 0.134770 0.840319 0.080372
O O10 0.134530 0.029196 0.088459
O O11 0.566817 0.821094 0.105683
O O12 0.749437 0.655773 0.697440
O O13 0.725901 0.463790 0.736782
O O14 0.303248 0.191257 0.388989
O O15 0.322897 0.221169 0.897133
O O16 0.303065 0.687749 0.512114
#
# Coordination Sequence:
#
# PCOD9345648 Si02
#       8
#     4   4   4   4   4   4   4   4
#     4  10  22  39  62  89 129 165 212 265 327 389
#     4  11  23  43  65  93 132 177 228 276 336 412
#     4  10  23  42  70  94 133 173 231 270 345 394
#     4  10  22  39  60  92 124 170 213 255 326 404
#     4  10  23  42  63  97 130 175 214 287 330 396
#     4  11  23  44  64  98 129 174 222 274 323 417
#     4  11  25  39  69  97 131 165 230 278 336 395
#     4  11  23  42  69 100 128 179 222 285 345 401
#
# _framework density 23.212795
#
# number of rings (size 3 to 8) (size 9 to 14) (size 15 to 20)
#    0.000    1.500    2.500    1.500    7.000    1.000 
#    2.250    1.250    0.000    0.000    0.000    0.000 
#    0.000    0.000    0.000    0.000    0.000    0.000 
#
# Total GULP energy -178614.726676 kJ/mol
# GULP energy per Si atom -5581.710209 kJ/mol
# Density = 2.315996 g / cm^3
# Si number density = 23.212795 Si / 1000 Ang^3
#
#
#
# Elastic Constant Matrix: (Units=GPa)
#
#
# Indices 1 2 3 4 5 6 
#
# 1 65.0944 -14.0169 20.8419 0.0000 0.0000 0.0000
# 2 -14.0169 33.1073 10.0067 0.0000 0.0000 0.0000
# 3 20.8419 10.0067 88.4481 0.0000 0.0000 0.0000
# 4 0.0000 0.0000 0.0000 16.1718 0.0000 0.0000
# 5 0.0000 0.0000 0.0000 0.0000 39.7781 0.0000
# 6 0.0000 0.0000 0.0000 0.0000 0.0000 22.0018
#
#
#
# Elastic Compliance Matrix: (Units=1/GPa)
#
#
# Indices 1 2 3 4 5 6 
#
# 1 0.019306 0.009887 -0.005668 0.000000 0.000000 0.000000
# 2 0.009887 0.036337 -0.006441 0.000000 0.000000 0.000000
# 3 -0.005668 -0.006441 0.013370 0.000000 0.000000 0.000000
# 4 0.000000 0.000000 0.000000 0.061836 0.000000 0.000000
# 5 0.000000 0.000000 0.000000 0.000000 0.025139 0.000000
# 6 0.000000 0.000000 0.000000 0.000000 0.000000 0.045451
#
#
# Mechanical properties :
#
#
# Convention : Reuss Voigt Hill
#
# Bulk Modulus (GPa) = 15.48705 24.47923 19.98314
# Shear Modulus (GPa) = 21.98701 26.91155 24.44928
#
# Velocity S-wave (km/s) = 3.08099 3.40860 3.24893
# Velocity P-wave (km/s) = 4.39806 5.10489 4.76460
#
# Compressibility (1/GPa) = 0.06457009
#
# Stress axis : x y z
#
# Youngs Moduli (GPa) = 51.79749 27.51985 74.79253
#
# Poissons Ratio (x) = -0.27208 0.42391
# Poissons Ratio (y) = -0.51211 0.48172
# Poissons Ratio (z) = 0.29358 0.17725
#
# Static dielectric constant tensor:
#      x y z
#    x 1.948740 0.000000 0.000000 
#    y 0.000000 1.885050 0.000000 
#    z 0.000000 0.000000 1.944870 
# 
# From -- ./inp_files/1828.got.cif
#   From: 2010.05.17/outbox.cif.g08.bks.cpg/sg33_1_cif.got.tgz:1828.got - 2010.06.03 17:15:25.
