data_PCOD9345423
_publ_section_title
;
Structure prediction by ZEFSAII (Michael W. Deem and Ramdas Pophale) SiO2 
 PCOD9345423
Probable space group: P N A 21
;
_chemical_formula_sum "Si O2"
_cell_formula_units_Z 32
_cell_length_a 10.689114
_cell_length_b 10.844395
_cell_length_c 11.618000
_cell_angle_alpha 90.000000
_cell_angle_beta 90.000000
_cell_angle_gamma 90.000000
_cell_volume 1346.723409
_symmetry_space_group_name_H-M "P N A 21"
_symmetry_group_IT_number 33
_symmetry_cell_setting 'orthorhombic'
loop_
_space_group_symop_operation_xyz
x,y,z
-x,-y,1/2+z
1/2-x,1/2+y,1/2+z
1/2+x,1/2-y,z
loop_
_atom_site_type_symbol
_atom_site_label
_atom_site_fract_x
_atom_site_fract_y
_atom_site_fract_z
Si Si1 0.964131 0.289336 0.614240
Si Si2 0.360000 0.887534 0.301395
Si Si3 0.730493 0.983333 0.231768
Si Si4 0.444030 0.368840 0.131923
Si Si5 0.466935 0.924209 0.904700
Si Si6 0.650239 0.887718 0.584586
Si Si7 0.375004 0.659203 0.430159
Si Si8 0.634360 0.538276 0.215498
O O1 0.859131 0.383999 0.667152
O O2 0.925088 0.150127 0.643567
O O3 0.090251 0.327138 0.682600
O O4 0.989210 0.307894 0.478844
O O5 0.421270 0.790600 0.388950
O O6 0.210533 0.893200 0.316101
O O7 0.421075 0.016736 0.333119
O O8 0.826483 0.915023 0.319082
O O9 0.812240 0.062623 0.143757
O O10 0.647826 0.071957 0.314964
O O11 0.426654 0.222085 0.143420
O O12 0.534042 0.430743 0.228360
O O13 0.520525 0.396152 0.014225
O O14 0.430226 0.020332 0.006714
O O15 0.749491 0.820361 0.502475
O O16 0.745070 0.972702 0.657789
#
# Coordination Sequence:
#
# PCOD9345423 Si02
#       8
#     4   4   4   4   4   4   4   4
#     4  11  23  42  74  99 145 196 242 312 370 433
#     4  11  21  41  72 104 141 184 255 295 356 454
#     4  10  23  42  71 112 149 189 245 310 370 449
#     4  11  24  42  74 106 147 189 243 312 376 450
#     4  10  22  43  72 100 141 196 239 297 385 433
#     4  10  22  42  68  99 144 182 237 308 362 435
#     4  10  21  40  71 106 137 187 253 296 357 448
#     4  11  24  42  72 106 140 189 248 308 362 442
#
# _framework density 23.761375999999998
#
# number of rings (size 3 to 8) (size 9 to 14) (size 15 to 20)
#    0.000    1.500    3.750    0.750    1.750    1.000 
#    0.000    3.750    8.250    0.000    0.000    0.000 
#    0.000    0.000    0.000    0.000    0.000    0.000 
#
# Total GULP energy -178587.499842 kJ/mol
# GULP energy per Si atom -5580.859370 kJ/mol
# Density = 2.370729 g / cm^3
# Si number density = 23.761376 Si / 1000 Ang^3
#
#
#
# Elastic Constant Matrix: (Units=GPa)
#
#
# Indices 1 2 3 4 5 6 
#
# 1 92.8788 54.4883 28.4484 0.0000 0.0000 0.0000
# 2 54.4883 79.3574 31.0104 0.0000 0.0000 0.0000
# 3 28.4484 31.0104 59.7580 0.0000 0.0000 0.0000
# 4 0.0000 0.0000 0.0000 30.3521 0.0000 0.0000
# 5 0.0000 0.0000 0.0000 0.0000 46.8395 0.0000
# 6 0.0000 0.0000 0.0000 0.0000 0.0000 46.1943
#
#
#
# Elastic Compliance Matrix: (Units=1/GPa)
#
#
# Indices 1 2 3 4 5 6 
#
# 1 0.018385 -0.011545 -0.002762 0.000000 0.000000 0.000000
# 2 -0.011545 0.023056 -0.006468 0.000000 0.000000 0.000000
# 3 -0.002762 -0.006468 0.021406 0.000000 0.000000 0.000000
# 4 0.000000 0.000000 0.000000 0.032947 0.000000 0.000000
# 5 0.000000 0.000000 0.000000 0.000000 0.021350 0.000000
# 6 0.000000 0.000000 0.000000 0.000000 0.000000 0.021648
#
#
# Mechanical properties :
#
#
# Convention : Reuss Voigt Hill
#
# Bulk Modulus (GPa) = 46.95450 51.09871 49.02660
# Shear Modulus (GPa) = 26.67540 32.54697 29.61118
#
# Velocity S-wave (km/s) = 3.35421 3.70502 3.53397
# Velocity P-wave (km/s) = 5.89955 6.31304 6.10980
#
# Compressibility (1/GPa) = 0.02129721
#
# Stress axis : x y z
#
# Youngs Moduli (GPa) = 54.39127 43.37350 46.71682
#
# Poissons Ratio (x) = 0.50073 0.12902
# Poissons Ratio (y) = 0.62792 0.30218
# Poissons Ratio (z) = 0.15021 0.28056
#
# Static dielectric constant tensor:
#      x y z
#    x 1.929390 0.000000 0.000000 
#    y 0.000000 1.995640 0.000000 
#    z 0.000000 0.000000 2.055880 
# 
# From -- ./inp_files/6515.got.cif
#   From: 2010.05.17/outbox.cif.g08.bks.cpg/sg33_4_cif.got.tgz:6515.got - 2010.06.03 17:15:25.
