data_PCOD9345952
_publ_section_title
;
Structure prediction by ZEFSAII (Michael W. Deem and Ramdas Pophale) SiO2 
 PCOD9345952
Probable space group: P N A 21
;
_chemical_formula_sum "Si O2"
_cell_formula_units_Z 24
_cell_length_a 8.356858
_cell_length_b 11.869519
_cell_length_c 9.971405
_cell_angle_alpha 90.000000
_cell_angle_beta 90.000000
_cell_angle_gamma 90.000000
_cell_volume 989.082456
_symmetry_space_group_name_H-M "P N A 21"
_symmetry_group_IT_number 33
_symmetry_cell_setting 'orthorhombic'
loop_
_space_group_symop_operation_xyz
x,y,z
-x,-y,1/2+z
1/2-x,1/2+y,1/2+z
1/2+x,1/2-y,z
loop_
_atom_site_type_symbol
_atom_site_label
_atom_site_fract_x
_atom_site_fract_y
_atom_site_fract_z
Si Si1 0.265294 0.052596 0.601880
Si Si2 0.130409 0.421740 0.686229
Si Si3 0.648211 0.860816 0.823995
Si Si4 0.276435 0.867478 0.906481
Si Si5 0.277651 0.334932 0.954716
Si Si6 0.863681 0.885992 0.368437
O O1 0.443472 0.079901 0.652269
O O2 0.247849 0.097544 0.451321
O O3 0.150177 0.114653 0.706214
O O4 0.254888 0.916895 0.580877
O O5 0.182017 0.553234 0.702966
O O6 0.219162 0.354448 0.568506
O O7 0.162053 0.373041 0.832895
O O8 0.460907 0.874461 0.859570
O O9 0.688792 0.729753 0.823443
O O10 0.192545 0.987144 0.891930
O O11 0.246773 0.201795 0.950222
O O12 0.457940 0.360760 0.913076
#
# Coordination Sequence:
#
# PCOD9345952 Si02
#       6
#     4   4   4   4   4   4
#     4  10  23  47  72 102 143 191 244 302 364 436
#     4  10  22  46  71 100 143 189 239 298 366 428
#     4  10  23  43  69 101 138 186 243 294 363 427
#     4  11  25  42  71 100 143 187 236 300 363 433
#     4  11  27  44  76 106 145 194 249 300 370 440
#     4  12  26  46  69 107 146 191 245 300 370 434
#
# _framework density 24.264914999999998
#
# number of rings (size 3 to 8) (size 9 to 14) (size 15 to 20)
#    0.000    1.333    1.667    2.000   11.667    4.000 
#    0.000    0.000    0.000    0.000    0.000    0.000 
#    0.000    0.000    0.000    0.000    0.000    0.000 
#
# Total GULP energy -134202.119391 kJ/mol
# GULP energy per Si atom -5591.754975 kJ/mol
# Density = 2.420969 g / cm^3
# Si number density = 24.264915 Si / 1000 Ang^3
#
#
#
# Elastic Constant Matrix: (Units=GPa)
#
#
# Indices 1 2 3 4 5 6 
#
# 1 52.2452 -5.9848 13.7469 0.0000 0.0000 0.0000
# 2 -5.9848 122.8226 1.6894 0.0000 0.0000 0.0000
# 3 13.7469 1.6894 22.9533 0.0000 0.0000 0.0000
# 4 0.0000 0.0000 0.0000 47.8692 0.0000 0.0000
# 5 0.0000 0.0000 0.0000 0.0000 18.6080 0.0000
# 6 0.0000 0.0000 0.0000 0.0000 0.0000 37.5347
#
#
#
# Elastic Compliance Matrix: (Units=1/GPa)
#
#
# Indices 1 2 3 4 5 6 
#
# 1 0.022929 0.001307 -0.013829 0.000000 0.000000 0.000000
# 2 0.001307 0.008225 -0.001388 0.000000 0.000000 0.000000
# 3 -0.013829 -0.001388 0.051951 0.000000 0.000000 0.000000
# 4 0.000000 0.000000 0.000000 0.020890 0.000000 0.000000
# 5 0.000000 0.000000 0.000000 0.000000 0.053740 0.000000
# 6 0.000000 0.000000 0.000000 0.000000 0.000000 0.026642
#
#
# Mechanical properties :
#
#
# Convention : Reuss Voigt Hill
#
# Bulk Modulus (GPa) = 18.08791 24.10269 21.09530
# Shear Modulus (GPa) = 21.68025 33.37368 27.52697
#
# Velocity S-wave (km/s) = 2.99236 3.71265 3.37179
# Velocity P-wave (km/s) = 4.40562 5.32288 4.88582
#
# Compressibility (1/GPa) = 0.05528554
#
# Stress axis : x y z
#
# Youngs Moduli (GPa) = 43.61309 121.58601 19.24890
#
# Poissons Ratio (x) = -0.15897 0.26618
# Poissons Ratio (y) = -0.05702 0.02673
# Poissons Ratio (z) = 0.60311 0.16881
#
# Static dielectric constant tensor:
#      x y z
#    x 1.847060 0.000000 0.000000 
#    y 0.000000 2.086360 0.000000 
#    z 0.000000 0.000000 2.027130 
# 
# From -- ./inp_files/5807.got.cif
#   From: 2010.05.17/outbox.cif.g08.bks.cpg/sg33_3_cif.got.tgz:5807.got - 2010.06.03 17:15:25.
