data_PCOD9345113
_publ_section_title
;
Structure prediction by ZEFSAII (Michael W. Deem and Ramdas Pophale) SiO2 
 PCOD9345113
Probable space group: P N A 21
;
_chemical_formula_sum "Si O2"
_cell_formula_units_Z 28
_cell_length_a 9.775524
_cell_length_b 24.305858
_cell_length_c 5.272184
_cell_angle_alpha 90.000000
_cell_angle_beta 90.000000
_cell_angle_gamma 90.000000
_cell_volume 1252.684089
_symmetry_space_group_name_H-M "P N A 21"
_symmetry_group_IT_number 33
_symmetry_cell_setting 'orthorhombic'
loop_
_space_group_symop_operation_xyz
x,y,z
-x,-y,1/2+z
1/2-x,1/2+y,1/2+z
1/2+x,1/2-y,z
loop_
_atom_site_type_symbol
_atom_site_label
_atom_site_fract_x
_atom_site_fract_y
_atom_site_fract_z
Si Si1 0.038567 0.362873 0.378960
Si Si2 0.020494 0.076386 0.109410
Si Si3 0.602697 0.686768 0.385457
Si Si4 0.808230 0.098878 0.494434
Si Si5 0.308854 0.494575 0.836168
Si Si6 0.561415 0.974916 0.107270
Si Si7 0.422314 0.795601 0.400623
O O1 0.188022 0.386773 0.302659
O O2 0.953309 0.413993 0.487022
O O3 0.061309 0.325140 0.627728
O O4 0.001382 0.328739 0.128677
O O5 0.935509 0.070466 0.367467
O O6 0.165361 0.049563 0.173535
O O7 0.981279 0.138840 0.036295
O O8 0.947540 0.036807 0.909370
O O9 0.637440 0.653921 0.126967
O O10 0.499761 0.737632 0.374333
O O11 0.757716 0.706453 0.463651
O O12 0.738398 0.055341 0.683496
O O13 0.220457 0.509555 0.078546
O O14 0.513376 0.986488 0.393807
#
# Coordination Sequence:
#
# PCOD9345113 Si02
#       7
#     4   4   4   4   4   4   4
#     4  11  23  43  67  95 130 175 211 264 333 397
#     4  11  21  40  65  95 131 173 220 268 335 396
#     4  10  25  42  67  92 124 176 219 282 325 397
#     4  10  20  42  62  89 129 171 213 260 331 399
#     4  11  23  37  65  99 133 177 219 272 327 408
#     4  12  25  41  67 101 140 174 219 269 329 404
#     4  11  25  45  69  93 129 172 227 273 336 383
#
# _framework density 22.352003
#
# number of rings (size 3 to 8) (size 9 to 14) (size 15 to 20)
#    0.000    1.143    4.286    1.714    4.000    1.143 
#    2.571    0.000    0.000    0.000    0.000    0.000 
#    0.000    0.000    0.000    0.000    0.000    0.000 
#
# Total GULP energy -156006.748371 kJ/mol
# GULP energy per Si atom -5571.669585 kJ/mol
# Density = 2.230113 g / cm^3
# Si number density = 22.352003 Si / 1000 Ang^3
#
#
#
# Elastic Constant Matrix: (Units=GPa)
#
#
# Indices 1 2 3 4 5 6 
#
# 1 47.6410 50.4050 5.6072 0.0000 0.0000 0.0000
# 2 50.4050 152.2259 21.1227 0.0000 0.0000 0.0000
# 3 5.6072 21.1227 77.2180 0.0000 0.0000 0.0000
# 4 0.0000 0.0000 0.0000 28.5764 0.0000 0.0000
# 5 0.0000 0.0000 0.0000 0.0000 23.8116 0.0000
# 6 0.0000 0.0000 0.0000 0.0000 0.0000 28.3656
#
#
#
# Elastic Compliance Matrix: (Units=1/GPa)
#
#
# Indices 1 2 3 4 5 6 
#
# 1 0.032336 -0.010791 0.000604 0.000000 0.000000 0.000000
# 2 -0.010791 0.010429 -0.002069 0.000000 0.000000 0.000000
# 3 0.000604 -0.002069 0.013473 0.000000 0.000000 0.000000
# 4 0.000000 0.000000 0.000000 0.034994 0.000000 0.000000
# 5 0.000000 0.000000 0.000000 0.000000 0.041996 0.000000
# 6 0.000000 0.000000 0.000000 0.000000 0.000000 0.035254
#
#
# Mechanical properties :
#
#
# Convention : Reuss Voigt Hill
#
# Bulk Modulus (GPa) = 31.52080 47.92830 39.72455
# Shear Modulus (GPa) = 24.56151 29.48072 27.02112
#
# Velocity S-wave (km/s) = 3.31849 3.63565 3.48068
# Velocity P-wave (km/s) = 5.36803 6.25404 5.82790
#
# Compressibility (1/GPa) = 0.03172508
#
# Stress axis : x y z
#
# Youngs Moduli (GPa) = 30.92508 95.88272 74.22491
#
# Poissons Ratio (x) = 1.03466 -0.04481
# Poissons Ratio (y) = 0.33371 0.15360
# Poissons Ratio (z) = -0.01867 0.19841
#
# Static dielectric constant tensor:
#      x y z
#    x 1.908500 0.000000 0.000000 
#    y 0.000000 1.848170 0.000000 
#    z 0.000000 0.000000 1.900410 
# 
# From -- ./inp_files/1113.got.cif
#   From: 2010.05.17/outbox.cif.g08.bks.cpg/sg33_1_cif.got.tgz:1113.got - 2010.06.03 17:15:25.
