data_PCOD9345127
_publ_section_title
;
Structure prediction by ZEFSAII (Michael W. Deem and Ramdas Pophale) SiO2 
 PCOD9345127
Probable space group: P N A 21
;
_chemical_formula_sum "Si O2"
_cell_formula_units_Z 32
_cell_length_a 14.472941
_cell_length_b 8.092635
_cell_length_c 11.675631
_cell_angle_alpha 90.000000
_cell_angle_beta 90.000000
_cell_angle_gamma 90.000000
_cell_volume 1367.499278
_symmetry_space_group_name_H-M "P N A 21"
_symmetry_group_IT_number 33
_symmetry_cell_setting 'orthorhombic'
loop_
_space_group_symop_operation_xyz
x,y,z
-x,-y,1/2+z
1/2-x,1/2+y,1/2+z
1/2+x,1/2-y,z
loop_
_atom_site_type_symbol
_atom_site_label
_atom_site_fract_x
_atom_site_fract_y
_atom_site_fract_z
Si Si1 0.240972 0.153708 0.152430
Si Si2 0.104814 0.769964 0.782032
Si Si3 0.047360 0.112021 0.048019
Si Si4 0.231317 0.816271 0.241658
Si Si5 0.121390 0.677410 0.445823
Si Si6 0.020848 0.539294 0.241890
Si Si7 0.592580 0.371645 0.791023
Si Si8 0.088465 0.749447 0.049082
O O1 0.296443 0.294748 0.220010
O O2 0.130585 0.167012 0.134540
O O3 0.266728 0.001143 0.235417
O O4 0.299033 0.127756 0.035270
O O5 0.042232 0.620317 0.737770
O O6 0.055640 0.946719 0.760561
O O7 0.112158 0.733503 0.916824
O O8 0.024323 0.914900 0.059010
O O9 0.102365 0.120280 0.927414
O O10 0.958538 0.225439 0.016805
O O11 0.167087 0.798775 0.352198
O O12 0.308830 0.678194 0.242187
O O13 0.175329 0.801135 0.124824
O O14 0.084347 0.534771 0.357731
O O15 0.969637 0.713774 0.264416
O O16 0.058829 0.581272 0.114351
#
# Coordination Sequence:
#
# PCOD9345127 Si02
#       8
#     4   4   4   4   4   4   4   4
#     4  11  22  41  73 104 144 187 244 299 360 445
#     4  11  24  40  66 101 140 182 239 288 364 432
#     4   9  20  42  72 100 142 184 247 298 361 434
#     4  10  20  44  73  97 138 192 242 297 373 422
#     4  10  22  41  77 105 140 196 239 306 371 426
#     4  10  22  42  69  98 141 184 238 296 356 426
#     4  10  20  42  66  96 138 183 233 298 350 427
#     4   9  22  42  66  97 139 188 238 302 355 438
#
# _framework density 23.400378
#
# number of rings (size 3 to 8) (size 9 to 14) (size 15 to 20)
#    0.000    2.000    2.500    0.000    3.500    0.000 
#    9.000    0.000    0.000    0.000    0.000    0.000 
#    0.000    0.000    0.000    0.000    0.000    0.000 
#
# Total GULP energy -178359.818398 kJ/mol
# GULP energy per Si atom -5573.744325 kJ/mol
# Density = 2.334712 g / cm^3
# Si number density = 23.400378 Si / 1000 Ang^3
#
#
#
# Elastic Constant Matrix: (Units=GPa)
#
#
# Indices 1 2 3 4 5 6 
#
# 1 90.2039 21.3812 21.4649 0.0000 0.0000 0.0000
# 2 21.3812 66.5668 4.1560 0.0000 0.0000 0.0000
# 3 21.4649 4.1560 105.5349 0.0000 0.0000 0.0000
# 4 0.0000 0.0000 0.0000 12.2947 0.0000 0.0000
# 5 0.0000 0.0000 0.0000 0.0000 2.8518 0.0000
# 6 0.0000 0.0000 0.0000 0.0000 0.0000 20.7661
#
#
#
# Elastic Compliance Matrix: (Units=1/GPa)
#
#
# Indices 1 2 3 4 5 6 
#
# 1 0.012581 -0.003891 -0.002406 0.000000 0.000000 0.000000
# 2 -0.003891 0.016263 0.000151 0.000000 0.000000 0.000000
# 3 -0.002406 0.000151 0.009959 0.000000 0.000000 0.000000
# 4 0.000000 0.000000 0.000000 0.081336 0.000000 0.000000
# 5 0.000000 0.000000 0.000000 0.000000 0.350650 0.000000
# 6 0.000000 0.000000 0.000000 0.000000 0.000000 0.048155
#
#
# Mechanical properties :
#
#
# Convention : Reuss Voigt Hill
#
# Bulk Modulus (GPa) = 37.71944 39.58998 38.65471
# Shear Modulus (GPa) = 9.25803 21.53610 15.39707
#
# Velocity S-wave (km/s) = 1.99122 3.03699 2.56790
# Velocity P-wave (km/s) = 4.63042 5.40860 5.03457
#
# Compressibility (1/GPa) = 0.02651153
#
# Stress axis : x y z
#
# Youngs Moduli (GPa) = 79.48718 61.49015 100.41304
#
# Poissons Ratio (x) = 0.23924 0.24155
# Poissons Ratio (y) = 0.30926 -0.01515
# Poissons Ratio (z) = 0.19121 -0.00928
#
# Static dielectric constant tensor:
#      x y z
#    x 1.995130 0.000000 0.000000 
#    y 0.000000 2.060650 0.000000 
#    z 0.000000 0.000000 1.935500 
# 
# From -- ./inp_files/6778.got.cif
#   From: 2010.05.17/outbox.cif.g08.bks.cpg/sg33_4_cif.got.tgz:6778.got - 2010.06.03 17:15:25.
