data_PCOD9345609
_publ_section_title
;
Structure prediction by ZEFSAII (Michael W. Deem and Ramdas Pophale) SiO2 
 PCOD9345609
Probable space group: P N A 21
;
_chemical_formula_sum "Si O2"
_cell_formula_units_Z 20
_cell_length_a 19.674852
_cell_length_b 5.399485
_cell_length_c 7.260951
_cell_angle_alpha 90.000000
_cell_angle_beta 90.000000
_cell_angle_gamma 90.000000
_cell_volume 771.360364
_symmetry_space_group_name_H-M "P N A 21"
_symmetry_group_IT_number 33
_symmetry_cell_setting 'orthorhombic'
loop_
_space_group_symop_operation_xyz
x,y,z
-x,-y,1/2+z
1/2-x,1/2+y,1/2+z
1/2+x,1/2-y,z
loop_
_atom_site_type_symbol
_atom_site_label
_atom_site_fract_x
_atom_site_fract_y
_atom_site_fract_z
Si Si1 0.542724 0.814002 0.516350
Si Si2 0.064494 0.175276 0.314752
Si Si3 0.647170 0.726603 0.830624
Si Si4 0.710752 0.379437 0.453693
Si Si5 0.821793 0.735518 0.378425
O O1 0.479271 0.771925 0.646893
O O2 0.538995 0.602652 0.361038
O O3 0.609630 0.733743 0.636294
O O4 0.550168 0.099534 0.459903
O O5 0.145697 0.147453 0.325670
O O6 0.729122 0.724410 0.856247
O O7 0.633733 0.472045 0.932240
O O8 0.632351 0.993470 0.913749
O O9 0.748366 0.649249 0.456283
O O10 0.692969 0.278580 0.658053
#
# Coordination Sequence:
#
# PCOD9345609 Si02
#       5
#     4   4   4   4   4
#     4  12  25  49  68 103 142 187 235 285 354 410
#     4  12  26  46  72  99 145 187 232 291 344 425
#     4  10  22  40  67  93 129 174 220 286 331 413
#     4  10  23  41  67  97 130 178 221 288 342 407
#     4  10  22  36  68  92 128 170 222 274 347 395
#
# _framework density 25.928218000000001
#
# number of rings (size 3 to 8) (size 9 to 14) (size 15 to 20)
#    1.200    0.000    4.000    1.200    5.600    1.600 
#    3.600    0.000    0.000    0.000    0.000    0.000 
#    0.000    0.000    0.000    0.000    0.000    0.000 
#
# Total GULP energy -111536.994633 kJ/mol
# GULP energy per Si atom -5576.849732 kJ/mol
# Density = 2.586920 g / cm^3
# Si number density = 25.928218 Si / 1000 Ang^3
#
#
#
# Elastic Constant Matrix: (Units=GPa)
#
#
# Indices 1 2 3 4 5 6 
#
# 1 68.0499 -9.4370 32.2420 0.0000 0.0000 0.0000
# 2 -9.4370 165.0834 -1.1145 0.0000 0.0000 0.0000
# 3 32.2420 -1.1145 55.3688 0.0000 0.0000 0.0000
# 4 0.0000 0.0000 0.0000 36.4398 0.0000 0.0000
# 5 0.0000 0.0000 0.0000 0.0000 41.2106 0.0000
# 6 0.0000 0.0000 0.0000 0.0000 0.0000 20.0611
#
#
#
# Elastic Compliance Matrix: (Units=1/GPa)
#
#
# Indices 1 2 3 4 5 6 
#
# 1 0.020489 0.001091 -0.011909 0.000000 0.000000 0.000000
# 2 0.001091 0.006116 -0.000512 0.000000 0.000000 0.000000
# 3 -0.011909 -0.000512 0.024985 0.000000 0.000000 0.000000
# 4 0.000000 0.000000 0.000000 0.027443 0.000000 0.000000
# 5 0.000000 0.000000 0.000000 0.000000 0.024266 0.000000
# 6 0.000000 0.000000 0.000000 0.000000 0.000000 0.049848
#
#
# Mechanical properties :
#
#
# Convention : Reuss Voigt Hill
#
# Bulk Modulus (GPa) = 34.56622 36.87592 35.72107
# Shear Modulus (GPa) = 26.96144 37.32973 32.14559
#
# Velocity S-wave (km/s) = 3.22817 3.79850 3.52489
# Velocity P-wave (km/s) = 5.22065 5.78717 5.51119
#
# Compressibility (1/GPa) = 0.02892998
#
# Stress axis : x y z
#
# Youngs Moduli (GPa) = 48.80703 163.49364 40.02374
#
# Poissons Ratio (x) = -0.17835 0.47664
# Poissons Ratio (y) = -0.05324 0.02050
# Poissons Ratio (z) = 0.58124 0.08373
#
# Static dielectric constant tensor:
#      x y z
#    x 1.995660 0.000000 0.000000 
#    y 0.000000 2.236340 0.000000 
#    z 0.000000 0.000000 2.049730 
# 
# From -- ./inp_files/4584.got.cif
#   From: 2010.05.17/outbox.cif.g08.bks.cpg/sg33_3_cif.got.tgz:4584.got - 2010.06.03 17:15:25.
