data_PCOD9345605
_publ_section_title
;
Structure prediction by ZEFSAII (Michael W. Deem and Ramdas Pophale) SiO2 
 PCOD9345605
Probable space group: P N A 21
;
_chemical_formula_sum "Si O2"
_cell_formula_units_Z 20
_cell_length_a 15.461172
_cell_length_b 7.274883
_cell_length_c 7.504835
_cell_angle_alpha 90.000000
_cell_angle_beta 90.000000
_cell_angle_gamma 90.000000
_cell_volume 844.130462
_symmetry_space_group_name_H-M "P N A 21"
_symmetry_group_IT_number 33
_symmetry_cell_setting 'orthorhombic'
loop_
_space_group_symop_operation_xyz
x,y,z
-x,-y,1/2+z
1/2-x,1/2+y,1/2+z
1/2+x,1/2-y,z
loop_
_atom_site_type_symbol
_atom_site_label
_atom_site_fract_x
_atom_site_fract_y
_atom_site_fract_z
Si Si1 0.596140 0.402028 0.591350
Si Si2 0.478213 0.852031 0.368019
Si Si3 0.407164 0.825125 0.754659
Si Si4 0.699632 0.079530 0.719425
Si Si5 0.723176 0.695575 0.581264
O O1 0.632598 0.602193 0.633963
O O2 0.526855 0.317980 0.730201
O O3 0.573793 0.340012 0.391823
O O4 0.680833 0.271465 0.624431
O O5 0.457007 0.794738 0.568273
O O6 0.393449 0.968266 0.307117
O O7 0.558114 0.986543 0.343220
O O8 0.306600 0.850120 0.702581
O O9 0.724279 0.915289 0.591950
O O10 0.762002 0.118266 0.883409
#
# Coordination Sequence:
#
# PCOD9345605 Si02
#       5
#     4   4   4   4   4
#     4  10  22  36  63  83 125 161 202 259 318 371
#     4   9  20  37  62  84 121 162 207 245 325 374
#     4  11  19  37  63  89 117 166 203 258 315 382
#     4   9  22  36  60  89 122 156 211 255 312 377
#     4  11  21  38  62  93 121 161 211 263 308 382
#
# _framework density 23.693017999999999
#
# number of rings (size 3 to 8) (size 9 to 14) (size 15 to 20)
#    1.200    0.800    4.000    0.000    2.800    0.000 
#    0.000    0.000   13.200    0.000    0.000    0.000 
#    0.000    0.000    0.000    0.000    0.000    0.000 
#
# Total GULP energy -111611.181437 kJ/mol
# GULP energy per Si atom -5580.559072 kJ/mol
# Density = 2.363909 g / cm^3
# Si number density = 23.693018 Si / 1000 Ang^3
#
#
#
# Elastic Constant Matrix: (Units=GPa)
#
#
# Indices 1 2 3 4 5 6 
#
# 1 61.8943 9.2288 14.3691 0.0000 0.0000 0.0000
# 2 9.2288 83.4127 23.5557 0.0000 0.0000 0.0000
# 3 14.3691 23.5557 140.9758 0.0000 0.0000 0.0000
# 4 0.0000 0.0000 0.0000 14.3385 0.0000 0.0000
# 5 0.0000 0.0000 0.0000 0.0000 23.2637 0.0000
# 6 0.0000 0.0000 0.0000 0.0000 0.0000 38.2636
#
#
#
# Elastic Compliance Matrix: (Units=1/GPa)
#
#
# Indices 1 2 3 4 5 6 
#
# 1 0.016710 -0.001436 -0.001463 0.000000 0.000000 0.000000
# 2 -0.001436 0.012706 -0.001977 0.000000 0.000000 0.000000
# 3 -0.001463 -0.001977 0.007573 0.000000 0.000000 0.000000
# 4 0.000000 0.000000 0.000000 0.069742 0.000000 0.000000
# 5 0.000000 0.000000 0.000000 0.000000 0.042985 0.000000
# 6 0.000000 0.000000 0.000000 0.000000 0.000000 0.026134
#
#
# Mechanical properties :
#
#
# Convention : Reuss Voigt Hill
#
# Bulk Modulus (GPa) = 36.71392 42.28778 39.50085
# Shear Modulus (GPa) = 25.68301 31.11513 28.39907
#
# Velocity S-wave (km/s) = 3.29597 3.62783 3.46587
# Velocity P-wave (km/s) = 5.47849 5.95274 5.72053
#
# Compressibility (1/GPa) = 0.02723762
#
# Stress axis : x y z
#
# Youngs Moduli (GPa) = 59.84318 78.70524 132.05070
#
# Poissons Ratio (x) = 0.11299 0.19324
# Poissons Ratio (y) = 0.08591 0.26102
# Poissons Ratio (z) = 0.08757 0.15557
#
# Static dielectric constant tensor:
#      x y z
#    x 1.940920 0.000000 0.000000 
#    y 0.000000 1.907870 0.000000 
#    z 0.000000 0.000000 1.918030 
# 
# From -- ./inp_files/4643.got.cif
#   From: 2010.05.17/outbox.cif.g08.bks.cpg/sg33_3_cif.got.tgz:4643.got - 2010.06.03 17:15:25.
