data_PCOD9345813
_publ_section_title
;
Structure prediction by ZEFSAII (Michael W. Deem and Ramdas Pophale) SiO2 
 PCOD9345813
Probable space group: P N A 21
;
_chemical_formula_sum "Si O2"
_cell_formula_units_Z 32
_cell_length_a 16.141114
_cell_length_b 15.778285
_cell_length_c 5.223035
_cell_angle_alpha 90.000000
_cell_angle_beta 90.000000
_cell_angle_gamma 90.000000
_cell_volume 1330.197837
_symmetry_space_group_name_H-M "P N A 21"
_symmetry_group_IT_number 33
_symmetry_cell_setting 'orthorhombic'
loop_
_space_group_symop_operation_xyz
x,y,z
-x,-y,1/2+z
1/2-x,1/2+y,1/2+z
1/2+x,1/2-y,z
loop_
_atom_site_type_symbol
_atom_site_label
_atom_site_fract_x
_atom_site_fract_y
_atom_site_fract_z
Si Si1 0.413661 0.772063 0.081090
Si Si2 0.327847 0.428554 0.500210
Si Si3 0.463982 0.308293 0.225817
Si Si4 0.678246 0.111169 0.215765
Si Si5 0.049735 0.507399 0.052474
Si Si6 0.969385 0.958992 0.449503
Si Si7 0.743885 0.719514 0.332386
Si Si8 0.919040 0.325536 0.862705
O O1 0.328454 0.744855 0.212392
O O2 0.491498 0.796547 0.254530
O O3 0.453436 0.705254 0.888283
O O4 0.384121 0.855671 0.930295
O O5 0.394761 0.364019 0.370416
O O6 0.250598 0.447707 0.318852
O O7 0.378254 0.514512 0.547455
O O8 0.286857 0.372254 0.723723
O O9 0.493830 0.365839 0.987362
O O10 0.429433 0.215660 0.148907
O O11 0.620416 0.063514 0.016618
O O12 0.726406 0.194307 0.115867
O O13 0.086458 0.582960 0.228523
O O14 0.982482 0.473104 0.264815
O O15 0.976951 0.986234 0.154869
O O16 0.665929 0.778750 0.289779
#
# Coordination Sequence:
#
# PCOD9345813 Si02
#       8
#     4   4   4   4   4   4   4   4
#     4  11  23  43  68 103 139 182 238 308 364 433
#     4  10  22  42  70  99 142 191 237 292 378 433
#     4  11  22  42  70 102 144 185 242 300 366 443
#     4  11  24  47  68 100 144 188 242 309 362 443
#     4  12  27  49  74 104 143 195 251 302 370 436
#     4  10  23  41  66 103 142 187 237 286 358 445
#     4  11  23  43  71 103 140 191 247 305 371 436
#     4  12  24  45  75 102 142 195 246 298 373 441
#
# _framework density 24.056571999999999
#
# number of rings (size 3 to 8) (size 9 to 14) (size 15 to 20)
#    0.000    1.000    3.750    3.000    5.250    0.000 
#    6.750    0.000    0.000    0.000    0.000    0.000 
#    0.000    0.000    0.000    0.000    0.000    0.000 
#
# Total GULP energy -178373.025326 kJ/mol
# GULP energy per Si atom -5574.157041 kJ/mol
# Density = 2.400182 g / cm^3
# Si number density = 24.056572 Si / 1000 Ang^3
#
#
#
# Elastic Constant Matrix: (Units=GPa)
#
#
# Indices 1 2 3 4 5 6 
#
# 1 161.8713 15.5397 16.9847 0.0000 0.0000 0.0000
# 2 15.5397 54.4557 -3.5946 0.0000 0.0000 0.0000
# 3 16.9847 -3.5946 48.5037 0.0000 0.0000 0.0000
# 4 0.0000 0.0000 0.0000 23.9671 0.0000 0.0000
# 5 0.0000 0.0000 0.0000 0.0000 31.4456 0.0000
# 6 0.0000 0.0000 0.0000 0.0000 0.0000 39.3129
#
#
#
# Elastic Compliance Matrix: (Units=1/GPa)
#
#
# Indices 1 2 3 4 5 6 
#
# 1 0.006635 -0.002057 -0.002476 0.000000 0.000000 0.000000
# 2 -0.002057 0.019091 0.002135 0.000000 0.000000 0.000000
# 3 -0.002476 0.002135 0.021642 0.000000 0.000000 0.000000
# 4 0.000000 0.000000 0.000000 0.041724 0.000000 0.000000
# 5 0.000000 0.000000 0.000000 0.000000 0.031801 0.000000
# 6 0.000000 0.000000 0.000000 0.000000 0.000000 0.025437
#
#
# Mechanical properties :
#
#
# Convention : Reuss Voigt Hill
#
# Bulk Modulus (GPa) = 23.48875 35.85448 29.67161
# Shear Modulus (GPa) = 30.24501 34.67185 32.45843
#
# Velocity S-wave (km/s) = 3.54961 3.80052 3.67720
# Velocity P-wave (km/s) = 5.15605 5.84766 5.51271
#
# Compressibility (1/GPa) = 0.04257357
#
# Stress axis : x y z
#
# Youngs Moduli (GPa) = 150.71629 52.37946 46.20607
#
# Poissons Ratio (x) = 0.10774 0.11440
# Poissons Ratio (y) = 0.31000 -0.09866
# Poissons Ratio (z) = 0.37315 -0.11184
#
# Static dielectric constant tensor:
#      x y z
#    x 1.898000 0.000000 0.000000 
#    y 0.000000 1.985280 0.000000 
#    z 0.000000 0.000000 2.028900 
# 
# From -- ./inp_files/1470.got.cif
#   From: 2010.05.17/outbox.cif.g08.bks.cpg/sg33_1_cif.got.tgz:1470.got - 2010.06.03 17:15:25.
