data_PCOD9345476
_publ_section_title
;
Structure prediction by ZEFSAII (Michael W. Deem and Ramdas Pophale) SiO2 
 PCOD9345476
Probable space group: P N A 21
;
_chemical_formula_sum "Si O2"
_cell_formula_units_Z 32
_cell_length_a 13.283840
_cell_length_b 8.346276
_cell_length_c 13.298422
_cell_angle_alpha 90.000000
_cell_angle_beta 90.000000
_cell_angle_gamma 90.000000
_cell_volume 1474.403959
_symmetry_space_group_name_H-M "P N A 21"
_symmetry_group_IT_number 33
_symmetry_cell_setting 'orthorhombic'
loop_
_space_group_symop_operation_xyz
x,y,z
-x,-y,1/2+z
1/2-x,1/2+y,1/2+z
1/2+x,1/2-y,z
loop_
_atom_site_type_symbol
_atom_site_label
_atom_site_fract_x
_atom_site_fract_y
_atom_site_fract_z
Si Si1 0.285276 0.548802 0.489710
Si Si2 0.116739 0.963410 0.548396
Si Si3 0.044363 0.272919 0.961758
Si Si4 0.556388 0.699881 0.033473
Si Si5 0.194851 0.350628 0.309761
Si Si6 0.525423 0.900331 0.842674
Si Si7 0.840332 0.320931 0.176242
Si Si8 0.658655 0.002183 0.104959
O O1 0.354864 0.676722 0.429992
O O2 0.368621 0.447339 0.549404
O O3 0.233891 0.432102 0.410411
O O4 0.207328 0.618000 0.571799
O O5 0.112938 0.852922 0.648731
O O6 0.050287 0.847968 0.473882
O O7 0.237393 0.995856 0.537831
O O8 0.054867 0.128946 0.549400
O O9 0.016548 0.426473 0.895039
O O10 0.087621 0.353204 0.065256
O O11 0.591971 0.844613 0.101547
O O12 0.575149 0.778877 0.923179
O O13 0.255343 0.205419 0.260808
O O14 0.194505 0.475914 0.218029
O O15 0.079620 0.313440 0.326364
O O16 0.578722 0.922419 0.735959
#
# Coordination Sequence:
#
# PCOD9345476 Si02
#       8
#     4   4   4   4   4   4   4   4
#     4  11  22  43  69  92 133 178 223 277 341 404
#     4  10  21  41  68  90 132 184 212 281 339 393
#     4  10  21  41  67  99 129 174 229 273 342 412
#     4  10  24  41  66 101 130 174 231 274 337 413
#     4  11  23  41  66  97 131 174 225 272 338 408
#     4  11  24  40  67 101 134 172 226 279 333 415
#     4  11  23  43  66  97 138 179 220 282 346 405
#     4  10  22  44  65  95 139 169 228 284 334 406
#
# _framework density 21.703686999999999
#
# number of rings (size 3 to 8) (size 9 to 14) (size 15 to 20)
#    0.000    1.500    3.750    1.500    3.500    2.000 
#    4.500    1.250    0.000    0.000    0.000    0.000 
#    0.000    0.000    0.000    0.000    0.000    0.000 
#
# Total GULP energy -178256.248815 kJ/mol
# GULP energy per Si atom -5570.507775 kJ/mol
# Density = 2.165429 g / cm^3
# Si number density = 21.703687 Si / 1000 Ang^3
#
#
#
# Elastic Constant Matrix: (Units=GPa)
#
#
# Indices 1 2 3 4 5 6 
#
# 1 71.6882 19.4749 26.6650 0.0000 0.0000 0.0000
# 2 19.4749 61.4500 -6.9941 0.0000 0.0000 0.0000
# 3 26.6650 -6.9941 58.5993 0.0000 0.0000 0.0000
# 4 0.0000 0.0000 0.0000 16.1575 0.0000 0.0000
# 5 0.0000 0.0000 0.0000 0.0000 31.4855 0.0000
# 6 0.0000 0.0000 0.0000 0.0000 0.0000 39.9534
#
#
#
# Elastic Compliance Matrix: (Units=1/GPa)
#
#
# Indices 1 2 3 4 5 6 
#
# 1 0.019575 -0.007317 -0.009781 0.000000 0.000000 0.000000
# 2 -0.007317 0.019233 0.005625 0.000000 0.000000 0.000000
# 3 -0.009781 0.005625 0.022187 0.000000 0.000000 0.000000
# 4 0.000000 0.000000 0.000000 0.061891 0.000000 0.000000
# 5 0.000000 0.000000 0.000000 0.000000 0.031761 0.000000
# 6 0.000000 0.000000 0.000000 0.000000 0.000000 0.025029
#
#
# Mechanical properties :
#
#
# Convention : Reuss Voigt Hill
#
# Bulk Modulus (GPa) = 26.28177 30.00323 28.14250
# Shear Modulus (GPa) = 23.22304 27.69208 25.45756
#
# Velocity S-wave (km/s) = 3.27464 3.57587 3.42857
# Velocity P-wave (km/s) = 5.14134 5.55906 5.35427
#
# Compressibility (1/GPa) = 0.03804919
#
# Stress axis : x y z
#
# Youngs Moduli (GPa) = 51.08547 51.99521 45.07142
#
# Poissons Ratio (x) = 0.38045 0.44083
# Poissons Ratio (y) = 0.37379 -0.25353
# Poissons Ratio (z) = 0.49965 -0.29247
#
# Static dielectric constant tensor:
#      x y z
#    x 1.887980 0.000000 0.000000 
#    y 0.000000 1.819840 0.000000 
#    z 0.000000 0.000000 1.839900 
# 
# From -- ./inp_files/7997.got.cif
#   From: 2010.05.17/outbox.cif.g08.bks.cpg/sg33_4_cif.got.tgz:7997.got - 2010.06.03 17:15:25.
