data_PCOD9345613
_publ_section_title
;
Structure prediction by ZEFSAII (Michael W. Deem and Ramdas Pophale) SiO2 
 PCOD9345613
Probable space group: P N A 21
;
_chemical_formula_sum "Si O2"
_cell_formula_units_Z 28
_cell_length_a 10.989096
_cell_length_b 20.074055
_cell_length_c 5.109346
_cell_angle_alpha 90.000000
_cell_angle_beta 90.000000
_cell_angle_gamma 90.000000
_cell_volume 1127.099847
_symmetry_space_group_name_H-M "P N A 21"
_symmetry_group_IT_number 33
_symmetry_cell_setting 'orthorhombic'
loop_
_space_group_symop_operation_xyz
x,y,z
-x,-y,1/2+z
1/2-x,1/2+y,1/2+z
1/2+x,1/2-y,z
loop_
_atom_site_type_symbol
_atom_site_label
_atom_site_fract_x
_atom_site_fract_y
_atom_site_fract_z
Si Si1 0.330071 0.490235 0.920340
Si Si2 0.013474 0.808451 0.584845
Si Si3 0.650082 0.896741 0.876304
Si Si4 0.756065 0.688112 0.253810
Si Si5 0.577937 0.576145 0.924713
Si Si6 0.401804 0.835895 0.739897
Si Si7 0.724191 0.339214 0.880915
O O1 0.209990 0.530776 0.841343
O O2 0.446117 0.540413 0.916079
O O3 0.359863 0.435387 0.702338
O O4 0.337363 0.459221 0.207481
O O5 0.122714 0.802224 0.381270
O O6 0.055429 0.848811 0.838404
O O7 0.961729 0.737536 0.684547
O O8 0.914130 0.857694 0.449287
O O9 0.507568 0.885722 0.833100
O O10 0.709549 0.847735 0.658796
O O11 0.698291 0.876918 0.163679
O O12 0.837213 0.647870 0.465863
O O13 0.795729 0.765648 0.272683
O O14 0.801205 0.668339 0.966593
#
# Coordination Sequence:
#
# PCOD9345613 Si02
#       7
#     4   4   4   4   4   4   4
#     4  10  22  38  58  93 127 164 208 265 323 399
#     4  11  24  43  67  95 141 172 211 281 337 395
#     4  12  22  42  65  90 131 170 214 267 324 398
#     4  11  25  41  60  95 134 171 223 259 324 402
#     4  10  22  37  60  93 130 160 212 263 330 385
#     4  11  26  42  63  96 132 176 220 263 327 404
#     4  11  23  37  61  96 125 173 202 262 337 387
#
# _framework density 24.842521999999999
#
# number of rings (size 3 to 8) (size 9 to 14) (size 15 to 20)
#    0.000    1.143    2.857    3.429    6.000    3.429 
#    0.000    0.000    0.000    3.429    0.000    0.000 
#    0.000    0.000    0.000    0.000    0.000    0.000 
#
# Total GULP energy -156737.695017 kJ/mol
# GULP energy per Si atom -5597.774822 kJ/mol
# Density = 2.478598 g / cm^3
# Si number density = 24.842522 Si / 1000 Ang^3
#
#
#
# Elastic Constant Matrix: (Units=GPa)
#
#
# Indices 1 2 3 4 5 6 
#
# 1 125.9662 8.7814 49.2384 0.0000 0.0000 0.0000
# 2 8.7814 38.7310 16.9117 0.0000 0.0000 0.0000
# 3 49.2384 16.9117 152.2270 0.0000 0.0000 0.0000
# 4 0.0000 0.0000 0.0000 32.1525 0.0000 0.0000
# 5 0.0000 0.0000 0.0000 0.0000 33.7645 0.0000
# 6 0.0000 0.0000 0.0000 0.0000 0.0000 25.7692
#
#
#
# Elastic Compliance Matrix: (Units=1/GPa)
#
#
# Indices 1 2 3 4 5 6 
#
# 1 0.009112 -0.000819 -0.002856 0.000000 0.000000 0.000000
# 2 -0.000819 0.027209 -0.002758 0.000000 0.000000 0.000000
# 3 -0.002856 -0.002758 0.007799 0.000000 0.000000 0.000000
# 4 0.000000 0.000000 0.000000 0.031102 0.000000 0.000000
# 5 0.000000 0.000000 0.000000 0.000000 0.029617 0.000000
# 6 0.000000 0.000000 0.000000 0.000000 0.000000 0.038806
#
#
# Mechanical properties :
#
#
# Convention : Reuss Voigt Hill
#
# Bulk Modulus (GPa) = 31.99549 51.86524 41.93037
# Shear Modulus (GPa) = 29.95271 34.47009 32.21140
#
# Velocity S-wave (km/s) = 3.47609 3.72902 3.60477
# Velocity P-wave (km/s) = 5.38686 6.28201 5.85158
#
# Compressibility (1/GPa) = 0.03125440
#
# Stress axis : x y z
#
# Youngs Moduli (GPa) = 109.74230 36.75255 128.21401
#
# Poissons Ratio (x) = 0.03009 0.36623
# Poissons Ratio (y) = 0.08985 0.35361
# Poissons Ratio (z) = 0.31347 0.10136
#
# Static dielectric constant tensor:
#      x y z
#    x 1.991370 0.000000 0.000000 
#    y 0.000000 2.053730 0.000000 
#    z 0.000000 0.000000 1.936550 
# 
# From -- ./inp_files/988.got.cif
#   From: 2010.05.17/outbox.cif.g08.bks.cpg/sg33_1_cif.got.tgz:988.got - 2010.06.03 17:15:25.
