data_PCOD9345642
_publ_section_title
;
Structure prediction by ZEFSAII (Michael W. Deem and Ramdas Pophale) SiO2 
 PCOD9345642
Probable space group: P N A 21
;
_chemical_formula_sum "Si O2"
_cell_formula_units_Z 32
_cell_length_a 15.280691
_cell_length_b 17.770933
_cell_length_c 5.563203
_cell_angle_alpha 90.000000
_cell_angle_beta 90.000000
_cell_angle_gamma 90.000000
_cell_volume 1510.699657
_symmetry_space_group_name_H-M "P N A 21"
_symmetry_group_IT_number 33
_symmetry_cell_setting 'orthorhombic'
loop_
_space_group_symop_operation_xyz
x,y,z
-x,-y,1/2+z
1/2-x,1/2+y,1/2+z
1/2+x,1/2-y,z
loop_
_atom_site_type_symbol
_atom_site_label
_atom_site_fract_x
_atom_site_fract_y
_atom_site_fract_z
Si Si1 0.425293 0.766576 0.110190
Si Si2 0.314829 0.420285 0.549206
Si Si3 0.471891 0.331345 0.289701
Si Si4 0.658821 0.125335 0.251351
Si Si5 0.007396 0.455342 0.022440
Si Si6 0.959272 0.969508 0.551396
Si Si7 0.746192 0.714223 0.379113
Si Si8 0.919284 0.304965 0.974468
O O1 0.331997 0.761082 0.236706
O O2 0.503331 0.787629 0.287266
O O3 0.454325 0.690401 0.980452
O O4 0.411007 0.834728 0.923082
O O5 0.390797 0.375735 0.403803
O O6 0.225651 0.426194 0.398352
O O7 0.360627 0.500483 0.592374
O O8 0.292857 0.363953 0.769468
O O9 0.517237 0.382245 0.086820
O O10 0.436481 0.252685 0.191364
O O11 0.603050 0.083793 0.048096
O O12 0.718525 0.191314 0.140545
O O13 0.999978 0.505933 0.262489
O O14 0.932940 0.391263 0.039870
O O15 0.990952 0.992765 0.283407
O O16 0.673339 0.778079 0.373475
#
# Coordination Sequence:
#
# PCOD9345642 Si02
#       8
#     4   4   4   4   4   4   4   4
#     4  11  22  41  67 107 138 183 231 307 359 426
#     4  10  22  38  70 102 140 187 235 282 361 440
#     4  11  21  39  72 101 136 186 231 290 366 425
#     4  11  23  44  71 101 139 186 241 299 360 427
#     4  12  28  49  74 101 143 199 243 298 373 437
#     4  10  23  40  63 102 147 183 225 277 352 441
#     4  11  22  40  73 104 135 185 243 299 363 424
#     4  12  23  43  76 100 138 185 249 300 358 436
#
# _framework density 21.182237000000001
#
# number of rings (size 3 to 8) (size 9 to 14) (size 15 to 20)
#    0.000    1.000    5.000    1.500    5.250    0.000 
#    0.000    3.750    0.000    0.000    0.000    0.000 
#    0.000    0.000    0.000    0.000    0.000    0.000 
#
# Total GULP energy -178710.961127 kJ/mol
# GULP energy per Si atom -5584.717535 kJ/mol
# Density = 2.113403 g / cm^3
# Si number density = 21.182237 Si / 1000 Ang^3
#
#
#
# Elastic Constant Matrix: (Units=GPa)
#
#
# Indices 1 2 3 4 5 6 
#
# 1 102.7010 17.6338 14.6812 0.0000 0.0000 0.0000
# 2 17.6338 59.3959 12.6703 0.0000 0.0000 0.0000
# 3 14.6812 12.6703 56.0930 0.0000 0.0000 0.0000
# 4 0.0000 0.0000 0.0000 39.2297 0.0000 0.0000
# 5 0.0000 0.0000 0.0000 0.0000 34.0599 0.0000
# 6 0.0000 0.0000 0.0000 0.0000 0.0000 27.9651
#
#
#
# Elastic Compliance Matrix: (Units=1/GPa)
#
#
# Indices 1 2 3 4 5 6 
#
# 1 0.010501 -0.002659 -0.002148 0.000000 0.000000 0.000000
# 2 -0.002659 0.018362 -0.003452 0.000000 0.000000 0.000000
# 3 -0.002148 -0.003452 0.019169 0.000000 0.000000 0.000000
# 4 0.000000 0.000000 0.000000 0.025491 0.000000 0.000000
# 5 0.000000 0.000000 0.000000 0.000000 0.029360 0.000000
# 6 0.000000 0.000000 0.000000 0.000000 0.000000 0.035759
#
#
# Mechanical properties :
#
#
# Convention : Reuss Voigt Hill
#
# Bulk Modulus (GPa) = 31.73116 34.24006 32.98561
# Shear Modulus (GPa) = 30.18161 31.79790 30.98976
#
# Velocity S-wave (km/s) = 3.77882 3.87868 3.82908
# Velocity P-wave (km/s) = 5.83540 6.02150 5.92918
#
# Compressibility (1/GPa) = 0.03151477
#
# Stress axis : x y z
#
# Youngs Moduli (GPa) = 95.23244 54.46035 52.16682
#
# Poissons Ratio (x) = 0.14483 0.11204
# Poissons Ratio (y) = 0.25326 0.18006
# Poissons Ratio (z) = 0.20452 0.18797
#
# Static dielectric constant tensor:
#      x y z
#    x 1.764680 0.000000 0.000000 
#    y 0.000000 1.810390 0.000000 
#    z 0.000000 0.000000 1.832270 
# 
# From -- ./inp_files/1471.got.cif
#   From: 2010.05.17/outbox.cif.g08.bks.cpg/sg33_1_cif.got.tgz:1471.got - 2010.06.03 17:15:25.
