data_PCOD9345806
_publ_section_title
;
Structure prediction by ZEFSAII (Michael W. Deem and Ramdas Pophale) SiO2 
 PCOD9345806
Probable space group: P N A 21
;
_chemical_formula_sum "Si O2"
_cell_formula_units_Z 24
_cell_length_a 12.171100
_cell_length_b 5.093603
_cell_length_c 17.467078
_cell_angle_alpha 90.000000
_cell_angle_beta 90.000000
_cell_angle_gamma 90.000000
_cell_volume 1082.867160
_symmetry_space_group_name_H-M "P N A 21"
_symmetry_group_IT_number 33
_symmetry_cell_setting 'orthorhombic'
loop_
_space_group_symop_operation_xyz
x,y,z
-x,-y,1/2+z
1/2-x,1/2+y,1/2+z
1/2+x,1/2-y,z
loop_
_atom_site_type_symbol
_atom_site_label
_atom_site_fract_x
_atom_site_fract_y
_atom_site_fract_z
Si Si1 0.844356 0.759787 0.408990
Si Si2 0.459200 0.240363 0.482970
Si Si3 0.540800 0.740365 0.653028
Si Si4 0.655333 0.575876 0.507934
Si Si5 0.155333 0.575877 0.128064
Si Si6 0.344356 0.759785 0.227007
O O1 0.921436 0.528163 0.443189
O O2 0.720953 0.715178 0.440461
O O3 0.847570 0.750000 0.317999
O O4 0.889802 0.031630 0.441753
O O5 0.585617 0.328685 0.478384
O O6 0.426261 0.237897 0.573022
O O7 0.573740 0.737896 0.562975
O O8 0.578565 0.471840 0.692809
O O9 0.414383 0.828685 0.657613
O O10 0.610198 0.968373 0.694244
O O11 0.750000 0.499997 0.567999
O O12 0.220952 0.715178 0.195537
#
# Coordination Sequence:
#
# PCOD9345806 Si02
#       6
#     4   4   4   4   4   4
#     4  11  25  44  66  97 138 178 220 272 340 406
#     4  11  23  42  68 100 132 173 227 281 327 392
#     4  11  23  42  68 100 132 173 227 281 327 392
#     4  10  22  42  69  95 128 173 223 273 326 390
#     4  10  22  42  69  95 128 173 223 273 326 390
#     4  11  25  44  66  97 138 178 220 272 340 406
#
# _framework density 22.163384000000001
#
# number of rings (size 3 to 8) (size 9 to 14) (size 15 to 20)
#    0.000    1.333    0.000    6.000    0.000    9.333 
#    0.000   10.000    0.000    0.000    0.000    0.000 
#    0.000    0.000    0.000    0.000    0.000    0.000 
#
# Total GULP energy -134276.644244 kJ/mol
# GULP energy per Si atom -5594.860177 kJ/mol
# Density = 2.211294 g / cm^3
# Si number density = 22.163384 Si / 1000 Ang^3
#
#
#
# Elastic Constant Matrix: (Units=GPa)
#
#
# Indices 1 2 3 4 5 6 
#
# 1 94.6284 3.9510 33.9495 0.0000 0.0000 0.0000
# 2 3.9510 89.8392 46.4994 0.0000 0.0000 0.0000
# 3 33.9495 46.4994 169.1716 0.0000 0.0000 0.0000
# 4 0.0000 0.0000 0.0000 20.2749 0.0000 0.0000
# 5 0.0000 0.0000 0.0000 0.0000 24.0328 0.0000
# 6 0.0000 0.0000 0.0000 0.0000 0.0000 23.4615
#
#
#
# Elastic Compliance Matrix: (Units=1/GPa)
#
#
# Indices 1 2 3 4 5 6 
#
# 1 0.011436 0.000799 -0.002515 0.000000 0.000000 0.000000
# 2 0.000799 0.013033 -0.003743 0.000000 0.000000 0.000000
# 3 -0.002515 -0.003743 0.007444 0.000000 0.000000 0.000000
# 4 0.000000 0.000000 0.000000 0.049322 0.000000 0.000000
# 5 0.000000 0.000000 0.000000 0.000000 0.041610 0.000000
# 6 0.000000 0.000000 0.000000 0.000000 0.000000 0.042623
#
#
# Mechanical properties :
#
#
# Convention : Reuss Voigt Hill
#
# Bulk Modulus (GPa) = 47.62644 58.04875 52.83759
# Shear Modulus (GPa) = 27.26507 31.50313 29.38410
#
# Velocity S-wave (km/s) = 3.51120 3.77424 3.64510
# Velocity P-wave (km/s) = 6.16227 6.72617 6.45038
#
# Compressibility (1/GPa) = 0.02099674
#
# Stress axis : x y z
#
# Youngs Moduli (GPa) = 87.43967 76.72846 134.32763
#
# Poissons Ratio (x) = -0.06127 0.33778
# Poissons Ratio (y) = -0.06982 0.50273
# Poissons Ratio (z) = 0.21987 0.28716
#
# Static dielectric constant tensor:
#      x y z
#    x 1.875030 0.000000 0.000000 
#    y 0.000000 1.850530 0.000000 
#    z 0.000000 0.000000 1.765920 
# 
# From -- ./inp_files/8615.got.cif
#   From: 2010.05.17/outbox.cif.g08.bks.cpg/sg33_5_cif.got.tgz:8615.got - 2010.06.03 17:15:25.
