data_PCOD9345823
_publ_section_title
;
Structure prediction by ZEFSAII (Michael W. Deem and Ramdas Pophale) SiO2 
 PCOD9345823
Probable space group: P N A 21
;
_chemical_formula_sum "Si O2"
_cell_formula_units_Z 28
_cell_length_a 7.626952
_cell_length_b 26.174688
_cell_length_c 5.133244
_cell_angle_alpha 90.000000
_cell_angle_beta 90.000000
_cell_angle_gamma 90.000000
_cell_volume 1024.765356
_symmetry_space_group_name_H-M "P N A 21"
_symmetry_group_IT_number 33
_symmetry_cell_setting 'orthorhombic'
loop_
_space_group_symop_operation_xyz
x,y,z
-x,-y,1/2+z
1/2-x,1/2+y,1/2+z
1/2+x,1/2-y,z
loop_
_atom_site_type_symbol
_atom_site_label
_atom_site_fract_x
_atom_site_fract_y
_atom_site_fract_z
Si Si1 0.907969 0.310970 0.321440
Si Si2 0.603032 0.903417 0.431671
Si Si3 0.895340 0.838872 0.210605
Si Si4 0.352232 0.445439 0.163991
Si Si5 0.267086 0.504836 0.662184
Si Si6 0.263901 0.857436 0.297213
Si Si7 0.851817 0.745859 0.572837
O O1 0.748998 0.314091 0.520326
O O2 0.845878 0.267652 0.116173
O O3 0.094322 0.283431 0.345838
O O4 0.917585 0.364286 0.172708
O O5 0.787172 0.888855 0.297678
O O6 0.615008 0.959032 0.553640
O O7 0.444794 0.888121 0.237340
O O8 0.922111 0.798630 0.443833
O O9 0.090824 0.852275 0.117898
O O10 0.291458 0.459577 0.453016
O O11 0.556716 0.460510 0.156731
O O12 0.261391 0.483337 0.952759
O O13 0.311000 0.390132 0.044776
O O14 0.333032 0.802120 0.381271
#
# Coordination Sequence:
#
# PCOD9345823 Si02
#       7
#     4   4   4   4   4   4   4
#     4  10  23  38  66  96 131 187 225 295 361 424
#     4  10  24  43  66 101 139 180 237 293 354 438
#     4  11  23  44  66  95 141 183 228 302 361 433
#     4  10  23  43  72 106 138 194 234 298 363 438
#     4  10  22  44  72 102 148 183 242 293 369 428
#     4  11  23  45  68  98 138 183 242 291 364 436
#     4  10  22  43  60  98 135 176 242 288 354 439
#
# _framework density 27.323331
#
# number of rings (size 3 to 8) (size 9 to 14) (size 15 to 20)
#    0.000    1.714    2.857    0.000    4.000    2.286 
#    7.714    0.000    0.000    0.000    0.000    0.000 
#    0.000    0.000    0.000    0.000    0.000    0.000 
#
# Total GULP energy -156352.290564 kJ/mol
# GULP energy per Si atom -5584.010377 kJ/mol
# Density = 2.726114 g / cm^3
# Si number density = 27.323331 Si / 1000 Ang^3
#
#
#
# Elastic Constant Matrix: (Units=GPa)
#
#
# Indices 1 2 3 4 5 6 
#
# 1 147.3663 24.9503 31.4091 0.0000 0.0000 0.0000
# 2 24.9503 85.7334 7.4532 0.0000 0.0000 0.0000
# 3 31.4091 7.4532 80.2145 0.0000 0.0000 0.0000
# 4 0.0000 0.0000 0.0000 19.9742 0.0000 0.0000
# 5 0.0000 0.0000 0.0000 0.0000 32.4729 0.0000
# 6 0.0000 0.0000 0.0000 0.0000 0.0000 53.7149
#
#
#
# Elastic Compliance Matrix: (Units=1/GPa)
#
#
# Indices 1 2 3 4 5 6 
#
# 1 0.007730 -0.002003 -0.002841 0.000000 0.000000 0.000000
# 2 -0.002003 0.012278 -0.000357 0.000000 0.000000 0.000000
# 3 -0.002841 -0.000357 0.013612 0.000000 0.000000 0.000000
# 4 0.000000 0.000000 0.000000 0.050065 0.000000 0.000000
# 5 0.000000 0.000000 0.000000 0.000000 0.030795 0.000000
# 6 0.000000 0.000000 0.000000 0.000000 0.000000 0.018617
#
#
# Mechanical properties :
#
#
# Convention : Reuss Voigt Hill
#
# Bulk Modulus (GPa) = 43.06640 48.99327 46.02983
# Shear Modulus (GPa) = 33.06068 37.86584 35.46326
#
# Velocity S-wave (km/s) = 3.48225 3.72673 3.60656
# Velocity P-wave (km/s) = 5.65368 6.04052 5.85030
#
# Compressibility (1/GPa) = 0.02321996
#
# Stress axis : x y z
#
# Youngs Moduli (GPa) = 129.35981 81.44711 73.46416
#
# Poissons Ratio (x) = 0.16312 0.20870
# Poissons Ratio (y) = 0.25907 0.02620
# Poissons Ratio (z) = 0.36749 0.02905
#
# Static dielectric constant tensor:
#      x y z
#    x 2.409280 0.000000 0.000000 
#    y 0.000000 1.943690 0.000000 
#    z 0.000000 0.000000 2.163420 
# 
# From -- ./inp_files/487.got.cif
#   From: 2010.05.17/outbox.cif.g08.bks.cpg/sg33_1_cif.got.tgz:487.got - 2010.06.03 17:15:25.
