data_PCOD9345664
_publ_section_title
;
Structure prediction by ZEFSAII (Michael W. Deem and Ramdas Pophale) SiO2 
 PCOD9345664
Probable space group: P N A 21
;
_chemical_formula_sum "Si O2"
_cell_formula_units_Z 32
_cell_length_a 9.127467
_cell_length_b 14.021723
_cell_length_c 10.562154
_cell_angle_alpha 90.000000
_cell_angle_beta 90.000000
_cell_angle_gamma 90.000000
_cell_volume 1351.774190
_symmetry_space_group_name_H-M "P N A 21"
_symmetry_group_IT_number 33
_symmetry_cell_setting 'orthorhombic'
loop_
_space_group_symop_operation_xyz
x,y,z
-x,-y,1/2+z
1/2-x,1/2+y,1/2+z
1/2+x,1/2-y,z
loop_
_atom_site_type_symbol
_atom_site_label
_atom_site_fract_x
_atom_site_fract_y
_atom_site_fract_z
Si Si1 0.317708 0.543988 0.406920
Si Si2 0.276848 0.829701 0.261210
Si Si3 0.562260 0.998523 0.784524
Si Si4 0.745333 0.989912 0.139514
Si Si5 0.641212 0.837452 0.940136
Si Si6 0.468605 0.161802 0.934456
Si Si7 0.914120 0.150449 0.010681
Si Si8 0.701610 0.163833 0.492306
O O1 0.349836 0.539222 0.256793
O O2 0.198178 0.628685 0.419707
O O3 0.456305 0.576140 0.486846
O O4 0.254071 0.441250 0.450353
O O5 0.433714 0.795853 0.317452
O O6 0.165909 0.829070 0.375971
O O7 0.236306 0.791401 0.125438
O O8 0.312532 0.939085 0.221714
O O9 0.413864 0.004933 0.706768
O O10 0.613033 0.894593 0.811007
O O11 0.540314 0.055026 0.920421
O O12 0.797822 0.093749 0.094211
O O13 0.734674 0.909464 0.030810
O O14 0.474751 0.828161 0.994247
O O15 0.724482 0.741702 0.902941
O O16 0.474243 0.243239 0.040603
#
# Coordination Sequence:
#
# PCOD9345664 Si02
#       8
#     4   4   4   4   4   4   4   4
#     4  11  26  46  64 101 150 172 229 288 350 409
#     4  10  22  39  68 102 130 175 231 279 341 404
#     4   9  20  44  68  93 134 184 224 270 345 412
#     4  11  23  45  71  95 146 185 217 291 347 405
#     4  12  24  43  72 101 135 185 233 278 351 409
#     4   9  20  45  70  96 133 179 219 288 337 410
#     4  12  25  38  72 108 130 173 238 287 346 401
#     4  12  26  42  67 102 138 183 225 289 343 416
#
# _framework density 23.672592999999999
#
# number of rings (size 3 to 8) (size 9 to 14) (size 15 to 20)
#    0.750    0.500    5.000    0.750   10.500    0.000 
#    0.000    5.000    0.000    0.000    0.000    0.000 
#    0.000    0.000    0.000    0.000    0.000    0.000 
#
# Total GULP energy -178211.002143 kJ/mol
# GULP energy per Si atom -5569.093817 kJ/mol
# Density = 2.361871 g / cm^3
# Si number density = 23.672593 Si / 1000 Ang^3
#
#
#
# Elastic Constant Matrix: (Units=GPa)
#
#
# Indices 1 2 3 4 5 6 
#
# 1 60.1220 32.1610 2.6943 0.0000 0.0000 0.0000
# 2 32.1610 143.4532 10.8392 0.0000 0.0000 0.0000
# 3 2.6943 10.8392 14.5715 0.0000 0.0000 0.0000
# 4 0.0000 0.0000 0.0000 17.1284 0.0000 0.0000
# 5 0.0000 0.0000 0.0000 0.0000 17.5686 0.0000
# 6 0.0000 0.0000 0.0000 0.0000 0.0000 20.3113
#
#
#
# Elastic Compliance Matrix: (Units=1/GPa)
#
#
# Indices 1 2 3 4 5 6 
#
# 1 0.018901 -0.004210 -0.000363 0.000000 0.000000 0.000000
# 2 -0.004210 0.008324 -0.005413 0.000000 0.000000 0.000000
# 3 -0.000363 -0.005413 0.072721 0.000000 0.000000 0.000000
# 4 0.000000 0.000000 0.000000 0.058383 0.000000 0.000000
# 5 0.000000 0.000000 0.000000 0.000000 0.056920 0.000000
# 6 0.000000 0.000000 0.000000 0.000000 0.000000 0.049234
#
#
# Mechanical properties :
#
#
# Convention : Reuss Voigt Hill
#
# Bulk Modulus (GPa) = 12.50421 34.39286 23.44853
# Shear Modulus (GPa) = 16.07135 22.49848 19.28491
#
# Velocity S-wave (km/s) = 2.60840 3.08620 2.85731
# Velocity P-wave (km/s) = 3.79016 5.22108 4.56207
#
# Compressibility (1/GPa) = 0.07997305
#
# Stress axis : x y z
#
# Youngs Moduli (GPa) = 52.90668 120.13734 13.75117
#
# Poissons Ratio (x) = 0.50578 0.00499
# Poissons Ratio (y) = 0.22274 0.07444
# Poissons Ratio (z) = 0.01921 0.65035
#
# Static dielectric constant tensor:
#      x y z
#    x 1.904030 0.000000 0.000000 
#    y 0.000000 2.019580 0.000000 
#    z 0.000000 0.000000 1.977750 
# 
# From -- ./inp_files/5977.got.cif
#   From: 2010.05.17/outbox.cif.g08.bks.cpg/sg33_3_cif.got.tgz:5977.got - 2010.06.03 17:15:25.
