data_PCOD9345531
_publ_section_title
;
Structure prediction by ZEFSAII (Michael W. Deem and Ramdas Pophale) SiO2 
 PCOD9345531
Probable space group: P N A 21
;
_chemical_formula_sum "Si O2"
_cell_formula_units_Z 24
_cell_length_a 10.639846
_cell_length_b 10.337351
_cell_length_c 7.623804
_cell_angle_alpha 90.000000
_cell_angle_beta 90.000000
_cell_angle_gamma 90.000000
_cell_volume 838.525603
_symmetry_space_group_name_H-M "P N A 21"
_symmetry_group_IT_number 33
_symmetry_cell_setting 'orthorhombic'
loop_
_space_group_symop_operation_xyz
x,y,z
-x,-y,1/2+z
1/2-x,1/2+y,1/2+z
1/2+x,1/2-y,z
loop_
_atom_site_type_symbol
_atom_site_label
_atom_site_fract_x
_atom_site_fract_y
_atom_site_fract_z
Si Si1 0.199357 0.349541 0.533290
Si Si2 0.532097 0.284590 0.753398
Si Si3 0.746857 0.400023 0.195474
Si Si4 0.971288 0.508108 0.786687
Si Si5 0.507868 0.545722 0.904935
Si Si6 0.228824 0.858655 0.677945
O O1 0.487040 0.353410 0.569846
O O2 0.172529 0.260632 0.696015
O O3 0.278462 0.478809 0.559520
O O4 0.252036 0.277536 0.364119
O O5 0.515057 0.388812 0.905492
O O6 0.472025 0.146331 0.802575
O O7 0.888963 0.439875 0.251458
O O8 0.633296 0.430120 0.329853
O O9 0.757391 0.271598 0.072185
O O10 0.930765 0.588076 0.960879
O O11 0.852252 0.553093 0.663752
O O12 0.601269 0.575157 0.736642
#
# Coordination Sequence:
#
# PCOD9345531 Si02
#       6
#     4   4   4   4   4   4
#     4   9  21  45  70  98 144 191 235 296 365 446
#     4  11  24  47  72 111 147 195 248 303 380 431
#     4  11  20  40  73 102 139 191 239 302 366 439
#     4   9  23  44  69 102 148 198 231 299 370 453
#     4  12  25  41  74 108 148 192 243 316 351 447
#     4  10  21  43  66 103 140 185 238 296 364 430
#
# _framework density 28.621666999999999
#
# number of rings (size 3 to 8) (size 9 to 14) (size 15 to 20)
#    1.000    0.667    1.667    3.000    0.000    5.333 
#    6.000    3.333    3.667    0.000    0.000    0.000 
#    0.000    0.000    0.000    0.000    0.000    0.000 
#
# Total GULP energy -133645.788547 kJ/mol
# GULP energy per Si atom -5568.574523 kJ/mol
# Density = 2.855652 g / cm^3
# Si number density = 28.621667 Si / 1000 Ang^3
#
#
#
# Elastic Constant Matrix: (Units=GPa)
#
#
# Indices 1 2 3 4 5 6 
#
# 1 124.4894 66.4447 6.0761 0.0000 0.0000 0.0000
# 2 66.4447 204.6190 -1.8968 0.0000 0.0000 0.0000
# 3 6.0761 -1.8968 90.3389 0.0000 0.0000 0.0000
# 4 0.0000 0.0000 0.0000 23.3730 0.0000 0.0000
# 5 0.0000 0.0000 0.0000 0.0000 54.6586 0.0000
# 6 0.0000 0.0000 0.0000 0.0000 0.0000 67.9968
#
#
#
# Elastic Compliance Matrix: (Units=1/GPa)
#
#
# Indices 1 2 3 4 5 6 
#
# 1 0.009764 -0.003177 -0.000723 0.000000 0.000000 0.000000
# 2 -0.003177 0.005922 0.000338 0.000000 0.000000 0.000000
# 3 -0.000723 0.000338 0.011125 0.000000 0.000000 0.000000
# 4 0.000000 0.000000 0.000000 0.042784 0.000000 0.000000
# 5 0.000000 0.000000 0.000000 0.000000 0.018295 0.000000
# 6 0.000000 0.000000 0.000000 0.000000 0.000000 0.014707
#
#
# Mechanical properties :
#
#
# Convention : Reuss Voigt Hill
#
# Bulk Modulus (GPa) = 50.79803 62.29946 56.54874
# Shear Modulus (GPa) = 42.99789 52.46057 47.72923
#
# Velocity S-wave (km/s) = 3.88014 4.28588 4.08804
# Velocity P-wave (km/s) = 6.15309 6.80481 6.48714
#
# Compressibility (1/GPa) = 0.01968580
#
# Stress axis : x y z
#
# Youngs Moduli (GPa) = 102.41742 168.86159 89.88612
#
# Poissons Ratio (x) = 0.53652 0.06503
# Poissons Ratio (y) = 0.32541 -0.03039
# Poissons Ratio (z) = 0.07409 -0.05708
#
# Static dielectric constant tensor:
#      x y z
#    x 2.154590 0.000000 0.000000 
#    y 0.000000 2.333430 0.000000 
#    z 0.000000 0.000000 2.381960 
# 
# From -- ./inp_files/7583.got.cif
#   From: 2010.05.17/outbox.cif.g08.bks.cpg/sg33_4_cif.got.tgz:7583.got - 2010.06.03 17:15:25.
