data_PCOD9345683
_publ_section_title
;
Structure prediction by ZEFSAII (Michael W. Deem and Ramdas Pophale) SiO2 
 PCOD9345683
Probable space group: P N A 21
;
_chemical_formula_sum "Si O2"
_cell_formula_units_Z 24
_cell_length_a 27.924624
_cell_length_b 6.439302
_cell_length_c 5.459898
_cell_angle_alpha 90.000000
_cell_angle_beta 90.000000
_cell_angle_gamma 90.000000
_cell_volume 981.772035
_symmetry_space_group_name_H-M "P N A 21"
_symmetry_group_IT_number 33
_symmetry_cell_setting 'orthorhombic'
loop_
_space_group_symop_operation_xyz
x,y,z
-x,-y,1/2+z
1/2-x,1/2+y,1/2+z
1/2+x,1/2-y,z
loop_
_atom_site_type_symbol
_atom_site_label
_atom_site_fract_x
_atom_site_fract_y
_atom_site_fract_z
Si Si1 0.318727 0.822516 0.481940
Si Si2 0.227814 0.984447 0.688550
Si Si3 0.001134 0.352466 0.886865
Si Si4 0.651208 0.505523 0.324395
Si Si5 0.858718 0.273864 0.433170
Si Si6 0.566064 0.516814 0.666604
O O1 0.282785 0.926123 0.678101
O O2 0.352272 0.990834 0.361296
O O3 0.282127 0.704848 0.308184
O O4 0.351915 0.651215 0.601893
O O5 0.204805 0.003921 0.421362
O O6 0.190230 0.829713 0.823439
O O7 0.990272 0.500777 0.639020
O O8 0.040415 0.184366 0.782665
O O9 0.963891 0.174847 0.991144
O O10 0.612368 0.440130 0.517663
O O11 0.642520 0.735005 0.223622
O O12 0.908387 0.173214 0.355451
#
# Coordination Sequence:
#
# PCOD9345683 Si02
#       6
#     4   4   4   4   4   4
#     4  11  22  41  69 102 141 204 252 306 390 458
#     4  10  22  40  63 100 146 192 257 308 376 462
#     4  12  30  53  88 121 156 220 262 336 424 494
#     4  10  24  43  69 102 148 191 245 323 383 466
#     4  10  24  43  69 103 146 195 242 325 382 466
#     4  11  28  54  74 114 159 188 268 332 393 502
#
# _framework density 24.445592999999999
#
# number of rings (size 3 to 8) (size 9 to 14) (size 15 to 20)
#    0.000    1.333    0.000    3.000    7.000   12.000 
#    0.000    0.000    0.000    0.000    0.000    0.000 
#    0.000    0.000    0.000    0.000    0.000    0.000 
#
# Total GULP energy -133702.955028 kJ/mol
# GULP energy per Si atom -5570.956460 kJ/mol
# Density = 2.438995 g / cm^3
# Si number density = 24.445593 Si / 1000 Ang^3
#
#
#
# Elastic Constant Matrix: (Units=GPa)
#
#
# Indices 1 2 3 4 5 6 
#
# 1 73.8729 23.3108 12.0834 0.0000 0.0000 0.0000
# 2 23.3108 104.5057 33.2789 0.0000 0.0000 0.0000
# 3 12.0834 33.2789 79.7501 0.0000 0.0000 0.0000
# 4 0.0000 0.0000 0.0000 35.5700 0.0000 0.0000
# 5 0.0000 0.0000 0.0000 0.0000 18.2684 0.0000
# 6 0.0000 0.0000 0.0000 0.0000 0.0000 15.4418
#
#
#
# Elastic Compliance Matrix: (Units=1/GPa)
#
#
# Indices 1 2 3 4 5 6 
#
# 1 0.014629 -0.002949 -0.000986 0.000000 0.000000 0.000000
# 2 -0.002949 0.011630 -0.004406 0.000000 0.000000 0.000000
# 3 -0.000986 -0.004406 0.014527 0.000000 0.000000 0.000000
# 4 0.000000 0.000000 0.000000 0.028114 0.000000 0.000000
# 5 0.000000 0.000000 0.000000 0.000000 0.054739 0.000000
# 6 0.000000 0.000000 0.000000 0.000000 0.000000 0.064759
#
#
# Mechanical properties :
#
#
# Convention : Reuss Voigt Hill
#
# Bulk Modulus (GPa) = 41.48793 43.94167 42.71480
# Shear Modulus (GPa) = 23.46158 26.48642 24.97400
#
# Velocity S-wave (km/s) = 3.10134 3.29520 3.19974
# Velocity P-wave (km/s) = 5.46194 5.70019 5.58234
#
# Compressibility (1/GPa) = 0.02410339
#
# Stress axis : x y z
#
# Youngs Moduli (GPa) = 68.35916 85.98622 68.83651
#
# Poissons Ratio (x) = 0.25358 0.06786
# Poissons Ratio (y) = 0.20160 0.30330
# Poissons Ratio (z) = 0.06739 0.37887
#
# Static dielectric constant tensor:
#      x y z
#    x 1.908150 0.000000 0.000000 
#    y 0.000000 2.081540 0.000000 
#    z 0.000000 0.000000 2.092280 
# 
# From -- ./inp_files/2494.got.cif
#   From: 2010.05.17/outbox.cif.g08.bks.cpg/sg33_2_cif.got.tgz:2494.got - 2010.06.03 17:15:25.
