data_PCOD9345588
_publ_section_title
;
Structure prediction by ZEFSAII (Michael W. Deem and Ramdas Pophale) SiO2 
 PCOD9345588
Probable space group: P N A 21
;
_chemical_formula_sum "Si O2"
_cell_formula_units_Z 20
_cell_length_a 8.541721
_cell_length_b 5.597722
_cell_length_c 16.003025
_cell_angle_alpha 90.000000
_cell_angle_beta 90.000000
_cell_angle_gamma 90.000000
_cell_volume 765.171511
_symmetry_space_group_name_H-M "P N A 21"
_symmetry_group_IT_number 33
_symmetry_cell_setting 'orthorhombic'
loop_
_space_group_symop_operation_xyz
x,y,z
-x,-y,1/2+z
1/2-x,1/2+y,1/2+z
1/2+x,1/2-y,z
loop_
_atom_site_type_symbol
_atom_site_label
_atom_site_fract_x
_atom_site_fract_y
_atom_site_fract_z
Si Si1 0.724515 0.954300 0.435960
Si Si2 0.033499 0.222113 0.822302
Si Si3 0.718217 0.114826 0.090061
Si Si4 0.925726 0.730167 0.069733
Si Si5 0.732422 0.489191 0.219539
O O1 0.856583 0.975546 0.365744
O O2 0.584653 0.816584 0.391331
O O3 0.790624 0.797455 0.512888
O O4 0.649991 0.184525 0.478814
O O5 0.144067 0.439730 0.791598
O O6 0.928323 0.112598 0.748561
O O7 0.699097 0.227434 0.182438
O O8 0.894967 0.007959 0.086055
O O9 0.588267 0.910115 0.074787
O O10 0.817557 0.608654 0.140226
#
# Coordination Sequence:
#
# PCOD9345588 Si02
#       5
#     4   4   4   4   4
#     4  10  22  44  76 108 155 187 256 317 388 456
#     4  10  21  46  76 117 149 192 250 323 391 455
#     4  11  25  45  73 111 154 206 253 313 375 471
#     4  11  24  44  72 108 149 208 252 309 376 468
#     4  10  24  45  75 108 159 193 257 312 382 460
#
# _framework density 26.137930000000001
#
# number of rings (size 3 to 8) (size 9 to 14) (size 15 to 20)
#    0.000    1.600    2.000    1.200    2.800    4.800 
#    0.000   24.000    0.000    0.000    0.000    0.000 
#    0.000    0.000    0.000    0.000    0.000    0.000 
#
# Total GULP energy -111905.919818 kJ/mol
# GULP energy per Si atom -5595.295991 kJ/mol
# Density = 2.607844 g / cm^3
# Si number density = 26.137930 Si / 1000 Ang^3
#
#
#
# Elastic Constant Matrix: (Units=GPa)
#
#
# Indices 1 2 3 4 5 6 
#
# 1 156.9746 43.4291 63.2422 0.0000 0.0000 0.0000
# 2 43.4291 63.4274 22.0597 0.0000 0.0000 0.0000
# 3 63.2422 22.0597 108.4507 0.0000 0.0000 0.0000
# 4 0.0000 0.0000 0.0000 40.9663 0.0000 0.0000
# 5 0.0000 0.0000 0.0000 0.0000 47.1227 0.0000
# 6 0.0000 0.0000 0.0000 0.0000 0.0000 18.3802
#
#
#
# Elastic Compliance Matrix: (Units=1/GPa)
#
#
# Indices 1 2 3 4 5 6 
#
# 1 0.009593 -0.004975 -0.004582 0.000000 0.000000 0.000000
# 2 -0.004975 0.019546 -0.001075 0.000000 0.000000 0.000000
# 3 -0.004582 -0.001075 0.012111 0.000000 0.000000 0.000000
# 4 0.000000 0.000000 0.000000 0.024410 0.000000 0.000000
# 5 0.000000 0.000000 0.000000 0.000000 0.021221 0.000000
# 6 0.000000 0.000000 0.000000 0.000000 0.000000 0.054406
#
#
# Mechanical properties :
#
#
# Convention : Reuss Voigt Hill
#
# Bulk Modulus (GPa) = 50.03237 65.14607 57.58922
# Shear Modulus (GPa) = 29.54842 34.63528 32.09185
#
# Velocity S-wave (km/s) = 3.36591 3.64414 3.50778
# Velocity P-wave (km/s) = 5.85568 6.53333 6.20376
#
# Compressibility (1/GPa) = 0.01998706
#
# Stress axis : x y z
#
# Youngs Moduli (GPa) = 104.24486 51.16123 82.56656
#
# Poissons Ratio (x) = 0.25451 0.37833
# Poissons Ratio (y) = 0.51858 0.08875
# Poissons Ratio (z) = 0.47766 0.05499
#
# Static dielectric constant tensor:
#      x y z
#    x 2.068060 0.000000 0.000000 
#    y 0.000000 2.175200 0.000000 
#    z 0.000000 0.000000 2.033830 
# 
# From -- ./inp_files/8405.got.cif
#   From: 2010.05.17/outbox.cif.g08.bks.cpg/sg33_5_cif.got.tgz:8405.got - 2010.06.03 17:15:25.
