data_PCOD9345982
_publ_section_title
;
Structure prediction by ZEFSAII (Michael W. Deem and Ramdas Pophale) SiO2 
 PCOD9345982
Probable space group: P N A 21
;
_chemical_formula_sum "Si O2"
_cell_formula_units_Z 32
_cell_length_a 5.550001
_cell_length_b 28.638886
_cell_length_c 9.040778
_cell_angle_alpha 90.000000
_cell_angle_beta 90.000000
_cell_angle_gamma 90.000000
_cell_volume 1436.994107
_symmetry_space_group_name_H-M "P N A 21"
_symmetry_group_IT_number 33
_symmetry_cell_setting 'orthorhombic'
loop_
_space_group_symop_operation_xyz
x,y,z
-x,-y,1/2+z
1/2-x,1/2+y,1/2+z
1/2+x,1/2-y,z
loop_
_atom_site_type_symbol
_atom_site_label
_atom_site_fract_x
_atom_site_fract_y
_atom_site_fract_z
Si Si1 0.328738 0.633720 0.185010
Si Si2 0.696356 0.444774 0.183977
Si Si3 0.696358 0.555226 0.179293
Si Si4 0.171263 0.866280 0.678260
Si Si5 0.500001 0.893826 0.431635
Si Si6 0.999999 0.394403 0.431635
Si Si7 0.027129 0.225934 0.253198
Si Si8 0.027128 0.774066 0.110072
O O1 0.443857 0.582310 0.184135
O O2 0.529899 0.672794 0.167057
O O3 0.178210 0.637177 0.333900
O O4 0.155255 0.636857 0.043170
O O5 0.670981 0.500000 0.181636
O O6 0.443855 0.417690 0.179133
O O7 0.830429 0.426635 0.330881
O O8 0.850706 0.425955 0.045297
O O9 0.850705 0.574045 0.317974
O O10 0.830434 0.573365 0.032389
O O11 0.321793 0.862823 0.529370
O O12 0.344744 0.863143 0.820101
O O13 0.970103 0.827206 0.696212
O O14 0.772174 0.248680 0.204641
O O15 0.000001 0.225850 0.431635
O O16 0.272172 0.748679 0.158629
#
# Coordination Sequence:
#
# PCOD9345982 Si02
#       8
#     4   4   4   4   4   4   4   4
#     4  11  24  42  65  94 133 173 217 276 336 402
#     4  11  23  41  65  94 129 172 219 271 333 400
#     4  11  23  41  65  94 129 172 219 271 333 400
#     4  11  24  42  65  94 133 173 217 276 336 402
#     4  10  25  42  64  90 140 172 220 268 341 398
#     4  10  23  38  64  94 128 164 220 272 331 394
#     4  10  23  40  69 102 134 174 229 288 343 401
#     4  10  23  40  69 102 134 174 229 288 343 401
#
# _framework density 22.268706000000002
#
# number of rings (size 3 to 8) (size 9 to 14) (size 15 to 20)
#    0.000    1.500    0.000    3.750   12.250    8.000 
#    0.000    1.250    0.000    0.000    0.000    0.000 
#    0.000    0.000    0.000    0.000    0.000    0.000 
#
# Total GULP energy -179164.602445 kJ/mol
# GULP energy per Si atom -5598.893826 kJ/mol
# Density = 2.221802 g / cm^3
# Si number density = 22.268706 Si / 1000 Ang^3
#
#
#
# Elastic Constant Matrix: (Units=GPa)
#
#
# Indices 1 2 3 4 5 6 
#
# 1 88.5445 11.4720 25.8541 0.0000 0.0000 0.0000
# 2 11.4720 77.9582 2.7139 0.0000 0.0000 0.0000
# 3 25.8541 2.7139 99.0311 0.0000 0.0000 0.0000
# 4 0.0000 0.0000 0.0000 5.2229 0.0000 0.0000
# 5 0.0000 0.0000 0.0000 0.0000 5.2620 0.0000
# 6 0.0000 0.0000 0.0000 0.0000 0.0000 34.2798
#
#
#
# Elastic Compliance Matrix: (Units=1/GPa)
#
#
# Indices 1 2 3 4 5 6 
#
# 1 0.012452 -0.001721 -0.003204 0.000000 0.000000 0.000000
# 2 -0.001721 0.013077 0.000091 0.000000 0.000000 0.000000
# 3 -0.003204 0.000091 0.010932 0.000000 0.000000 0.000000
# 4 0.000000 0.000000 0.000000 0.191463 0.000000 0.000000
# 5 0.000000 0.000000 0.000000 0.000000 0.190042 0.000000
# 6 0.000000 0.000000 0.000000 0.000000 0.000000 0.029172
#
#
# Mechanical properties :
#
#
# Convention : Reuss Voigt Hill
#
# Bulk Modulus (GPa) = 37.32188 38.40153 37.86170
# Shear Modulus (GPa) = 10.73568 23.98586 17.36077
#
# Velocity S-wave (km/s) = 2.19805 3.28550 2.79517
# Velocity P-wave (km/s) = 4.82059 5.62803 5.23989
#
# Compressibility (1/GPa) = 0.02679394
#
# Stress axis : x y z
#
# Youngs Moduli (GPa) = 80.30728 76.46741 91.47669
#
# Poissons Ratio (x) = 0.13159 0.29307
# Poissons Ratio (y) = 0.13820 -0.00831
# Poissons Ratio (z) = 0.25728 -0.00695
#
# Static dielectric constant tensor:
#      x y z
#    x 1.863860 0.000000 0.000000 
#    y 0.000000 1.770850 0.000000 
#    z 0.000000 0.000000 1.796770 
# 
# From -- ./inp_files/2872.got.cif
#   From: 2010.05.17/outbox.cif.g08.bks.cpg/sg33_2_cif.got.tgz:2872.got - 2010.06.03 17:15:25.
