data_PCOD9345042
_publ_section_title
;
Structure prediction by ZEFSAII (Michael W. Deem and Ramdas Pophale) SiO2 
 PCOD9345042
Probable space group: P N A 21
;
_chemical_formula_sum "Si O2"
_cell_formula_units_Z 32
_cell_length_a 17.053678
_cell_length_b 15.000636
_cell_length_c 5.325464
_cell_angle_alpha 90.000000
_cell_angle_beta 90.000000
_cell_angle_gamma 90.000000
_cell_volume 1362.338985
_symmetry_space_group_name_H-M "P N A 21"
_symmetry_group_IT_number 33
_symmetry_cell_setting 'orthorhombic'
loop_
_space_group_symop_operation_xyz
x,y,z
-x,-y,1/2+z
1/2-x,1/2+y,1/2+z
1/2+x,1/2-y,z
loop_
_atom_site_type_symbol
_atom_site_label
_atom_site_fract_x
_atom_site_fract_y
_atom_site_fract_z
Si Si1 0.908686 0.066726 0.403640
Si Si2 0.513566 0.244010 0.830084
Si Si3 0.191029 0.586039 0.505719
Si Si4 0.064503 0.163136 0.328828
Si Si5 0.775684 0.070637 0.792219
Si Si6 0.843015 0.223473 0.048511
Si Si7 0.981126 0.451601 0.908663
Si Si8 0.182120 0.074471 0.638207
O O1 0.862813 0.062671 0.667591
O O2 0.868478 0.150938 0.258460
O O3 0.999953 0.085775 0.369943
O O4 0.889788 0.971307 0.282175
O O5 0.539699 0.269202 0.551201
O O6 0.526681 0.140157 0.872902
O O7 0.556835 0.297191 0.052745
O O8 0.421195 0.263548 0.877456
O O9 0.219506 0.490559 0.618165
O O10 0.173643 0.677725 0.660525
O O11 0.110627 0.565650 0.363018
O O12 0.259487 0.620776 0.324553
O O13 0.149984 0.129330 0.405269
O O14 0.775462 0.173105 0.884458
O O15 0.771623 0.011448 0.040466
O O16 0.010880 0.518268 0.696123
#
# Coordination Sequence:
#
# PCOD9345042 Si02
#       8
#     4   4   4   4   4   4   4   4
#     4   9  20  35  61  91 128 178 229 264 324 402
#     4  10  22  41  66  98 132 175 235 280 342 415
#     4  10  24  43  66  95 135 176 230 281 351 420
#     4  11  22  38  64  98 139 176 221 281 329 414
#     4  10  20  40  59  94 130 173 225 272 335 416
#     4   9  19  40  63  88 124 181 223 276 340 411
#     4  11  25  48  76  99 127 182 235 300 352 402
#     4  10  24  37  61  97 137 179 218 276 343 408
#
# _framework density 23.489017
#
# number of rings (size 3 to 8) (size 9 to 14) (size 15 to 20)
#    0.000    2.000    1.250    0.750    7.000    1.000 
#    4.500    0.000    0.000    0.000    0.000    0.000 
#    0.000    0.000    0.000    0.000    0.000    0.000 
#
# Total GULP energy -178450.266590 kJ/mol
# GULP energy per Si atom -5576.570831 kJ/mol
# Density = 2.343555 g / cm^3
# Si number density = 23.489017 Si / 1000 Ang^3
#
#
#
# Elastic Constant Matrix: (Units=GPa)
#
#
# Indices 1 2 3 4 5 6 
#
# 1 47.6060 15.8044 -3.3018 0.0000 0.0000 0.0000
# 2 15.8044 82.3859 7.1213 0.0000 0.0000 0.0000
# 3 -3.3018 7.1213 43.9833 0.0000 0.0000 0.0000
# 4 0.0000 0.0000 0.0000 32.3554 0.0000 0.0000
# 5 0.0000 0.0000 0.0000 0.0000 19.6111 0.0000
# 6 0.0000 0.0000 0.0000 0.0000 0.0000 16.6234
#
#
#
# Elastic Compliance Matrix: (Units=1/GPa)
#
#
# Indices 1 2 3 4 5 6 
#
# 1 0.022690 -0.004564 0.002442 0.000000 0.000000 0.000000
# 2 -0.004564 0.013228 -0.002484 0.000000 0.000000 0.000000
# 3 0.002442 -0.002484 0.023321 0.000000 0.000000 0.000000
# 4 0.000000 0.000000 0.000000 0.030907 0.000000 0.000000
# 5 0.000000 0.000000 0.000000 0.000000 0.050992 0.000000
# 6 0.000000 0.000000 0.000000 0.000000 0.000000 0.060156
#
#
# Mechanical properties :
#
#
# Convention : Reuss Voigt Hill
#
# Bulk Modulus (GPa) = 19.98877 23.69144 21.84011
# Shear Modulus (GPa) = 22.00874 24.00806 23.00840
#
# Velocity S-wave (km/s) = 3.06433 3.20049 3.13315
# Velocity P-wave (km/s) = 4.58786 4.87500 4.73361
#
# Compressibility (1/GPa) = 0.05002808
#
# Stress axis : x y z
#
# Youngs Moduli (GPa) = 44.07177 75.59582 42.87892
#
# Poissons Ratio (x) = 0.34501 -0.10472
# Poissons Ratio (y) = 0.20114 0.10653
# Poissons Ratio (z) = -0.10764 0.18781
#
# Static dielectric constant tensor:
#      x y z
#    x 1.957890 0.000000 0.000000 
#    y 0.000000 1.961380 0.000000 
#    z 0.000000 0.000000 1.927550 
# 
# From -- ./inp_files/1821.got.cif
#   From: 2010.05.17/outbox.cif.g08.bks.cpg/sg33_1_cif.got.tgz:1821.got - 2010.06.03 17:15:25.
