data_PCOD9345437
_publ_section_title
;
Structure prediction by ZEFSAII (Michael W. Deem and Ramdas Pophale) SiO2 
 PCOD9345437
Probable space group: P N A 21
;
_chemical_formula_sum "Si O2"
_cell_formula_units_Z 28
_cell_length_a 16.851498
_cell_length_b 7.512901
_cell_length_c 9.766568
_cell_angle_alpha 90.000000
_cell_angle_beta 90.000000
_cell_angle_gamma 90.000000
_cell_volume 1236.483022
_symmetry_space_group_name_H-M "P N A 21"
_symmetry_group_IT_number 33
_symmetry_cell_setting 'orthorhombic'
loop_
_space_group_symop_operation_xyz
x,y,z
-x,-y,1/2+z
1/2-x,1/2+y,1/2+z
1/2+x,1/2-y,z
loop_
_atom_site_type_symbol
_atom_site_label
_atom_site_fract_x
_atom_site_fract_y
_atom_site_fract_z
Si Si1 0.823982 0.097668 0.665260
Si Si2 0.719352 0.750850 0.609168
Si Si3 0.005292 0.023112 0.190730
Si Si4 0.864311 0.100216 0.369805
Si Si5 0.455412 0.172155 0.003827
Si Si6 0.462872 0.870437 0.220456
Si Si7 0.806642 0.698649 0.359661
O O1 0.850596 0.179568 0.519779
O O2 0.769280 0.217179 0.760881
O O3 0.904746 0.020879 0.730501
O O4 0.767364 0.930357 0.635425
O O5 0.695259 0.669461 0.753922
O O6 0.637236 0.792430 0.530667
O O7 0.773177 0.634397 0.505666
O O8 0.964697 0.831509 0.163225
O O9 0.952389 0.117938 0.307273
O O10 0.000489 0.151960 0.059747
O O11 0.845846 0.890755 0.382460
O O12 0.480367 0.010542 0.102741
O O13 0.477094 0.129654 0.848280
O O14 0.376477 0.911059 0.286791
#
# Coordination Sequence:
#
# PCOD9345437 Si02
#       7
#     4   4   4   4   4   4   4
#     4  11  21  41  64  93 128 164 215 268 327 383
#     4  10  21  41  63  92 130 165 216 273 331 387
#     4  10  22  43  67  91 134 177 219 272 331 401
#     4   9  22  40  63  91 125 168 214 262 323 398
#     4  11  23  44  68  98 136 177 228 277 334 411
#     4  11  24  44  67  99 136 178 229 277 335 411
#     4  10  21  41  62  92 131 165 215 273 331 387
#
# _framework density 22.644871999999999
#
# number of rings (size 3 to 8) (size 9 to 14) (size 15 to 20)
#    0.000    1.714    1.429    3.429    0.000    5.714 
#   15.429    4.286    0.000    0.000    0.000    0.000 
#    0.000    0.000    0.000    0.000    0.000    0.000 
#
# Total GULP energy -156489.147546 kJ/mol
# GULP energy per Si atom -5588.898127 kJ/mol
# Density = 2.259333 g / cm^3
# Si number density = 22.644872 Si / 1000 Ang^3
#
#
#
# Elastic Constant Matrix: (Units=GPa)
#
#
# Indices 1 2 3 4 5 6 
#
# 1 101.9027 -3.7619 -9.8780 0.0000 0.0000 0.0000
# 2 -3.7619 58.6906 15.4428 0.0000 0.0000 0.0000
# 3 -9.8780 15.4428 71.8446 0.0000 0.0000 0.0000
# 4 0.0000 0.0000 0.0000 26.7224 0.0000 0.0000
# 5 0.0000 0.0000 0.0000 0.0000 35.8584 0.0000
# 6 0.0000 0.0000 0.0000 0.0000 0.0000 -1.4954
#
#
#
# Elastic Compliance Matrix: (Units=1/GPa)
#
#
# Indices 1 2 3 4 5 6 
#
# 1 0.009951 0.000294 0.001305 0.000000 0.000000 0.000000
# 2 0.000294 0.018069 -0.003843 0.000000 0.000000 0.000000
# 3 0.001305 -0.003843 0.014924 0.000000 0.000000 0.000000
# 4 0.000000 0.000000 0.000000 0.037422 0.000000 0.000000
# 5 0.000000 0.000000 0.000000 0.000000 0.027887 0.000000
# 6 0.000000 0.000000 0.000000 0.000000 0.000000 -0.668714
#
#
# Mechanical properties :
#
#
# Convention : Reuss Voigt Hill
#
# Bulk Modulus (GPa) = 26.00394 26.22707 26.11550
# Shear Modulus (GPa) = -9.20548 27.59274 9.19363
#
# Velocity S-wave (km/s) = -2.01841 3.49449 2.01711
# Velocity P-wave (km/s) = 2.46502 5.28100 4.12100
#
# Compressibility (1/GPa) = 0.03845571
#
# Stress axis : x y z
#
# Youngs Moduli (GPa) = 100.49606 55.34448 67.00418
#
# Poissons Ratio (x) = -0.01630 -0.08743
# Poissons Ratio (y) = -0.02959 0.25752
# Poissons Ratio (z) = -0.13113 0.21271
#
# Static dielectric constant tensor:
#      x y z
#    x 1.856470 0.000000 0.000000 
#    y 0.000000 1.833580 0.000000 
#    z 0.000000 0.000000 1.894520 
# 
# From -- ./inp_files/4692.got.cif
#   From: 2010.05.17/outbox.cif.g08.bks.cpg/sg33_3_cif.got.tgz:4692.got - 2010.06.03 17:15:25.
