data_PCOD9345022
_publ_section_title
;
Structure prediction by ZEFSAII (Michael W. Deem and Ramdas Pophale) SiO2 
 PCOD9345022
Probable space group: P N A 21
;
_chemical_formula_sum "Si O2"
_cell_formula_units_Z 28
_cell_length_a 11.294564
_cell_length_b 13.400151
_cell_length_c 9.799609
_cell_angle_alpha 90.000000
_cell_angle_beta 90.000000
_cell_angle_gamma 90.000000
_cell_volume 1483.159681
_symmetry_space_group_name_H-M "P N A 21"
_symmetry_group_IT_number 33
_symmetry_cell_setting 'orthorhombic'
loop_
_space_group_symop_operation_xyz
x,y,z
-x,-y,1/2+z
1/2-x,1/2+y,1/2+z
1/2+x,1/2-y,z
loop_
_atom_site_type_symbol
_atom_site_label
_atom_site_fract_x
_atom_site_fract_y
_atom_site_fract_z
Si Si1 0.388807 0.917477 0.583710
Si Si2 0.504929 0.600590 0.274487
Si Si3 0.961483 0.514370 0.303674
Si Si4 0.867793 0.304421 0.778408
Si Si5 0.297225 0.563031 0.773141
Si Si6 0.701619 0.416221 0.573564
Si Si7 0.829146 0.809344 0.501635
O O1 0.458879 0.981813 0.468414
O O2 0.372289 0.803967 0.533504
O O3 0.458256 0.932734 0.725716
O O4 0.263078 0.974743 0.588951
O O5 0.588144 0.694793 0.251549
O O6 0.590528 0.507942 0.296645
O O7 0.426216 0.580949 0.141202
O O8 0.420394 0.632234 0.401501
O O9 0.825637 0.498787 0.259099
O O10 0.021785 0.620062 0.270023
O O11 0.776523 0.341737 0.666183
O O12 0.796241 0.307670 0.921300
O O13 0.314875 0.632395 0.643066
O O14 0.288409 0.618327 0.918101
#
# Coordination Sequence:
#
# PCOD9345022 Si02
#       7
#     4   4   4   4   4   4   4
#     4  10  20  41  64  91 124 161 209 262 301 380
#     4  11  22  40  66  88 123 170 209 250 313 385
#     4  10  20  39  63  93 123 162 207 256 309 370
#     4  10  20  39  66  89 117 168 216 242 309 387
#     4  11  23  39  58  95 130 156 204 268 313 357
#     4   9  22  40  57  89 127 159 202 262 315 363
#     4  11  23  40  66  95 120 170 213 254 312 376
#
# _framework density 18.878616000000001
#
# number of rings (size 3 to 8) (size 9 to 14) (size 15 to 20)
#    0.000    1.714    1.429    3.429    2.000    0.000 
#    7.714    4.286    0.000    0.000    0.000    0.000 
#    0.000    0.000    0.000    0.000    0.000    0.000 
#
# Total GULP energy -156178.374436 kJ/mol
# GULP energy per Si atom -5577.799087 kJ/mol
# Density = 1.883565 g / cm^3
# Si number density = 18.878616 Si / 1000 Ang^3
#
#
#
# Elastic Constant Matrix: (Units=GPa)
#
#
# Indices 1 2 3 4 5 6 
#
# 1 71.7221 36.7411 48.3332 0.0000 0.0000 0.0000
# 2 36.7411 62.8753 63.3346 0.0000 0.0000 0.0000
# 3 48.3332 63.3346 118.6530 0.0000 0.0000 0.0000
# 4 0.0000 0.0000 0.0000 18.3959 0.0000 0.0000
# 5 0.0000 0.0000 0.0000 0.0000 20.4102 0.0000
# 6 0.0000 0.0000 0.0000 0.0000 0.0000 15.9791
#
#
#
# Elastic Compliance Matrix: (Units=1/GPa)
#
#
# Indices 1 2 3 4 5 6 
#
# 1 0.020870 -0.007856 -0.004308 0.000000 0.000000 0.000000
# 2 -0.007856 0.037359 -0.016741 0.000000 0.000000 0.000000
# 3 -0.004308 -0.016741 0.019119 0.000000 0.000000 0.000000
# 4 0.000000 0.000000 0.000000 0.054360 0.000000 0.000000
# 5 0.000000 0.000000 0.000000 0.000000 0.048995 0.000000
# 6 0.000000 0.000000 0.000000 0.000000 0.000000 0.062582
#
#
# Mechanical properties :
#
#
# Convention : Reuss Voigt Hill
#
# Bulk Modulus (GPa) = 51.18401 61.11869 56.15135
# Shear Modulus (GPa) = 16.25449 17.94648 17.10049
#
# Velocity S-wave (km/s) = 2.93746 3.08657 3.01294
# Velocity P-wave (km/s) = 6.21900 6.71918 6.47392
#
# Compressibility (1/GPa) = 0.01953735
#
# Stress axis : x y z
#
# Youngs Moduli (GPa) = 47.91497 26.76766 52.30413
#
# Poissons Ratio (x) = 0.21028 0.22534
# Poissons Ratio (y) = 0.37641 0.87563
# Poissons Ratio (z) = 0.20643 0.44812
#
# Static dielectric constant tensor:
#      x y z
#    x 1.677530 0.000000 0.000000 
#    y 0.000000 1.627040 0.000000 
#    z 0.000000 0.000000 1.660720 
# 
# From -- ./inp_files/3897.got.cif
#   From: 2010.05.17/outbox.cif.g08.bks.cpg/sg33_2_cif.got.tgz:3897.got - 2010.06.03 17:15:25.
