data_PCOD9345098
_publ_section_title
;
Structure prediction by ZEFSAII (Michael W. Deem and Ramdas Pophale) SiO2 
 PCOD9345098
Probable space group: P N A 21
;
_chemical_formula_sum "Si O2"
_cell_formula_units_Z 32
_cell_length_a 14.595514
_cell_length_b 7.964313
_cell_length_c 11.117327
_cell_angle_alpha 90.000000
_cell_angle_beta 90.000000
_cell_angle_gamma 90.000000
_cell_volume 1292.314132
_symmetry_space_group_name_H-M "P N A 21"
_symmetry_group_IT_number 33
_symmetry_cell_setting 'orthorhombic'
loop_
_space_group_symop_operation_xyz
x,y,z
-x,-y,1/2+z
1/2-x,1/2+y,1/2+z
1/2+x,1/2-y,z
loop_
_atom_site_type_symbol
_atom_site_label
_atom_site_fract_x
_atom_site_fract_y
_atom_site_fract_z
Si Si1 0.840608 0.219240 0.760700
Si Si2 0.446185 0.708411 0.302428
Si Si3 0.913286 0.678754 0.049943
Si Si4 0.577448 0.618990 0.935114
Si Si5 0.492500 0.818395 0.554151
Si Si6 0.343870 0.618218 0.649988
Si Si7 0.766843 0.322534 0.504035
Si Si8 0.190147 0.805136 0.516852
O O1 0.805433 0.300470 0.639460
O O2 0.797951 0.280063 0.885373
O O3 0.949039 0.247233 0.768227
O O4 0.829652 0.016632 0.753851
O O5 0.391045 0.765551 0.186844
O O6 0.435493 0.510273 0.326755
O O7 0.434290 0.801770 0.429968
O O8 0.963036 0.500648 0.059357
O O9 0.816336 0.692001 0.984009
O O10 0.983635 0.803736 0.984516
O O11 0.619345 0.502239 0.041721
O O12 0.649914 0.768844 0.917688
O O13 0.423727 0.758278 0.658478
O O14 0.581555 0.698148 0.544310
O O15 0.249778 0.704961 0.612867
O O16 0.727801 0.508343 0.503876
#
# Coordination Sequence:
#
# PCOD9345098 Si02
#       8
#     4   4   4   4   4   4   4   4
#     4  10  22  43  66  97 132 179 224 274 339 403
#     4  10  22  43  68  93 136 178 219 286 339 401
#     4  12  22  44  68  98 140 177 229 282 342 410
#     4  10  22  44  67 100 130 180 225 280 345 401
#     4  10  23  41  65  98 132 180 228 277 344 405
#     4  10  20  41  67  92 134 174 217 287 326 400
#     4  11  23  42  67  97 134 178 226 283 337 412
#     4  11  24  44  64  97 142 174 224 285 338 402
#
# _framework density 24.761782
#
# number of rings (size 3 to 8) (size 9 to 14) (size 15 to 20)
#    0.000    1.500    2.500    4.500    3.500    0.000 
#    6.750    0.000    0.000    0.000    0.000    0.000 
#    0.000    0.000    0.000    0.000    0.000    0.000 
#
# Total GULP energy -179127.633716 kJ/mol
# GULP energy per Si atom -5597.738554 kJ/mol
# Density = 2.470542 g / cm^3
# Si number density = 24.761782 Si / 1000 Ang^3
#
#
#
# Elastic Constant Matrix: (Units=GPa)
#
#
# Indices 1 2 3 4 5 6 
#
# 1 82.4492 -5.0519 5.9802 0.0000 0.0000 0.0000
# 2 -5.0519 72.6931 7.1274 0.0000 0.0000 0.0000
# 3 5.9802 7.1274 54.2855 0.0000 0.0000 0.0000
# 4 0.0000 0.0000 0.0000 31.1060 0.0000 0.0000
# 5 0.0000 0.0000 0.0000 0.0000 17.1580 0.0000
# 6 0.0000 0.0000 0.0000 0.0000 0.0000 43.7308
#
#
#
# Elastic Compliance Matrix: (Units=1/GPa)
#
#
# Indices 1 2 3 4 5 6 
#
# 1 0.012298 0.001000 -0.001486 0.000000 0.000000 0.000000
# 2 0.001000 0.014017 -0.001951 0.000000 0.000000 0.000000
# 3 -0.001486 -0.001951 0.018841 0.000000 0.000000 0.000000
# 4 0.000000 0.000000 0.000000 0.032148 0.000000 0.000000
# 5 0.000000 0.000000 0.000000 0.000000 0.058282 0.000000
# 6 0.000000 0.000000 0.000000 0.000000 0.000000 0.022867
#
#
# Mechanical properties :
#
#
# Convention : Reuss Voigt Hill
#
# Bulk Modulus (GPa) = 24.82418 25.05990 24.94204
# Shear Modulus (GPa) = 28.28797 31.82377 30.05587
#
# Velocity S-wave (km/s) = 3.38361 3.58885 3.48774
# Velocity P-wave (km/s) = 5.03111 5.22643 5.12970
#
# Compressibility (1/GPa) = 0.04028331
#
# Stress axis : x y z
#
# Youngs Moduli (GPa) = 81.31557 71.34076 53.07591
#
# Poissons Ratio (x) = -0.07137 0.07888
# Poissons Ratio (y) = -0.08134 0.10353
# Poissons Ratio (z) = 0.12084 0.13916
#
# Static dielectric constant tensor:
#      x y z
#    x 1.957160 0.000000 0.000000 
#    y 0.000000 1.998610 0.000000 
#    z 0.000000 0.000000 1.990240 
# 
# From -- ./inp_files/6822.got.cif
#   From: 2010.05.17/outbox.cif.g08.bks.cpg/sg33_4_cif.got.tgz:6822.got - 2010.06.03 17:15:25.
