data_PCOD9345242
_publ_section_title
;
Structure prediction by ZEFSAII (Michael W. Deem and Ramdas Pophale) SiO2 
 PCOD9345242
Probable space group: P N A 21
;
_chemical_formula_sum "Si O2"
_cell_formula_units_Z 28
_cell_length_a 9.411433
_cell_length_b 19.141153
_cell_length_c 8.677310
_cell_angle_alpha 90.000000
_cell_angle_beta 90.000000
_cell_angle_gamma 90.000000
_cell_volume 1563.179902
_symmetry_space_group_name_H-M "P N A 21"
_symmetry_group_IT_number 33
_symmetry_cell_setting 'orthorhombic'
loop_
_space_group_symop_operation_xyz
x,y,z
-x,-y,1/2+z
1/2-x,1/2+y,1/2+z
1/2+x,1/2-y,z
loop_
_atom_site_type_symbol
_atom_site_label
_atom_site_fract_x
_atom_site_fract_y
_atom_site_fract_z
Si Si1 0.921109 0.725143 0.956260
Si Si2 0.759543 0.810515 0.492723
Si Si3 0.555174 0.700717 0.658244
Si Si4 0.704122 0.106120 0.251258
Si Si5 0.471796 0.080173 0.015235
Si Si6 0.694442 0.816458 0.132777
Si Si7 0.408097 0.039990 0.693482
O O1 0.851265 0.653448 0.892221
O O2 0.997772 0.761143 0.810997
O O3 0.802991 0.777241 0.021514
O O4 0.037919 0.709965 0.086534
O O5 0.672622 0.749635 0.577985
O O6 0.677192 0.881656 0.540503
O O7 0.738552 0.802787 0.309337
O O8 0.921462 0.810900 0.546921
O O9 0.639666 0.631144 0.706644
O O10 0.686395 0.022650 0.267251
O O11 0.594621 0.120680 0.108444
O O12 0.491781 0.076684 0.832473
O O13 0.488158 0.002082 0.080994
O O14 0.684775 0.900467 0.113288
#
# Coordination Sequence:
#
# PCOD9345242 Si02
#       7
#     4   4   4   4   4   4   4
#     4  12  21  38  63  92 118 164 212 264 312 378
#     4  11  21  37  59  90 124 164 203 268 318 374
#     4  12  20  38  61  88 124 160 216 250 318 380
#     4  10  21  37  63  91 118 162 210 256 313 382
#     4   9  19  37  63  84 118 165 204 258 314 383
#     4  11  24  38  61  92 125 158 208 271 317 372
#     4   9  20  39  62  87 123 159 211 251 322 381
#
# _framework density 17.912206000000001
#
# number of rings (size 3 to 8) (size 9 to 14) (size 15 to 20)
#    0.857    0.571    4.286    1.714    0.000    1.143 
#    0.000    2.857    0.000    0.000    0.000    0.000 
#    0.000    0.000    0.000    0.000    0.000    0.000 
#
# Total GULP energy -156006.326791 kJ/mol
# GULP energy per Si atom -5571.654528 kJ/mol
# Density = 1.787144 g / cm^3
# Si number density = 17.912206 Si / 1000 Ang^3
#
#
#
# Elastic Constant Matrix: (Units=GPa)
#
#
# Indices 1 2 3 4 5 6 
#
# 1 106.8184 34.7902 34.7084 0.0000 0.0000 0.0000
# 2 34.7902 93.1821 24.3018 0.0000 0.0000 0.0000
# 3 34.7084 24.3018 62.8682 0.0000 0.0000 0.0000
# 4 0.0000 0.0000 0.0000 34.9922 0.0000 0.0000
# 5 0.0000 0.0000 0.0000 0.0000 32.3298 0.0000
# 6 0.0000 0.0000 0.0000 0.0000 0.0000 24.4717
#
#
#
# Elastic Compliance Matrix: (Units=1/GPa)
#
#
# Indices 1 2 3 4 5 6 
#
# 1 0.012165 -0.003103 -0.005516 0.000000 0.000000 0.000000
# 2 -0.003103 0.012726 -0.003206 0.000000 0.000000 0.000000
# 3 -0.005516 -0.003206 0.020191 0.000000 0.000000 0.000000
# 4 0.000000 0.000000 0.000000 0.028578 0.000000 0.000000
# 5 0.000000 0.000000 0.000000 0.000000 0.030931 0.000000
# 6 0.000000 0.000000 0.000000 0.000000 0.000000 0.040864
#
#
# Mechanical properties :
#
#
# Convention : Reuss Voigt Hill
#
# Bulk Modulus (GPa) = 46.66183 50.05217 48.35700
# Shear Modulus (GPa) = 28.36876 29.62996 28.99936
#
# Velocity S-wave (km/s) = 3.98397 4.07157 4.02801
# Velocity P-wave (km/s) = 6.87529 7.07865 6.97771
#
# Compressibility (1/GPa) = 0.02143079
#
# Stress axis : x y z
#
# Youngs Moduli (GPa) = 82.20432 78.57662 49.52656
#
# Poissons Ratio (x) = 0.24383 0.27321
# Poissons Ratio (y) = 0.25509 0.15879
# Poissons Ratio (z) = 0.45348 0.25194
#
# Static dielectric constant tensor:
#      x y z
#    x 1.592150 0.000000 0.000000 
#    y 0.000000 1.646410 0.000000 
#    z 0.000000 0.000000 1.627140 
# 
# From -- ./inp_files/3395.got.cif
#   From: 2010.05.17/outbox.cif.g08.bks.cpg/sg33_2_cif.got.tgz:3395.got - 2010.06.03 17:15:25.
