data_PCOD9345295
_publ_section_title
;
Structure prediction by ZEFSAII (Michael W. Deem and Ramdas Pophale) SiO2 
 PCOD9345295
Probable space group: P N A 21
;
_chemical_formula_sum "Si O2"
_cell_formula_units_Z 28
_cell_length_a 9.449052
_cell_length_b 8.625916
_cell_length_c 14.775068
_cell_angle_alpha 90.000000
_cell_angle_beta 90.000000
_cell_angle_gamma 90.000000
_cell_volume 1204.267461
_symmetry_space_group_name_H-M "P N A 21"
_symmetry_group_IT_number 33
_symmetry_cell_setting 'orthorhombic'
loop_
_space_group_symop_operation_xyz
x,y,z
-x,-y,1/2+z
1/2-x,1/2+y,1/2+z
1/2+x,1/2-y,z
loop_
_atom_site_type_symbol
_atom_site_label
_atom_site_fract_x
_atom_site_fract_y
_atom_site_fract_z
Si Si1 0.348913 0.235725 0.154490
Si Si2 0.615872 0.138187 0.046318
Si Si3 0.502809 0.339494 0.335904
Si Si4 0.160697 0.072708 0.926521
Si Si5 0.923251 0.748110 0.249909
Si Si6 0.965450 0.498870 0.893497
Si Si7 0.164194 0.956072 0.208676
O O1 0.488165 0.147592 0.118027
O O2 0.270651 0.362749 0.091693
O O3 0.398287 0.309310 0.249767
O O4 0.222220 0.109567 0.160943
O O5 0.597175 0.298903 0.990952
O O6 0.589644 0.011975 0.967924
O O7 0.419361 0.410849 0.420548
O O8 0.620040 0.466517 0.305609
O O9 0.560616 0.170888 0.358349
O O10 0.144314 0.139149 0.825029
O O11 0.325437 0.056900 0.944746
O O12 0.004333 0.616991 0.309774
O O13 0.795058 0.659427 0.204719
O O14 0.027264 0.850924 0.188450
#
# Coordination Sequence:
#
# PCOD9345295 Si02
#       7
#     4   4   4   4   4   4   4
#     4  12  23  45  69 104 134 189 230 296 351 432
#     4  11  25  44  70  91 148 186 230 278 377 432
#     4  11  24  39  77 102 139 174 249 295 341 423
#     4  10  22  41  66  99 134 185 230 283 344 432
#     4  10  21  38  65 102 133 178 230 287 334 414
#     4  11  21  40  68 101 135 182 230 290 350 428
#     4  11  22  41  67 101 141 176 233 287 349 409
#
# _framework density 23.250648000000002
#
# number of rings (size 3 to 8) (size 9 to 14) (size 15 to 20)
#    0.000    1.143    5.714    0.857    0.000    0.000 
#    0.000    1.429    0.000    0.000    0.000    0.000 
#    0.000    0.000    0.000    0.000    0.000    0.000 
#
# Total GULP energy -156266.748477 kJ/mol
# GULP energy per Si atom -5580.955303 kJ/mol
# Density = 2.319773 g / cm^3
# Si number density = 23.250648 Si / 1000 Ang^3
#
#
#
# Elastic Constant Matrix: (Units=GPa)
#
#
# Indices 1 2 3 4 5 6 
#
# 1 76.8782 14.6842 2.0932 0.0000 0.0000 0.0000
# 2 14.6842 81.7339 -8.2423 0.0000 0.0000 0.0000
# 3 2.0932 -8.2423 30.3345 0.0000 0.0000 0.0000
# 4 0.0000 0.0000 0.0000 13.6514 0.0000 0.0000
# 5 0.0000 0.0000 0.0000 0.0000 36.3126 0.0000
# 6 0.0000 0.0000 0.0000 0.0000 0.0000 36.4623
#
#
#
# Elastic Compliance Matrix: (Units=1/GPa)
#
#
# Indices 1 2 3 4 5 6 
#
# 1 0.013549 -0.002600 -0.001641 0.000000 0.000000 0.000000
# 2 -0.002600 0.013078 0.003733 0.000000 0.000000 0.000000
# 3 -0.001641 0.003733 0.034093 0.000000 0.000000 0.000000
# 4 0.000000 0.000000 0.000000 0.073253 0.000000 0.000000
# 5 0.000000 0.000000 0.000000 0.000000 0.027539 0.000000
# 6 0.000000 0.000000 0.000000 0.000000 0.000000 0.027426
#
#
# Mechanical properties :
#
#
# Convention : Reuss Voigt Hill
#
# Bulk Modulus (GPa) = 16.74918 22.89076 19.81997
# Shear Modulus (GPa) = 23.82600 29.31269 26.56934
#
# Velocity S-wave (km/s) = 3.20464 3.55452 3.38410
# Velocity P-wave (km/s) = 4.57300 5.16844 4.87981
#
# Compressibility (1/GPa) = 0.05970440
#
# Stress axis : x y z
#
# Youngs Moduli (GPa) = 73.80713 76.46238 29.33130
#
# Poissons Ratio (x) = 0.19878 0.04814
# Poissons Ratio (y) = 0.19187 -0.10949
# Poissons Ratio (z) = 0.12114 -0.28543
#
# Static dielectric constant tensor:
#      x y z
#    x 1.895280 0.000000 0.000000 
#    y 0.000000 1.935560 0.000000 
#    z 0.000000 0.000000 1.905100 
# 
# From -- ./inp_files/8456.got.cif
#   From: 2010.05.17/outbox.cif.g08.bks.cpg/sg33_5_cif.got.tgz:8456.got - 2010.06.03 17:15:25.
