data_PCOD9345498
_publ_section_title
;
Structure prediction by ZEFSAII (Michael W. Deem and Ramdas Pophale) SiO2 
 PCOD9345498
Probable space group: P N A 21
;
_chemical_formula_sum "Si O2"
_cell_formula_units_Z 32
_cell_length_a 10.441695
_cell_length_b 15.036195
_cell_length_c 8.917155
_cell_angle_alpha 90.000000
_cell_angle_beta 90.000000
_cell_angle_gamma 90.000000
_cell_volume 1400.023316
_symmetry_space_group_name_H-M "P N A 21"
_symmetry_group_IT_number 33
_symmetry_cell_setting 'orthorhombic'
loop_
_space_group_symop_operation_xyz
x,y,z
-x,-y,1/2+z
1/2-x,1/2+y,1/2+z
1/2+x,1/2-y,z
loop_
_atom_site_type_symbol
_atom_site_label
_atom_site_fract_x
_atom_site_fract_y
_atom_site_fract_z
Si Si1 0.431983 0.910312 0.480770
Si Si2 0.887860 0.744851 0.976521
Si Si3 0.528833 0.067542 0.305030
Si Si4 0.250000 0.143579 0.237669
Si Si5 0.387860 0.255149 0.998818
Si Si6 0.471167 0.432458 0.170310
Si Si7 0.749999 0.661322 0.237669
Si Si8 0.431984 0.410312 0.494569
O O1 0.399040 0.943486 0.647014
O O2 0.495871 0.813981 0.500494
O O3 0.317798 0.897061 0.364640
O O4 0.529787 0.980346 0.407025
O O5 0.777150 0.793931 0.881394
O O6 0.922411 0.654044 0.891927
O O7 0.847895 0.721965 0.144872
O O8 0.004128 0.813981 0.974845
O O9 0.379374 0.088118 0.264541
O O10 0.120625 0.088118 0.210798
O O11 0.277150 0.206069 0.093944
O O12 0.347896 0.278035 0.830466
O O13 0.422410 0.345956 0.083413
O O14 0.399040 0.443486 0.328325
O O15 0.470212 0.519653 0.068313
O O16 0.682201 0.602939 0.110699
#
# Coordination Sequence:
#
# PCOD9345498 Si02
#       8
#     4   4   4   4   4   4   4   4
#     4  11  24  41  64  92 126 165 208 258 310 370
#     4  11  23  42  64  92 125 163 207 258 310 369
#     4  11  23  42  65  93 127 162 206 259 315 372
#     4  10  21  42  65  88 122 166 203 256 319 368
#     4  11  23  42  64  92 125 163 207 258 310 369
#     4  11  23  42  65  93 127 162 206 259 315 372
#     4  12  23  40  63  92 126 168 209 252 305 370
#     4  11  24  41  64  92 126 165 208 258 310 370
#
# _framework density 22.856762
#
# number of rings (size 3 to 8) (size 9 to 14) (size 15 to 20)
#    0.000    1.000    0.000    9.000    0.000    4.000 
#    0.000    1.250    0.000    0.000    0.000    0.000 
#    0.000    0.000    0.000    0.000    0.000    0.000 
#
# Total GULP energy -179160.178206 kJ/mol
# GULP energy per Si atom -5598.755569 kJ/mol
# Density = 2.280474 g / cm^3
# Si number density = 22.856762 Si / 1000 Ang^3
#
#
#
# Elastic Constant Matrix: (Units=GPa)
#
#
# Indices 1 2 3 4 5 6 
#
# 1 38.5188 -11.0626 18.1031 0.0000 0.0000 0.0000
# 2 -11.0626 69.0362 26.6114 0.0000 0.0000 0.0000
# 3 18.1031 26.6114 139.7130 0.0000 0.0000 0.0000
# 4 0.0000 0.0000 0.0000 35.0065 0.0000 0.0000
# 5 0.0000 0.0000 0.0000 0.0000 46.8615 0.0000
# 6 0.0000 0.0000 0.0000 0.0000 0.0000 -6.1022
#
#
#
# Elastic Compliance Matrix: (Units=1/GPa)
#
#
# Indices 1 2 3 4 5 6 
#
# 1 0.030412 0.006899 -0.005255 0.000000 0.000000 0.000000
# 2 0.006899 0.017198 -0.004170 0.000000 0.000000 0.000000
# 3 -0.005255 -0.004170 0.008633 0.000000 0.000000 0.000000
# 4 0.000000 0.000000 0.000000 0.028566 0.000000 0.000000
# 5 0.000000 0.000000 0.000000 0.000000 0.021339 0.000000
# 6 0.000000 0.000000 0.000000 0.000000 0.000000 -0.163875
#
#
# Mechanical properties :
#
#
# Convention : Reuss Voigt Hill
#
# Bulk Modulus (GPa) = 19.53430 34.95242 27.24336
# Shear Modulus (GPa) = -140.40104 29.39424 -55.50340
#
# Velocity S-wave (km/s) = -7.84601 3.59000 -4.93314
# Velocity P-wave (km/s) = 8.57408 5.70169 4.52800
#
# Compressibility (1/GPa) = 0.05119200
#
# Stress axis : x y z
#
# Youngs Moduli (GPa) = 32.88143 58.14659 115.84013
#
# Poissons Ratio (x) = -0.40115 0.60870
# Poissons Ratio (y) = -0.22685 0.48301
# Poissons Ratio (z) = 0.17278 0.24245
#
# Static dielectric constant tensor:
#      x y z
#    x 1.905730 0.000000 0.000000 
#    y 0.000000 1.820830 0.000000 
#    z 0.000000 0.000000 1.849280 
# 
# From -- ./inp_files/3912.got.cif
#   From: 2010.05.17/outbox.cif.g08.bks.cpg/sg33_2_cif.got.tgz:3912.got - 2010.06.03 17:15:25.
