data_PCOD9345923
_publ_section_title
;
Structure prediction by ZEFSAII (Michael W. Deem and Ramdas Pophale) SiO2 
 PCOD9345923
Probable space group: P N A 21
;
_chemical_formula_sum "Si O2"
_cell_formula_units_Z 20
_cell_length_a 12.275862
_cell_length_b 6.824107
_cell_length_c 10.935158
_cell_angle_alpha 90.000000
_cell_angle_beta 90.000000
_cell_angle_gamma 90.000000
_cell_volume 916.057823
_symmetry_space_group_name_H-M "P N A 21"
_symmetry_group_IT_number 33
_symmetry_cell_setting 'orthorhombic'
loop_
_space_group_symop_operation_xyz
x,y,z
-x,-y,1/2+z
1/2-x,1/2+y,1/2+z
1/2+x,1/2-y,z
loop_
_atom_site_type_symbol
_atom_site_label
_atom_site_fract_x
_atom_site_fract_y
_atom_site_fract_z
Si Si1 0.081457 0.614969 0.110770
Si Si2 0.683852 0.283644 0.045525
Si Si3 0.874841 0.379126 0.202317
Si Si4 0.949631 0.073051 0.396325
Si Si5 0.658234 0.545890 0.270242
O O1 0.154427 0.441744 0.056212
O O2 0.143872 0.740156 0.213329
O O3 0.975800 0.515390 0.170360
O O4 0.050054 0.766071 0.003941
O O5 0.809872 0.326110 0.077086
O O6 0.627500 0.390609 0.162691
O O7 0.633355 0.399763 0.932400
O O8 0.908070 0.186334 0.276239
O O9 0.784633 0.492665 0.284995
O O10 0.070958 0.990974 0.375168
#
# Coordination Sequence:
#
# PCOD9345923 Si02
#       5
#     4   4   4   4   4
#     4  11  23  45  66  99 141 171 229 285 327 404
#     4   9  23  43  61 101 128 180 225 271 332 402
#     4  10  22  45  66  97 137 183 222 279 339 398
#     4  11  23  43  67  99 138 177 224 280 337 397
#     4   9  23  42  64  96 136 173 226 275 331 401
#
# _framework density 21.832681999999998
#
# number of rings (size 3 to 8) (size 9 to 14) (size 15 to 20)
#    1.200    0.800    2.000    0.000    5.600    1.600 
#    3.600    0.000    0.000    0.000    0.000    0.000 
#    0.000    0.000    0.000    0.000    0.000    0.000 
#
# Total GULP energy -111597.145408 kJ/mol
# GULP energy per Si atom -5579.857270 kJ/mol
# Density = 2.178299 g / cm^3
# Si number density = 21.832682 Si / 1000 Ang^3
#
#
#
# Elastic Constant Matrix: (Units=GPa)
#
#
# Indices 1 2 3 4 5 6 
#
# 1 77.1004 24.1142 9.4375 0.0000 0.0000 0.0000
# 2 24.1142 128.3365 20.1413 0.0000 0.0000 0.0000
# 3 9.4375 20.1413 27.4435 0.0000 0.0000 0.0000
# 4 0.0000 0.0000 0.0000 34.0008 0.0000 0.0000
# 5 0.0000 0.0000 0.0000 0.0000 43.3888 0.0000
# 6 0.0000 0.0000 0.0000 0.0000 0.0000 70.1897
#
#
#
# Elastic Compliance Matrix: (Units=1/GPa)
#
#
# Indices 1 2 3 4 5 6 
#
# 1 0.014034 -0.002124 -0.003267 0.000000 0.000000 0.000000
# 2 -0.002124 0.009128 -0.005969 0.000000 0.000000 0.000000
# 3 -0.003267 -0.005969 0.041943 0.000000 0.000000 0.000000
# 4 0.000000 0.000000 0.000000 0.029411 0.000000 0.000000
# 5 0.000000 0.000000 0.000000 0.000000 0.023047 0.000000
# 6 0.000000 0.000000 0.000000 0.000000 0.000000 0.014247
#
#
# Mechanical properties :
#
#
# Convention : Reuss Voigt Hill
#
# Bulk Modulus (GPa) = 23.59347 37.80738 30.70042
# Shear Modulus (GPa) = 29.64562 41.46168 35.55365
#
# Velocity S-wave (km/s) = 3.68891 4.36255 4.03980
# Velocity P-wave (km/s) = 5.38275 6.53684 5.98767
#
# Compressibility (1/GPa) = 0.04238461
#
# Stress axis : x y z
#
# Youngs Moduli (GPa) = 71.25340 109.55440 23.84213
#
# Poissons Ratio (x) = 0.23272 0.07790
# Poissons Ratio (y) = 0.15136 0.14230
# Poissons Ratio (z) = 0.23280 0.65389
#
# Static dielectric constant tensor:
#      x y z
#    x 1.785780 0.000000 0.000000 
#    y 0.000000 1.761600 0.000000 
#    z 0.000000 0.000000 1.846670 
# 
# From -- ./inp_files/6563.got.cif
#   From: 2010.05.17/outbox.cif.g08.bks.cpg/sg33_4_cif.got.tgz:6563.got - 2010.06.03 17:15:25.
