data_PCOD9345674
_publ_section_title
;
Structure prediction by ZEFSAII (Michael W. Deem and Ramdas Pophale) SiO2 
 PCOD9345674
Probable space group: P N A 21
;
_chemical_formula_sum "Si O2"
_cell_formula_units_Z 32
_cell_length_a 5.453358
_cell_length_b 13.541880
_cell_length_c 16.350052
_cell_angle_alpha 90.000000
_cell_angle_beta 90.000000
_cell_angle_gamma 90.000000
_cell_volume 1207.430406
_symmetry_space_group_name_H-M "P N A 21"
_symmetry_group_IT_number 33
_symmetry_cell_setting 'orthorhombic'
loop_
_space_group_symop_operation_xyz
x,y,z
-x,-y,1/2+z
1/2-x,1/2+y,1/2+z
1/2+x,1/2-y,z
loop_
_atom_site_type_symbol
_atom_site_label
_atom_site_fract_x
_atom_site_fract_y
_atom_site_fract_z
Si Si1 0.654975 0.694642 0.065980
Si Si2 0.209904 0.879296 0.884560
Si Si3 0.175346 0.490267 0.105737
Si Si4 0.470964 0.788459 0.571992
Si Si5 0.260611 0.310333 0.859319
Si Si6 0.784958 0.555108 0.202853
Si Si7 0.483686 0.642559 0.714345
Si Si8 0.782309 0.479699 0.426166
O O1 0.406052 0.749712 0.089097
O O2 0.663933 0.592651 0.117714
O O3 0.675695 0.684228 0.967186
O O4 0.133635 0.832784 0.797185
O O5 0.483431 0.923748 0.887616
O O6 0.991318 0.958091 0.895285
O O7 0.978890 0.404537 0.080398
O O8 0.372536 0.419506 0.145353
O O9 0.070941 0.552924 0.179731
O O10 0.218205 0.547091 0.022407
O O11 0.711157 0.740865 0.531985
O O12 0.419779 0.739505 0.662284
O O13 0.531716 0.264337 0.866580
O O14 0.264464 0.363907 0.770417
O O15 0.189671 0.404017 0.915552
O O16 0.715820 0.444137 0.232725
#
# Coordination Sequence:
#
# PCOD9345674 Si02
#       8
#     4   4   4   4   4   4   4   4
#     4  12  28  48  74 111 151 198 250 309 370 434
#     4  12  26  49  76 106 149 194 251 300 373 445
#     4  11  25  43  78 107 145 194 247 308 373 448
#     4  10  22  40  62 106 138 174 236 298 362 422
#     4  12  28  48  74 111 151 198 250 309 370 434
#     4  12  24  48  76 104 148 198 256 302 368 448
#     4  11  25  43  78 107 145 194 247 308 373 448
#     4  12  26  49  76 106 149 194 251 300 373 445
#
# _framework density 26.502564
#
# number of rings (size 3 to 8) (size 9 to 14) (size 15 to 20)
#    0.000    0.500    3.750    3.750    3.500    4.000 
#    0.000    0.000    0.000    0.000    0.000    0.000 
#    0.000    0.000    0.000    0.000    0.000    0.000 
#
# Total GULP energy -178959.210551 kJ/mol
# GULP energy per Si atom -5592.475330 kJ/mol
# Density = 2.644224 g / cm^3
# Si number density = 26.502564 Si / 1000 Ang^3
#
#
#
# Elastic Constant Matrix: (Units=GPa)
#
#
# Indices 1 2 3 4 5 6 
#
# 1 130.1761 27.3886 32.8989 0.0000 0.0000 0.0000
# 2 27.3886 75.6521 6.3426 0.0000 0.0000 0.0000
# 3 32.8989 6.3426 107.0023 0.0000 0.0000 0.0000
# 4 0.0000 0.0000 0.0000 54.6189 0.0000 0.0000
# 5 0.0000 0.0000 0.0000 0.0000 35.1669 0.0000
# 6 0.0000 0.0000 0.0000 0.0000 0.0000 52.0162
#
#
#
# Elastic Compliance Matrix: (Units=1/GPa)
#
#
# Indices 1 2 3 4 5 6 
#
# 1 0.008971 -0.003032 -0.002579 0.000000 0.000000 0.000000
# 2 -0.003032 0.014309 0.000084 0.000000 0.000000 0.000000
# 3 -0.002579 0.000084 0.010133 0.000000 0.000000 0.000000
# 4 0.000000 0.000000 0.000000 0.018309 0.000000 0.000000
# 5 0.000000 0.000000 0.000000 0.000000 0.028436 0.000000
# 6 0.000000 0.000000 0.000000 0.000000 0.000000 0.019225
#
#
# Mechanical properties :
#
#
# Convention : Reuss Voigt Hill
#
# Bulk Modulus (GPa) = 44.72074 49.56561 47.14318
# Shear Modulus (GPa) = 42.41252 44.77378 43.59315
#
# Velocity S-wave (km/s) = 4.00474 4.11471 4.06009
# Velocity P-wave (km/s) = 6.18827 6.42785 6.30919
#
# Compressibility (1/GPa) = 0.02236099
#
# Stress axis : x y z
#
# Youngs Moduli (GPa) = 111.46450 69.88626 98.68311
#
# Poissons Ratio (x) = 0.21188 0.25447
# Poissons Ratio (y) = 0.33794 -0.00829
# Poissons Ratio (z) = 0.28743 -0.00587
#
# Static dielectric constant tensor:
#      x y z
#    x 2.216650 0.000000 0.000000 
#    y 0.000000 2.125370 0.000000 
#    z 0.000000 0.000000 2.227830 
# 
# From -- ./inp_files/8362.got.cif
#   From: 2010.05.17/outbox.cif.g08.bks.cpg/sg33_5_cif.got.tgz:8362.got - 2010.06.03 17:15:25.
