data_PCOD9345147
_publ_section_title
;
Structure prediction by ZEFSAII (Michael W. Deem and Ramdas Pophale) SiO2 
 PCOD9345147
Probable space group: P N A 21
;
_chemical_formula_sum "Si O2"
_cell_formula_units_Z 32
_cell_length_a 13.437429
_cell_length_b 5.187982
_cell_length_c 20.879752
_cell_angle_alpha 90.000000
_cell_angle_beta 90.000000
_cell_angle_gamma 90.000000
_cell_volume 1455.593070
_symmetry_space_group_name_H-M "P N A 21"
_symmetry_group_IT_number 33
_symmetry_cell_setting 'orthorhombic'
loop_
_space_group_symop_operation_xyz
x,y,z
-x,-y,1/2+z
1/2-x,1/2+y,1/2+z
1/2+x,1/2-y,z
loop_
_atom_site_type_symbol
_atom_site_label
_atom_site_fract_x
_atom_site_fract_y
_atom_site_fract_z
Si Si1 0.705036 0.038693 0.178880
Si Si2 0.967987 0.438552 0.779340
Si Si3 0.305775 0.473178 0.595044
Si Si4 0.601677 0.556788 0.754454
Si Si5 0.706630 0.745548 0.495084
Si Si6 0.117242 0.634545 0.989117
Si Si7 0.974429 0.283978 0.925967
Si Si8 0.827395 0.021984 0.389837
O O1 0.664524 0.282967 0.138400
O O2 0.819892 0.094573 0.197638
O O3 0.630803 0.992906 0.238438
O O4 0.706622 0.772360 0.139957
O O5 0.039003 0.687377 0.770486
O O6 0.946651 0.389158 0.855029
O O7 0.026884 0.186932 0.752062
O O8 0.207522 0.560608 0.555109
O O9 0.379373 0.374590 0.537887
O O10 0.674336 0.503877 0.814896
O O11 0.795874 0.554635 0.513251
O O12 0.606104 0.628196 0.467696
O O13 0.741393 0.901821 0.432112
O O14 0.012549 0.504995 0.974749
O O15 0.158494 0.694049 0.917534
O O16 0.070115 0.112379 0.911062
#
# Coordination Sequence:
#
# PCOD9345147 Si02
#       8
#     4   4   4   4   4   4   4   4
#     4  12  25  47  68  95 137 187 225 280 325 399
#     4  11  24  45  70 105 133 172 231 276 340 412
#     4  11  24  46  65  93 136 178 232 267 329 401
#     4  11  23  45  68 100 136 172 223 281 337 402
#     4  10  21  41  66  97 128 179 218 270 336 404
#     4  10  20  43  66  94 140 168 216 286 333 390
#     4  10  21  40  68 105 131 166 222 280 345 404
#     4   9  20  37  65  97 135 164 205 282 341 388
#
# _framework density 21.984169000000001
#
# number of rings (size 3 to 8) (size 9 to 14) (size 15 to 20)
#    0.000    1.500    2.500    2.250    0.000    2.000 
#   13.500    1.250    0.000    0.000    0.000    0.000 
#    0.000    0.000    0.000    0.000    0.000    0.000 
#
# Total GULP energy -178368.976964 kJ/mol
# GULP energy per Si atom -5574.030530 kJ/mol
# Density = 2.193413 g / cm^3
# Si number density = 21.984169 Si / 1000 Ang^3
#
#
#
# Elastic Constant Matrix: (Units=GPa)
#
#
# Indices 1 2 3 4 5 6 
#
# 1 50.1755 17.0847 54.5699 0.0000 0.0000 0.0000
# 2 17.0847 102.6511 39.1459 0.0000 0.0000 0.0000
# 3 54.5699 39.1459 102.8718 0.0000 0.0000 0.0000
# 4 0.0000 0.0000 0.0000 39.8977 0.0000 0.0000
# 5 0.0000 0.0000 0.0000 0.0000 23.0288 0.0000
# 6 0.0000 0.0000 0.0000 0.0000 0.0000 7.5466
#
#
#
# Elastic Compliance Matrix: (Units=1/GPa)
#
#
# Indices 1 2 3 4 5 6 
#
# 1 0.047453 0.001990 -0.025929 0.000000 0.000000 0.000000
# 2 0.001990 0.011479 -0.005424 0.000000 0.000000 0.000000
# 3 -0.025929 -0.005424 0.025539 0.000000 0.000000 0.000000
# 4 0.000000 0.000000 0.000000 0.025064 0.000000 0.000000
# 5 0.000000 0.000000 0.000000 0.000000 0.043424 0.000000
# 6 0.000000 0.000000 0.000000 0.000000 0.000000 0.132509
#
#
# Mechanical properties :
#
#
# Convention : Reuss Voigt Hill
#
# Bulk Modulus (GPa) = 38.84229 53.03326 45.93777
# Shear Modulus (GPa) = 14.17331 23.75449 18.96390
#
# Velocity S-wave (km/s) = 2.54186 3.29070 2.94022
# Velocity P-wave (km/s) = 5.13044 6.21402 5.69805
#
# Compressibility (1/GPa) = 0.02574514
#
# Stress axis : x y z
#
# Youngs Moduli (GPa) = 21.07366 87.11664 39.15520
#
# Poissons Ratio (x) = -0.17339 1.01527
# Poissons Ratio (y) = -0.04194 0.21237
# Poissons Ratio (z) = 0.54643 0.47251
#
# Static dielectric constant tensor:
#      x y z
#    x 1.841850 0.000000 0.000000 
#    y 0.000000 1.872580 0.000000 
#    z 0.000000 0.000000 1.858420 
# 
# From -- ./inp_files/9093.got.cif
#   From: 2010.05.17/outbox.cif.g08.bks.cpg/sg33_5_cif.got.tgz:9093.got - 2010.06.03 17:15:25.
