data_PCOD9345468
_publ_section_title
;
Structure prediction by ZEFSAII (Michael W. Deem and Ramdas Pophale) SiO2 
 PCOD9345468
Probable space group: P N A 21
;
_chemical_formula_sum "Si O2"
_cell_formula_units_Z 32
_cell_length_a 33.374088
_cell_length_b 6.623793
_cell_length_c 5.576885
_cell_angle_alpha 90.000000
_cell_angle_beta 90.000000
_cell_angle_gamma 90.000000
_cell_volume 1232.843210
_symmetry_space_group_name_H-M "P N A 21"
_symmetry_group_IT_number 33
_symmetry_cell_setting 'orthorhombic'
loop_
_space_group_symop_operation_xyz
x,y,z
-x,-y,1/2+z
1/2-x,1/2+y,1/2+z
1/2+x,1/2-y,z
loop_
_atom_site_type_symbol
_atom_site_label
_atom_site_fract_x
_atom_site_fract_y
_atom_site_fract_z
Si Si1 0.662680 0.379630 0.483300
Si Si2 0.586736 0.155568 0.697725
Si Si3 0.873696 0.598035 0.606458
Si Si4 0.889919 0.185245 0.150016
Si Si5 0.581191 0.691266 0.163770
Si Si6 0.764241 0.592757 0.005863
Si Si7 0.497910 0.877725 0.045792
Si Si8 0.708033 0.903482 0.997191
O O1 0.628236 0.262533 0.632693
O O2 0.648992 0.285800 0.228806
O O3 0.654150 0.611854 0.555348
O O4 0.706082 0.287468 0.531613
O O5 0.546680 0.210630 0.565798
O O6 0.595903 0.916171 0.681819
O O7 0.586409 0.185190 0.981939
O O8 0.894148 0.400249 0.724677
O O9 0.836930 0.481852 0.477412
O O10 0.898176 0.110108 0.420997
O O11 0.915563 0.094049 0.927098
O O12 0.535489 0.733514 0.093144
O O13 0.776248 0.491497 0.753575
O O14 0.718486 0.667492 0.010735
O O15 0.771586 0.469189 0.247484
O O16 0.498093 0.024685 0.281717
#
# Coordination Sequence:
#
# PCOD9345468 Si02
#       8
#     4   4   4   4   4   4   4   4
#     4  11  24  43  67  99 132 177 219 276 330 405
#     4  11  22  42  66  93 132 177 216 279 327 395
#     4  10  21  41  67  91 134 171 221 262 343 384
#     4  11  24  38  66  94 130 167 224 266 329 389
#     4  11  22  41  61 100 125 173 223 273 325 400
#     4  11  25  44  68  99 139 169 226 269 338 395
#     4  12  20  37  67  92 129 173 224 270 332 389
#     4  11  24  42  68  96 135 175 215 277 328 409
#
# _framework density 25.956261000000001
#
# number of rings (size 3 to 8) (size 9 to 14) (size 15 to 20)
#    0.000    1.000    6.250    0.750    1.750    3.000 
#    0.000    1.250    0.000    0.000    0.000    0.000 
#    0.000    0.000    0.000    0.000    0.000    0.000 
#
# Total GULP energy -178211.346646 kJ/mol
# GULP energy per Si atom -5569.104583 kJ/mol
# Density = 2.589718 g / cm^3
# Si number density = 25.956261 Si / 1000 Ang^3
#
#
#
# Elastic Constant Matrix: (Units=GPa)
#
#
# Indices 1 2 3 4 5 6 
#
# 1 86.9802 20.2543 30.4930 0.0000 0.0000 0.0000
# 2 20.2543 63.7602 12.9590 0.0000 0.0000 0.0000
# 3 30.4930 12.9590 150.8522 0.0000 0.0000 0.0000
# 4 0.0000 0.0000 0.0000 13.5648 0.0000 0.0000
# 5 0.0000 0.0000 0.0000 0.0000 39.4297 0.0000
# 6 0.0000 0.0000 0.0000 0.0000 0.0000 43.7684
#
#
#
# Elastic Compliance Matrix: (Units=1/GPa)
#
#
# Indices 1 2 3 4 5 6 
#
# 1 0.013184 -0.003711 -0.002346 0.000000 0.000000 0.000000
# 2 -0.003711 0.017007 -0.000711 0.000000 0.000000 0.000000
# 3 -0.002346 -0.000711 0.007164 0.000000 0.000000 0.000000
# 4 0.000000 0.000000 0.000000 0.073720 0.000000 0.000000
# 5 0.000000 0.000000 0.000000 0.000000 0.025362 0.000000
# 6 0.000000 0.000000 0.000000 0.000000 0.000000 0.022848
#
#
# Mechanical properties :
#
#
# Convention : Reuss Voigt Hill
#
# Bulk Modulus (GPa) = 41.98349 47.66723 44.82536
# Shear Modulus (GPa) = 27.66097 35.21167 31.43632
#
# Velocity S-wave (km/s) = 3.26801 3.68717 3.48390
# Velocity P-wave (km/s) = 5.51812 6.04411 5.78710
#
# Compressibility (1/GPa) = 0.02381889
#
# Stress axis : x y z
#
# Youngs Moduli (GPa) = 75.85231 58.79894 139.58091
#
# Poissons Ratio (x) = 0.21821 0.32747
# Poissons Ratio (y) = 0.28149 0.09922
# Poissons Ratio (z) = 0.17796 0.04180
#
# Static dielectric constant tensor:
#      x y z
#    x 1.981220 0.000000 0.000000 
#    y 0.000000 2.164800 0.000000 
#    z 0.000000 0.000000 2.300660 
# 
# From -- ./inp_files/2525.got.cif
#   From: 2010.05.17/outbox.cif.g08.bks.cpg/sg33_2_cif.got.tgz:2525.got - 2010.06.03 17:15:25.
