data_PCOD9345632
_publ_section_title
;
Structure prediction by ZEFSAII (Michael W. Deem and Ramdas Pophale) SiO2 
 PCOD9345632
Probable space group: P N A 21
;
_chemical_formula_sum "Si O2"
_cell_formula_units_Z 28
_cell_length_a 19.791358
_cell_length_b 5.266102
_cell_length_c 13.290451
_cell_angle_alpha 90.000000
_cell_angle_beta 90.000000
_cell_angle_gamma 90.000000
_cell_volume 1385.174794
_symmetry_space_group_name_H-M "P N A 21"
_symmetry_group_IT_number 33
_symmetry_cell_setting 'orthorhombic'
loop_
_space_group_symop_operation_xyz
x,y,z
-x,-y,1/2+z
1/2-x,1/2+y,1/2+z
1/2+x,1/2-y,z
loop_
_atom_site_type_symbol
_atom_site_label
_atom_site_fract_x
_atom_site_fract_y
_atom_site_fract_z
Si Si1 0.426636 0.122230 0.309250
Si Si2 0.391508 0.127241 0.542496
Si Si3 0.891508 0.872759 0.042495
Si Si4 0.828876 0.352182 0.131544
Si Si5 0.328876 0.647818 0.631544
Si Si6 0.926636 0.877770 0.809250
Si Si7 1.000000 0.750000 0.187776
O O1 0.408655 0.137916 0.425214
O O2 0.366846 0.211880 0.236418
O O3 0.500000 0.249999 0.293487
O O4 0.442719 0.845547 0.264031
O O5 0.362543 0.398473 0.580274
O O6 0.459454 0.073907 0.608429
O O7 0.341394 0.895119 0.563319
O O8 0.862543 0.601527 0.080274
O O9 0.959454 0.926093 0.108429
O O10 0.841394 0.104881 0.063319
O O11 0.908655 0.862084 0.925213
O O12 0.750000 0.399386 0.147143
O O13 0.366845 0.711880 0.736418
O O14 0.942719 0.154452 0.764030
#
# Coordination Sequence:
#
# PCOD9345632 Si02
#       7
#     4   4   4   4   4   4   4
#     4  11  23  40  70  98 126 170 217 272 325 379
#     4  11  24  41  68  96 132 168 217 268 327 382
#     4  11  24  41  68  96 132 168 217 268 327 382
#     4  11  26  45  64  95 135 174 217 265 323 394
#     4  11  26  45  64  95 135 174 217 265 323 394
#     4  11  23  40  70  98 126 170 217 272 325 379
#     4  10  22  38  64 102 132 160 214 274 326 380
#
# _framework density 20.214055999999999
#
# number of rings (size 3 to 8) (size 9 to 14) (size 15 to 20)
#    0.000    1.143    4.286    0.857    4.000    2.286 
#    0.000    0.000    0.000    0.000    0.000    0.000 
#    0.000    0.000    0.000    0.000    0.000    0.000 
#
# Total GULP energy -156067.786077 kJ/mol
# GULP energy per Si atom -5573.849503 kJ/mol
# Density = 2.016805 g / cm^3
# Si number density = 20.214056 Si / 1000 Ang^3
#
#
#
# Elastic Constant Matrix: (Units=GPa)
#
#
# Indices 1 2 3 4 5 6 
#
# 1 118.2124 17.7052 79.1142 0.0000 0.0000 0.0000
# 2 17.7052 79.4689 47.8856 0.0000 0.0000 0.0000
# 3 79.1142 47.8856 202.3508 0.0000 0.0000 0.0000
# 4 0.0000 0.0000 0.0000 21.6852 0.0000 0.0000
# 5 0.0000 0.0000 0.0000 0.0000 20.8411 0.0000
# 6 0.0000 0.0000 0.0000 0.0000 0.0000 24.9866
#
#
#
# Elastic Compliance Matrix: (Units=1/GPa)
#
#
# Indices 1 2 3 4 5 6 
#
# 1 0.011459 0.000171 -0.004521 0.000000 0.000000 0.000000
# 2 0.000171 0.014679 -0.003541 0.000000 0.000000 0.000000
# 3 -0.004521 -0.003541 0.007547 0.000000 0.000000 0.000000
# 4 0.000000 0.000000 0.000000 0.046114 0.000000 0.000000
# 5 0.000000 0.000000 0.000000 0.000000 0.047982 0.000000
# 6 0.000000 0.000000 0.000000 0.000000 0.000000 0.040021
#
#
# Mechanical properties :
#
#
# Convention : Reuss Voigt Hill
#
# Bulk Modulus (GPa) = 55.85093 76.60468 66.22780
# Shear Modulus (GPa) = 26.37794 30.52438 28.45116
#
# Velocity S-wave (km/s) = 3.61630 3.89016 3.75573
# Velocity P-wave (km/s) = 6.71763 7.62606 7.18622
#
# Compressibility (1/GPa) = 0.01790480
#
# Stress axis : x y z
#
# Youngs Moduli (GPa) = 87.26548 68.12513 132.49794
#
# Poissons Ratio (x) = -0.01165 0.59899
# Poissons Ratio (y) = -0.01492 0.46912
# Poissons Ratio (z) = 0.39451 0.24120
#
# Static dielectric constant tensor:
#      x y z
#    x 1.742950 0.000000 0.000000 
#    y 0.000000 1.898630 0.000000 
#    z 0.000000 0.000000 1.664760 
# 
# From -- ./inp_files/6972.got.cif
#   From: 2010.05.17/outbox.cif.g08.bks.cpg/sg33_4_cif.got.tgz:6972.got - 2010.06.03 17:15:25.
