data_PCOD9345761
_publ_section_title
;
Structure prediction by ZEFSAII (Michael W. Deem and Ramdas Pophale) SiO2 
 PCOD9345761
Probable space group: P N A 21
;
_chemical_formula_sum "Si O2"
_cell_formula_units_Z 32
_cell_length_a 7.928397
_cell_length_b 12.345065
_cell_length_c 13.889963
_cell_angle_alpha 90.000000
_cell_angle_beta 90.000000
_cell_angle_gamma 90.000000
_cell_volume 1359.502024
_symmetry_space_group_name_H-M "P N A 21"
_symmetry_group_IT_number 33
_symmetry_cell_setting 'orthorhombic'
loop_
_space_group_symop_operation_xyz
x,y,z
-x,-y,1/2+z
1/2-x,1/2+y,1/2+z
1/2+x,1/2-y,z
loop_
_atom_site_type_symbol
_atom_site_label
_atom_site_fract_x
_atom_site_fract_y
_atom_site_fract_z
Si Si1 0.193794 0.886766 0.733440
Si Si2 0.037414 0.592282 0.099938
Si Si3 0.238965 0.796289 0.143932
Si Si4 0.835926 0.830804 0.678435
Si Si5 0.577645 0.095124 0.959614
Si Si6 0.560633 0.383540 0.756166
Si Si7 0.037166 0.537728 0.780846
Si Si8 0.815014 0.838525 0.461752
O O1 0.275303 0.793511 0.667389
O O2 0.357419 0.903661 0.803570
O O3 0.001533 0.841796 0.745747
O O4 0.144804 0.010365 0.710189
O O5 0.848357 0.629509 0.073411
O O6 0.143713 0.701006 0.086673
O O7 0.014238 0.561671 0.211703
O O8 0.097125 0.482763 0.051087
O O9 0.348656 0.724400 0.217785
O O10 0.121899 0.870885 0.209760
O O11 0.674862 0.891350 0.724013
O O12 0.876281 0.869151 0.569529
O O13 0.379334 0.126281 0.952896
O O14 0.673693 0.208113 0.954534
O O15 0.619323 0.014162 0.873514
O O16 0.581432 0.386657 0.871311
#
# Coordination Sequence:
#
# PCOD9345761 Si02
#       8
#     4   4   4   4   4   4   4   4
#     4  12  24  44  69 104 139 198 238 292 378 452
#     4  11  22  46  67 101 143 188 241 308 368 443
#     4  10  22  41  70  98 138 188 241 302 377 436
#     4  12  26  45  75 105 151 199 243 307 385 449
#     4  12  26  45  73 105 149 188 252 310 372 445
#     4  11  22  41  73 101 138 185 247 306 370 437
#     4  12  24  48  73 100 151 196 244 312 375 441
#     4  12  24  44  70 110 141 186 250 319 369 439
#
# _framework density 23.538031
#
# number of rings (size 3 to 8) (size 9 to 14) (size 15 to 20)
#    0.000    0.500    5.000    4.500    0.000    1.000 
#    2.250    0.000    0.000    0.000    0.000    0.000 
#    0.000    0.000    0.000    0.000    0.000    0.000 
#
# Total GULP energy -178545.095191 kJ/mol
# GULP energy per Si atom -5579.534225 kJ/mol
# Density = 2.348446 g / cm^3
# Si number density = 23.538031 Si / 1000 Ang^3
#
#
#
# Elastic Constant Matrix: (Units=GPa)
#
#
# Indices 1 2 3 4 5 6 
#
# 1 98.9659 46.7632 16.8653 0.0000 0.0000 0.0000
# 2 46.7632 126.5515 32.4726 0.0000 0.0000 0.0000
# 3 16.8653 32.4726 60.9001 0.0000 0.0000 0.0000
# 4 0.0000 0.0000 0.0000 25.1881 0.0000 0.0000
# 5 0.0000 0.0000 0.0000 0.0000 13.1714 0.0000
# 6 0.0000 0.0000 0.0000 0.0000 0.0000 61.3164
#
#
#
# Elastic Compliance Matrix: (Units=1/GPa)
#
#
# Indices 1 2 3 4 5 6 
#
# 1 0.012310 -0.004256 -0.001139 0.000000 0.000000 0.000000
# 2 -0.004256 0.010626 -0.004487 0.000000 0.000000 0.000000
# 3 -0.001139 -0.004487 0.019129 0.000000 0.000000 0.000000
# 4 0.000000 0.000000 0.000000 0.039701 0.000000 0.000000
# 5 0.000000 0.000000 0.000000 0.000000 0.075922 0.000000
# 6 0.000000 0.000000 0.000000 0.000000 0.000000 0.016309
#
#
# Mechanical properties :
#
#
# Convention : Reuss Voigt Hill
#
# Bulk Modulus (GPa) = 44.84629 53.17996 49.01313
# Shear Modulus (GPa) = 24.85145 32.62296 28.73721
#
# Velocity S-wave (km/s) = 3.25283 3.72690 3.49791
# Velocity P-wave (km/s) = 5.76211 6.41576 6.09770
#
# Compressibility (1/GPa) = 0.02229839
#
# Stress axis : x y z
#
# Youngs Moduli (GPa) = 81.23555 94.10765 52.27790
#
# Poissons Ratio (x) = 0.40055 0.05957
# Poissons Ratio (y) = 0.34577 0.23458
# Poissons Ratio (z) = 0.09257 0.42228
#
# Static dielectric constant tensor:
#      x y z
#    x 2.018050 0.000000 0.000000 
#    y 0.000000 1.894740 0.000000 
#    z 0.000000 0.000000 1.893030 
# 
# From -- ./inp_files/7624.got.cif
#   From: 2010.05.17/outbox.cif.g08.bks.cpg/sg33_4_cif.got.tgz:7624.got - 2010.06.03 17:15:25.
