data_PCOD9345015
_publ_section_title
;
Structure prediction by ZEFSAII (Michael W. Deem and Ramdas Pophale) SiO2 
 PCOD9345015
Probable space group: P N A 21
;
_chemical_formula_sum "Si O2"
_cell_formula_units_Z 28
_cell_length_a 8.112998
_cell_length_b 14.305409
_cell_length_c 11.484555
_cell_angle_alpha 90.000000
_cell_angle_beta 90.000000
_cell_angle_gamma 90.000000
_cell_volume 1332.894635
_symmetry_space_group_name_H-M "P N A 21"
_symmetry_group_IT_number 33
_symmetry_cell_setting 'orthorhombic'
loop_
_space_group_symop_operation_xyz
x,y,z
-x,-y,1/2+z
1/2-x,1/2+y,1/2+z
1/2+x,1/2-y,z
loop_
_atom_site_type_symbol
_atom_site_label
_atom_site_fract_x
_atom_site_fract_y
_atom_site_fract_z
Si Si1 0.899362 0.351889 0.704060
Si Si2 0.693638 0.451535 0.006767
Si Si3 0.007680 0.115223 0.418162
Si Si4 0.948910 0.821440 0.309238
Si Si5 0.009109 0.484746 0.342566
Si Si6 0.669181 0.511121 0.255156
Si Si7 0.622593 0.810061 0.943555
O O1 0.708638 0.333295 0.727202
O O2 0.946136 0.323598 0.574103
O O3 0.993698 0.285697 0.797479
O O4 0.932927 0.460830 0.727255
O O5 0.563265 0.537429 0.003969
O O6 0.608332 0.365568 0.934763
O O7 0.858311 0.479318 0.936353
O O8 0.734989 0.454674 0.143149
O O9 0.023323 0.055126 0.300999
O O10 0.188892 0.155109 0.444084
O O11 0.888203 0.202517 0.411081
O O12 0.094031 0.885329 0.254557
O O13 0.817803 0.516433 0.348883
O O14 0.987158 0.374154 0.358000
#
# Coordination Sequence:
#
# PCOD9345015 Si02
#       7
#     4   4   4   4   4   4   4
#     4  11  20  35  56  83 114 150 190 240 286 337
#     4  10  20  39  59  85 121 155 188 241 293 342
#     4  10  22  36  59  88 114 148 197 234 284 353
#     4  10  22  36  59  88 114 148 197 234 284 353
#     4  10  22  34  56  86 114 148 196 236 286 350
#     4  10  20  39  59  85 121 155 188 241 293 342
#     4  11  20  35  56  83 114 150 190 240 286 337
#
# _framework density 21.006910999999999
#
# number of rings (size 3 to 8) (size 9 to 14) (size 15 to 20)
#    0.000    1.714    0.000    5.143    0.000    0.000 
#    0.000    8.571    0.000    0.000    0.000    0.000 
#    0.000    0.000    0.000    0.000    0.000    0.000 
#
# Total GULP energy -155924.632183 kJ/mol
# GULP energy per Si atom -5568.736864 kJ/mol
# Density = 2.095910 g / cm^3
# Si number density = 21.006911 Si / 1000 Ang^3
#
#
#
# Elastic Constant Matrix: (Units=GPa)
#
#
# Indices 1 2 3 4 5 6 
#
# 1 62.3834 6.0189 -2.1916 0.0000 0.0000 0.0000
# 2 6.0189 70.6902 13.4981 0.0000 0.0000 0.0000
# 3 -2.1916 13.4981 35.4514 0.0000 0.0000 0.0000
# 4 0.0000 0.0000 0.0000 8.8426 0.0000 0.0000
# 5 0.0000 0.0000 0.0000 0.0000 23.4174 0.0000
# 6 0.0000 0.0000 0.0000 0.0000 0.0000 37.7865
#
#
#
# Elastic Compliance Matrix: (Units=1/GPa)
#
#
# Indices 1 2 3 4 5 6 
#
# 1 0.016252 -0.001699 0.001652 0.000000 0.000000 0.000000
# 2 -0.001699 0.015433 -0.005981 0.000000 0.000000 0.000000
# 3 0.001652 -0.005981 0.030587 0.000000 0.000000 0.000000
# 4 0.000000 0.000000 0.000000 0.113088 0.000000 0.000000
# 5 0.000000 0.000000 0.000000 0.000000 0.042703 0.000000
# 6 0.000000 0.000000 0.000000 0.000000 0.000000 0.026465
#
#
# Mechanical properties :
#
#
# Convention : Reuss Voigt Hill
#
# Bulk Modulus (GPa) = 19.91452 22.57508 21.24480
# Shear Modulus (GPa) = 18.29332 24.08926 21.19129
#
# Velocity S-wave (km/s) = 2.95417 3.39001 3.17957
# Velocity P-wave (km/s) = 4.59747 5.10811 4.85950
#
# Compressibility (1/GPa) = 0.05021463
#
# Stress axis : x y z
#
# Youngs Moduli (GPa) = 61.53141 64.79619 32.69353
#
# Poissons Ratio (x) = 0.11010 -0.05400
# Poissons Ratio (y) = 0.10455 0.19555
# Poissons Ratio (z) = -0.10163 0.38756
#
# Static dielectric constant tensor:
#      x y z
#    x 1.824780 0.000000 0.000000 
#    y 0.000000 1.787330 0.000000 
#    z 0.000000 0.000000 1.802430 
# 
# From -- ./inp_files/5912.got.cif
#   From: 2010.05.17/outbox.cif.g08.bks.cpg/sg33_3_cif.got.tgz:5912.got - 2010.06.03 17:15:25.
