data_PCOD9345942
_publ_section_title
;
Structure prediction by ZEFSAII (Michael W. Deem and Ramdas Pophale) SiO2 
 PCOD9345942
Probable space group: P N A 21
;
_chemical_formula_sum "Si O2"
_cell_formula_units_Z 20
_cell_length_a 15.373261
_cell_length_b 7.763446
_cell_length_c 6.733399
_cell_angle_alpha 90.000000
_cell_angle_beta 90.000000
_cell_angle_gamma 90.000000
_cell_volume 803.627680
_symmetry_space_group_name_H-M "P N A 21"
_symmetry_group_IT_number 33
_symmetry_cell_setting 'orthorhombic'
loop_
_space_group_symop_operation_xyz
x,y,z
-x,-y,1/2+z
1/2-x,1/2+y,1/2+z
1/2+x,1/2-y,z
loop_
_atom_site_type_symbol
_atom_site_label
_atom_site_fract_x
_atom_site_fract_y
_atom_site_fract_z
Si Si1 0.911155 0.116047 0.208530
Si Si2 0.584356 0.232924 0.209270
Si Si3 0.843550 0.225897 0.612343
Si Si4 0.540741 0.892372 0.425126
Si Si5 0.713176 0.453255 0.400314
O O1 0.869553 0.112924 0.423499
O O2 0.015596 0.108347 0.225351
O O3 0.904043 0.308586 0.107228
O O4 0.863547 0.989418 0.059672
O O5 0.679376 0.300340 0.255993
O O6 0.558966 0.088668 0.372336
O O7 0.556363 0.151547 0.997819
O O8 0.927249 0.287471 0.734684
O O9 0.794087 0.390644 0.525867
O O10 0.782082 0.120298 0.761960
#
# Coordination Sequence:
#
# PCOD9345942 Si02
#       5
#     4   4   4   4   4
#     4   9  24  44  71 101 144 187 244 294 368 438
#     4  10  22  45  73 102 140 187 240 304 353 441
#     4  11  25  46  69 106 146 196 238 306 369 448
#     4   9  22  44  70 104 139 183 241 296 360 434
#     4  11  27  45  73 103 151 189 249 300 374 435
#
# _framework density 24.887145
#
# number of rings (size 3 to 8) (size 9 to 14) (size 15 to 20)
#    1.200    0.800    0.000    1.200    8.400    1.600 
#    3.600    0.000    0.000    0.000    0.000    0.000 
#    0.000    0.000    0.000    0.000    0.000    0.000 
#
# Total GULP energy -111699.819878 kJ/mol
# GULP energy per Si atom -5584.990994 kJ/mol
# Density = 2.483050 g / cm^3
# Si number density = 24.887145 Si / 1000 Ang^3
#
#
#
# Elastic Constant Matrix: (Units=GPa)
#
#
# Indices 1 2 3 4 5 6 
#
# 1 60.0266 31.0028 42.8064 0.0000 0.0000 0.0000
# 2 31.0028 83.5715 38.5537 0.0000 0.0000 0.0000
# 3 42.8064 38.5537 140.4961 0.0000 0.0000 0.0000
# 4 0.0000 0.0000 0.0000 44.0415 0.0000 0.0000
# 5 0.0000 0.0000 0.0000 0.0000 18.8869 0.0000
# 6 0.0000 0.0000 0.0000 0.0000 0.0000 33.6156
#
#
#
# Elastic Compliance Matrix: (Units=1/GPa)
#
#
# Indices 1 2 3 4 5 6 
#
# 1 0.023864 -0.006296 -0.005543 0.000000 0.000000 0.000000
# 2 -0.006296 0.015361 -0.002297 0.000000 0.000000 0.000000
# 3 -0.005543 -0.002297 0.009437 0.000000 0.000000 0.000000
# 4 0.000000 0.000000 0.000000 0.022706 0.000000 0.000000
# 5 0.000000 0.000000 0.000000 0.000000 0.052947 0.000000
# 6 0.000000 0.000000 0.000000 0.000000 0.000000 0.029748
#
#
# Mechanical properties :
#
#
# Convention : Reuss Voigt Hill
#
# Bulk Modulus (GPa) = 49.04396 56.53556 52.78976
# Shear Modulus (GPa) = 26.43669 30.75754 28.59712
#
# Velocity S-wave (km/s) = 3.26277 3.51932 3.39347
# Velocity P-wave (km/s) = 5.82611 6.26740 6.05078
#
# Compressibility (1/GPa) = 0.02038987
#
# Stress axis : x y z
#
# Youngs Moduli (GPa) = 41.90432 65.09987 105.96690
#
# Poissons Ratio (x) = 0.40984 0.58740
# Poissons Ratio (y) = 0.26381 0.24342
# Poissons Ratio (z) = 0.23229 0.14954
#
# Static dielectric constant tensor:
#      x y z
#    x 1.977050 0.000000 0.000000 
#    y 0.000000 1.962130 0.000000 
#    z 0.000000 0.000000 1.941100 
# 
# From -- ./inp_files/1606.got.cif
#   From: 2010.05.17/outbox.cif.g08.bks.cpg/sg33_1_cif.got.tgz:1606.got - 2010.06.03 17:15:25.
