data_PCOD9345698
_publ_section_title
;
Structure prediction by ZEFSAII (Michael W. Deem and Ramdas Pophale) SiO2 
 PCOD9345698
Probable space group: P N A 21
;
_chemical_formula_sum "Si O2"
_cell_formula_units_Z 32
_cell_length_a 13.715314
_cell_length_b 5.555402
_cell_length_c 17.088398
_cell_angle_alpha 90.000000
_cell_angle_beta 90.000000
_cell_angle_gamma 90.000000
_cell_volume 1302.034813
_symmetry_space_group_name_H-M "P N A 21"
_symmetry_group_IT_number 33
_symmetry_cell_setting 'orthorhombic'
loop_
_space_group_symop_operation_xyz
x,y,z
-x,-y,1/2+z
1/2-x,1/2+y,1/2+z
1/2+x,1/2-y,z
loop_
_atom_site_type_symbol
_atom_site_label
_atom_site_fract_x
_atom_site_fract_y
_atom_site_fract_z
Si Si1 0.297041 0.761208 0.377470
Si Si2 0.037128 0.998614 0.918977
Si Si3 0.751029 0.473922 0.538512
Si Si4 0.896521 0.603567 0.989509
Si Si5 0.396967 0.188381 0.828397
Si Si6 0.410009 0.448541 0.168592
Si Si7 0.925272 0.538060 0.254122
Si Si8 0.045952 0.322313 0.072164
O O1 0.352352 0.505274 0.387988
O O2 0.256517 0.877498 0.457217
O O3 0.213160 0.757082 0.311808
O O4 0.381226 0.928434 0.340936
O O5 0.964385 0.083577 0.850237
O O6 0.048204 0.197635 0.987220
O O7 0.980143 0.789158 0.961670
O O8 0.707185 0.215062 0.514035
O O9 0.667057 0.557637 0.597580
O O10 0.856148 0.520505 0.578022
O O11 0.883905 0.449765 0.910988
O O12 0.948948 0.484002 0.063958
O O13 0.457414 0.036183 0.766370
O O14 0.404335 0.711041 0.208529
O O15 0.517890 0.385309 0.133602
O O16 0.389811 0.215794 0.221987
#
# Coordination Sequence:
#
# PCOD9345698 Si02
#       8
#     4   4   4   4   4   4   4   4
#     4  10  22  43  69 109 137 187 255 310 378 447
#     4   9  19  38  62  99 138 173 224 306 368 439
#     4  11  23  44  77 112 146 194 259 324 389 454
#     4  11  20  39  72 107 141 181 240 315 382 448
#     4  10  22  40  65  99 138 188 236 303 375 448
#     4  12  26  51  68 105 152 208 251 318 382 473
#     4  11  29  46  72  99 155 202 256 311 385 464
#     4  10  23  41  65 104 145 189 245 303 387 451
#
# _framework density 24.576916000000001
#
# number of rings (size 3 to 8) (size 9 to 14) (size 15 to 20)
#    0.000    1.500    2.500    2.250    5.250    3.000 
#    2.250    0.000    0.000    0.000    0.000    0.000 
#    0.000    0.000    0.000    0.000    0.000    0.000 
#
# Total GULP energy -178570.646258 kJ/mol
# GULP energy per Si atom -5580.332696 kJ/mol
# Density = 2.452098 g / cm^3
# Si number density = 24.576916 Si / 1000 Ang^3
#
#
#
# Elastic Constant Matrix: (Units=GPa)
#
#
# Indices 1 2 3 4 5 6 
#
# 1 106.8871 16.4937 17.0329 0.0000 0.0000 0.0000
# 2 16.4937 88.1483 36.2972 0.0000 0.0000 0.0000
# 3 17.0329 36.2972 82.4883 0.0000 0.0000 0.0000
# 4 0.0000 0.0000 0.0000 46.0192 0.0000 0.0000
# 5 0.0000 0.0000 0.0000 0.0000 43.6706 0.0000
# 6 0.0000 0.0000 0.0000 0.0000 0.0000 29.8742
#
#
#
# Elastic Compliance Matrix: (Units=1/GPa)
#
#
# Indices 1 2 3 4 5 6 
#
# 1 0.009780 -0.001219 -0.001483 0.000000 0.000000 0.000000
# 2 -0.001219 0.014007 -0.005912 0.000000 0.000000 0.000000
# 3 -0.001483 -0.005912 0.015030 0.000000 0.000000 0.000000
# 4 0.000000 0.000000 0.000000 0.021730 0.000000 0.000000
# 5 0.000000 0.000000 0.000000 0.000000 0.022899 0.000000
# 6 0.000000 0.000000 0.000000 0.000000 0.000000 0.033474
#
#
# Mechanical properties :
#
#
# Convention : Reuss Voigt Hill
#
# Bulk Modulus (GPa) = 46.31858 46.35235 46.33547
# Shear Modulus (GPa) = 35.37456 37.75946 36.56701
#
# Velocity S-wave (km/s) = 3.79798 3.92392 3.86146
# Velocity P-wave (km/s) = 6.17415 6.27938 6.22699
#
# Compressibility (1/GPa) = 0.02158961
#
# Stress axis : x y z
#
# Youngs Moduli (GPa) = 102.24812 71.39310 66.53158
#
# Poissons Ratio (x) = 0.08705 0.09866
# Poissons Ratio (y) = 0.12468 0.39331
# Poissons Ratio (z) = 0.15163 0.42205
#
# Static dielectric constant tensor:
#      x y z
#    x 2.030800 0.000000 0.000000 
#    y 0.000000 2.007470 0.000000 
#    z 0.000000 0.000000 1.996910 
# 
# From -- ./inp_files/8804.got.cif
#   From: 2010.05.17/outbox.cif.g08.bks.cpg/sg33_5_cif.got.tgz:8804.got - 2010.06.03 17:15:25.
