data_PCOD9345940
_publ_section_title
;
Structure prediction by ZEFSAII (Michael W. Deem and Ramdas Pophale) SiO2 
 PCOD9345940
Probable space group: P N A 21
;
_chemical_formula_sum "Si O2"
_cell_formula_units_Z 24
_cell_length_a 8.934565
_cell_length_b 11.153600
_cell_length_c 9.860464
_cell_angle_alpha 90.000000
_cell_angle_beta 90.000000
_cell_angle_gamma 90.000000
_cell_volume 982.620522
_symmetry_space_group_name_H-M "P N A 21"
_symmetry_group_IT_number 33
_symmetry_cell_setting 'orthorhombic'
loop_
_space_group_symop_operation_xyz
x,y,z
-x,-y,1/2+z
1/2-x,1/2+y,1/2+z
1/2+x,1/2-y,z
loop_
_atom_site_type_symbol
_atom_site_label
_atom_site_fract_x
_atom_site_fract_y
_atom_site_fract_z
Si Si1 0.758946 0.587345 0.534760
Si Si2 0.062723 0.194935 0.951925
Si Si3 0.720771 0.528354 0.076269
Si Si4 0.130016 0.587891 0.798546
Si Si5 0.852125 0.734514 0.902936
Si Si6 0.083130 0.110531 0.666894
O O1 0.883909 0.690510 0.535833
O O2 0.606216 0.654850 0.486779
O O3 0.823000 0.497706 0.421514
O O4 0.703590 0.498703 0.656520
O O5 0.092549 0.204312 0.790031
O O6 0.167135 0.082987 0.989000
O O7 0.864363 0.490353 0.163183
O O8 0.748074 0.641819 0.983126
O O9 0.582294 0.554110 0.177134
O O10 0.259423 0.688797 0.795138
O O11 0.981303 0.657643 0.835391
O O12 0.909163 0.823063 0.021940
#
# Coordination Sequence:
#
# PCOD9345940 Si02
#       6
#     4   4   4   4   4   4
#     4  10  24  42  67 102 134 186 235 286 356 418
#     4  11  24  42  69  99 147 182 233 297 353 420
#     4  11  24  44  69 109 142 186 239 291 360 428
#     4  11  24  46  72 101 143 181 243 292 353 431
#     4  11  24  45  74 101 139 196 234 294 364 415
#     4  10  22  45  71  98 145 185 236 296 350 426
#
# _framework density 24.424485000000001
#
# number of rings (size 3 to 8) (size 9 to 14) (size 15 to 20)
#    0.000    1.333    3.333    1.000    2.333    4.000 
#    6.000    0.000    0.000    0.000    0.000    0.000 
#    0.000    0.000    0.000    0.000    0.000    0.000 
#
# Total GULP energy -134330.573599 kJ/mol
# GULP energy per Si atom -5597.107233 kJ/mol
# Density = 2.436889 g / cm^3
# Si number density = 24.424485 Si / 1000 Ang^3
#
#
#
# Elastic Constant Matrix: (Units=GPa)
#
#
# Indices 1 2 3 4 5 6 
#
# 1 69.4765 38.9585 8.7187 0.0000 0.0000 0.0000
# 2 38.9585 112.2137 6.9194 0.0000 0.0000 0.0000
# 3 8.7187 6.9194 76.4309 0.0000 0.0000 0.0000
# 4 0.0000 0.0000 0.0000 19.6550 0.0000 0.0000
# 5 0.0000 0.0000 0.0000 0.0000 10.6950 0.0000
# 6 0.0000 0.0000 0.0000 0.0000 0.0000 44.8986
#
#
#
# Elastic Compliance Matrix: (Units=1/GPa)
#
#
# Indices 1 2 3 4 5 6 
#
# 1 0.018042 -0.006171 -0.001499 0.000000 0.000000 0.000000
# 2 -0.006171 0.011073 -0.000298 0.000000 0.000000 0.000000
# 3 -0.001499 -0.000298 0.013282 0.000000 0.000000 0.000000
# 4 0.000000 0.000000 0.000000 0.050878 0.000000 0.000000
# 5 0.000000 0.000000 0.000000 0.000000 0.093502 0.000000
# 6 0.000000 0.000000 0.000000 0.000000 0.000000 0.022272
#
#
# Mechanical properties :
#
#
# Convention : Reuss Voigt Hill
#
# Bulk Modulus (GPa) = 37.79586 40.81272 39.30429
# Shear Modulus (GPa) = 21.38522 28.61801 25.00161
#
# Velocity S-wave (km/s) = 2.96220 3.42671 3.20289
# Velocity P-wave (km/s) = 5.21610 5.69232 5.45941
#
# Compressibility (1/GPa) = 0.02645792
#
# Stress axis : x y z
#
# Youngs Moduli (GPa) = 55.42585 90.31322 75.29120
#
# Poissons Ratio (x) = 0.55736 0.11289
# Poissons Ratio (y) = 0.34206 0.02247
# Poissons Ratio (z) = 0.08311 0.02695
#
# Static dielectric constant tensor:
#      x y z
#    x 1.962250 0.000000 0.000000 
#    y 0.000000 1.910850 0.000000 
#    z 0.000000 0.000000 1.955900 
# 
# From -- ./inp_files/3048.got.cif
#   From: 2010.05.17/outbox.cif.g08.bks.cpg/sg33_2_cif.got.tgz:3048.got - 2010.06.03 17:15:25.
