data_PCOD9345809
_publ_section_title
;
Structure prediction by ZEFSAII (Michael W. Deem and Ramdas Pophale) SiO2 
 PCOD9345809
Probable space group: P N A 21
;
_chemical_formula_sum "Si O2"
_cell_formula_units_Z 16
_cell_length_a 16.481982
_cell_length_b 4.971269
_cell_length_c 7.056031
_cell_angle_alpha 90.000000
_cell_angle_beta 90.000000
_cell_angle_gamma 90.000000
_cell_volume 578.145540
_symmetry_space_group_name_H-M "P N A 21"
_symmetry_group_IT_number 33
_symmetry_cell_setting 'orthorhombic'
loop_
_space_group_symop_operation_xyz
x,y,z
-x,-y,1/2+z
1/2-x,1/2+y,1/2+z
1/2+x,1/2-y,z
loop_
_atom_site_type_symbol
_atom_site_label
_atom_site_fract_x
_atom_site_fract_y
_atom_site_fract_z
Si Si1 0.048542 0.726205 0.324870
Si Si2 0.731409 0.684875 0.721516
Si Si3 0.876571 0.574284 0.457668
Si Si4 0.867188 0.754254 0.002154
O O1 0.084341 0.621379 0.122705
O O2 0.074723 0.501443 0.477745
O O3 0.951479 0.731877 0.359051
O O4 0.086457 0.013714 0.377002
O O5 0.803264 0.724215 0.566458
O O6 0.787636 0.635973 0.900960
O O7 0.675424 0.440782 0.658561
O O8 0.670122 0.912924 0.792869
#
# Coordination Sequence:
#
# PCOD9345809 Si02
#       4
#     4   4   4   4
#     4  11  24  42  67 102 141 186 238 295 356 424
#     4   9  21  44  70 100 140 186 238 293 358 426
#     4  10  22  42  70 103 142 189 240 296 357 427
#     4  10  23  42  67 101 139 185 236 294 357 425
#
# _framework density 27.674689999999998
#
# number of rings (size 3 to 8) (size 9 to 14) (size 15 to 20)
#    0.000    2.000    0.000    1.500    0.000   14.000 
#    0.000   12.500    0.000    0.000    0.000    0.000 
#    0.000    0.000    0.000    0.000    0.000    0.000 
#
# Total GULP energy -89427.414141 kJ/mol
# GULP energy per Si atom -5589.213384 kJ/mol
# Density = 2.761170 g / cm^3
# Si number density = 27.674690 Si / 1000 Ang^3
#
#
#
# Elastic Constant Matrix: (Units=GPa)
#
#
# Indices 1 2 3 4 5 6 
#
# 1 262.4434 69.7345 63.7113 0.0000 0.0000 0.0000
# 2 69.7345 42.0710 8.2578 0.0000 0.0000 0.0000
# 3 63.7113 8.2578 123.3027 0.0000 0.0000 0.0000
# 4 0.0000 0.0000 0.0000 41.7247 0.0000 0.0000
# 5 0.0000 0.0000 0.0000 0.0000 66.5477 0.0000
# 6 0.0000 0.0000 0.0000 0.0000 0.0000 51.2008
#
#
#
# Elastic Compliance Matrix: (Units=1/GPa)
#
#
# Indices 1 2 3 4 5 6 
#
# 1 0.007918 -0.012486 -0.003255 0.000000 0.000000 0.000000
# 2 -0.012486 0.043774 0.003520 0.000000 0.000000 0.000000
# 3 -0.003255 0.003520 0.009556 0.000000 0.000000 0.000000
# 4 0.000000 0.000000 0.000000 0.023967 0.000000 0.000000
# 5 0.000000 0.000000 0.000000 0.000000 0.015027 0.000000
# 6 0.000000 0.000000 0.000000 0.000000 0.000000 0.019531
#
#
# Mechanical properties :
#
#
# Convention : Reuss Voigt Hill
#
# Bulk Modulus (GPa) = 27.16908 79.02495 53.09701
# Shear Modulus (GPa) = 31.95203 50.96887 41.46045
#
# Velocity S-wave (km/s) = 3.40156 4.29618 3.87478
# Velocity P-wave (km/s) = 5.02654 7.29565 6.26469
#
# Compressibility (1/GPa) = 0.03680655
#
# Stress axis : x y z
#
# Youngs Moduli (GPa) = 126.29061 22.84443 104.64222
#
# Poissons Ratio (x) = 0.28523 0.34063
# Poissons Ratio (y) = 1.57685 -0.36833
# Poissons Ratio (z) = 0.41110 -0.08041
#
# Static dielectric constant tensor:
#      x y z
#    x 2.275920 0.000000 0.000000 
#    y 0.000000 2.186920 0.000000 
#    z 0.000000 0.000000 2.544780 
# 
# From -- ./inp_files/4132.got.cif
#   From: 2010.05.17/outbox.cif.g08.bks.cpg/sg33_3_cif.got.tgz:4132.got - 2010.06.03 17:15:25.
