data_PCOD9345106
_publ_section_title
;
Structure prediction by ZEFSAII (Michael W. Deem and Ramdas Pophale) SiO2 
 PCOD9345106
Probable space group: P N A 21
;
_chemical_formula_sum "Si O2"
_cell_formula_units_Z 32
_cell_length_a 11.710837
_cell_length_b 14.699371
_cell_length_c 8.271717
_cell_angle_alpha 90.000000
_cell_angle_beta 90.000000
_cell_angle_gamma 90.000000
_cell_volume 1423.909393
_symmetry_space_group_name_H-M "P N A 21"
_symmetry_group_IT_number 33
_symmetry_cell_setting 'orthorhombic'
loop_
_space_group_symop_operation_xyz
x,y,z
-x,-y,1/2+z
1/2-x,1/2+y,1/2+z
1/2+x,1/2-y,z
loop_
_atom_site_type_symbol
_atom_site_label
_atom_site_fract_x
_atom_site_fract_y
_atom_site_fract_z
Si Si1 0.164519 0.195675 0.668580
Si Si2 0.381824 0.688819 0.797527
Si Si3 0.561598 0.601826 0.272246
Si Si4 0.681783 0.927589 0.665830
Si Si5 0.193813 0.377989 0.829202
Si Si6 0.072357 0.931365 0.888297
Si Si7 0.701571 0.968856 0.298395
Si Si8 0.564940 0.125417 0.155754
O O1 0.156755 0.172797 0.480878
O O2 0.174488 0.303006 0.691556
O O3 0.264672 0.131354 0.736963
O O4 0.048500 0.165831 0.759551
O O5 0.297874 0.629667 0.685828
O O6 0.512652 0.653761 0.800777
O O7 0.375099 0.794252 0.754829
O O8 0.671907 0.637290 0.366625
O O9 0.520417 0.511068 0.361865
O O10 0.591968 0.583387 0.081055
O O11 0.666908 0.960392 0.483218
O O12 0.568463 0.869803 0.696882
O O13 0.685619 0.017538 0.775389
O O14 0.105405 0.359876 0.972238
O O15 0.184493 0.968779 0.800592
O O16 0.607909 0.024499 0.200838
#
# Coordination Sequence:
#
# PCOD9345106 Si02
#       8
#     4   4   4   4   4   4   4   4
#     4  10  25  42  69 103 138 176 233 288 348 414
#     4  11  24  44  69 104 136 180 236 289 347 422
#     4  10  22  39  69  97 128 176 222 287 343 405
#     4  12  25  47  70 100 145 185 235 290 354 425
#     4  12  24  45  66 101 140 186 231 283 351 415
#     4  10  20  41  69  98 127 172 231 293 340 408
#     4  11  23  45  69 102 138 182 235 288 355 414
#     4  12  29  41  69 101 142 193 227 292 356 423
#
# _framework density 22.473338999999999
#
# number of rings (size 3 to 8) (size 9 to 14) (size 15 to 20)
#    0.000    1.000    2.500    3.000    5.250    5.000 
#    0.000    0.000    0.000    0.000    0.000    0.000 
#    0.000    0.000    0.000    0.000    0.000    0.000 
#
# Total GULP energy -178898.357033 kJ/mol
# GULP energy per Si atom -5590.573657 kJ/mol
# Density = 2.242219 g / cm^3
# Si number density = 22.473339 Si / 1000 Ang^3
#
#
#
# Elastic Constant Matrix: (Units=GPa)
#
#
# Indices 1 2 3 4 5 6 
#
# 1 48.8415 11.3718 -10.0370 0.0000 0.0000 0.0000
# 2 11.3718 78.2657 5.6312 0.0000 0.0000 0.0000
# 3 -10.0370 5.6312 36.3120 0.0000 0.0000 0.0000
# 4 0.0000 0.0000 0.0000 0.2122 0.0000 0.0000
# 5 0.0000 0.0000 0.0000 0.0000 24.1072 0.0000
# 6 0.0000 0.0000 0.0000 0.0000 0.0000 21.3912
#
#
#
# Elastic Compliance Matrix: (Units=1/GPa)
#
#
# Indices 1 2 3 4 5 6 
#
# 1 0.022775 -0.003805 0.006885 0.000000 0.000000 0.000000
# 2 -0.003805 0.013557 -0.003154 0.000000 0.000000 0.000000
# 3 0.006885 -0.003154 0.029931 0.000000 0.000000 0.000000
# 4 0.000000 0.000000 0.000000 4.713112 0.000000 0.000000
# 5 0.000000 0.000000 0.000000 0.000000 0.041481 0.000000
# 6 0.000000 0.000000 0.000000 0.000000 0.000000 0.046748
#
#
# Mechanical properties :
#
#
# Convention : Reuss Voigt Hill
#
# Bulk Modulus (GPa) = 15.12479 19.70572 17.41526
# Shear Modulus (GPa) = 1.02254 19.57234 10.29744
#
# Velocity S-wave (km/s) = 0.67527 2.95433 2.14290
# Velocity P-wave (km/s) = 2.71159 4.51939 3.72677
#
# Compressibility (1/GPa) = 0.06611661
#
# Stress axis : x y z
#
# Youngs Moduli (GPa) = 43.90754 73.76423 33.40979
#
# Poissons Ratio (x) = 0.28064 -0.23003
# Poissons Ratio (y) = 0.16705 0.10537
# Poissons Ratio (z) = -0.30231 0.23265
#
# Static dielectric constant tensor:
#      x y z
#    x 1.896210 0.000000 0.000000 
#    y 0.000000 1.955250 0.000000 
#    z 0.000000 0.000000 1.783330 
# 
# From -- ./inp_files/3959.got.cif
#   From: 2010.05.17/outbox.cif.g08.bks.cpg/sg33_2_cif.got.tgz:3959.got - 2010.06.03 17:15:25.
