data_PCOD9345818
_publ_section_title
;
Structure prediction by ZEFSAII (Michael W. Deem and Ramdas Pophale) SiO2 
 PCOD9345818
Probable space group: P N A 21
;
_chemical_formula_sum "Si O2"
_cell_formula_units_Z 24
_cell_length_a 14.160351
_cell_length_b 5.267590
_cell_length_c 12.989325
_cell_angle_alpha 90.000000
_cell_angle_beta 90.000000
_cell_angle_gamma 90.000000
_cell_volume 968.885745
_symmetry_space_group_name_H-M "P N A 21"
_symmetry_group_IT_number 33
_symmetry_cell_setting 'orthorhombic'
loop_
_space_group_symop_operation_xyz
x,y,z
-x,-y,1/2+z
1/2-x,1/2+y,1/2+z
1/2+x,1/2-y,z
loop_
_atom_site_type_symbol
_atom_site_label
_atom_site_fract_x
_atom_site_fract_y
_atom_site_fract_z
Si Si1 0.528750 0.522452 0.613230
Si Si2 0.513049 0.779935 0.806742
Si Si3 0.352334 0.589789 0.939930
Si Si4 0.749417 0.905302 0.369550
Si Si5 0.629463 0.866210 0.176436
Si Si6 0.092991 0.357082 0.976466
O O1 0.569792 0.638955 0.717471
O O2 0.603191 0.354774 0.551506
O O3 0.430396 0.379902 0.640717
O O4 0.498011 0.742399 0.533741
O O5 0.440366 0.592165 0.861610
O O6 0.446303 0.977862 0.745020
O O7 0.567509 0.929037 0.894287
O O8 0.305392 0.316561 0.931499
O O9 0.285661 0.816861 0.901465
O O10 0.719384 0.843373 0.251594
O O11 0.854329 0.857886 0.410780
O O12 0.650396 0.020821 0.072043
#
# Coordination Sequence:
#
# PCOD9345818 Si02
#       6
#     4   4   4   4   4   4
#     4  11  22  43  74 103 138 195 256 298 359 446
#     4  10  22  42  72 103 136 190 250 304 351 442
#     4  11  23  45  71 101 146 191 239 298 364 432
#     4  11  26  47  69 107 153 187 232 309 376 433
#     4  10  22  44  71 101 140 189 241 302 360 437
#     4  11  25  45  73 105 151 192 242 307 378 436
#
# _framework density 24.770723
#
# number of rings (size 3 to 8) (size 9 to 14) (size 15 to 20)
#    0.000    1.333    3.333    2.000    4.667    0.000 
#    6.000    0.000    0.000    0.000    0.000    0.000 
#    0.000    0.000    0.000    0.000    0.000    0.000 
#
# Total GULP energy -134334.160132 kJ/mol
# GULP energy per Si atom -5597.256672 kJ/mol
# Density = 2.471434 g / cm^3
# Si number density = 24.770723 Si / 1000 Ang^3
#
#
#
# Elastic Constant Matrix: (Units=GPa)
#
#
# Indices 1 2 3 4 5 6 
#
# 1 49.0420 4.9149 36.0953 0.0000 0.0000 0.0000
# 2 4.9149 51.3799 29.3765 0.0000 0.0000 0.0000
# 3 36.0953 29.3765 177.4667 0.0000 0.0000 0.0000
# 4 0.0000 0.0000 0.0000 52.4138 0.0000 0.0000
# 5 0.0000 0.0000 0.0000 0.0000 26.7906 0.0000
# 6 0.0000 0.0000 0.0000 0.0000 0.0000 28.0637
#
#
#
# Elastic Compliance Matrix: (Units=1/GPa)
#
#
# Indices 1 2 3 4 5 6 
#
# 1 0.023994 0.000547 -0.004971 0.000000 0.000000 0.000000
# 2 0.000547 0.021510 -0.003672 0.000000 0.000000 0.000000
# 3 -0.004971 -0.003672 0.007254 0.000000 0.000000 0.000000
# 4 0.000000 0.000000 0.000000 0.019079 0.000000 0.000000
# 5 0.000000 0.000000 0.000000 0.000000 0.037326 0.000000
# 6 0.000000 0.000000 0.000000 0.000000 0.000000 0.035633
#
#
# Mechanical properties :
#
#
# Convention : Reuss Voigt Hill
#
# Bulk Modulus (GPa) = 27.34749 46.51800 36.93274
# Shear Modulus (GPa) = 28.87219 35.28709 32.07964
#
# Velocity S-wave (km/s) = 3.41776 3.77841 3.60260
# Velocity P-wave (km/s) = 5.16130 6.15267 5.67866
#
# Compressibility (1/GPa) = 0.03656643
#
# Stress axis : x y z
#
# Youngs Moduli (GPa) = 41.67632 46.49023 137.86113
#
# Poissons Ratio (x) = -0.02542 0.68528
# Poissons Ratio (y) = -0.02279 0.50620
# Poissons Ratio (z) = 0.20716 0.17070
#
# Static dielectric constant tensor:
#      x y z
#    x 2.025430 0.000000 0.000000 
#    y 0.000000 1.963130 0.000000 
#    z 0.000000 0.000000 1.961140 
# 
# From -- ./inp_files/6621.got.cif
#   From: 2010.05.17/outbox.cif.g08.bks.cpg/sg33_4_cif.got.tgz:6621.got - 2010.06.03 17:15:25.
