data_PCOD9345366
_publ_section_title
;
Structure prediction by ZEFSAII (Michael W. Deem and Ramdas Pophale) SiO2 
 PCOD9345366
Probable space group: P N A 21
;
_chemical_formula_sum "Si O2"
_cell_formula_units_Z 28
_cell_length_a 23.085888
_cell_length_b 8.156499
_cell_length_c 6.329715
_cell_angle_alpha 90.000000
_cell_angle_beta 90.000000
_cell_angle_gamma 90.000000
_cell_volume 1191.885476
_symmetry_space_group_name_H-M "P N A 21"
_symmetry_group_IT_number 33
_symmetry_cell_setting 'orthorhombic'
loop_
_space_group_symop_operation_xyz
x,y,z
-x,-y,1/2+z
1/2-x,1/2+y,1/2+z
1/2+x,1/2-y,z
loop_
_atom_site_type_symbol
_atom_site_label
_atom_site_fract_x
_atom_site_fract_y
_atom_site_fract_z
Si Si1 0.349567 0.147897 0.800840
Si Si2 0.142078 0.029994 0.812383
Si Si3 0.568400 0.354498 0.420816
Si Si4 0.266443 0.306833 0.484947
Si Si5 0.369894 0.846995 0.579262
Si Si6 0.945487 0.159793 0.610615
Si Si7 0.181474 0.530895 0.726904
O O1 0.310589 0.278546 0.681240
O O2 0.413345 0.185555 0.714027
O O3 0.331213 0.967081 0.721479
O O4 0.343957 0.150001 0.049217
O O5 0.202266 0.933781 0.826270
O O6 0.118536 0.099995 0.590482
O O7 0.151385 0.178088 0.978697
O O8 0.091907 0.912660 0.913462
O O9 0.555660 0.518169 0.287369
O O10 0.510786 0.306475 0.545446
O O11 0.583299 0.215384 0.248278
O O12 0.212057 0.380877 0.606776
O O13 0.270670 0.134291 0.359528
O O14 0.370883 0.962622 0.370934
#
# Coordination Sequence:
#
# PCOD9345366 Si02
#       7
#     4   4   4   4   4   4   4
#     4  10  23  45  63  98 143 175 230 294 343 424
#     4  10  21  41  65 100 133 180 227 287 339 421
#     4  11  20  41  69  97 135 177 232 288 347 429
#     4  10  25  41  71  98 134 182 235 283 357 420
#     4  10  24  42  64  97 139 182 226 287 352 407
#     4  10  21  39  68  98 129 178 230 281 352 412
#     4  11  24  45  68 102 139 186 232 294 352 429
#
# _framework density 23.492190999999998
#
# number of rings (size 3 to 8) (size 9 to 14) (size 15 to 20)
#    0.000    1.714    1.429    1.714    4.000    1.143 
#    5.143    0.000    0.000    0.000    0.000    0.000 
#    0.000    0.000    0.000    0.000    0.000    0.000 
#
# Total GULP energy -156173.708589 kJ/mol
# GULP energy per Si atom -5577.632450 kJ/mol
# Density = 2.343872 g / cm^3
# Si number density = 23.492191 Si / 1000 Ang^3
#
#
#
# Elastic Constant Matrix: (Units=GPa)
#
#
# Indices 1 2 3 4 5 6 
#
# 1 100.3266 39.3664 66.9995 0.0000 0.0000 0.0000
# 2 39.3664 76.0565 52.6767 0.0000 0.0000 0.0000
# 3 66.9995 52.6767 154.7826 0.0000 0.0000 0.0000
# 4 0.0000 0.0000 0.0000 26.9148 0.0000 0.0000
# 5 0.0000 0.0000 0.0000 0.0000 33.6397 0.0000
# 6 0.0000 0.0000 0.0000 0.0000 0.0000 16.7884
#
#
#
# Elastic Compliance Matrix: (Units=1/GPa)
#
#
# Indices 1 2 3 4 5 6 
#
# 1 0.015014 -0.004278 -0.005043 0.000000 0.000000 0.000000
# 2 -0.004278 0.018422 -0.004418 0.000000 0.000000 0.000000
# 3 -0.005043 -0.004418 0.010147 0.000000 0.000000 0.000000
# 4 0.000000 0.000000 0.000000 0.037154 0.000000 0.000000
# 5 0.000000 0.000000 0.000000 0.000000 0.029727 0.000000
# 6 0.000000 0.000000 0.000000 0.000000 0.000000 0.059565
#
#
# Mechanical properties :
#
#
# Convention : Reuss Voigt Hill
#
# Bulk Modulus (GPa) = 62.09135 72.13896 67.11516
# Shear Modulus (GPa) = 24.64564 26.94345 25.79455
#
# Velocity S-wave (km/s) = 3.24249 3.39028 3.31721
# Velocity P-wave (km/s) = 6.36446 6.78967 6.58050
#
# Compressibility (1/GPa) = 0.01610530
#
# Stress axis : x y z
#
# Youngs Moduli (GPa) = 66.60471 54.28220 98.55130
#
# Poissons Ratio (x) = 0.23224 0.49699
# Poissons Ratio (y) = 0.28496 0.43536
# Poissons Ratio (z) = 0.33588 0.23980
#
# Static dielectric constant tensor:
#      x y z
#    x 1.884570 0.000000 0.000000 
#    y 0.000000 1.907430 0.000000 
#    z 0.000000 0.000000 1.927430 
# 
# From -- ./inp_files/2210.got.cif
#   From: 2010.05.17/outbox.cif.g08.bks.cpg/sg33_2_cif.got.tgz:2210.got - 2010.06.03 17:15:25.
