data_PCOD9345064
_publ_section_title
;
Structure prediction by ZEFSAII (Michael W. Deem and Ramdas Pophale) SiO2 
 PCOD9345064
Probable space group: P N A 21
;
_chemical_formula_sum "Si O2"
_cell_formula_units_Z 32
_cell_length_a 20.340592
_cell_length_b 8.692450
_cell_length_c 8.931188
_cell_angle_alpha 90.000000
_cell_angle_beta 90.000000
_cell_angle_gamma 90.000000
_cell_volume 1579.119590
_symmetry_space_group_name_H-M "P N A 21"
_symmetry_group_IT_number 33
_symmetry_cell_setting 'orthorhombic'
loop_
_space_group_symop_operation_xyz
x,y,z
-x,-y,1/2+z
1/2-x,1/2+y,1/2+z
1/2+x,1/2-y,z
loop_
_atom_site_type_symbol
_atom_site_label
_atom_site_fract_x
_atom_site_fract_y
_atom_site_fract_z
Si Si1 0.364269 0.491972 0.439300
Si Si2 0.865358 0.973184 0.940377
Si Si3 0.534311 0.475523 0.164646
Si Si4 0.072519 0.360896 0.135972
Si Si5 0.205003 0.159360 0.186929
Si Si6 0.147725 0.759416 0.676589
Si Si7 0.043169 0.516337 0.815200
Si Si8 0.414858 0.695130 0.206327
O O1 0.430003 0.440164 0.526610
O O2 0.314892 0.527544 0.570382
O O3 0.344573 0.372073 0.317398
O O4 0.372455 0.653254 0.351340
O O5 0.921690 0.978219 0.813792
O O6 0.801425 0.923199 0.847803
O O7 0.876372 0.833182 0.054783
O O8 0.867676 0.131523 0.033510
O O9 0.532924 0.299671 0.109988
O O10 0.467599 0.557470 0.201310
O O11 0.147567 0.295276 0.170079
O O12 0.031908 0.430202 0.278341
O O13 0.062368 0.471316 0.988997
O O14 0.278987 0.200204 0.151265
O O15 0.093820 0.635720 0.734288
O O16 0.052209 0.356930 0.726704
#
# Coordination Sequence:
#
# PCOD9345064 Si02
#       8
#     4   4   4   4   4   4   4   4
#     4   9  20  42  61  90 122 179 222 264 323 409
#     4   9  22  39  63  91 121 178 226 262 326 412
#     4  10  20  40  65  88 131 178 219 259 328 417
#     4  10  24  44  62  99 140 173 221 283 344 392
#     4  10  23  46  68  89 133 180 230 273 327 411
#     4  11  25  42  68  95 132 173 231 274 337 400
#     4  12  26  39  65 103 140 167 220 296 342 384
#     4  11  20  36  66  93 131 172 217 267 339 399
#
# _framework density 20.264457
#
# number of rings (size 3 to 8) (size 9 to 14) (size 15 to 20)
#    0.000    2.000    2.500    2.250    8.750    1.000 
#    0.000    3.750    0.000    0.000    0.000    0.000 
#    0.000    0.000    0.000    0.000    0.000    0.000 
#
# Total GULP energy -178144.651733 kJ/mol
# GULP energy per Si atom -5567.020367 kJ/mol
# Density = 2.021833 g / cm^3
# Si number density = 20.264457 Si / 1000 Ang^3
#
#
#
# Elastic Constant Matrix: (Units=GPa)
#
#
# Indices 1 2 3 4 5 6 
#
# 1 63.9541 9.6952 10.9509 0.0000 0.0000 0.0000
# 2 9.6952 54.8547 8.6393 0.0000 0.0000 0.0000
# 3 10.9509 8.6393 107.3106 0.0000 0.0000 0.0000
# 4 0.0000 0.0000 0.0000 28.2895 0.0000 0.0000
# 5 0.0000 0.0000 0.0000 0.0000 12.7312 0.0000
# 6 0.0000 0.0000 0.0000 0.0000 0.0000 17.2661
#
#
#
# Elastic Compliance Matrix: (Units=1/GPa)
#
#
# Indices 1 2 3 4 5 6 
#
# 1 0.016286 -0.002650 -0.001449 0.000000 0.000000 0.000000
# 2 -0.002650 0.018895 -0.001251 0.000000 0.000000 0.000000
# 3 -0.001449 -0.001251 0.009567 0.000000 0.000000 0.000000
# 4 0.000000 0.000000 0.000000 0.035349 0.000000 0.000000
# 5 0.000000 0.000000 0.000000 0.000000 0.078547 0.000000
# 6 0.000000 0.000000 0.000000 0.000000 0.000000 0.057917
#
#
# Mechanical properties :
#
#
# Convention : Reuss Voigt Hill
#
# Bulk Modulus (GPa) = 29.36912 31.63224 30.50068
# Shear Modulus (GPa) = 20.95463 24.77962 22.86713
#
# Velocity S-wave (km/s) = 3.21917 3.50067 3.36286
# Velocity P-wave (km/s) = 5.32370 5.65537 5.49204
#
# Compressibility (1/GPa) = 0.03404937
#
# Stress axis : x y z
#
# Youngs Moduli (GPa) = 61.40230 52.92291 104.52306
#
# Poissons Ratio (x) = 0.14026 0.15141
# Poissons Ratio (y) = 0.16273 0.13073
# Poissons Ratio (z) = 0.08895 0.06619
#
# Static dielectric constant tensor:
#      x y z
#    x 1.930830 0.000000 0.000000 
#    y 0.000000 1.745490 0.000000 
#    z 0.000000 0.000000 1.775650 
# 
# From -- ./inp_files/5050.got.cif
#   From: 2010.05.17/outbox.cif.g08.bks.cpg/sg33_3_cif.got.tgz:5050.got - 2010.06.03 17:15:25.
