data_PCOD9345669
_publ_section_title
;
Structure prediction by ZEFSAII (Michael W. Deem and Ramdas Pophale) SiO2 
 PCOD9345669
Probable space group: P N A 21
;
_chemical_formula_sum "Si O2"
_cell_formula_units_Z 24
_cell_length_a 13.701570
_cell_length_b 4.752296
_cell_length_c 12.970819
_cell_angle_alpha 90.000000
_cell_angle_beta 90.000000
_cell_angle_gamma 90.000000
_cell_volume 844.580823
_symmetry_space_group_name_H-M "P N A 21"
_symmetry_group_IT_number 33
_symmetry_cell_setting 'orthorhombic'
loop_
_space_group_symop_operation_xyz
x,y,z
-x,-y,1/2+z
1/2-x,1/2+y,1/2+z
1/2+x,1/2-y,z
loop_
_atom_site_type_symbol
_atom_site_label
_atom_site_fract_x
_atom_site_fract_y
_atom_site_fract_z
Si Si1 0.492792 0.262614 0.846050
Si Si2 0.566450 0.516875 0.562258
Si Si3 0.124609 0.264007 0.257859
Si Si4 0.375722 0.191866 0.586677
Si Si5 0.189434 0.957771 0.881716
Si Si6 0.302859 0.011845 0.069123
O O1 0.412050 0.464656 0.795864
O O2 0.460979 0.957841 0.809857
O O3 0.603281 0.367738 0.827657
O O4 0.476621 0.305674 0.967734
O O5 0.375437 0.891141 0.641186
O O6 0.476882 0.347780 0.609384
O O7 0.637110 0.261111 0.532647
O O8 0.229855 0.333004 0.306498
O O9 0.870288 0.253638 0.120186
O O10 0.358605 0.230453 0.463002
O O11 0.284384 0.369635 0.632490
O O12 0.252128 0.137606 0.966234
#
# Coordination Sequence:
#
# PCOD9345669 Si02
#       6
#     4   4   4   4   4   4
#     4  11  22  40  65  99 133 179 233 295 354 434
#     4  11  20  42  66  97 133 182 234 289 366 425
#     4  12  24  44  66 101 140 183 241 296 360 438
#     4   9  24  43  66 105 138 182 241 297 357 442
#     4   9  22  44  70 101 137 193 234 299 367 442
#     4  10  22  39  71  95 133 189 231 288 364 439
#
# _framework density 28.416463
#
# number of rings (size 3 to 8) (size 9 to 14) (size 15 to 20)
#    1.000    0.667    3.333    0.000    0.000    8.000 
#    0.000    0.000    0.000    0.000    0.000    0.000 
#    0.000    0.000    0.000    0.000    0.000    0.000 
#
# Total GULP energy -134472.632064 kJ/mol
# GULP energy per Si atom -5603.026336 kJ/mol
# Density = 2.835179 g / cm^3
# Si number density = 28.416463 Si / 1000 Ang^3
#
#
#
# Elastic Constant Matrix: (Units=GPa)
#
#
# Indices 1 2 3 4 5 6 
#
# 1 167.5055 4.1529 23.3019 0.0000 0.0000 0.0000
# 2 4.1529 84.7264 -6.1215 0.0000 0.0000 0.0000
# 3 23.3019 -6.1215 93.3011 0.0000 0.0000 0.0000
# 4 0.0000 0.0000 0.0000 35.5349 0.0000 0.0000
# 5 0.0000 0.0000 0.0000 0.0000 49.3037 0.0000
# 6 0.0000 0.0000 0.0000 0.0000 0.0000 39.0876
#
#
#
# Elastic Compliance Matrix: (Units=1/GPa)
#
#
# Indices 1 2 3 4 5 6 
#
# 1 0.006200 -0.000418 -0.001576 0.000000 0.000000 0.000000
# 2 -0.000418 0.011887 0.000884 0.000000 0.000000 0.000000
# 3 -0.001576 0.000884 0.011170 0.000000 0.000000 0.000000
# 4 0.000000 0.000000 0.000000 0.028141 0.000000 0.000000
# 5 0.000000 0.000000 0.000000 0.000000 0.020282 0.000000
# 6 0.000000 0.000000 0.000000 0.000000 0.000000 0.025584
#
#
# Mechanical properties :
#
#
# Convention : Reuss Voigt Hill
#
# Bulk Modulus (GPa) = 36.98542 43.13329 40.05936
# Shear Modulus (GPa) = 43.67024 46.39855 45.03439
#
# Velocity S-wave (km/s) = 3.92445 4.04518 3.98527
# Velocity P-wave (km/s) = 5.79472 6.08522 5.94175
#
# Compressibility (1/GPa) = 0.02703768
#
# Stress axis : x y z
#
# Youngs Moduli (GPa) = 161.30299 84.12511 89.52922
#
# Poissons Ratio (x) = 0.03514 0.14107
# Poissons Ratio (y) = 0.06738 -0.07917
# Poissons Ratio (z) = 0.25417 -0.07439
#
# Static dielectric constant tensor:
#      x y z
#    x 2.242790 0.000000 0.000000 
#    y 0.000000 2.188020 0.000000 
#    z 0.000000 0.000000 2.367580 
# 
# From -- ./inp_files/6374.got.cif
#   From: 2010.05.17/outbox.cif.g08.bks.cpg/sg33_4_cif.got.tgz:6374.got - 2010.06.03 17:15:25.
