data_PCOD9345957
_publ_section_title
;
Structure prediction by ZEFSAII (Michael W. Deem and Ramdas Pophale) SiO2 
 PCOD9345957
Probable space group: P N A 21
;
_chemical_formula_sum "Si O2"
_cell_formula_units_Z 32
_cell_length_a 10.459627
_cell_length_b 9.277287
_cell_length_c 14.139697
_cell_angle_alpha 90.000000
_cell_angle_beta 90.000000
_cell_angle_gamma 90.000000
_cell_volume 1372.073235
_symmetry_space_group_name_H-M "P N A 21"
_symmetry_group_IT_number 33
_symmetry_cell_setting 'orthorhombic'
loop_
_space_group_symop_operation_xyz
x,y,z
-x,-y,1/2+z
1/2-x,1/2+y,1/2+z
1/2+x,1/2-y,z
loop_
_atom_site_type_symbol
_atom_site_label
_atom_site_fract_x
_atom_site_fract_y
_atom_site_fract_z
Si Si1 0.001837 0.369743 0.181900
Si Si2 0.556028 0.666059 0.071446
Si Si3 0.917745 0.444471 0.860910
Si Si4 0.698638 0.635770 0.328817
Si Si5 0.989110 0.043414 0.232945
Si Si6 0.146298 0.013367 0.914502
Si Si7 0.635050 0.165391 0.991799
Si Si8 0.157932 0.375837 0.645848
O O1 0.049834 0.458689 0.271626
O O2 0.970268 0.210121 0.215160
O O3 0.878270 0.454913 0.141220
O O4 0.110682 0.359620 0.101351
O O5 0.496930 0.537638 0.134040
O O6 0.705736 0.674297 0.103099
O O7 0.463746 0.796867 0.099161
O O8 0.566461 0.613335 0.963836
O O9 0.879695 0.284433 0.824255
O O10 0.797460 0.508306 0.917897
O O11 0.030512 0.425636 0.934951
O O12 0.619528 0.502868 0.287189
O O13 0.735168 0.620289 0.438648
O O14 0.819699 0.653268 0.258471
O O15 0.884243 0.981677 0.303914
O O16 0.118007 0.165621 0.965052
#
# Coordination Sequence:
#
# PCOD9345957 Si02
#       8
#     4   4   4   4   4   4   4   4
#     4  12  25  44  71 111 146 184 244 314 370 437
#     4  11  24  49  74 109 145 204 254 304 375 464
#     4  11  23  45  72 102 141 190 244 305 374 447
#     4  10  22  46  73  93 141 196 242 296 374 454
#     4  11  24  44  69 106 145 184 247 309 371 434
#     4  11  24  45  72 103 146 193 246 308 368 458
#     4  11  22  46  73 101 135 195 242 295 376 447
#     4  11  24  45  74 105 153 194 247 311 374 445
#
# _framework density 23.322369999999999
#
# number of rings (size 3 to 8) (size 9 to 14) (size 15 to 20)
#    0.000    1.000    3.750    3.750    0.000    4.000 
#   13.500    0.000    0.000    0.000    0.000    0.000 
#    0.000    0.000    0.000    0.000    0.000    0.000 
#
# Total GULP energy -178939.308543 kJ/mol
# GULP energy per Si atom -5591.853392 kJ/mol
# Density = 2.326929 g / cm^3
# Si number density = 23.322370 Si / 1000 Ang^3
#
#
#
# Elastic Constant Matrix: (Units=GPa)
#
#
# Indices 1 2 3 4 5 6 
#
# 1 57.2607 41.6872 -2.3495 0.0000 0.0000 0.0000
# 2 41.6872 112.7046 19.0268 0.0000 0.0000 0.0000
# 3 -2.3495 19.0268 71.3718 0.0000 0.0000 0.0000
# 4 0.0000 0.0000 0.0000 39.4271 0.0000 0.0000
# 5 0.0000 0.0000 0.0000 0.0000 30.1170 0.0000
# 6 0.0000 0.0000 0.0000 0.0000 0.0000 13.0833
#
#
#
# Elastic Compliance Matrix: (Units=1/GPa)
#
#
# Indices 1 2 3 4 5 6 
#
# 1 0.024662 -0.009695 0.003396 0.000000 0.000000 0.000000
# 2 -0.009695 0.013102 -0.003812 0.000000 0.000000 0.000000
# 3 0.003396 -0.003812 0.015139 0.000000 0.000000 0.000000
# 4 0.000000 0.000000 0.000000 0.025363 0.000000 0.000000
# 5 0.000000 0.000000 0.000000 0.000000 0.033204 0.000000
# 6 0.000000 0.000000 0.000000 0.000000 0.000000 0.076433
#
#
# Mechanical properties :
#
#
# Convention : Reuss Voigt Hill
#
# Bulk Modulus (GPa) = 30.59828 39.78514 35.19171
# Shear Modulus (GPa) = 22.82904 28.72366 25.77635
#
# Velocity S-wave (km/s) = 3.13205 3.51321 3.32809
# Velocity P-wave (km/s) = 5.12131 5.79247 5.46720
#
# Compressibility (1/GPa) = 0.03268158
#
# Stress axis : x y z
#
# Youngs Moduli (GPa) = 40.54857 76.32182 66.05364
#
# Poissons Ratio (x) = 0.73996 -0.22435
# Poissons Ratio (y) = 0.39313 0.25180
# Poissons Ratio (z) = -0.13772 0.29095
#
# Static dielectric constant tensor:
#      x y z
#    x 1.952180 0.000000 0.000000 
#    y 0.000000 1.858660 0.000000 
#    z 0.000000 0.000000 1.901170 
# 
# From -- ./inp_files/7971.got.cif
#   From: 2010.05.17/outbox.cif.g08.bks.cpg/sg33_4_cif.got.tgz:7971.got - 2010.06.03 17:15:25.
