data_PCOD9345100
_publ_section_title
;
Structure prediction by ZEFSAII (Michael W. Deem and Ramdas Pophale) SiO2 
 PCOD9345100
Probable space group: P N A 21
;
_chemical_formula_sum "Si O2"
_cell_formula_units_Z 28
_cell_length_a 9.000229
_cell_length_b 7.200310
_cell_length_c 16.807759
_cell_angle_alpha 90.000000
_cell_angle_beta 90.000000
_cell_angle_gamma 90.000000
_cell_volume 1089.217391
_symmetry_space_group_name_H-M "P N A 21"
_symmetry_group_IT_number 33
_symmetry_cell_setting 'orthorhombic'
loop_
_space_group_symop_operation_xyz
x,y,z
-x,-y,1/2+z
1/2-x,1/2+y,1/2+z
1/2+x,1/2-y,z
loop_
_atom_site_type_symbol
_atom_site_label
_atom_site_fract_x
_atom_site_fract_y
_atom_site_fract_z
Si Si1 0.366772 0.154692 0.059210
Si Si2 0.880724 0.652062 0.448960
Si Si3 0.945845 0.952724 0.093807
Si Si4 0.228077 0.814211 0.155917
Si Si5 0.339523 0.816146 0.820739
Si Si6 0.367487 0.015037 0.287180
Si Si7 0.561314 0.548371 0.914045
O O1 0.440987 0.326548 0.106031
O O2 0.292782 0.993923 0.109078
O O3 0.249083 0.259092 0.001824
O O4 0.496304 0.067055 0.006155
O O5 0.837314 0.510348 0.381273
O O6 0.956637 0.827476 0.404738
O O7 0.053548 0.844689 0.153498
O O8 0.785212 0.864984 0.109099
O O9 0.014379 0.918460 0.005924
O O10 0.297723 0.840498 0.242418
O O11 0.455551 0.955319 0.777969
O O12 0.229343 0.697442 0.764996
O O13 0.453523 0.671607 0.860899
O O14 0.230123 0.908366 0.886050
#
# Coordination Sequence:
#
# PCOD9345100 Si02
#       7
#     4   4   4   4   4   4   4
#     4  11  24  46  70 100 139 183 238 295 350 416
#     4  11  23  42  69  98 132 179 238 291 344 416
#     4  11  26  43  71 102 137 186 236 292 348 426
#     4  12  28  46  69 104 146 190 232 289 364 424
#     4  10  23  40  69  96 137 173 227 293 349 413
#     4  11  26  44  66 103 138 185 227 291 358 423
#     4  10  20  41  68 101 129 174 236 295 341 408
#
# _framework density 25.706530999999998
#
# number of rings (size 3 to 8) (size 9 to 14) (size 15 to 20)
#    0.000    1.143    2.857    3.429    8.000    3.429 
#    2.571    0.000    0.000    0.000    0.000    0.000 
#    0.000    0.000    0.000    0.000    0.000    0.000 
#
# Total GULP energy -156803.864235 kJ/mol
# GULP energy per Si atom -5600.138008 kJ/mol
# Density = 2.564802 g / cm^3
# Si number density = 25.706531 Si / 1000 Ang^3
#
#
#
# Elastic Constant Matrix: (Units=GPa)
#
#
# Indices 1 2 3 4 5 6 
#
# 1 94.9982 -7.3399 10.0262 0.0000 0.0000 0.0000
# 2 -7.3399 58.9168 -7.0291 0.0000 0.0000 0.0000
# 3 10.0262 -7.0291 53.7706 0.0000 0.0000 0.0000
# 4 0.0000 0.0000 0.0000 36.1430 0.0000 0.0000
# 5 0.0000 0.0000 0.0000 0.0000 21.2599 0.0000
# 6 0.0000 0.0000 0.0000 0.0000 0.0000 44.6629
#
#
#
# Elastic Compliance Matrix: (Units=1/GPa)
#
#
# Indices 1 2 3 4 5 6 
#
# 1 0.010811 0.001124 -0.001869 0.000000 0.000000 0.000000
# 2 0.001124 0.017359 0.002060 0.000000 0.000000 0.000000
# 3 -0.001869 0.002060 0.019215 0.000000 0.000000 0.000000
# 4 0.000000 0.000000 0.000000 0.027668 0.000000 0.000000
# 5 0.000000 0.000000 0.000000 0.000000 0.047037 0.000000
# 6 0.000000 0.000000 0.000000 0.000000 0.000000 0.022390
#
#
# Mechanical properties :
#
#
# Convention : Reuss Voigt Hill
#
# Bulk Modulus (GPa) = 19.99445 22.11112 21.05279
# Shear Modulus (GPa) = 31.54148 34.54838 33.04493
#
# Velocity S-wave (km/s) = 3.50663 3.66997 3.58923
# Velocity P-wave (km/s) = 4.91835 5.15542 5.03828
#
# Compressibility (1/GPa) = 0.05001387
#
# Stress axis : x y z
#
# Youngs Moduli (GPa) = 92.50189 57.60759 52.04204
#
# Poissons Ratio (x) = -0.06474 0.09726
# Poissons Ratio (y) = -0.10396 -0.10719
# Poissons Ratio (z) = 0.17287 -0.11865
#
# Static dielectric constant tensor:
#      x y z
#    x 2.094740 0.000000 0.000000 
#    y 0.000000 2.004360 0.000000 
#    z 0.000000 0.000000 2.048390 
# 
# From -- ./inp_files/8472.got.cif
#   From: 2010.05.17/outbox.cif.g08.bks.cpg/sg33_5_cif.got.tgz:8472.got - 2010.06.03 17:15:25.
