data_PCOD9345082
_publ_section_title
;
Structure prediction by ZEFSAII (Michael W. Deem and Ramdas Pophale) SiO2 
 PCOD9345082
Probable space group: P N A 21
;
_chemical_formula_sum "Si O2"
_cell_formula_units_Z 28
_cell_length_a 8.901194
_cell_length_b 5.295474
_cell_length_c 22.766693
_cell_angle_alpha 90.000000
_cell_angle_beta 90.000000
_cell_angle_gamma 90.000000
_cell_volume 1073.131784
_symmetry_space_group_name_H-M "P N A 21"
_symmetry_group_IT_number 33
_symmetry_cell_setting 'orthorhombic'
loop_
_space_group_symop_operation_xyz
x,y,z
-x,-y,1/2+z
1/2-x,1/2+y,1/2+z
1/2+x,1/2-y,z
loop_
_atom_site_type_symbol
_atom_site_label
_atom_site_fract_x
_atom_site_fract_y
_atom_site_fract_z
Si Si1 0.190505 0.955480 0.306280
Si Si2 0.457698 0.315422 0.378245
Si Si3 0.950903 0.062970 0.994350
Si Si4 0.343663 0.078129 0.900520
Si Si5 0.725977 0.038990 0.234372
Si Si6 0.779180 0.819353 0.571184
Si Si7 0.545391 0.833137 0.657938
O O1 0.229038 0.820926 0.368326
O O2 0.233693 0.739947 0.260498
O O3 0.241949 0.223025 0.279551
O O4 0.017100 0.014845 0.324426
O O5 0.544840 0.368931 0.440463
O O6 0.519725 0.039850 0.363236
O O7 0.290822 0.380280 0.395908
O O8 0.817556 0.087176 0.042494
O O9 0.118047 0.053036 0.021320
O O10 0.917671 0.326802 0.960435
O O11 0.555255 0.045522 0.208747
O O12 0.853616 0.109748 0.186372
O O13 0.661445 0.969438 0.612800
O O14 0.911730 0.745781 0.614955
#
# Coordination Sequence:
#
# PCOD9345082 Si02
#       7
#     4   4   4   4   4   4   4
#     4  11  26  43  72 106 144 187 231 288 357 422
#     4  11  25  42  67 110 146 190 241 288 356 446
#     4  10  20  40  74  96 142 188 229 295 362 424
#     4  11  25  42  67 110 146 190 237 294 348 453
#     4  11  24  44  72 102 142 188 236 294 356 418
#     4   9  18  42  74  94 136 186 234 304 356 420
#     4   9  22  41  72  96 134 183 244 299 351 423
#
# _framework density 26.091853
#
# number of rings (size 3 to 8) (size 9 to 14) (size 15 to 20)
#    0.000    1.714    2.857    0.000    6.000    1.143 
#    0.000    0.000   62.857    0.000    0.000    0.000 
#    0.000    0.000    0.000    0.000    0.000    0.000 
#
# Total GULP energy -155919.945487 kJ/mol
# GULP energy per Si atom -5568.569482 kJ/mol
# Density = 2.603247 g / cm^3
# Si number density = 26.091853 Si / 1000 Ang^3
#
#
#
# Elastic Constant Matrix: (Units=GPa)
#
#
# Indices 1 2 3 4 5 6 
#
# 1 157.8329 42.2278 25.9833 0.0000 0.0000 0.0000
# 2 42.2278 117.7449 28.9804 0.0000 0.0000 0.0000
# 3 25.9833 28.9804 99.5518 0.0000 0.0000 0.0000
# 4 0.0000 0.0000 0.0000 2.2397 0.0000 0.0000
# 5 0.0000 0.0000 0.0000 0.0000 56.0384 0.0000
# 6 0.0000 0.0000 0.0000 0.0000 0.0000 27.4721
#
#
#
# Elastic Compliance Matrix: (Units=1/GPa)
#
#
# Indices 1 2 3 4 5 6 
#
# 1 0.007140 -0.002264 -0.001204 0.000000 0.000000 0.000000
# 2 -0.002264 0.009866 -0.002281 0.000000 0.000000 0.000000
# 3 -0.001204 -0.002281 0.011023 0.000000 0.000000 0.000000
# 4 0.000000 0.000000 0.000000 0.446494 0.000000 0.000000
# 5 0.000000 0.000000 0.000000 0.000000 0.017845 0.000000
# 6 0.000000 0.000000 0.000000 0.000000 0.000000 0.036401
#
#
# Mechanical properties :
#
#
# Convention : Reuss Voigt Hill
#
# Bulk Modulus (GPa) = 60.49572 63.27919 61.88745
# Shear Modulus (GPa) = 9.16122 35.67924 22.42023
#
# Velocity S-wave (km/s) = 1.87584 3.70191 2.93453
# Velocity P-wave (km/s) = 5.28467 6.52513 5.93738
#
# Compressibility (1/GPa) = 0.01653010
#
# Stress axis : x y z
#
# Youngs Moduli (GPa) = 140.05863 101.35366 90.71562
#
# Poissons Ratio (x) = 0.22948 0.10926
# Poissons Ratio (y) = 0.31712 0.20694
# Poissons Ratio (z) = 0.16869 0.23121
#
# Static dielectric constant tensor:
#      x y z
#    x 2.083930 0.000000 0.000000 
#    y 0.000000 2.138420 0.000000 
#    z 0.000000 0.000000 2.256390 
# 
# From -- ./inp_files/9230.got.cif
#   From: 2010.05.17/outbox.cif.g08.bks.cpg/sg33_5_cif.got.tgz:9230.got - 2010.06.03 17:15:25.
