data_PCOD9345602
_publ_section_title
;
Structure prediction by ZEFSAII (Michael W. Deem and Ramdas Pophale) SiO2 
 PCOD9345602
Probable space group: P N A 21
;
_chemical_formula_sum "Si O2"
_cell_formula_units_Z 32
_cell_length_a 5.835948
_cell_length_b 18.840127
_cell_length_c 12.003606
_cell_angle_alpha 90.000000
_cell_angle_beta 90.000000
_cell_angle_gamma 90.000000
_cell_volume 1319.796498
_symmetry_space_group_name_H-M "P N A 21"
_symmetry_group_IT_number 33
_symmetry_cell_setting 'orthorhombic'
loop_
_space_group_symop_operation_xyz
x,y,z
-x,-y,1/2+z
1/2-x,1/2+y,1/2+z
1/2+x,1/2-y,z
loop_
_atom_site_type_symbol
_atom_site_label
_atom_site_fract_x
_atom_site_fract_y
_atom_site_fract_z
Si Si1 0.065405 0.086817 0.414320
Si Si2 0.909014 0.048203 0.629508
Si Si3 0.164371 0.231982 0.349765
Si Si4 0.099730 0.227841 0.891075
Si Si5 0.242620 0.591652 0.496666
Si Si6 0.085681 0.315550 0.118996
Si Si7 0.360195 0.963115 0.328853
Si Si8 0.265411 0.944280 0.731584
O O1 0.018128 0.101861 0.542515
O O2 0.206647 0.147879 0.353830
O O3 0.828865 0.084174 0.347626
O O4 0.184983 0.010254 0.400930
O O5 0.752254 0.079916 0.727071
O O6 0.805510 0.984148 0.551683
O O7 0.108566 0.008548 0.694942
O O8 0.404680 0.260801 0.399808
O O9 0.116968 0.267711 0.228616
O O10 0.354762 0.245921 0.839957
O O11 0.092526 0.143877 0.924834
O O12 0.122114 0.271396 0.007900
O O13 0.149873 0.642377 0.595544
O O14 0.032992 0.575725 0.411179
O O15 0.252900 0.381900 0.142025
O O16 0.491774 0.023063 0.257064
#
# Coordination Sequence:
#
# PCOD9345602 Si02
#       8
#     4   4   4   4   4   4   4   4
#     4  11  25  40  64  97 143 176 234 287 353 423
#     4  11  24  39  65  96 137 186 229 284 353 417
#     4  12  25  40  65 101 136 176 227 292 362 419
#     4  10  22  36  59  93 128 170 212 279 354 404
#     4  11  22  39  64  96 138 177 227 285 353 419
#     4  11  21  37  65 100 136 171 224 294 358 408
#     4  11  24  42  63  98 138 190 231 285 356 429
#     4  11  21  39  63  97 134 174 226 278 347 431
#
# _framework density 24.246162999999999
#
# number of rings (size 3 to 8) (size 9 to 14) (size 15 to 20)
#    0.000    1.000    3.750    3.750    5.250    1.000 
#    0.000    0.000    0.000    3.000    0.000    0.000 
#    0.000    0.000    0.000    0.000    0.000    0.000 
#
# Total GULP energy -178471.052612 kJ/mol
# GULP energy per Si atom -5577.220394 kJ/mol
# Density = 2.419098 g / cm^3
# Si number density = 24.246163 Si / 1000 Ang^3
#
#
#
# Elastic Constant Matrix: (Units=GPa)
#
#
# Indices 1 2 3 4 5 6 
#
# 1 92.6643 3.0022 23.7426 0.0000 0.0000 0.0000
# 2 3.0022 69.9790 14.0682 0.0000 0.0000 0.0000
# 3 23.7426 14.0682 74.6177 0.0000 0.0000 0.0000
# 4 0.0000 0.0000 0.0000 28.7044 0.0000 0.0000
# 5 0.0000 0.0000 0.0000 0.0000 36.4931 0.0000
# 6 0.0000 0.0000 0.0000 0.0000 0.0000 34.7975
#
#
#
# Elastic Compliance Matrix: (Units=1/GPa)
#
#
# Indices 1 2 3 4 5 6 
#
# 1 0.011754 0.000257 -0.003789 0.000000 0.000000 0.000000
# 2 0.000257 0.014859 -0.002883 0.000000 0.000000 0.000000
# 3 -0.003789 -0.002883 0.015151 0.000000 0.000000 0.000000
# 4 0.000000 0.000000 0.000000 0.034838 0.000000 0.000000
# 5 0.000000 0.000000 0.000000 0.000000 0.027402 0.000000
# 6 0.000000 0.000000 0.000000 0.000000 0.000000 0.028738
#
#
# Mechanical properties :
#
#
# Convention : Reuss Voigt Hill
#
# Bulk Modulus (GPa) = 34.56092 35.43190 34.99641
# Shear Modulus (GPa) = 32.21337 33.09553 32.65445
#
# Velocity S-wave (km/s) = 3.64895 3.69857 3.67384
# Velocity P-wave (km/s) = 5.66023 5.73449 5.69748
#
# Compressibility (1/GPa) = 0.02893441
#
# Stress axis : x y z
#
# Youngs Moduli (GPa) = 85.07732 67.30105 66.00340
#
# Poissons Ratio (x) = -0.01732 0.25006
# Poissons Ratio (y) = -0.02190 0.19031
# Poissons Ratio (z) = 0.32232 0.19405
#
# Static dielectric constant tensor:
#      x y z
#    x 2.048240 0.000000 0.000000 
#    y 0.000000 1.977370 0.000000 
#    z 0.000000 0.000000 1.929070 
# 
# From -- ./inp_files/5581.got.cif
#   From: 2010.05.17/outbox.cif.g08.bks.cpg/sg33_3_cif.got.tgz:5581.got - 2010.06.03 17:15:25.
