data_PCOD9345313
_publ_section_title
;
Structure prediction by ZEFSAII (Michael W. Deem and Ramdas Pophale) SiO2 
 PCOD9345313
Probable space group: P N A 21
;
_chemical_formula_sum "Si O2"
_cell_formula_units_Z 32
_cell_length_a 22.806571
_cell_length_b 5.318573
_cell_length_c 11.551469
_cell_angle_alpha 90.000000
_cell_angle_beta 90.000000
_cell_angle_gamma 90.000000
_cell_volume 1401.174855
_symmetry_space_group_name_H-M "P N A 21"
_symmetry_group_IT_number 33
_symmetry_cell_setting 'orthorhombic'
loop_
_space_group_symop_operation_xyz
x,y,z
-x,-y,1/2+z
1/2-x,1/2+y,1/2+z
1/2+x,1/2-y,z
loop_
_atom_site_type_symbol
_atom_site_label
_atom_site_fract_x
_atom_site_fract_y
_atom_site_fract_z
Si Si1 0.058822 0.600890 0.976650
Si Si2 0.539668 0.868564 0.349041
Si Si3 0.518313 0.368024 0.648156
Si Si4 0.949680 0.362081 0.222673
Si Si5 0.693098 0.473254 0.601606
Si Si6 0.290586 0.582387 0.364461
Si Si7 0.682561 0.917645 0.001819
Si Si8 0.164683 0.528485 0.460782
O O1 0.080275 0.666221 0.846790
O O2 0.116733 0.537724 0.047185
O O3 0.010090 0.388865 0.949391
O O4 0.022661 0.816624 0.039751
O O5 0.521951 0.639995 0.264839
O O6 0.603577 0.912063 0.396895
O O7 0.517863 0.092413 0.262473
O O8 0.554638 0.619719 0.646154
O O9 0.561242 0.127826 0.663027
O O10 0.682701 0.450288 0.737701
O O11 0.763773 0.446407 0.588935
O O12 0.675836 0.747040 0.552909
O O13 0.668089 0.245848 0.521839
O O14 0.313651 0.363661 0.450024
O O15 0.220059 0.548488 0.373347
O O16 0.305892 0.860889 0.409061
#
# Coordination Sequence:
#
# PCOD9345313 Si02
#       8
#     4   4   4   4   4   4   4   4
#     4   9  21  41  62  88 124 153 196 253 287 368
#     4   8  22  38  58  88 121 148 195 240 290 357
#     4   9  19  37  57  84 113 160 190 225 299 337
#     4   8  21  35  54  85 120 144 196 228 285 352
#     4  10  22  39  62  87 116 161 198 239 310 344
#     4  10  22  41  60  85 124 152 201 252 293 351
#     4  10  22  40  62  92 115 157 202 250 296 348
#     4  10  21  39  61  89 117 153 200 245 290 361
#
# _framework density 22.837976000000001
#
# number of rings (size 3 to 8) (size 9 to 14) (size 15 to 20)
#    1.500    1.000    0.000    0.750    3.500    5.000 
#   11.250    1.250    0.000    0.000    0.000    0.000 
#    0.000    0.000    0.000    0.000    0.000    0.000 
#
# Total GULP energy -178347.474551 kJ/mol
# GULP energy per Si atom -5573.358580 kJ/mol
# Density = 2.278600 g / cm^3
# Si number density = 22.837976 Si / 1000 Ang^3
#
#
#
# Elastic Constant Matrix: (Units=GPa)
#
#
# Indices 1 2 3 4 5 6 
#
# 1 115.3484 -7.1754 2.2307 0.0000 0.0000 0.0000
# 2 -7.1754 113.8632 8.4577 0.0000 0.0000 0.0000
# 3 2.2307 8.4577 39.7843 0.0000 0.0000 0.0000
# 4 0.0000 0.0000 0.0000 10.2170 0.0000 0.0000
# 5 0.0000 0.0000 0.0000 0.0000 26.3382 0.0000
# 6 0.0000 0.0000 0.0000 0.0000 0.0000 8.5833
#
#
#
# Elastic Compliance Matrix: (Units=1/GPa)
#
#
# Indices 1 2 3 4 5 6 
#
# 1 0.008718 0.000595 -0.000615 0.000000 0.000000 0.000000
# 2 0.000595 0.008964 -0.001939 0.000000 0.000000 0.000000
# 3 -0.000615 -0.001939 0.025582 0.000000 0.000000 0.000000
# 4 0.000000 0.000000 0.000000 0.097876 0.000000 0.000000
# 5 0.000000 0.000000 0.000000 0.000000 0.037968 0.000000
# 6 0.000000 0.000000 0.000000 0.000000 0.000000 0.116505
#
#
# Mechanical properties :
#
#
# Convention : Reuss Voigt Hill
#
# Bulk Modulus (GPa) = 25.41548 30.66910 28.04229
# Shear Modulus (GPa) = 15.99244 26.72655 21.35949
#
# Velocity S-wave (km/s) = 2.64911 3.42463 3.06152
# Velocity P-wave (km/s) = 4.52877 5.39403 4.98023
#
# Compressibility (1/GPa) = 0.03934610
#
# Stress axis : x y z
#
# Youngs Moduli (GPa) = 114.70117 111.55740 39.08955
#
# Poissons Ratio (x) = -0.06639 0.02405
# Poissons Ratio (y) = -0.06826 0.07579
# Poissons Ratio (z) = 0.07058 0.21631
#
# Static dielectric constant tensor:
#      x y z
#    x 1.879050 0.000000 0.000000 
#    y 0.000000 1.895430 0.000000 
#    z 0.000000 0.000000 1.895390 
# 
# From -- ./inp_files/7345.got.cif
#   From: 2010.05.17/outbox.cif.g08.bks.cpg/sg33_4_cif.got.tgz:7345.got - 2010.06.03 17:15:25.
