data_PCOD9345607
_publ_section_title
;
Structure prediction by ZEFSAII (Michael W. Deem and Ramdas Pophale) SiO2 
 PCOD9345607
Probable space group: P N A 21
;
_chemical_formula_sum "Si O2"
_cell_formula_units_Z 28
_cell_length_a 19.332384
_cell_length_b 11.383299
_cell_length_c 6.193491
_cell_angle_alpha 90.000000
_cell_angle_beta 90.000000
_cell_angle_gamma 90.000000
_cell_volume 1362.978695
_symmetry_space_group_name_H-M "P N A 21"
_symmetry_group_IT_number 33
_symmetry_cell_setting 'orthorhombic'
loop_
_space_group_symop_operation_xyz
x,y,z
-x,-y,1/2+z
1/2-x,1/2+y,1/2+z
1/2+x,1/2-y,z
loop_
_atom_site_type_symbol
_atom_site_label
_atom_site_fract_x
_atom_site_fract_y
_atom_site_fract_z
Si Si1 0.423869 0.715301 0.815900
Si Si2 0.376184 0.500000 0.079909
Si Si3 0.666972 0.326506 0.938276
Si Si4 0.314581 0.861968 0.079068
Si Si5 0.076132 0.784696 0.843920
Si Si6 0.166972 0.826507 0.221545
Si Si7 0.814580 0.361969 0.080754
O O1 0.402119 0.674676 0.577996
O O2 0.500000 0.768265 0.829909
O O3 0.420753 0.600494 0.966633
O O4 0.364181 0.801522 0.904400
O O5 0.332327 0.568485 0.262878
O O6 0.420750 0.399503 0.193187
O O7 0.332326 0.431518 0.896938
O O8 0.670599 0.205542 0.804569
O O9 0.732101 0.340701 0.098482
O O10 0.232101 0.840699 0.061339
O O11 0.327277 0.999999 0.079908
O O12 0.135820 0.698474 0.755423
O O13 0.097881 0.825323 0.081825
O O14 0.170600 0.705544 0.355256
#
# Coordination Sequence:
#
# PCOD9345607 Si02
#       7
#     4   4   4   4   4   4   4
#     4  11  24  39  61  94 129 166 208 259 320 381
#     4  10  22  36  64  94 124 164 202 272 316 374
#     4  10  22  41  66  95 125 161 218 258 318 372
#     4  10  22  41  64  93 125 168 212 263 310 367
#     4  11  24  39  61  94 129 166 208 259 320 381
#     4  10  22  41  66  95 125 161 218 258 318 372
#     4  10  22  41  64  93 125 168 212 263 310 367
#
# _framework density 20.543239
#
# number of rings (size 3 to 8) (size 9 to 14) (size 15 to 20)
#    0.000    1.714    0.000    3.429    4.000    9.143 
#    5.143    0.000    0.000    0.000    0.000    0.000 
#    0.000    0.000    0.000    0.000    0.000    0.000 
#
# Total GULP energy -156362.815265 kJ/mol
# GULP energy per Si atom -5584.386259 kJ/mol
# Density = 2.049648 g / cm^3
# Si number density = 20.543239 Si / 1000 Ang^3
#
#
#
# Elastic Constant Matrix: (Units=GPa)
#
#
# Indices 1 2 3 4 5 6 
#
# 1 115.2850 24.6726 49.0966 0.0000 0.0000 0.0000
# 2 24.6726 133.1641 43.8239 0.0000 0.0000 0.0000
# 3 49.0966 43.8239 65.2730 0.0000 0.0000 0.0000
# 4 0.0000 0.0000 0.0000 22.5142 0.0000 0.0000
# 5 0.0000 0.0000 0.0000 0.0000 17.7217 0.0000
# 6 0.0000 0.0000 0.0000 0.0000 0.0000 15.4130
#
#
#
# Elastic Compliance Matrix: (Units=1/GPa)
#
#
# Indices 1 2 3 4 5 6 
#
# 1 0.012871 0.001029 -0.010372 0.000000 0.000000 0.000000
# 2 0.001029 0.009722 -0.007301 0.000000 0.000000 0.000000
# 3 -0.010372 -0.007301 0.028023 0.000000 0.000000 0.000000
# 4 0.000000 0.000000 0.000000 0.044416 0.000000 0.000000
# 5 0.000000 0.000000 0.000000 0.000000 0.056428 0.000000
# 6 0.000000 0.000000 0.000000 0.000000 0.000000 0.064880
#
#
# Mechanical properties :
#
#
# Convention : Reuss Voigt Hill
#
# Bulk Modulus (GPa) = 57.70980 60.98982 59.34981
# Shear Modulus (GPa) = 19.57677 24.20506 21.89092
#
# Velocity S-wave (km/s) = 3.09035 3.43629 3.26790
# Velocity P-wave (km/s) = 6.39426 6.74515 6.57205
#
# Compressibility (1/GPa) = 0.01732808
#
# Stress axis : x y z
#
# Youngs Moduli (GPa) = 77.69335 102.86373 35.68446
#
# Poissons Ratio (x) = -0.10581 0.37012
# Poissons Ratio (y) = -0.07992 0.26052
# Poissons Ratio (z) = 0.80583 0.75098
#
# Static dielectric constant tensor:
#      x y z
#    x 1.740120 0.000000 0.000000 
#    y 0.000000 1.711740 0.000000 
#    z 0.000000 0.000000 1.763080 
# 
# From -- ./inp_files/1998.got.cif
#   From: 2010.05.17/outbox.cif.g08.bks.cpg/sg33_1_cif.got.tgz:1998.got - 2010.06.03 17:15:25.
