data_PCOD9345524
_publ_section_title
;
Structure prediction by ZEFSAII (Michael W. Deem and Ramdas Pophale) SiO2 
 PCOD9345524
Probable space group: P N A 21
;
_chemical_formula_sum "Si O2"
_cell_formula_units_Z 32
_cell_length_a 12.939558
_cell_length_b 7.688640
_cell_length_c 14.452274
_cell_angle_alpha 90.000000
_cell_angle_beta 90.000000
_cell_angle_gamma 90.000000
_cell_volume 1437.822101
_symmetry_space_group_name_H-M "P N A 21"
_symmetry_group_IT_number 33
_symmetry_cell_setting 'orthorhombic'
loop_
_space_group_symop_operation_xyz
x,y,z
-x,-y,1/2+z
1/2-x,1/2+y,1/2+z
1/2+x,1/2-y,z
loop_
_atom_site_type_symbol
_atom_site_label
_atom_site_fract_x
_atom_site_fract_y
_atom_site_fract_z
Si Si1 0.325143 0.986011 0.116200
Si Si2 0.229938 0.877138 0.303909
Si Si3 0.855415 0.139076 0.357678
Si Si4 0.905822 0.828031 0.876595
Si Si5 0.670303 0.020032 0.275962
Si Si6 0.748063 0.847909 0.010187
Si Si7 0.816329 0.804205 0.484085
Si Si8 0.061333 0.429646 0.094838
O O1 0.309552 0.948964 0.226134
O O2 0.268441 0.819776 0.072555
O O3 0.446195 0.996778 0.090302
O O4 0.265608 0.146779 0.065260
O O5 0.178736 0.688390 0.278316
O O6 0.276083 0.831888 0.406010
O O7 0.146043 0.029979 0.309311
O O8 0.787757 0.093866 0.267257
O O9 0.805876 0.297736 0.413091
O O10 0.975132 0.169335 0.353257
O O11 0.838476 0.972504 0.422969
O O12 0.868495 0.626075 0.866630
O O13 0.864593 0.895004 0.976771
O O14 0.591289 0.091771 0.201148
O O15 0.661280 0.958542 0.061614
O O16 0.920916 0.739878 0.532880
#
# Coordination Sequence:
#
# PCOD9345524 Si02
#       8
#     4   4   4   4   4   4   4   4
#     4  11  25  45  68 101 142 188 238 301 376 436
#     4  11  23  45  68 100 146 180 238 306 352 447
#     4   9  22  43  64  97 135 178 230 301 357 429
#     4  11  22  42  71  96 131 185 227 295 366 421
#     4  10  24  42  63 102 138 175 240 290 350 447
#     4  10  21  43  63  93 134 171 235 287 348 438
#     4  10  24  44  68 105 143 180 248 299 364 468
#     4  12  23  42  71  98 137 191 228 299 373 434
#
# _framework density 22.255880999999999
#
# number of rings (size 3 to 8) (size 9 to 14) (size 15 to 20)
#    0.000    1.500    2.500    2.250    1.750    5.000 
#    6.750    0.000    0.000    0.000    0.000    0.000 
#    0.000    0.000    0.000    0.000    0.000    0.000 
#
# Total GULP energy -178192.360569 kJ/mol
# GULP energy per Si atom -5568.511268 kJ/mol
# Density = 2.220523 g / cm^3
# Si number density = 22.255881 Si / 1000 Ang^3
#
#
#
# Elastic Constant Matrix: (Units=GPa)
#
#
# Indices 1 2 3 4 5 6 
#
# 1 128.9026 34.8963 22.4082 0.0000 0.0000 0.0000
# 2 34.8963 95.7986 20.8226 0.0000 0.0000 0.0000
# 3 22.4082 20.8226 80.8637 0.0000 0.0000 0.0000
# 4 0.0000 0.0000 0.0000 20.1813 0.0000 0.0000
# 5 0.0000 0.0000 0.0000 0.0000 29.0314 0.0000
# 6 0.0000 0.0000 0.0000 0.0000 0.0000 24.4637
#
#
#
# Elastic Compliance Matrix: (Units=1/GPa)
#
#
# Indices 1 2 3 4 5 6 
#
# 1 0.008825 -0.002842 -0.001714 0.000000 0.000000 0.000000
# 2 -0.002842 0.011973 -0.002295 0.000000 0.000000 0.000000
# 3 -0.001714 -0.002295 0.013432 0.000000 0.000000 0.000000
# 4 0.000000 0.000000 0.000000 0.049551 0.000000 0.000000
# 5 0.000000 0.000000 0.000000 0.000000 0.034445 0.000000
# 6 0.000000 0.000000 0.000000 0.000000 0.000000 0.040877
#
#
# Mechanical properties :
#
#
# Convention : Reuss Voigt Hill
#
# Bulk Modulus (GPa) = 48.71444 51.31321 50.01383
# Shear Modulus (GPa) = 27.83208 29.89780 28.86494
#
# Velocity S-wave (km/s) = 3.54015 3.66917 3.60524
# Velocity P-wave (km/s) = 6.21659 6.40754 6.31279
#
# Compressibility (1/GPa) = 0.02052779
#
# Stress axis : x y z
#
# Youngs Moduli (GPa) = 113.31269 83.52247 74.44662
#
# Poissons Ratio (x) = 0.23739 0.12758
# Poissons Ratio (y) = 0.32206 0.17089
# Poissons Ratio (z) = 0.19418 0.19172
#
# Static dielectric constant tensor:
#      x y z
#    x 1.855090 0.000000 0.000000 
#    y 0.000000 1.911580 0.000000 
#    z 0.000000 0.000000 1.898160 
# 
# From -- ./inp_files/7946.got.cif
#   From: 2010.05.17/outbox.cif.g08.bks.cpg/sg33_4_cif.got.tgz:7946.got - 2010.06.03 17:15:25.
