data_PCOD9345352
_publ_section_title
;
Structure prediction by ZEFSAII (Michael W. Deem and Ramdas Pophale) SiO2 
 PCOD9345352
Probable space group: P N A 21
;
_chemical_formula_sum "Si O2"
_cell_formula_units_Z 32
_cell_length_a 11.022899
_cell_length_b 8.158222
_cell_length_c 15.031551
_cell_angle_alpha 90.000000
_cell_angle_beta 90.000000
_cell_angle_gamma 90.000000
_cell_volume 1351.746152
_symmetry_space_group_name_H-M "P N A 21"
_symmetry_group_IT_number 33
_symmetry_cell_setting 'orthorhombic'
loop_
_space_group_symop_operation_xyz
x,y,z
-x,-y,1/2+z
1/2-x,1/2+y,1/2+z
1/2+x,1/2-y,z
loop_
_atom_site_type_symbol
_atom_site_label
_atom_site_fract_x
_atom_site_fract_y
_atom_site_fract_z
Si Si1 0.170657 0.515982 0.621200
Si Si2 0.022959 0.945317 0.685676
Si Si3 0.050797 0.274985 0.038041
Si Si4 0.539543 0.802986 0.197062
Si Si5 0.193249 0.324371 0.455631
Si Si6 0.501215 0.048860 0.874998
Si Si7 0.834767 0.301317 0.291382
Si Si8 0.743568 0.958855 0.079955
O O1 0.238760 0.446094 0.534545
O O2 0.226458 0.623615 0.701860
O O3 0.061416 0.627956 0.583576
O O4 0.093659 0.364172 0.663946
O O5 0.047425 0.801393 0.756891
O O6 0.954950 0.886240 0.596583
O O7 0.157998 0.992501 0.652700
O O8 0.963225 0.111900 0.718578
O O9 0.174441 0.377028 0.049188
O O10 0.021615 0.289648 0.934073
O O11 0.568533 0.904465 0.285663
O O12 0.637498 0.848736 0.123121
O O13 0.065804 0.407621 0.430848
O O14 0.263708 0.307592 0.362595
O O15 0.193870 0.146368 0.501972
O O16 0.623893 0.962877 0.844132
#
# Coordination Sequence:
#
# PCOD9345352 Si02
#       8
#     4   4   4   4   4   4   4   4
#     4   8  18  38  64  91 131 173 221 281 341 401
#     4  11  23  43  66 100 134 176 226 283 342 415
#     4   9  20  42  66  93 134 174 224 284 335 409
#     4  10  21  42  63  94 135 172 222 287 340 412
#     4  11  20  39  72  92 128 179 231 282 342 418
#     4  10  21  43  65  94 132 176 222 286 343 403
#     4  10  21  39  66  96 132 177 223 283 346 415
#     4  11  22  42  68  96 132 185 229 272 351 411
#
# _framework density 23.673083999999999
#
# number of rings (size 3 to 8) (size 9 to 14) (size 15 to 20)
#    0.000    2.000    2.500    1.500    0.000    0.000 
#   13.500    1.250    0.000    0.000    0.000    0.000 
#    0.000    0.000    0.000    0.000    0.000    0.000 
#
# Total GULP energy -178578.318682 kJ/mol
# GULP energy per Si atom -5580.572459 kJ/mol
# Density = 2.361920 g / cm^3
# Si number density = 23.673084 Si / 1000 Ang^3
#
#
#
# Elastic Constant Matrix: (Units=GPa)
#
#
# Indices 1 2 3 4 5 6 
#
# 1 41.0243 11.5487 26.9710 0.0000 0.0000 0.0000
# 2 11.5487 67.9179 28.0371 0.0000 0.0000 0.0000
# 3 26.9710 28.0371 125.4442 0.0000 0.0000 0.0000
# 4 0.0000 0.0000 0.0000 60.5383 0.0000 0.0000
# 5 0.0000 0.0000 0.0000 0.0000 35.4198 0.0000
# 6 0.0000 0.0000 0.0000 0.0000 0.0000 25.9640
#
#
#
# Elastic Compliance Matrix: (Units=1/GPa)
#
#
# Indices 1 2 3 4 5 6 
#
# 1 0.028793 -0.002578 -0.005614 0.000000 0.000000 0.000000
# 2 -0.002578 0.016451 -0.003123 0.000000 0.000000 0.000000
# 3 -0.005614 -0.003123 0.009877 0.000000 0.000000 0.000000
# 4 0.000000 0.000000 0.000000 0.016518 0.000000 0.000000
# 5 0.000000 0.000000 0.000000 0.000000 0.028233 0.000000
# 6 0.000000 0.000000 0.000000 0.000000 0.000000 0.038515
#
#
# Mechanical properties :
#
#
# Convention : Reuss Voigt Hill
#
# Bulk Modulus (GPa) = 30.77845 40.83332 35.80589
# Shear Modulus (GPa) = 29.09569 35.57305 32.33437
#
# Velocity S-wave (km/s) = 3.50960 3.88065 3.69978
# Velocity P-wave (km/s) = 5.42704 6.11273 5.78006
#
# Compressibility (1/GPa) = 0.03249026
#
# Stress axis : x y z
#
# Youngs Moduli (GPa) = 34.73111 60.78629 101.24881
#
# Poissons Ratio (x) = 0.15672 0.56844
# Poissons Ratio (y) = 0.08955 0.31615
# Poissons Ratio (z) = 0.19499 0.18981
#
# Static dielectric constant tensor:
#      x y z
#    x 1.931970 0.000000 0.000000 
#    y 0.000000 1.915350 0.000000 
#    z 0.000000 0.000000 1.906840 
# 
# From -- ./inp_files/7995.got.cif
#   From: 2010.05.17/outbox.cif.g08.bks.cpg/sg33_4_cif.got.tgz:7995.got - 2010.06.03 17:15:25.
