data_PCOD9345133
_publ_section_title
;
Structure prediction by ZEFSAII (Michael W. Deem and Ramdas Pophale) SiO2 
 PCOD9345133
Probable space group: P N A 21
;
_chemical_formula_sum "Si O2"
_cell_formula_units_Z 20
_cell_length_a 12.876495
_cell_length_b 7.364006
_cell_length_c 8.567111
_cell_angle_alpha 90.000000
_cell_angle_beta 90.000000
_cell_angle_gamma 90.000000
_cell_volume 812.355623
_symmetry_space_group_name_H-M "P N A 21"
_symmetry_group_IT_number 33
_symmetry_cell_setting 'orthorhombic'
loop_
_space_group_symop_operation_xyz
x,y,z
-x,-y,1/2+z
1/2-x,1/2+y,1/2+z
1/2+x,1/2-y,z
loop_
_atom_site_type_symbol
_atom_site_label
_atom_site_fract_x
_atom_site_fract_y
_atom_site_fract_z
Si Si1 0.285357 0.073688 0.258790
Si Si2 0.171350 0.766339 0.059571
Si Si3 0.590417 0.714861 0.558268
Si Si4 0.016627 0.980596 0.836848
Si Si5 0.499776 0.124485 0.777466
O O1 0.227888 0.903831 0.179223
O O2 0.406761 0.013169 0.267336
O O3 0.263418 0.158615 0.428714
O O4 0.298962 0.239451 0.133845
O O5 0.095260 0.633177 0.156596
O O6 0.097868 0.894216 0.954047
O O7 0.581647 0.548456 0.435591
O O8 0.508367 0.653927 0.691716
O O9 0.552083 0.879271 0.449106
O O10 0.052787 0.174709 0.768957
#
# Coordination Sequence:
#
# PCOD9345133 Si02
#       5
#     4   4   4   4   4
#     4  11  25  42  66 106 144 184 242 303 366 444
#     4  11  24  44  68 105 145 188 243 300 374 436
#     4   9  19  39  65  93 129 178 229 287 354 421
#     4   9  18  39  65  94 127 179 231 285 355 430
#     4  10  20  42  68  96 133 187 235 299 355 431
#
# _framework density 24.619761
#
# number of rings (size 3 to 8) (size 9 to 14) (size 15 to 20)
#    1.200    0.800    2.000    1.200    0.000    4.800 
#    3.600    4.000    0.000    0.000    0.000    0.000 
#    0.000    0.000    0.000    0.000    0.000    0.000 
#
# Total GULP energy -111373.459270 kJ/mol
# GULP energy per Si atom -5568.672963 kJ/mol
# Density = 2.456373 g / cm^3
# Si number density = 24.619761 Si / 1000 Ang^3
#
#
#
# Elastic Constant Matrix: (Units=GPa)
#
#
# Indices 1 2 3 4 5 6 
#
# 1 58.0540 35.9864 43.0896 0.0000 0.0000 0.0000
# 2 35.9864 83.8794 34.9200 0.0000 0.0000 0.0000
# 3 43.0896 34.9200 161.8006 0.0000 0.0000 0.0000
# 4 0.0000 0.0000 0.0000 36.9196 0.0000 0.0000
# 5 0.0000 0.0000 0.0000 0.0000 8.1234 0.0000
# 6 0.0000 0.0000 0.0000 0.0000 0.0000 24.9476
#
#
#
# Elastic Compliance Matrix: (Units=1/GPa)
#
#
# Indices 1 2 3 4 5 6 
#
# 1 0.026846 -0.009384 -0.005124 0.000000 0.000000 0.000000
# 2 -0.009384 0.016379 -0.001036 0.000000 0.000000 0.000000
# 3 -0.005124 -0.001036 0.007769 0.000000 0.000000 0.000000
# 4 0.000000 0.000000 0.000000 0.027086 0.000000 0.000000
# 5 0.000000 0.000000 0.000000 0.000000 0.123102 0.000000
# 6 0.000000 0.000000 0.000000 0.000000 0.000000 0.040084
#
#
# Mechanical properties :
#
#
# Convention : Reuss Voigt Hill
#
# Bulk Modulus (GPa) = 50.23813 59.08066 54.65939
# Shear Modulus (GPa) = 17.92190 26.64733 22.28461
#
# Velocity S-wave (km/s) = 2.70098 3.29349 3.01184
# Velocity P-wave (km/s) = 5.49335 6.20581 5.86042
#
# Compressibility (1/GPa) = 0.01990520
#
# Stress axis : x y z
#
# Youngs Moduli (GPa) = 37.24996 61.05303 128.72349
#
# Poissons Ratio (x) = 0.57294 0.65958
# Poissons Ratio (y) = 0.34956 0.13333
# Poissons Ratio (z) = 0.19087 0.06324
#
# Static dielectric constant tensor:
#      x y z
#    x 1.976510 0.000000 0.000000 
#    y 0.000000 2.009070 0.000000 
#    z 0.000000 0.000000 2.062720 
# 
# From -- ./inp_files/4156.got.cif
#   From: 2010.05.17/outbox.cif.g08.bks.cpg/sg33_3_cif.got.tgz:4156.got - 2010.06.03 17:15:25.
