data_PCOD9345519
_publ_section_title
;
Structure prediction by ZEFSAII (Michael W. Deem and Ramdas Pophale) SiO2 
 PCOD9345519
Probable space group: P N A 21
;
_chemical_formula_sum "Si O2"
_cell_formula_units_Z 20
_cell_length_a 16.811658
_cell_length_b 5.223650
_cell_length_c 9.156721
_cell_angle_alpha 90.000000
_cell_angle_beta 90.000000
_cell_angle_gamma 90.000000
_cell_volume 804.126915
_symmetry_space_group_name_H-M "P N A 21"
_symmetry_group_IT_number 33
_symmetry_cell_setting 'orthorhombic'
loop_
_space_group_symop_operation_xyz
x,y,z
-x,-y,1/2+z
1/2-x,1/2+y,1/2+z
1/2+x,1/2-y,z
loop_
_atom_site_type_symbol
_atom_site_label
_atom_site_fract_x
_atom_site_fract_y
_atom_site_fract_z
Si Si1 0.046392 0.142469 0.819520
Si Si2 0.195208 0.405310 0.311474
Si Si3 0.779834 0.198616 0.587291
Si Si4 0.073946 0.135285 0.136291
Si Si5 0.648707 0.877967 0.818690
O O1 0.090720 0.866830 0.807338
O O2 0.970386 0.092953 0.720188
O O3 0.102628 0.372601 0.767373
O O4 0.026465 0.205689 0.989509
O O5 0.205333 0.375485 0.485698
O O6 0.107526 0.332926 0.256264
O O7 0.266808 0.215806 0.253407
O O8 0.222364 0.677755 0.246601
O O9 0.824153 0.417443 0.487248
O O10 0.844445 0.978673 0.574564
#
# Coordination Sequence:
#
# PCOD9345519 Si02
#       5
#     4   4   4   4   4
#     4  11  24  45  66 102 141 191 228 303 363 449
#     4  10  21  42  71 100 137 186 244 309 361 439
#     4   9  22  40  68 100 138 184 241 305 363 436
#     4  11  24  43  68  99 148 182 247 295 377 442
#     4   9  23  42  69  97 140 179 240 290 360 432
#
# _framework density 24.871694999999999
#
# number of rings (size 3 to 8) (size 9 to 14) (size 15 to 20)
#    1.200    0.800    2.000    0.000    5.600    3.200 
#    0.000    0.000    0.000    0.000    0.000    0.000 
#    0.000    0.000    0.000    0.000    0.000    0.000 
#
# Total GULP energy -111436.896863 kJ/mol
# GULP energy per Si atom -5571.844843 kJ/mol
# Density = 2.481509 g / cm^3
# Si number density = 24.871695 Si / 1000 Ang^3
#
#
#
# Elastic Constant Matrix: (Units=GPa)
#
#
# Indices 1 2 3 4 5 6 
#
# 1 28.6596 2.1930 4.0740 0.0000 0.0000 0.0000
# 2 2.1930 112.3198 7.9073 0.0000 0.0000 0.0000
# 3 4.0740 7.9073 73.6036 0.0000 0.0000 0.0000
# 4 0.0000 0.0000 0.0000 31.3869 0.0000 0.0000
# 5 0.0000 0.0000 0.0000 0.0000 29.8736 0.0000
# 6 0.0000 0.0000 0.0000 0.0000 0.0000 25.4617
#
#
#
# Elastic Compliance Matrix: (Units=1/GPa)
#
#
# Indices 1 2 3 4 5 6 
#
# 1 0.035203 -0.000554 -0.001889 0.000000 0.000000 0.000000
# 2 -0.000554 0.008980 -0.000934 0.000000 0.000000 0.000000
# 3 -0.001889 -0.000934 0.013791 0.000000 0.000000 0.000000
# 4 0.000000 0.000000 0.000000 0.031860 0.000000 0.000000
# 5 0.000000 0.000000 0.000000 0.000000 0.033474 0.000000
# 6 0.000000 0.000000 0.000000 0.000000 0.000000 0.039275
#
#
# Mechanical properties :
#
#
# Convention : Reuss Voigt Hill
#
# Bulk Modulus (GPa) = 19.52379 26.99237 23.25808
# Shear Modulus (GPa) = 26.82239 30.70502 28.76370
#
# Velocity S-wave (km/s) = 3.28751 3.51741 3.40440
# Velocity P-wave (km/s) = 4.71987 5.23187 4.98245
#
# Compressibility (1/GPa) = 0.05121957
#
# Stress axis : x y z
#
# Youngs Moduli (GPa) = 28.40646 111.36192 72.51006
#
# Poissons Ratio (x) = 0.06173 0.13697
# Poissons Ratio (y) = 0.01575 0.06773
# Poissons Ratio (z) = 0.05366 0.10401
#
# Static dielectric constant tensor:
#      x y z
#    x 1.974490 0.000000 0.000000 
#    y 0.000000 2.065090 0.000000 
#    z 0.000000 0.000000 2.101790 
# 
# From -- ./inp_files/4574.got.cif
#   From: 2010.05.17/outbox.cif.g08.bks.cpg/sg33_3_cif.got.tgz:4574.got - 2010.06.03 17:15:25.
