data_PCOD9345074
_publ_section_title
;
Structure prediction by ZEFSAII (Michael W. Deem and Ramdas Pophale) SiO2 
 PCOD9345074
Probable space group: P N A 21
;
_chemical_formula_sum "Si O2"
_cell_formula_units_Z 32
_cell_length_a 10.122630
_cell_length_b 16.208986
_cell_length_c 9.596083
_cell_angle_alpha 90.000000
_cell_angle_beta 90.000000
_cell_angle_gamma 90.000000
_cell_volume 1574.501961
_symmetry_space_group_name_H-M "P N A 21"
_symmetry_group_IT_number 33
_symmetry_cell_setting 'orthorhombic'
loop_
_space_group_symop_operation_xyz
x,y,z
-x,-y,1/2+z
1/2-x,1/2+y,1/2+z
1/2+x,1/2-y,z
loop_
_atom_site_type_symbol
_atom_site_label
_atom_site_fract_x
_atom_site_fract_y
_atom_site_fract_z
Si Si1 0.724105 0.880775 0.807560
Si Si2 0.201116 0.774879 0.611108
Si Si3 0.680748 0.866972 0.411832
Si Si4 0.977259 0.079225 0.218413
Si Si5 0.373781 0.492363 0.500968
Si Si6 0.839409 0.558280 0.205489
Si Si7 0.114042 0.402375 0.007051
Si Si8 0.870960 0.415486 0.607374
O O1 0.697312 0.797321 0.724742
O O2 0.877754 0.901681 0.781630
O O3 0.645891 0.960993 0.747888
O O4 0.682548 0.873832 0.967870
O O5 0.182932 0.725940 0.466574
O O6 0.338243 0.825157 0.597368
O O7 0.091377 0.841818 0.650055
O O8 0.796983 0.920856 0.479753
O O9 0.539735 0.902707 0.464329
O O10 0.691056 0.879464 0.247351
O O11 0.998745 0.013187 0.094318
O O12 0.897650 0.045319 0.350319
O O13 0.279496 0.436827 0.597120
O O14 0.814755 0.599528 0.355665
O O15 0.971583 0.591193 0.133270
O O16 0.151898 0.486502 0.085430
#
# Coordination Sequence:
#
# PCOD9345074 Si02
#       8
#     4   4   4   4   4   4   4   4
#     4  10  22  43  61  94 140 160 218 273 319 390
#     4  12  23  43  62  96 131 177 206 267 339 383
#     4  11  22  40  65  95 131 158 215 270 323 384
#     4  11  26  42  67  91 135 178 216 266 328 393
#     4  11  23  44  63 100 125 175 219 269 316 396
#     4   9  19  40  65  95 122 158 217 271 306 386
#     4  10  21  38  69  93 121 166 220 259 325 382
#     4  10  20  40  68  94 117 172 209 271 314 374
#
# _framework density 20.323888
#
# number of rings (size 3 to 8) (size 9 to 14) (size 15 to 20)
#    0.000    1.500    3.750    1.500    7.000    0.000 
#    6.750    1.250    0.000    0.000    0.000    0.000 
#    0.000    0.000    0.000    0.000    0.000    0.000 
#
# Total GULP energy -178700.471213 kJ/mol
# GULP energy per Si atom -5584.389725 kJ/mol
# Density = 2.027763 g / cm^3
# Si number density = 20.323888 Si / 1000 Ang^3
#
#
#
# Elastic Constant Matrix: (Units=GPa)
#
#
# Indices 1 2 3 4 5 6 
#
# 1 39.1826 8.2798 28.7558 0.0000 0.0000 0.0000
# 2 8.2798 68.0194 46.3167 0.0000 0.0000 0.0000
# 3 28.7558 46.3167 151.8018 0.0000 0.0000 0.0000
# 4 0.0000 0.0000 0.0000 30.3899 0.0000 0.0000
# 5 0.0000 0.0000 0.0000 0.0000 37.7489 0.0000
# 6 0.0000 0.0000 0.0000 0.0000 0.0000 23.6055
#
#
#
# Elastic Compliance Matrix: (Units=1/GPa)
#
#
# Indices 1 2 3 4 5 6 
#
# 1 0.029646 0.000272 -0.005699 0.000000 0.000000 0.000000
# 2 0.000272 0.018560 -0.005714 0.000000 0.000000 0.000000
# 3 -0.005699 -0.005714 0.009411 0.000000 0.000000 0.000000
# 4 0.000000 0.000000 0.000000 0.032906 0.000000 0.000000
# 5 0.000000 0.000000 0.000000 0.000000 0.026491 0.000000
# 6 0.000000 0.000000 0.000000 0.000000 0.000000 0.042363
#
#
# Mechanical properties :
#
#
# Convention : Reuss Voigt Hill
#
# Bulk Modulus (GPa) = 28.30135 47.30093 37.80114
# Shear Modulus (GPa) = 25.84824 30.05898 27.95361
#
# Velocity S-wave (km/s) = 3.57012 3.84995 3.71267
# Velocity P-wave (km/s) = 5.56325 6.56406 6.08427
#
# Compressibility (1/GPa) = 0.03533401
#
# Stress axis : x y z
#
# Youngs Moduli (GPa) = 33.73081 53.88036 106.26347
#
# Poissons Ratio (x) = -0.01464 0.60558
# Poissons Ratio (y) = -0.00917 0.60722
# Poissons Ratio (z) = 0.19223 0.30789
#
# Static dielectric constant tensor:
#      x y z
#    x 1.759770 0.000000 0.000000 
#    y 0.000000 1.704910 0.000000 
#    z 0.000000 0.000000 1.742010 
# 
# From -- ./inp_files/3925.got.cif
#   From: 2010.05.17/outbox.cif.g08.bks.cpg/sg33_2_cif.got.tgz:3925.got - 2010.06.03 17:15:25.
