data_PCOD9345947
_publ_section_title
;
Structure prediction by ZEFSAII (Michael W. Deem and Ramdas Pophale) SiO2 
 PCOD9345947
Probable space group: P N A 21
;
_chemical_formula_sum "Si O2"
_cell_formula_units_Z 28
_cell_length_a 9.910157
_cell_length_b 24.954092
_cell_length_c 4.917094
_cell_angle_alpha 90.000000
_cell_angle_beta 90.000000
_cell_angle_gamma 90.000000
_cell_volume 1215.992279
_symmetry_space_group_name_H-M "P N A 21"
_symmetry_group_IT_number 33
_symmetry_cell_setting 'orthorhombic'
loop_
_space_group_symop_operation_xyz
x,y,z
-x,-y,1/2+z
1/2-x,1/2+y,1/2+z
1/2+x,1/2-y,z
loop_
_atom_site_type_symbol
_atom_site_label
_atom_site_fract_x
_atom_site_fract_y
_atom_site_fract_z
Si Si1 0.777381 0.154728 0.468990
Si Si2 0.620979 0.757938 0.303805
Si Si3 0.235036 0.135979 0.754048
Si Si4 0.581978 0.937911 0.640267
Si Si5 0.062689 0.150626 0.268639
Si Si6 0.633861 0.238156 0.157134
Si Si7 0.901378 0.560567 0.153648
O O1 0.833841 0.203235 0.657075
O O2 0.656015 0.181966 0.300386
O O3 0.714244 0.103483 0.609322
O O4 0.906863 0.136716 0.295885
O O5 0.673573 0.812875 0.170875
O O6 0.469009 0.765242 0.406105
O O7 0.715872 0.755392 0.571936
O O8 0.322338 0.100437 0.963228
O O9 0.159922 0.118460 0.476142
O O10 0.111212 0.149736 0.958068
O O11 0.530162 0.928290 0.949120
O O12 0.636968 0.998505 0.610112
O O13 0.445650 0.936197 0.464926
O O14 0.077565 0.213989 0.342197
#
# Coordination Sequence:
#
# PCOD9345947 Si02
#       7
#     4   4   4   4   4   4   4
#     4  12  24  40  63  93 133 172 220 272 339 389
#     4  11  24  37  61  92 129 176 218 260 328 406
#     4  11  23  42  64  88 133 168 216 265 328 388
#     4  10  22  46  66  99 124 166 224 276 335 391
#     4  11  24  41  58  94 129 170 215 271 311 411
#     4  11  23  40  59  89 134 177 214 269 325 397
#     4  10  24  40  71  97 128 163 221 283 328 394
#
# _framework density 23.026463
#
# number of rings (size 3 to 8) (size 9 to 14) (size 15 to 20)
#    0.000    1.143    2.857    3.429    4.000    1.143 
#    0.000    1.429    0.000    0.000    0.000    0.000 
#    0.000    0.000    0.000    0.000    0.000    0.000 
#
# Total GULP energy -156353.909043 kJ/mol
# GULP energy per Si atom -5584.068180 kJ/mol
# Density = 2.297405 g / cm^3
# Si number density = 23.026463 Si / 1000 Ang^3
#
#
#
# Elastic Constant Matrix: (Units=GPa)
#
#
# Indices 1 2 3 4 5 6 
#
# 1 63.9729 9.5880 7.5279 0.0000 0.0000 0.0000
# 2 9.5880 52.8427 -4.1284 0.0000 0.0000 0.0000
# 3 7.5279 -4.1284 90.4548 0.0000 0.0000 0.0000
# 4 0.0000 0.0000 0.0000 24.9228 0.0000 0.0000
# 5 0.0000 0.0000 0.0000 0.0000 32.4975 0.0000
# 6 0.0000 0.0000 0.0000 0.0000 0.0000 29.0183
#
#
#
# Elastic Compliance Matrix: (Units=1/GPa)
#
#
# Indices 1 2 3 4 5 6 
#
# 1 0.016267 -0.003068 -0.001494 0.000000 0.000000 0.000000
# 2 -0.003068 0.019571 0.001149 0.000000 0.000000 0.000000
# 3 -0.001494 0.001149 0.011232 0.000000 0.000000 0.000000
# 4 0.000000 0.000000 0.000000 0.040124 0.000000 0.000000
# 5 0.000000 0.000000 0.000000 0.000000 0.030772 0.000000
# 6 0.000000 0.000000 0.000000 0.000000 0.000000 0.034461
#
#
# Mechanical properties :
#
#
# Convention : Reuss Voigt Hill
#
# Bulk Modulus (GPa) = 24.84929 25.91618 25.38273
# Shear Modulus (GPa) = 28.95734 30.23990 29.59862
#
# Velocity S-wave (km/s) = 3.55007 3.62783 3.58916
# Velocity P-wave (km/s) = 5.25538 5.36914 5.31256
#
# Compressibility (1/GPa) = 0.04024259
#
# Stress axis : x y z
#
# Youngs Moduli (GPa) = 61.47313 51.09718 89.03144
#
# Poissons Ratio (x) = 0.15678 0.13300
# Poissons Ratio (y) = 0.18862 -0.10226
# Poissons Ratio (z) = 0.09183 -0.05869
#
# Static dielectric constant tensor:
#      x y z
#    x 1.881090 0.000000 0.000000 
#    y 0.000000 1.916490 0.000000 
#    z 0.000000 0.000000 1.917810 
# 
# From -- ./inp_files/503.got.cif
#   From: 2010.05.17/outbox.cif.g08.bks.cpg/sg33_1_cif.got.tgz:503.got - 2010.06.03 17:15:25.
