data_PCOD9345264
_publ_section_title
;
Structure prediction by ZEFSAII (Michael W. Deem and Ramdas Pophale) SiO2 
 PCOD9345264
Probable space group: P N A 21
;
_chemical_formula_sum "Si O2"
_cell_formula_units_Z 32
_cell_length_a 19.736923
_cell_length_b 7.889625
_cell_length_c 7.811617
_cell_angle_alpha 90.000000
_cell_angle_beta 90.000000
_cell_angle_gamma 90.000000
_cell_volume 1216.400948
_symmetry_space_group_name_H-M "P N A 21"
_symmetry_group_IT_number 33
_symmetry_cell_setting 'orthorhombic'
loop_
_space_group_symop_operation_xyz
x,y,z
-x,-y,1/2+z
1/2-x,1/2+y,1/2+z
1/2+x,1/2-y,z
loop_
_atom_site_type_symbol
_atom_site_label
_atom_site_fract_x
_atom_site_fract_y
_atom_site_fract_z
Si Si1 0.678478 0.788939 0.020980
Si Si2 0.051943 0.846712 0.164903
Si Si3 0.142404 0.329482 0.150781
Si Si4 0.980783 0.784767 0.800788
Si Si5 0.804426 0.892498 0.138460
Si Si6 0.924589 0.738005 0.300401
Si Si7 0.611279 0.873732 0.674375
Si Si8 0.730216 0.762418 0.490316
O O1 0.758590 0.759524 0.030262
O O2 0.659907 0.978520 0.092468
O O3 0.631638 0.673592 0.140275
O O4 0.651767 0.778238 0.828218
O O5 0.018120 0.803588 0.981986
O O6 0.005224 0.729541 0.284137
O O7 0.035176 0.029194 0.235804
O O8 0.090814 0.313487 0.307142
O O9 0.097584 0.251782 0.995550
O O10 0.211727 0.224332 0.137279
O O11 0.035770 0.696348 0.678711
O O12 0.883516 0.876932 0.187470
O O13 0.767433 0.842944 0.322824
O O14 0.792188 0.064509 0.027068
O O15 0.893217 0.566147 0.230359
O O16 0.659533 0.855824 0.513955
#
# Coordination Sequence:
#
# PCOD9345264 Si02
#       8
#     4   4   4   4   4   4   4   4
#     4   9  21  39  59  85 118 155 198 247 305 365
#     4  11  23  37  57  86 116 155 200 247 301 363
#     4   9  20  40  59  82 117 152 192 249 303 359
#     4  11  23  38  58  85 117 154 199 248 301 361
#     4  10  22  40  62  89 123 163 207 257 313 373
#     4  10  21  38  60  86 118 155 197 248 304 365
#     4  10  22  39  60  87 121 158 199 251 306 369
#     4  10  22  39  61  90 124 162 204 255 313 375
#
# _framework density 26.307113000000001
#
# number of rings (size 3 to 8) (size 9 to 14) (size 15 to 20)
#    0.000    2.000    0.000    3.000    0.000   11.000 
#    0.000    1.250    0.000    0.000    0.000    0.000 
#    0.000    0.000    0.000    0.000    0.000    0.000 
#
# Total GULP energy -178640.400613 kJ/mol
# GULP energy per Si atom -5582.512519 kJ/mol
# Density = 2.624724 g / cm^3
# Si number density = 26.307113 Si / 1000 Ang^3
#
#
#
# Elastic Constant Matrix: (Units=GPa)
#
#
# Indices 1 2 3 4 5 6 
#
# 1 96.7088 0.6626 5.7724 0.0000 0.0000 0.0000
# 2 0.6626 28.8665 8.1442 0.0000 0.0000 0.0000
# 3 5.7724 8.1442 86.8269 0.0000 0.0000 0.0000
# 4 0.0000 0.0000 0.0000 11.2768 0.0000 0.0000
# 5 0.0000 0.0000 0.0000 0.0000 14.9660 0.0000
# 6 0.0000 0.0000 0.0000 0.0000 0.0000 38.6906
#
#
#
# Elastic Compliance Matrix: (Units=1/GPa)
#
#
# Indices 1 2 3 4 5 6 
#
# 1 0.010382 -0.000045 -0.000686 0.000000 0.000000 0.000000
# 2 -0.000045 0.035584 -0.003335 0.000000 0.000000 0.000000
# 3 -0.000686 -0.003335 0.011876 0.000000 0.000000 0.000000
# 4 0.000000 0.000000 0.000000 0.088677 0.000000 0.000000
# 5 0.000000 0.000000 0.000000 0.000000 0.066818 0.000000
# 6 0.000000 0.000000 0.000000 0.000000 0.000000 0.025846
#
#
# Mechanical properties :
#
#
# Convention : Reuss Voigt Hill
#
# Bulk Modulus (GPa) = 20.11655 26.84005 23.47830
# Shear Modulus (GPa) = 18.94773 26.17489 22.56131
#
# Velocity S-wave (km/s) = 2.68666 3.15774 2.93168
# Velocity P-wave (km/s) = 4.15784 4.84973 4.51705
#
# Compressibility (1/GPa) = 0.04971030
#
# Stress axis : x y z
#
# Youngs Moduli (GPa) = 96.32457 28.10243 84.20658
#
# Poissons Ratio (x) = 0.00126 0.05776
# Poissons Ratio (y) = 0.00431 0.28081
# Poissons Ratio (z) = 0.06608 0.09371
#
# Static dielectric constant tensor:
#      x y z
#    x 2.169900 0.000000 0.000000 
#    y 0.000000 2.148580 0.000000 
#    z 0.000000 0.000000 2.159030 
# 
# From -- ./inp_files/5032.got.cif
#   From: 2010.05.17/outbox.cif.g08.bks.cpg/sg33_3_cif.got.tgz:5032.got - 2010.06.03 17:15:25.
