data_PCOD9345217
_publ_section_title
;
Structure prediction by ZEFSAII (Michael W. Deem and Ramdas Pophale) SiO2 
 PCOD9345217
Probable space group: P N A 21
;
_chemical_formula_sum "Si O2"
_cell_formula_units_Z 32
_cell_length_a 8.772327
_cell_length_b 30.789288
_cell_length_c 5.117279
_cell_angle_alpha 90.000000
_cell_angle_beta 90.000000
_cell_angle_gamma 90.000000
_cell_volume 1382.144831
_symmetry_space_group_name_H-M "P N A 21"
_symmetry_group_IT_number 33
_symmetry_cell_setting 'orthorhombic'
loop_
_space_group_symop_operation_xyz
x,y,z
-x,-y,1/2+z
1/2-x,1/2+y,1/2+z
1/2+x,1/2-y,z
loop_
_atom_site_type_symbol
_atom_site_label
_atom_site_fract_x
_atom_site_fract_y
_atom_site_fract_z
Si Si1 0.654080 0.899207 0.335730
Si Si2 0.518467 0.026004 0.139398
Si Si3 0.145881 0.958447 0.723862
Si Si4 0.363259 0.152568 0.338899
Si Si5 0.514239 0.222645 0.691724
Si Si6 0.786608 0.230949 0.024211
Si Si7 0.069675 0.205105 0.336455
Si Si8 0.965087 0.941311 0.226815
O O1 0.585297 0.941411 0.474268
O O2 0.610144 0.862252 0.544265
O O3 0.833509 0.907925 0.302505
O O4 0.601293 0.885688 0.046911
O O5 0.673993 0.046416 0.248237
O O6 0.438180 0.007238 0.400625
O O7 0.094164 0.941042 0.445334
O O8 0.108472 0.010141 0.735729
O O9 0.044201 0.936427 0.947227
O O10 0.458142 0.192958 0.454243
O O11 0.183889 0.165161 0.354341
O O12 0.672836 0.208084 0.819719
O O13 0.374939 0.228877 0.889633
O O14 0.531512 0.273593 0.613397
O O15 0.671870 0.255647 0.217728
O O16 0.912886 0.202449 0.174101
#
# Coordination Sequence:
#
# PCOD9345217 Si02
#       8
#     4   4   4   4   4   4   4   4
#     4  12  27  45  66 101 145 185 220 287 371 416
#     4  12  24  43  74 106 136 181 239 283 336 426
#     4  10  21  38  72  98 128 167 234 285 316 386
#     4  12  26  43  67  97 144 183 223 291 362 419
#     4  11  21  40  66  98 126 177 233 292 334 417
#     4  10  21  36  68  96 128 163 245 290 331 395
#     4  11  21  40  66  98 125 178 237 287 335 417
#     4  10  21  41  65 100 130 174 219 279 337 406
#
# _framework density 23.152422000000001
#
# number of rings (size 3 to 8) (size 9 to 14) (size 15 to 20)
#    0.000    1.000    3.750    3.000    7.000    0.000 
#    0.000    3.750    0.000    0.000    0.000    0.000 
#    0.000    0.000    0.000    0.000    0.000    0.000 
#
# Total GULP energy -178787.237335 kJ/mol
# GULP energy per Si atom -5587.101167 kJ/mol
# Density = 2.309973 g / cm^3
# Si number density = 23.152422 Si / 1000 Ang^3
#
#
#
# Elastic Constant Matrix: (Units=GPa)
#
#
# Indices 1 2 3 4 5 6 
#
# 1 118.4557 7.6349 15.3768 0.0000 0.0000 0.0000
# 2 7.6349 31.0577 11.7201 0.0000 0.0000 0.0000
# 3 15.3768 11.7201 75.9556 0.0000 0.0000 0.0000
# 4 0.0000 0.0000 0.0000 210.6869 0.0000 0.0000
# 5 0.0000 0.0000 0.0000 0.0000 109.4749 0.0000
# 6 0.0000 0.0000 0.0000 0.0000 0.0000 26.9860
#
#
#
# Elastic Compliance Matrix: (Units=1/GPa)
#
#
# Indices 1 2 3 4 5 6 
#
# 1 0.008742 -0.001573 -0.001527 0.000000 0.000000 0.000000
# 2 -0.001573 0.034472 -0.005001 0.000000 0.000000 0.000000
# 3 -0.001527 -0.005001 0.014246 0.000000 0.000000 0.000000
# 4 0.000000 0.000000 0.000000 0.004746 0.000000 0.000000
# 5 0.000000 0.000000 0.000000 0.000000 0.009135 0.000000
# 6 0.000000 0.000000 0.000000 0.000000 0.000000 0.037056
#
#
# Mechanical properties :
#
#
# Convention : Reuss Voigt Hill
#
# Bulk Modulus (GPa) = 24.23716 32.77027 28.50372
# Shear Modulus (GPa) = 36.14010 82.14539 59.14274
#
# Velocity S-wave (km/s) = 3.95519 5.96299 5.05968
# Velocity P-wave (km/s) = 5.59904 7.84822 6.81703
#
# Compressibility (1/GPa) = 0.04125896
#
# Stress axis : x y z
#
# Youngs Moduli (GPa) = 114.39607 29.00922 70.19352
#
# Poissons Ratio (x) = 0.04562 0.10719
# Poissons Ratio (y) = 0.17991 0.35101
# Poissons Ratio (z) = 0.17468 0.14507
#
# Static dielectric constant tensor:
#      x y z
#    x 1.815890 0.000000 0.000000 
#    y 0.000000 1.890440 0.000000 
#    z 0.000000 0.000000 1.885750 
# 
# From -- ./inp_files/613.got.cif
#   From: 2010.05.17/outbox.cif.g08.bks.cpg/sg33_1_cif.got.tgz:613.got - 2010.06.03 17:15:25.
