data_PCOD9345258
_publ_section_title
;
Structure prediction by ZEFSAII (Michael W. Deem and Ramdas Pophale) SiO2 
 PCOD9345258
Probable space group: P N A 21
;
_chemical_formula_sum "Si O2"
_cell_formula_units_Z 16
_cell_length_a 8.499038
_cell_length_b 13.012998
_cell_length_c 4.787857
_cell_angle_alpha 90.000000
_cell_angle_beta 90.000000
_cell_angle_gamma 90.000000
_cell_volume 529.527238
_symmetry_space_group_name_H-M "P N A 21"
_symmetry_group_IT_number 33
_symmetry_cell_setting 'orthorhombic'
loop_
_space_group_symop_operation_xyz
x,y,z
-x,-y,1/2+z
1/2-x,1/2+y,1/2+z
1/2+x,1/2-y,z
loop_
_atom_site_type_symbol
_atom_site_label
_atom_site_fract_x
_atom_site_fract_y
_atom_site_fract_z
Si Si1 0.871758 0.299398 0.922330
Si Si2 0.423210 0.868460 0.960271
Si Si3 0.697321 0.352302 0.423427
Si Si4 0.780385 0.072808 0.960922
O O1 0.866433 0.355967 0.615474
O O2 0.870848 0.177387 0.891388
O O3 0.716140 0.329772 0.096831
O O4 0.985398 0.340815 0.161080
O O5 0.377404 0.749531 0.050043
O O6 0.272977 0.914210 0.778935
O O7 0.369054 0.935063 0.244713
O O8 0.630522 0.464645 0.448149
#
# Coordination Sequence:
#
# PCOD9345258 Si02
#       4
#     4   4   4   4
#     4  10  21  38  59  86 119 155 201 251 302 365
#     4  10  21  38  59  86 119 155 201 251 302 365
#     4  10  21  38  59  86 121 157 199 252 303 361
#     4  10  21  38  59  86 121 157 199 252 303 361
#
# _framework density 30.215634999999999
#
# number of rings (size 3 to 8) (size 9 to 14) (size 15 to 20)
#    0.000    2.000    0.000    3.000    0.000    4.000 
#    0.000   15.000    0.000    0.000    0.000    0.000 
#    0.000    0.000    0.000    0.000    0.000    0.000 
#
# Total GULP energy -89167.655862 kJ/mol
# GULP energy per Si atom -5572.978491 kJ/mol
# Density = 3.014686 g / cm^3
# Si number density = 30.215635 Si / 1000 Ang^3
#
#
#
# Elastic Constant Matrix: (Units=GPa)
#
#
# Indices 1 2 3 4 5 6 
#
# 1 75.5906 6.6860 27.1601 0.0000 0.0000 0.0000
# 2 6.6860 238.7711 32.0794 0.0000 0.0000 0.0000
# 3 27.1601 32.0794 192.1418 0.0000 0.0000 0.0000
# 4 0.0000 0.0000 0.0000 26.7658 0.0000 0.0000
# 5 0.0000 0.0000 0.0000 0.0000 33.3723 0.0000
# 6 0.0000 0.0000 0.0000 0.0000 0.0000 21.1026
#
#
#
# Elastic Compliance Matrix: (Units=1/GPa)
#
#
# Indices 1 2 3 4 5 6 
#
# 1 0.013941 -0.000128 -0.001949 0.000000 0.000000 0.000000
# 2 -0.000128 0.004285 -0.000697 0.000000 0.000000 0.000000
# 3 -0.001949 -0.000697 0.005596 0.000000 0.000000 0.000000
# 4 0.000000 0.000000 0.000000 0.037361 0.000000 0.000000
# 5 0.000000 0.000000 0.000000 0.000000 0.029965 0.000000
# 6 0.000000 0.000000 0.000000 0.000000 0.000000 0.047388
#
#
# Mechanical properties :
#
#
# Convention : Reuss Voigt Hill
#
# Bulk Modulus (GPa) = 54.72623 70.92827 62.82725
# Shear Modulus (GPa) = 33.29399 45.61999 39.45699
#
# Velocity S-wave (km/s) = 3.32306 3.88985 3.61757
# Velocity P-wave (km/s) = 5.73366 6.61056 6.18766
#
# Compressibility (1/GPa) = 0.01827277
#
# Stress axis : x y z
#
# Youngs Moduli (GPa) = 71.73156 233.35075 178.68531
#
# Poissons Ratio (x) = 0.02998 0.34828
# Poissons Ratio (y) = 0.00922 0.12460
# Poissons Ratio (z) = 0.13982 0.16272
#
# Static dielectric constant tensor:
#      x y z
#    x 3.013190 0.000000 0.000000 
#    y 0.000000 2.154960 0.000000 
#    z 0.000000 0.000000 2.196900 
# 
# From -- ./inp_files/712.got.cif
#   From: 2010.05.17/outbox.cif.g08.bks.cpg/sg33_1_cif.got.tgz:712.got - 2010.06.03 17:15:25.
