data_PCOD9345114
_publ_section_title
;
Structure prediction by ZEFSAII (Michael W. Deem and Ramdas Pophale) SiO2 
 PCOD9345114
Probable space group: P N A 21
;
_chemical_formula_sum "Si O2"
_cell_formula_units_Z 28
_cell_length_a 14.396693
_cell_length_b 7.946634
_cell_length_c 10.036410
_cell_angle_alpha 90.000000
_cell_angle_beta 90.000000
_cell_angle_gamma 90.000000
_cell_volume 1148.217996
_symmetry_space_group_name_H-M "P N A 21"
_symmetry_group_IT_number 33
_symmetry_cell_setting 'orthorhombic'
loop_
_space_group_symop_operation_xyz
x,y,z
-x,-y,1/2+z
1/2-x,1/2+y,1/2+z
1/2+x,1/2-y,z
loop_
_atom_site_type_symbol
_atom_site_label
_atom_site_fract_x
_atom_site_fract_y
_atom_site_fract_z
Si Si1 0.321207 0.199981 0.389880
Si Si2 0.096608 0.701565 0.366357
Si Si3 0.192998 0.194455 0.754637
Si Si4 0.963599 0.235162 0.590494
Si Si5 0.633405 0.442495 0.490499
Si Si6 0.156050 0.054341 0.007538
Si Si7 0.344294 0.056585 0.125600
O O1 0.389896 0.153483 0.510455
O O2 0.223282 0.107913 0.404867
O O3 0.304858 0.396496 0.419579
O O4 0.373440 0.162164 0.253556
O O5 0.199807 0.687473 0.299974
O O6 0.029031 0.693167 0.238800
O O7 0.094253 0.577132 0.493346
O O8 0.093715 0.885076 0.434188
O O9 0.167188 0.055006 0.644503
O O10 0.132198 0.181782 0.889769
O O11 0.176074 0.369097 0.677287
O O12 0.052025 0.195772 0.499420
O O13 0.917652 0.044800 0.597898
O O14 0.241853 0.127132 0.088042
#
# Coordination Sequence:
#
# PCOD9345114 Si02
#       7
#     4   4   4   4   4   4   4
#     4  10  20  42  62  96 127 173 224 281 334 406
#     4  11  23  40  65 100 136 175 230 278 341 422
#     4  11  20  39  65  93 125 178 215 275 343 394
#     4  10  23  42  64  98 133 171 238 278 336 419
#     4  12  22  38  72  93 131 183 219 283 346 405
#     4   9  20  38  61  89 124 166 224 273 324 404
#     4  11  20  39  67  89 132 174 220 272 348 402
#
# _framework density 24.385614
#
# number of rings (size 3 to 8) (size 9 to 14) (size 15 to 20)
#    0.857    0.571    5.714    0.857    2.000    0.000 
#    0.000    1.429    0.000    0.000    0.000    0.000 
#    0.000    0.000    0.000    0.000    0.000    0.000 
#
# Total GULP energy -156211.612980 kJ/mol
# GULP energy per Si atom -5578.986178 kJ/mol
# Density = 2.433011 g / cm^3
# Si number density = 24.385614 Si / 1000 Ang^3
#
#
#
# Elastic Constant Matrix: (Units=GPa)
#
#
# Indices 1 2 3 4 5 6 
#
# 1 62.5124 -3.9698 6.6097 0.0000 0.0000 0.0000
# 2 -3.9698 51.5780 25.8455 0.0000 0.0000 0.0000
# 3 6.6097 25.8455 166.1202 0.0000 0.0000 0.0000
# 4 0.0000 0.0000 0.0000 46.9625 0.0000 0.0000
# 5 0.0000 0.0000 0.0000 0.0000 18.6012 0.0000
# 6 0.0000 0.0000 0.0000 0.0000 0.0000 22.2630
#
#
#
# Elastic Compliance Matrix: (Units=1/GPa)
#
#
# Indices 1 2 3 4 5 6 
#
# 1 0.016201 0.001703 -0.000910 0.000000 0.000000 0.000000
# 2 0.001703 0.021206 -0.003367 0.000000 0.000000 0.000000
# 3 -0.000910 -0.003367 0.006580 0.000000 0.000000 0.000000
# 4 0.000000 0.000000 0.000000 0.021294 0.000000 0.000000
# 5 0.000000 0.000000 0.000000 0.000000 0.053760 0.000000
# 6 0.000000 0.000000 0.000000 0.000000 0.000000 0.044918
#
#
# Mechanical properties :
#
#
# Convention : Reuss Voigt Hill
#
# Bulk Modulus (GPa) = 25.74698 37.46460 31.60579
# Shear Modulus (GPa) = 27.46456 34.34702 30.90579
#
# Velocity S-wave (km/s) = 3.35962 3.75706 3.56389
# Velocity P-wave (km/s) = 5.06267 5.84957 5.47029
#
# Compressibility (1/GPa) = 0.03883950
#
# Stress axis : x y z
#
# Youngs Moduli (GPa) = 61.72410 47.15550 151.98043
#
# Poissons Ratio (x) = -0.08029 0.13823
# Poissons Ratio (y) = -0.10510 0.51174
# Poissons Ratio (z) = 0.05614 0.15878
#
# Static dielectric constant tensor:
#      x y z
#    x 2.000980 0.000000 0.000000 
#    y 0.000000 1.973500 0.000000 
#    z 0.000000 0.000000 1.952430 
# 
# From -- ./inp_files/4702.got.cif
#   From: 2010.05.17/outbox.cif.g08.bks.cpg/sg33_3_cif.got.tgz:4702.got - 2010.06.03 17:15:25.
