data_PCOD9345109
_publ_section_title
;
Structure prediction by ZEFSAII (Michael W. Deem and Ramdas Pophale) SiO2 
 PCOD9345109
Probable space group: P N A 21
;
_chemical_formula_sum "Si O2"
_cell_formula_units_Z 28
_cell_length_a 8.448802
_cell_length_b 29.710934
_cell_length_c 5.067088
_cell_angle_alpha 90.000000
_cell_angle_beta 90.000000
_cell_angle_gamma 90.000000
_cell_volume 1271.949543
_symmetry_space_group_name_H-M "P N A 21"
_symmetry_group_IT_number 33
_symmetry_cell_setting 'orthorhombic'
loop_
_space_group_symop_operation_xyz
x,y,z
-x,-y,1/2+z
1/2-x,1/2+y,1/2+z
1/2+x,1/2-y,z
loop_
_atom_site_type_symbol
_atom_site_label
_atom_site_fract_x
_atom_site_fract_y
_atom_site_fract_z
Si Si1 0.933257 0.799047 0.680190
Si Si2 0.265183 0.352550 0.170544
Si Si3 0.063034 0.525682 0.373732
Si Si4 0.606329 0.504643 0.064321
Si Si5 0.315157 0.908986 0.171742
Si Si6 0.851998 0.269034 0.862267
Si Si7 0.125085 0.277199 0.515317
O O1 0.047725 0.841351 0.692860
O O2 0.035186 0.757117 0.564838
O O3 0.773089 0.800287 0.511759
O O4 0.890854 0.776448 0.957532
O O5 0.202473 0.388761 0.381393
O O6 0.178323 0.307363 0.272308
O O7 0.228664 0.371164 0.883308
O O8 0.246315 0.525688 0.460143
O O9 0.965927 0.510163 0.635472
O O10 0.984476 0.570486 0.254860
O O11 0.504449 0.485992 0.309920
O O12 0.692510 0.549378 0.175030
O O13 0.965691 0.293286 0.653559
O O14 0.767643 0.226751 0.719911
#
# Coordination Sequence:
#
# PCOD9345109 Si02
#       7
#     4   4   4   4   4   4   4
#     4  11  21  38  61  88 119 178 228 276 320 395
#     4  12  24  40  65  91 138 168 215 291 329 377
#     4  10  20  41  71  98 129 174 216 248 305 421
#     4  11  22  42  75 101 130 169 215 263 317 411
#     4  11  25  43  64 102 130 171 213 265 347 391
#     4  10  21  36  61  85 117 156 255 264 315 384
#     4  11  21  38  61  89 115 178 228 273 319 395
#
# _framework density 22.013449000000001
#
# number of rings (size 3 to 8) (size 9 to 14) (size 15 to 20)
#    0.000    1.143    2.857    5.143    4.000    0.000 
#    0.000    4.286    0.000    0.000    0.000    0.000 
#    0.000    0.000    0.000    0.000    0.000    0.000 
#
# Total GULP energy -156325.531119 kJ/mol
# GULP energy per Si atom -5583.054683 kJ/mol
# Density = 2.196335 g / cm^3
# Si number density = 22.013449 Si / 1000 Ang^3
#
#
#
# Elastic Constant Matrix: (Units=GPa)
#
#
# Indices 1 2 3 4 5 6 
#
# 1 124.0803 10.2081 33.3422 0.0000 0.0000 0.0000
# 2 10.2081 31.9057 0.6490 0.0000 0.0000 0.0000
# 3 33.3422 0.6490 90.8432 0.0000 0.0000 0.0000
# 4 0.0000 0.0000 0.0000 39.0482 0.0000 0.0000
# 5 0.0000 0.0000 0.0000 0.0000 49.2642 0.0000
# 6 0.0000 0.0000 0.0000 0.0000 0.0000 24.7582
#
#
#
# Elastic Compliance Matrix: (Units=1/GPa)
#
#
# Indices 1 2 3 4 5 6 
#
# 1 0.009197 -0.002874 -0.003355 0.000000 0.000000 0.000000
# 2 -0.002874 0.032245 0.000825 0.000000 0.000000 0.000000
# 3 -0.003355 0.000825 0.012234 0.000000 0.000000 0.000000
# 4 0.000000 0.000000 0.000000 0.025609 0.000000 0.000000
# 5 0.000000 0.000000 0.000000 0.000000 0.020299 0.000000
# 6 0.000000 0.000000 0.000000 0.000000 0.000000 0.040391
#
#
# Mechanical properties :
#
#
# Convention : Reuss Voigt Hill
#
# Bulk Modulus (GPa) = 23.32838 37.24752 30.28795
# Shear Modulus (GPa) = 30.28953 36.12279 33.20616
#
# Velocity S-wave (km/s) = 3.71341 4.05525 3.88809
# Velocity P-wave (km/s) = 5.38574 6.23569 5.82624
#
# Compressibility (1/GPa) = 0.04286624
#
# Stress axis : x y z
#
# Youngs Moduli (GPa) = 108.72688 31.01233 81.74255
#
# Poissons Ratio (x) = 0.08914 0.27426
# Poissons Ratio (y) = 0.31253 -0.06741
# Poissons Ratio (z) = 0.36480 -0.02557
#
# Static dielectric constant tensor:
#      x y z
#    x 1.831340 0.000000 0.000000 
#    y 0.000000 1.836200 0.000000 
#    z 0.000000 0.000000 1.837400 
# 
# From -- ./inp_files/553.got.cif
#   From: 2010.05.17/outbox.cif.g08.bks.cpg/sg33_1_cif.got.tgz:553.got - 2010.06.03 17:15:25.
