data_PCOD9345379
_publ_section_title
;
Structure prediction by ZEFSAII (Michael W. Deem and Ramdas Pophale) SiO2 
 PCOD9345379
Probable space group: P N A 21
;
_chemical_formula_sum "Si O2"
_cell_formula_units_Z 28
_cell_length_a 9.850912
_cell_length_b 5.411179
_cell_length_c 19.674653
_cell_angle_alpha 90.000000
_cell_angle_beta 90.000000
_cell_angle_gamma 90.000000
_cell_volume 1048.758325
_symmetry_space_group_name_H-M "P N A 21"
_symmetry_group_IT_number 33
_symmetry_cell_setting 'orthorhombic'
loop_
_space_group_symop_operation_xyz
x,y,z
-x,-y,1/2+z
1/2-x,1/2+y,1/2+z
1/2+x,1/2-y,z
loop_
_atom_site_type_symbol
_atom_site_label
_atom_site_fract_x
_atom_site_fract_y
_atom_site_fract_z
Si Si1 0.744966 0.954158 0.966490
Si Si2 0.807368 0.249073 0.186416
Si Si3 0.445850 0.713111 0.783745
Si Si4 0.514563 0.689836 0.020839
Si Si5 0.306525 0.545673 0.410852
Si Si6 0.305446 0.257077 0.648517
Si Si7 0.378895 0.212211 0.805706
O O1 0.744462 0.740810 0.907940
O O2 0.854352 0.830067 0.016665
O O3 0.775753 0.236482 0.950542
O O4 0.591689 0.936716 0.995249
O O5 0.701018 0.270456 0.248736
O O6 0.801058 0.515781 0.150821
O O7 0.949557 0.199977 0.221822
O O8 0.757159 0.017937 0.141866
O O9 0.447803 0.466942 0.828320
O O10 0.467440 0.970834 0.822306
O O11 0.581480 0.661229 0.094413
O O12 0.569914 0.498598 0.963430
O O13 0.269671 0.658698 0.336742
O O14 0.369479 0.237870 0.724436
#
# Coordination Sequence:
#
# PCOD9345379 Si02
#       7
#     4   4   4   4   4   4   4
#     4  10  25  44  71  98 137 186 233 288 344 425
#     4  10  22  39  60  93 133 166 212 270 337 399
#     4  10  21  40  60  93 130 169 213 269 336 396
#     4  10  26  45  72 101 140 183 236 289 352 423
#     4  10  24  45  68  99 139 183 234 284 353 415
#     4  10  23  41  69 100 133 177 225 284 346 409
#     4  10  21  44  64 100 130 180 221 286 336 415
#
# _framework density 26.698238
#
# number of rings (size 3 to 8) (size 9 to 14) (size 15 to 20)
#    0.857    1.143    0.000    1.714    4.000    4.571 
#   15.429    0.000    0.000    0.000    0.000    0.000 
#    0.000    0.000    0.000    0.000    0.000    0.000 
#
# Total GULP energy -156138.220176 kJ/mol
# GULP energy per Si atom -5576.365006 kJ/mol
# Density = 2.663747 g / cm^3
# Si number density = 26.698238 Si / 1000 Ang^3
#
#
#
# Elastic Constant Matrix: (Units=GPa)
#
#
# Indices 1 2 3 4 5 6 
#
# 1 59.8613 16.7265 6.6651 0.0000 0.0000 0.0000
# 2 16.7265 192.3498 0.2379 0.0000 0.0000 0.0000
# 3 6.6651 0.2379 95.1073 0.0000 0.0000 0.0000
# 4 0.0000 0.0000 0.0000 20.4422 0.0000 0.0000
# 5 0.0000 0.0000 0.0000 0.0000 29.8445 0.0000
# 6 0.0000 0.0000 0.0000 0.0000 0.0000 23.5618
#
#
#
# Elastic Compliance Matrix: (Units=1/GPa)
#
#
# Indices 1 2 3 4 5 6 
#
# 1 0.017258 -0.001499 -0.001206 0.000000 0.000000 0.000000
# 2 -0.001499 0.005329 0.000092 0.000000 0.000000 0.000000
# 3 -0.001206 0.000092 0.010599 0.000000 0.000000 0.000000
# 4 0.000000 0.000000 0.000000 0.048918 0.000000 0.000000
# 5 0.000000 0.000000 0.000000 0.000000 0.033507 0.000000
# 6 0.000000 0.000000 0.000000 0.000000 0.000000 0.042442
#
#
# Mechanical properties :
#
#
# Convention : Reuss Voigt Hill
#
# Bulk Modulus (GPa) = 35.76566 43.84193 39.80379
# Shear Modulus (GPa) = 28.96878 36.34897 32.65888
#
# Velocity S-wave (km/s) = 3.29758 3.69382 3.50131
# Velocity P-wave (km/s) = 5.28432 5.88637 5.59345
#
# Compressibility (1/GPa) = 0.02795978
#
# Stress axis : x y z
#
# Youngs Moduli (GPa) = 57.94255 187.64802 94.35116
#
# Poissons Ratio (x) = 0.28134 0.11376
# Poissons Ratio (y) = 0.08687 -0.00866
# Poissons Ratio (z) = 0.06986 -0.01721
#
# Static dielectric constant tensor:
#      x y z
#    x 2.164030 0.000000 0.000000 
#    y 0.000000 2.205050 0.000000 
#    z 0.000000 0.000000 2.177150 
# 
# From -- ./inp_files/9020.got.cif
#   From: 2010.05.17/outbox.cif.g08.bks.cpg/sg33_5_cif.got.tgz:9020.got - 2010.06.03 17:15:25.
