data_PCOD9345225
_publ_section_title
;
Structure prediction by ZEFSAII (Michael W. Deem and Ramdas Pophale) SiO2 
 PCOD9345225
Probable space group: P N A 21
;
_chemical_formula_sum "Si O2"
_cell_formula_units_Z 32
_cell_length_a 5.637041
_cell_length_b 20.863524
_cell_length_c 9.704083
_cell_angle_alpha 90.000000
_cell_angle_beta 90.000000
_cell_angle_gamma 90.000000
_cell_volume 1141.283036
_symmetry_space_group_name_H-M "P N A 21"
_symmetry_group_IT_number 33
_symmetry_cell_setting 'orthorhombic'
loop_
_space_group_symop_operation_xyz
x,y,z
-x,-y,1/2+z
1/2-x,1/2+y,1/2+z
1/2+x,1/2-y,z
loop_
_atom_site_type_symbol
_atom_site_label
_atom_site_fract_x
_atom_site_fract_y
_atom_site_fract_z
Si Si1 0.992339 0.451411 0.905080
Si Si2 0.236410 0.922344 0.904971
Si Si3 0.719735 0.140714 0.107076
Si Si4 0.730892 0.332939 0.176633
Si Si5 0.907382 0.321537 0.489311
Si Si6 0.093421 0.773192 0.238799
Si Si7 0.879728 0.901048 0.210740
Si Si8 0.151940 0.024417 0.236619
O O1 0.124175 0.482959 0.776117
O O2 0.872380 0.516054 0.965387
O O3 0.789172 0.406488 0.842884
O O4 0.184892 0.411808 0.989355
O O5 0.293050 0.901261 0.747414
O O6 0.339791 0.858263 0.974140
O O7 0.970667 0.947162 0.876557
O O8 0.480386 0.182857 0.105095
O O9 0.964566 0.179903 0.122626
O O10 0.780771 0.314316 0.338810
O O11 0.719475 0.411153 0.159134
O O12 0.926420 0.258737 0.584957
O O13 0.757352 0.368910 0.585407
O O14 0.340740 0.749335 0.301686
O O15 0.084669 0.849602 0.240698
O O16 0.969897 0.972097 0.180092
#
# Coordination Sequence:
#
# PCOD9345225 Si02
#       8
#     4   4   4   4   4   4   4   4
#     4  11  22  38  58  90 139 191 224 281 351 453
#     4   9  21  36  55  94 127 180 229 278 348 430
#     4  10  22  39  55  88 135 178 226 272 336 447
#     4  10  22  39  60  95 130 183 227 277 358 432
#     4  10  21  44  68  94 139 180 236 310 360 424
#     4  10  24  45  66 101 132 176 239 309 371 411
#     4  10  25  40  62 100 135 187 233 300 370 431
#     4  10  21  37  56  92 137 183 224 275 348 444
#
# _framework density 28.038618
#
# number of rings (size 3 to 8) (size 9 to 14) (size 15 to 20)
#    0.000    2.000    2.500    0.000   12.250    6.000 
#    4.500    0.000    0.000    0.000    0.000   49.000 
#    0.000    0.000    0.000    0.000    0.000    0.000 
#
# Total GULP energy -178910.927451 kJ/mol
# GULP energy per Si atom -5590.966483 kJ/mol
# Density = 2.797480 g / cm^3
# Si number density = 28.038618 Si / 1000 Ang^3
#
#
#
# Elastic Constant Matrix: (Units=GPa)
#
#
# Indices 1 2 3 4 5 6 
#
# 1 179.6282 42.1358 26.7084 0.0000 0.0000 0.0000
# 2 42.1358 176.1491 39.6520 0.0000 0.0000 0.0000
# 3 26.7084 39.6520 96.0941 0.0000 0.0000 0.0000
# 4 0.0000 0.0000 0.0000 38.7939 0.0000 0.0000
# 5 0.0000 0.0000 0.0000 0.0000 31.3311 0.0000
# 6 0.0000 0.0000 0.0000 0.0000 0.0000 12.8864
#
#
#
# Elastic Compliance Matrix: (Units=1/GPa)
#
#
# Indices 1 2 3 4 5 6 
#
# 1 0.006019 -0.001172 -0.001189 0.000000 0.000000 0.000000
# 2 -0.001172 0.006487 -0.002351 0.000000 0.000000 0.000000
# 3 -0.001189 -0.002351 0.011707 0.000000 0.000000 0.000000
# 4 0.000000 0.000000 0.000000 0.025777 0.000000 0.000000
# 5 0.000000 0.000000 0.000000 0.000000 0.031917 0.000000
# 6 0.000000 0.000000 0.000000 0.000000 0.000000 0.077601
#
#
# Mechanical properties :
#
#
# Convention : Reuss Voigt Hill
#
# Bulk Modulus (GPa) = 67.62156 74.31820 70.96988
# Shear Modulus (GPa) = 28.75849 39.49397 34.12623
#
# Velocity S-wave (km/s) = 3.20609 3.75715 3.49250
# Velocity P-wave (km/s) = 6.15427 6.73682 6.45212
#
# Compressibility (1/GPa) = 0.01478818
#
# Stress axis : x y z
#
# Youngs Moduli (GPa) = 166.14599 154.16520 85.41860
#
# Poissons Ratio (x) = 0.18069 0.10158
# Poissons Ratio (y) = 0.19473 0.20081
# Poissons Ratio (z) = 0.19759 0.36242
#
# Static dielectric constant tensor:
#      x y z
#    x 2.362590 0.000000 0.000000 
#    y 0.000000 2.148950 0.000000 
#    z 0.000000 0.000000 2.249320 
# 
# From -- ./inp_files/5626.got.cif
#   From: 2010.05.17/outbox.cif.g08.bks.cpg/sg33_3_cif.got.tgz:5626.got - 2010.06.03 17:15:25.
