data_PCOD9345803
_publ_section_title
;
Structure prediction by ZEFSAII (Michael W. Deem and Ramdas Pophale) SiO2 
 PCOD9345803
Probable space group: P N A 21
;
_chemical_formula_sum "Si O2"
_cell_formula_units_Z 28
_cell_length_a 18.772664
_cell_length_b 8.147452
_cell_length_c 8.417262
_cell_angle_alpha 90.000000
_cell_angle_beta 90.000000
_cell_angle_gamma 90.000000
_cell_volume 1287.414995
_symmetry_space_group_name_H-M "P N A 21"
_symmetry_group_IT_number 33
_symmetry_cell_setting 'orthorhombic'
loop_
_space_group_symop_operation_xyz
x,y,z
-x,-y,1/2+z
1/2-x,1/2+y,1/2+z
1/2+x,1/2-y,z
loop_
_atom_site_type_symbol
_atom_site_label
_atom_site_fract_x
_atom_site_fract_y
_atom_site_fract_z
Si Si1 0.129915 0.830270 0.310990
Si Si2 0.991819 0.867143 0.468308
Si Si3 0.037801 0.467435 0.095846
Si Si4 0.608447 0.016600 0.438955
Si Si5 0.183100 0.139958 0.507658
Si Si6 0.657467 0.792743 0.978385
Si Si7 0.102187 0.944536 0.750274
O O1 0.147370 0.659812 0.406947
O O2 0.043895 0.828119 0.320267
O O3 0.151505 0.000172 0.391886
O O4 0.158812 0.822875 0.134282
O O5 0.948878 0.707323 0.514620
O O6 0.044055 0.902746 0.615662
O O7 0.941081 0.008140 0.407964
O O8 0.063698 0.456392 0.276555
O O9 0.088047 0.597323 0.008303
O O10 0.953571 0.502003 0.072163
O O11 0.657985 0.174758 0.467762
O O12 0.267326 0.117932 0.493218
O O13 0.150586 0.088545 0.678309
O O14 0.650613 0.704358 0.809359
#
# Coordination Sequence:
#
# PCOD9345803 Si02
#       7
#     4   4   4   4   4   4   4
#     4   9  23  46  67  97 135 176 232 285 345 415
#     4  10  22  42  69 104 131 175 232 296 351 397
#     4  10  23  40  70  98 131 171 234 292 344 393
#     4  10  23  44  70  99 135 175 233 291 341 409
#     4  11  27  46  68  96 146 191 220 284 362 423
#     4  11  25  45  67 101 140 179 235 282 350 435
#     4  11  25  41  71 101 140 179 238 286 355 420
#
# _framework density 21.749009999999998
#
# number of rings (size 3 to 8) (size 9 to 14) (size 15 to 20)
#    0.000    1.714    0.000    1.714   20.000    1.143 
#    7.714    0.000    0.000    0.000    0.000    0.000 
#    0.000    0.000    0.000    0.000    0.000    0.000 
#
# Total GULP energy -156281.327764 kJ/mol
# GULP energy per Si atom -5581.475992 kJ/mol
# Density = 2.169951 g / cm^3
# Si number density = 21.749010 Si / 1000 Ang^3
#
#
#
# Elastic Constant Matrix: (Units=GPa)
#
#
# Indices 1 2 3 4 5 6 
#
# 1 40.1372 16.9147 10.3797 0.0000 0.0000 0.0000
# 2 16.9147 76.4382 9.7972 0.0000 0.0000 0.0000
# 3 10.3797 9.7972 62.4120 0.0000 0.0000 0.0000
# 4 0.0000 0.0000 0.0000 28.3169 0.0000 0.0000
# 5 0.0000 0.0000 0.0000 0.0000 14.3272 0.0000
# 6 0.0000 0.0000 0.0000 0.0000 0.0000 18.8350
#
#
#
# Elastic Compliance Matrix: (Units=1/GPa)
#
#
# Indices 1 2 3 4 5 6 
#
# 1 0.028335 -0.005783 -0.003805 0.000000 0.000000 0.000000
# 2 -0.005783 0.014531 -0.001319 0.000000 0.000000 0.000000
# 3 -0.003805 -0.001319 0.016862 0.000000 0.000000 0.000000
# 4 0.000000 0.000000 0.000000 0.035315 0.000000 0.000000
# 5 0.000000 0.000000 0.000000 0.000000 0.069797 0.000000
# 6 0.000000 0.000000 0.000000 0.000000 0.000000 0.053093
#
#
# Mechanical properties :
#
#
# Convention : Reuss Voigt Hill
#
# Bulk Modulus (GPa) = 26.37430 28.13007 27.25218
# Shear Modulus (GPa) = 19.81099 21.75555 20.78327
#
# Velocity S-wave (km/s) = 3.02137 3.16618 3.09463
# Velocity P-wave (km/s) = 4.93200 5.13111 5.03254
#
# Compressibility (1/GPa) = 0.03791570
#
# Stress axis : x y z
#
# Youngs Moduli (GPa) = 35.29161 68.81760 59.30349
#
# Poissons Ratio (x) = 0.39794 0.22563
# Poissons Ratio (y) = 0.20408 0.07824
# Poissons Ratio (z) = 0.13427 0.09079
#
# Static dielectric constant tensor:
#      x y z
#    x 1.824360 0.000000 0.000000 
#    y 0.000000 1.847570 0.000000 
#    z 0.000000 0.000000 1.845410 
# 
# From -- ./inp_files/4701.got.cif
#   From: 2010.05.17/outbox.cif.g08.bks.cpg/sg33_3_cif.got.tgz:4701.got - 2010.06.03 17:15:25.
