data_PCOD9345593
_publ_section_title
;
Structure prediction by ZEFSAII (Michael W. Deem and Ramdas Pophale) SiO2 
 PCOD9345593
Probable space group: P N A 21
;
_chemical_formula_sum "Si O2"
_cell_formula_units_Z 28
_cell_length_a 20.098907
_cell_length_b 5.244568
_cell_length_c 8.929017
_cell_angle_alpha 90.000000
_cell_angle_beta 90.000000
_cell_angle_gamma 90.000000
_cell_volume 941.208436
_symmetry_space_group_name_H-M "P N A 21"
_symmetry_group_IT_number 33
_symmetry_cell_setting 'orthorhombic'
loop_
_space_group_symop_operation_xyz
x,y,z
-x,-y,1/2+z
1/2-x,1/2+y,1/2+z
1/2+x,1/2-y,z
loop_
_atom_site_type_symbol
_atom_site_label
_atom_site_fract_x
_atom_site_fract_y
_atom_site_fract_z
Si Si1 0.153303 0.565099 0.426850
Si Si2 0.624147 0.933611 0.944956
Si Si3 0.473044 0.439498 0.145782
Si Si4 0.121323 0.067154 0.152086
Si Si5 0.840260 0.934170 0.115232
Si Si6 0.239550 0.951750 0.376968
Si Si7 0.020072 0.439603 0.438454
O O1 0.155225 0.349460 0.550914
O O2 0.225155 0.646791 0.362247
O O3 0.086269 0.493138 0.340211
O O4 0.137648 0.838805 0.500351
O O5 0.626253 0.192218 0.042591
O O6 0.629979 0.688308 0.052010
O O7 0.687549 0.955449 0.835645
O O8 0.552155 0.934737 0.864188
O O9 0.546362 0.459955 0.221810
O O10 0.401591 0.511035 0.227989
O O11 0.480523 0.173601 0.056015
O O12 0.475631 0.678319 0.030496
O O13 0.183536 0.077375 0.269290
O O14 0.764442 0.982614 0.056185
#
# Coordination Sequence:
#
# PCOD9345593 Si02
#       7
#     4   4   4   4   4   4   4
#     4   8  16  28  52  75  97 132 178 216 272 325
#     4  10  22  35  56  78 113 152 183 236 275 326
#     4   8  14  30  49  74  97 131 168 221 260 325
#     4  10  22  35  56  82 110 147 197 217 279 346
#     4   8  16  28  52  75  99 134 172 223 277 314
#     4  10  22  34  60  79 113 149 189 232 279 329
#     4   8  14  30  49  71  99 135 169 211 272 317
#
# _framework density 29.748991
#
# number of rings (size 3 to 8) (size 9 to 14) (size 15 to 20)
#    0.857    2.286    0.000    0.000    4.000    0.000 
#    0.000    0.000    3.143    5.143    0.000    0.000 
#    0.000    0.000    0.000    0.000    0.000    0.000 
#
# Total GULP energy -155900.295711 kJ/mol
# GULP energy per Si atom -5567.867704 kJ/mol
# Density = 2.968128 g / cm^3
# Si number density = 29.748991 Si / 1000 Ang^3
#
#
#
# Elastic Constant Matrix: (Units=GPa)
#
#
# Indices 1 2 3 4 5 6 
#
# 1 103.5949 -39.7827 2.1454 0.0000 0.0000 0.0000
# 2 -39.7827 173.2217 20.1165 0.0000 0.0000 0.0000
# 3 2.1454 20.1165 86.5923 0.0000 0.0000 0.0000
# 4 0.0000 0.0000 0.0000 14.8357 0.0000 0.0000
# 5 0.0000 0.0000 0.0000 0.0000 38.4957 0.0000
# 6 0.0000 0.0000 0.0000 0.0000 0.0000 39.9463
#
#
#
# Elastic Compliance Matrix: (Units=1/GPa)
#
#
# Indices 1 2 3 4 5 6 
#
# 1 0.010648 0.002545 -0.000855 0.000000 0.000000 0.000000
# 2 0.002545 0.006541 -0.001583 0.000000 0.000000 0.000000
# 3 -0.000855 -0.001583 0.011937 0.000000 0.000000 0.000000
# 4 0.000000 0.000000 0.000000 0.067405 0.000000 0.000000
# 5 0.000000 0.000000 0.000000 0.000000 0.025977 0.000000
# 6 0.000000 0.000000 0.000000 0.000000 0.000000 0.025034
#
#
# Mechanical properties :
#
#
# Convention : Reuss Voigt Hill
#
# Bulk Modulus (GPa) = 34.08257 36.48526 35.28392
# Shear Modulus (GPa) = 31.82532 44.05086 37.93809
#
# Velocity S-wave (km/s) = 3.27432 3.85223 3.57497
# Velocity P-wave (km/s) = 5.07705 5.66367 5.37837
#
# Compressibility (1/GPa) = 0.02934051
#
# Stress axis : x y z
#
# Youngs Moduli (GPa) = 93.91503 152.87771 83.77161
#
# Poissons Ratio (x) = -0.38903 0.07162
# Poissons Ratio (y) = -0.23899 0.13258
# Poissons Ratio (z) = 0.08030 0.24195
#
# Static dielectric constant tensor:
#      x y z
#    x 3.295490 0.000000 0.000000 
#    y 0.000000 2.316840 0.000000 
#    z 0.000000 0.000000 2.561740 
# 
# From -- ./inp_files/7296.got.cif
#   From: 2010.05.17/outbox.cif.g08.bks.cpg/sg33_4_cif.got.tgz:7296.got - 2010.06.03 17:15:25.
