data_PCOD9345679
_publ_section_title
;
Structure prediction by ZEFSAII (Michael W. Deem and Ramdas Pophale) SiO2 
 PCOD9345679
Probable space group: P N A 21
;
_chemical_formula_sum "Si O2"
_cell_formula_units_Z 32
_cell_length_a 16.239018
_cell_length_b 7.927318
_cell_length_c 11.546968
_cell_angle_alpha 90.000000
_cell_angle_beta 90.000000
_cell_angle_gamma 90.000000
_cell_volume 1486.462664
_symmetry_space_group_name_H-M "P N A 21"
_symmetry_group_IT_number 33
_symmetry_cell_setting 'orthorhombic'
loop_
_space_group_symop_operation_xyz
x,y,z
-x,-y,1/2+z
1/2-x,1/2+y,1/2+z
1/2+x,1/2-y,z
loop_
_atom_site_type_symbol
_atom_site_label
_atom_site_fract_x
_atom_site_fract_y
_atom_site_fract_z
Si Si1 0.029551 0.068163 0.725520
Si Si2 0.595998 0.276272 0.200678
Si Si3 0.638962 0.194323 0.430736
Si Si4 0.183109 0.984401 0.576531
Si Si5 0.640225 0.937788 0.157726
Si Si6 0.306679 0.182294 0.895991
Si Si7 0.881893 0.882124 0.434728
Si Si8 0.456000 0.264881 0.497225
O O1 0.112111 0.984003 0.672866
O O2 0.966716 0.916537 0.744272
O O3 0.051621 0.176649 0.838978
O O4 0.990600 0.175343 0.622301
O O5 0.663032 0.265590 0.303535
O O6 0.573474 0.078413 0.193822
O O7 0.613781 0.323357 0.067603
O O8 0.674809 0.329162 0.520156
O O9 0.539097 0.200991 0.437509
O O10 0.666176 0.001393 0.445237
O O11 0.170658 0.838362 0.479776
O O12 0.272386 0.972610 0.633812
O O13 0.655928 0.811980 0.265702
O O14 0.611819 0.868383 0.034661
O O15 0.207812 0.167338 0.889830
O O16 0.907845 0.079536 0.439904
#
# Coordination Sequence:
#
# PCOD9345679 Si02
#       8
#     4   4   4   4   4   4   4   4
#     4  10  22  40  64  92 126 172 215 264 331 390
#     4  10  22  40  62  91 127 168 215 269 325 385
#     4  10  23  44  62  96 131 167 220 267 324 392
#     4  11  23  43  67  93 130 170 211 270 328 388
#     4  11  23  41  62  97 132 163 222 270 321 397
#     4  11  24  40  67  96 132 170 214 269 327 392
#     4  11  20  41  65  89 128 167 218 267 327 387
#     4  10  23  39  65  90 128 169 213 272 319 383
#
# _framework density 21.527618
#
# number of rings (size 3 to 8) (size 9 to 14) (size 15 to 20)
#    0.000    1.500    3.750    0.750    5.250    0.000 
#    2.250    0.000    0.000    0.000    0.000    0.000 
#    0.000    0.000    0.000    0.000    0.000    0.000 
#
# Total GULP energy -178284.966588 kJ/mol
# GULP energy per Si atom -5571.405206 kJ/mol
# Density = 2.147862 g / cm^3
# Si number density = 21.527618 Si / 1000 Ang^3
#
#
#
# Elastic Constant Matrix: (Units=GPa)
#
#
# Indices 1 2 3 4 5 6 
#
# 1 47.9296 1.8107 -4.8783 0.0000 0.0000 0.0000
# 2 1.8107 37.6828 3.5226 0.0000 0.0000 0.0000
# 3 -4.8783 3.5226 74.3541 0.0000 0.0000 0.0000
# 4 0.0000 0.0000 0.0000 18.6626 0.0000 0.0000
# 5 0.0000 0.0000 0.0000 0.0000 31.0779 0.0000
# 6 0.0000 0.0000 0.0000 0.0000 0.0000 10.1999
#
#
#
# Elastic Compliance Matrix: (Units=1/GPa)
#
#
# Indices 1 2 3 4 5 6 
#
# 1 0.021053 -0.001146 0.001436 0.000000 0.000000 0.000000
# 2 -0.001146 0.026718 -0.001341 0.000000 0.000000 0.000000
# 3 0.001436 -0.001341 0.013607 0.000000 0.000000 0.000000
# 4 0.000000 0.000000 0.000000 0.053583 0.000000 0.000000
# 5 0.000000 0.000000 0.000000 0.000000 0.032177 0.000000
# 6 0.000000 0.000000 0.000000 0.000000 0.000000 0.098041
#
#
# Mechanical properties :
#
#
# Convention : Reuss Voigt Hill
#
# Bulk Modulus (GPa) = 16.87039 17.87518 17.37278
# Shear Modulus (GPa) = 18.72380 22.62217 20.67298
#
# Velocity S-wave (km/s) = 2.95236 3.24519 3.10223
# Velocity P-wave (km/s) = 4.41311 4.72896 4.57376
#
# Compressibility (1/GPa) = 0.05927545
#
# Stress axis : x y z
#
# Youngs Moduli (GPa) = 47.49837 37.42836 73.49227
#
# Poissons Ratio (x) = 0.04289 -0.10550
# Poissons Ratio (y) = 0.05443 0.09855
# Poissons Ratio (z) = -0.06819 0.05019
#
# Static dielectric constant tensor:
#      x y z
#    x 1.805000 0.000000 0.000000 
#    y 0.000000 1.841510 0.000000 
#    z 0.000000 0.000000 1.887450 
# 
# From -- ./inp_files/6772.got.cif
#   From: 2010.05.17/outbox.cif.g08.bks.cpg/sg33_4_cif.got.tgz:6772.got - 2010.06.03 17:15:25.
