data_PCOD9345283
_publ_section_title
;
Structure prediction by ZEFSAII (Michael W. Deem and Ramdas Pophale) SiO2 
 PCOD9345283
Probable space group: P N A 21
;
_chemical_formula_sum "Si O2"
_cell_formula_units_Z 28
_cell_length_a 10.320049
_cell_length_b 5.458293
_cell_length_c 19.971768
_cell_angle_alpha 90.000000
_cell_angle_beta 90.000000
_cell_angle_gamma 90.000000
_cell_volume 1125.006720
_symmetry_space_group_name_H-M "P N A 21"
_symmetry_group_IT_number 33
_symmetry_cell_setting 'orthorhombic'
loop_
_space_group_symop_operation_xyz
x,y,z
-x,-y,1/2+z
1/2-x,1/2+y,1/2+z
1/2+x,1/2-y,z
loop_
_atom_site_type_symbol
_atom_site_label
_atom_site_fract_x
_atom_site_fract_y
_atom_site_fract_z
Si Si1 0.940666 0.721609 0.175810
Si Si2 0.341463 0.989320 0.981902
Si Si3 0.833403 0.960090 0.356256
Si Si4 0.246652 0.543416 0.825890
Si Si5 0.951724 0.784702 0.715855
Si Si6 0.074551 0.981041 0.450405
Si Si7 0.825386 0.067534 0.606904
O O1 0.989953 0.485512 0.217198
O O2 0.053427 0.756098 0.119848
O O3 0.802034 0.666152 0.144820
O O4 0.947737 0.989497 0.209400
O O5 0.290198 0.012967 0.905766
O O6 0.405579 0.250599 0.999065
O O7 0.430613 0.748691 0.983306
O O8 0.219450 0.960159 0.031022
O O9 0.804126 0.727859 0.309372
O O10 0.853115 0.232612 0.327826
O O11 0.956624 0.910037 0.402379
O O12 0.357391 0.638148 0.776166
O O13 0.301658 0.508679 0.901003
O O14 0.867930 0.822375 0.647014
#
# Coordination Sequence:
#
# PCOD9345283 Si02
#       7
#     4   4   4   4   4   4   4
#     4  10  25  41  65  93 131 164 225 260 332 382
#     4  10  23  37  60  87 124 159 215 255 325 376
#     4  10  21  38  62  90 122 163 206 265 315 384
#     4  10  21  40  60  92 121 162 210 257 320 383
#     4  10  24  40  65  94 131 170 219 270 329 388
#     4  10  22  38  60  89 123 162 210 260 323 375
#     4  10  26  42  66  95 132 174 221 269 330 392
#
# _framework density 24.888742000000001
#
# number of rings (size 3 to 8) (size 9 to 14) (size 15 to 20)
#    0.857    1.143    0.000    1.714    6.000    3.429 
#    0.000    0.000    0.000    0.000    0.000    0.000 
#    0.000    0.000    0.000    0.000    0.000    0.000 
#
# Total GULP energy -156440.203505 kJ/mol
# GULP energy per Si atom -5587.150125 kJ/mol
# Density = 2.483209 g / cm^3
# Si number density = 24.888742 Si / 1000 Ang^3
#
#
#
# Elastic Constant Matrix: (Units=GPa)
#
#
# Indices 1 2 3 4 5 6 
#
# 1 71.1813 17.6022 -0.2464 0.0000 0.0000 0.0000
# 2 17.6022 164.9790 27.0443 0.0000 0.0000 0.0000
# 3 -0.2464 27.0443 64.3574 0.0000 0.0000 0.0000
# 4 0.0000 0.0000 0.0000 19.8572 0.0000 0.0000
# 5 0.0000 0.0000 0.0000 0.0000 55.5685 0.0000
# 6 0.0000 0.0000 0.0000 0.0000 0.0000 12.8630
#
#
#
# Elastic Compliance Matrix: (Units=1/GPa)
#
#
# Indices 1 2 3 4 5 6 
#
# 1 0.014463 -0.001667 0.000756 0.000000 0.000000 0.000000
# 2 -0.001667 0.006702 -0.002823 0.000000 0.000000 0.000000
# 3 0.000756 -0.002823 0.016727 0.000000 0.000000 0.000000
# 4 0.000000 0.000000 0.000000 0.050360 0.000000 0.000000
# 5 0.000000 0.000000 0.000000 0.000000 0.017996 0.000000
# 6 0.000000 0.000000 0.000000 0.000000 0.000000 0.077742
#
#
# Mechanical properties :
#
#
# Convention : Reuss Voigt Hill
#
# Bulk Modulus (GPa) = 32.86766 43.25754 38.06260
# Shear Modulus (GPa) = 24.80161 34.73225 29.76693
#
# Velocity S-wave (km/s) = 3.16016 3.73969 3.46207
# Velocity P-wave (km/s) = 5.15267 6.00543 5.59532
#
# Compressibility (1/GPa) = 0.03042505
#
# Stress axis : x y z
#
# Youngs Moduli (GPa) = 69.13957 149.21018 59.78261
#
# Poissons Ratio (x) = 0.24874 -0.04519
# Poissons Ratio (y) = 0.11526 0.16875
# Poissons Ratio (z) = -0.05226 0.42117
#
# Static dielectric constant tensor:
#      x y z
#    x 1.939420 0.000000 0.000000 
#    y 0.000000 1.990340 0.000000 
#    z 0.000000 0.000000 2.024970 
# 
# From -- ./inp_files/9050.got.cif
#   From: 2010.05.17/outbox.cif.g08.bks.cpg/sg33_5_cif.got.tgz:9050.got - 2010.06.03 17:15:25.
