data_PCOD9345400
_publ_section_title
;
Structure prediction by ZEFSAII (Michael W. Deem and Ramdas Pophale) SiO2 
 PCOD9345400
Probable space group: P N A 21
;
_chemical_formula_sum "Si O2"
_cell_formula_units_Z 32
_cell_length_a 17.140841
_cell_length_b 4.866320
_cell_length_c 14.249386
_cell_angle_alpha 90.000000
_cell_angle_beta 90.000000
_cell_angle_gamma 90.000000
_cell_volume 1188.581432
_symmetry_space_group_name_H-M "P N A 21"
_symmetry_group_IT_number 33
_symmetry_cell_setting 'orthorhombic'
loop_
_space_group_symop_operation_xyz
x,y,z
-x,-y,1/2+z
1/2-x,1/2+y,1/2+z
1/2+x,1/2-y,z
loop_
_atom_site_type_symbol
_atom_site_label
_atom_site_fract_x
_atom_site_fract_y
_atom_site_fract_z
Si Si1 0.704459 0.716797 0.725590
Si Si2 0.730116 0.742419 0.120572
Si Si3 0.527365 0.212311 0.365282
Si Si4 0.659537 0.537362 0.464302
Si Si5 0.454816 0.700081 0.257682
Si Si6 0.807740 0.649255 0.375377
Si Si7 0.438731 0.136069 0.110571
Si Si8 0.415236 0.037449 0.531877
O O1 0.755407 0.451483 0.706457
O O2 0.616141 0.710314 0.685579
O O3 0.742953 0.948681 0.657259
O O4 0.701083 0.846240 0.828448
O O5 0.640804 0.763646 0.090024
O O6 0.787537 0.863854 0.039203
O O7 0.609289 0.321773 0.404433
O O8 0.501395 0.435582 0.289110
O O9 0.470684 0.193895 0.457069
O O10 0.508350 0.931526 0.311001
O O11 0.719922 0.715615 0.402749
O O12 0.602353 0.753364 0.516211
O O13 0.369391 0.705146 0.307117
O O14 0.440637 0.823627 0.152966
O O15 0.855234 0.639422 0.471268
O O16 0.530003 0.163676 0.091489
#
# Coordination Sequence:
#
# PCOD9345400 Si02
#       8
#     4   4   4   4   4   4   4   4
#     4  10  22  42  63  91 128 167 208 259 318 371
#     4  10  23  40  64  93 126 167 211 259 313 373
#     4  11  23  41  64  92 126 166 212 261 317 378
#     4  10  21  40  65  94 125 165 213 260 312 376
#     4  10  24  43  64  92 128 168 209 262 322 376
#     4   9  21  40  63  92 128 167 209 260 315 375
#     4  10  22  41  66  93 128 168 212 262 319 380
#     4  10  22  41  65  95 127 166 214 261 312 375
#
# _framework density 26.922851999999999
#
# number of rings (size 3 to 8) (size 9 to 14) (size 15 to 20)
#    0.000    2.000    0.000    2.250    0.000   17.000 
#    0.000    8.750    0.000    0.000    0.000    0.000 
#    0.000    0.000    0.000    0.000    0.000    0.000 
#
# Total GULP energy -179051.257500 kJ/mol
# GULP energy per Si atom -5595.351797 kJ/mol
# Density = 2.686157 g / cm^3
# Si number density = 26.922852 Si / 1000 Ang^3
#
#
#
# Elastic Constant Matrix: (Units=GPa)
#
#
# Indices 1 2 3 4 5 6 
#
# 1 174.2584 23.8118 54.9238 0.0000 0.0000 0.0000
# 2 23.8118 80.4015 32.5649 0.0000 0.0000 0.0000
# 3 54.9238 32.5649 99.3083 0.0000 0.0000 0.0000
# 4 0.0000 0.0000 0.0000 34.6419 0.0000 0.0000
# 5 0.0000 0.0000 0.0000 0.0000 37.7420 0.0000
# 6 0.0000 0.0000 0.0000 0.0000 0.0000 16.2600
#
#
#
# Elastic Compliance Matrix: (Units=1/GPa)
#
#
# Indices 1 2 3 4 5 6 
#
# 1 0.006974 -0.000580 -0.003667 0.000000 0.000000 0.000000
# 2 -0.000580 0.014391 -0.004398 0.000000 0.000000 0.000000
# 3 -0.003667 -0.004398 0.013540 0.000000 0.000000 0.000000
# 4 0.000000 0.000000 0.000000 0.028867 0.000000 0.000000
# 5 0.000000 0.000000 0.000000 0.000000 0.026496 0.000000
# 6 0.000000 0.000000 0.000000 0.000000 0.000000 0.061500
#
#
# Mechanical properties :
#
#
# Convention : Reuss Voigt Hill
#
# Bulk Modulus (GPa) = 56.77207 64.06324 60.41765
# Shear Modulus (GPa) = 28.58318 33.90663 31.24490
#
# Velocity S-wave (km/s) = 3.26186 3.55265 3.41036
# Velocity P-wave (km/s) = 5.94298 6.37771 6.16418
#
# Compressibility (1/GPa) = 0.01761430
#
# Stress axis : x y z
#
# Youngs Moduli (GPa) = 143.39936 69.48898 73.85703
#
# Poissons Ratio (x) = 0.04032 0.27080
# Poissons Ratio (y) = 0.08321 0.32483
# Poissons Ratio (z) = 0.52578 0.30562
#
# Static dielectric constant tensor:
#      x y z
#    x 2.056740 0.000000 0.000000 
#    y 0.000000 2.202470 0.000000 
#    z 0.000000 0.000000 2.163220 
# 
# From -- ./inp_files/8260.got.cif
#   From: 2010.05.17/outbox.cif.g08.bks.cpg/sg33_5_cif.got.tgz:8260.got - 2010.06.03 17:15:25.
