data_PCOD9345306
_publ_section_title
;
Structure prediction by ZEFSAII (Michael W. Deem and Ramdas Pophale) SiO2 
 PCOD9345306
Probable space group: P N A 21
;
_chemical_formula_sum "Si O2"
_cell_formula_units_Z 32
_cell_length_a 16.942290
_cell_length_b 4.979709
_cell_length_c 16.928662
_cell_angle_alpha 90.000000
_cell_angle_beta 90.000000
_cell_angle_gamma 90.000000
_cell_volume 1428.231837
_symmetry_space_group_name_H-M "P N A 21"
_symmetry_group_IT_number 33
_symmetry_cell_setting 'orthorhombic'
loop_
_space_group_symop_operation_xyz
x,y,z
-x,-y,1/2+z
1/2-x,1/2+y,1/2+z
1/2+x,1/2-y,z
loop_
_atom_site_type_symbol
_atom_site_label
_atom_site_fract_x
_atom_site_fract_y
_atom_site_fract_z
Si Si1 0.778070 0.072035 0.714650
Si Si2 0.680546 0.102411 0.124302
Si Si3 0.523452 0.637373 0.455013
Si Si4 0.690861 0.493857 0.511547
Si Si5 0.399489 0.580596 0.328676
Si Si6 0.792935 0.424485 0.369838
Si Si7 0.384701 0.824340 0.158039
Si Si8 0.475496 0.127127 0.550772
O O1 0.789932 0.378790 0.687903
O O2 0.688233 0.995681 0.687560
O O3 0.837683 0.875135 0.670363
O O4 0.773762 0.011747 0.806632
O O5 0.747548 0.174973 0.059982
O O6 0.610247 0.958731 0.078729
O O7 0.617542 0.617520 0.464684
O O8 0.483887 0.564683 0.371695
O O9 0.485387 0.430881 0.519595
O O10 0.500655 0.937708 0.478744
O O11 0.747416 0.346931 0.449387
O O12 0.650992 0.322623 0.581149
O O13 0.348043 0.316364 0.341727
O O14 0.404088 0.649472 0.235747
O O15 0.350110 0.817003 0.372446
O O16 0.464993 0.941294 0.122983
#
# Coordination Sequence:
#
# PCOD9345306 Si02
#       8
#     4   4   4   4   4   4   4   4
#     4  10  21  39  59  87 119 156 200 250 310 371
#     4  11  21  38  62  88 121 159 201 252 308 372
#     4  11  23  40  60  90 124 161 209 260 313 373
#     4  10  22  39  63  90 123 161 208 261 313 370
#     4  11  23  42  65  89 126 169 210 257 319 381
#     4  11  23  40  63  90 122 162 209 260 316 376
#     4   9  22  42  64  90 125 168 207 254 316 379
#     4  11  23  40  62  92 124 162 208 256 311 378
#
# _framework density 22.405325999999999
#
# number of rings (size 3 to 8) (size 9 to 14) (size 15 to 20)
#    0.000    1.500    0.000    6.000    0.000    9.000 
#    0.000    5.000    0.000    0.000    0.000    0.000 
#    0.000    0.000    0.000    0.000    0.000    0.000 
#
# Total GULP energy -178650.100631 kJ/mol
# GULP energy per Si atom -5582.815645 kJ/mol
# Density = 2.235433 g / cm^3
# Si number density = 22.405326 Si / 1000 Ang^3
#
#
#
# Elastic Constant Matrix: (Units=GPa)
#
#
# Indices 1 2 3 4 5 6 
#
# 1 51.3704 -2.9932 23.2462 0.0000 0.0000 0.0000
# 2 -2.9932 68.1539 3.3481 0.0000 0.0000 0.0000
# 3 23.2462 3.3481 114.2475 0.0000 0.0000 0.0000
# 4 0.0000 0.0000 0.0000 17.2136 0.0000 0.0000
# 5 0.0000 0.0000 0.0000 0.0000 31.7685 0.0000
# 6 0.0000 0.0000 0.0000 0.0000 0.0000 0.7768
#
#
#
# Elastic Compliance Matrix: (Units=1/GPa)
#
#
# Indices 1 2 3 4 5 6 
#
# 1 0.021532 0.001163 -0.004415 0.000000 0.000000 0.000000
# 2 0.001163 0.014757 -0.000669 0.000000 0.000000 0.000000
# 3 -0.004415 -0.000669 0.009671 0.000000 0.000000 0.000000
# 4 0.000000 0.000000 0.000000 0.058094 0.000000 0.000000
# 5 0.000000 0.000000 0.000000 0.000000 0.031478 0.000000
# 6 0.000000 0.000000 0.000000 0.000000 0.000000 1.287351
#
#
# Mechanical properties :
#
#
# Convention : Reuss Voigt Hill
#
# Bulk Modulus (GPa) = 26.23549 31.21932 28.72741
# Shear Modulus (GPa) = 3.46397 23.96316 13.71356
#
# Velocity S-wave (km/s) = 1.24475 3.27391 2.47668
# Velocity P-wave (km/s) = 3.71494 5.31559 4.58564
#
# Compressibility (1/GPa) = 0.03811630
#
# Stress axis : x y z
#
# Youngs Moduli (GPa) = 46.44207 67.76627 103.40273
#
# Poissons Ratio (x) = -0.07878 0.45655
# Poissons Ratio (y) = -0.05399 0.06918
# Poissons Ratio (z) = 0.20506 0.04534
#
# Static dielectric constant tensor:
#      x y z
#    x 1.863620 0.000000 0.000000 
#    y 0.000000 1.816720 0.000000 
#    z 0.000000 0.000000 1.878810 
# 
# From -- ./inp_files/8261.got.cif
#   From: 2010.05.17/outbox.cif.g08.bks.cpg/sg33_5_cif.got.tgz:8261.got - 2010.06.03 17:15:25.
