data_PCOD9345309
_publ_section_title
;
Structure prediction by ZEFSAII (Michael W. Deem and Ramdas Pophale) SiO2 
 PCOD9345309
Probable space group: P N A 21
;
_chemical_formula_sum "Si O2"
_cell_formula_units_Z 32
_cell_length_a 13.124234
_cell_length_b 13.484744
_cell_length_c 7.476834
_cell_angle_alpha 90.000000
_cell_angle_beta 90.000000
_cell_angle_gamma 90.000000
_cell_volume 1323.227170
_symmetry_space_group_name_H-M "P N A 21"
_symmetry_group_IT_number 33
_symmetry_cell_setting 'orthorhombic'
loop_
_space_group_symop_operation_xyz
x,y,z
-x,-y,1/2+z
1/2-x,1/2+y,1/2+z
1/2+x,1/2-y,z
loop_
_atom_site_type_symbol
_atom_site_label
_atom_site_fract_x
_atom_site_fract_y
_atom_site_fract_z
Si Si1 0.914540 0.941699 0.173570
Si Si2 0.841798 0.238510 0.395407
Si Si3 0.155015 0.623241 0.554053
Si Si4 0.404349 0.078548 0.584340
Si Si5 0.557854 0.093915 0.855814
Si Si6 0.953703 0.881872 0.789538
Si Si7 0.351877 0.712519 0.443974
Si Si8 0.776252 0.546467 0.861104
O O1 0.921238 0.844576 0.297766
O O2 0.823807 0.004501 0.262056
O O3 0.893924 0.912800 0.968842
O O4 0.009940 0.016270 0.191998
O O5 0.847648 0.318014 0.555047
O O6 0.748912 0.160652 0.396288
O O7 0.947895 0.177872 0.367348
O O8 0.835844 0.309035 0.224751
O O9 0.040842 0.621981 0.478919
O O10 0.236688 0.676282 0.423705
O O11 0.201045 0.512177 0.544820
O O12 0.516006 0.104944 0.656738
O O13 0.412789 0.017585 0.402105
O O14 0.362240 0.996484 0.725900
O O15 0.642456 0.171558 0.909934
O O16 0.894634 0.819248 0.639141
#
# Coordination Sequence:
#
# PCOD9345309 Si02
#       8
#     4   4   4   4   4   4   4   4
#     4  10  21  39  60 102 133 170 233 293 350 421
#     4  11  22  43  67  98 134 185 234 286 363 428
#     4  10  22  42  65  96 137 173 231 291 340 418
#     4  11  24  44  69  95 139 184 232 295 352 431
#     4  11  23  44  64  98 135 181 233 285 353 426
#     4  11  21  37  66  93 135 181 228 289 357 419
#     4  11  22  40  67  93 135 183 227 290 352 413
#     4   9  23  43  64 101 138 173 238 297 347 428
#
# _framework density 24.183299000000002
#
# number of rings (size 3 to 8) (size 9 to 14) (size 15 to 20)
#    0.000    1.500    2.500    2.250    1.750    0.000 
#    0.000   12.500    0.000    0.000    0.000    0.000 
#    0.000    0.000    0.000    0.000    0.000    0.000 
#
# Total GULP energy -178797.998422 kJ/mol
# GULP energy per Si atom -5587.437451 kJ/mol
# Density = 2.412826 g / cm^3
# Si number density = 24.183299 Si / 1000 Ang^3
#
#
#
# Elastic Constant Matrix: (Units=GPa)
#
#
# Indices 1 2 3 4 5 6 
#
# 1 52.0734 24.0194 -10.1655 0.0000 0.0000 0.0000
# 2 24.0194 150.6603 36.1520 0.0000 0.0000 0.0000
# 3 -10.1655 36.1520 93.3258 0.0000 0.0000 0.0000
# 4 0.0000 0.0000 0.0000 35.9672 0.0000 0.0000
# 5 0.0000 0.0000 0.0000 0.0000 28.6000 0.0000
# 6 0.0000 0.0000 0.0000 0.0000 0.0000 27.3226
#
#
#
# Elastic Compliance Matrix: (Units=1/GPa)
#
#
# Indices 1 2 3 4 5 6 
#
# 1 0.022101 -0.004521 0.004159 0.000000 0.000000 0.000000
# 2 -0.004521 0.008243 -0.003685 0.000000 0.000000 0.000000
# 3 0.004159 -0.003685 0.012596 0.000000 0.000000 0.000000
# 4 0.000000 0.000000 0.000000 0.027803 0.000000 0.000000
# 5 0.000000 0.000000 0.000000 0.000000 0.034965 0.000000
# 6 0.000000 0.000000 0.000000 0.000000 0.000000 0.036600
#
#
# Mechanical properties :
#
#
# Convention : Reuss Voigt Hill
#
# Bulk Modulus (GPa) = 28.69986 44.00792 36.35389
# Shear Modulus (GPa) = 30.86075 34.78153 32.82114
#
# Velocity S-wave (km/s) = 3.57616 3.79654 3.68799
# Velocity P-wave (km/s) = 5.38008 6.12008 5.76197
#
# Compressibility (1/GPa) = 0.03484338
#
# Stress axis : x y z
#
# Youngs Moduli (GPa) = 45.24661 121.32011 79.39138
#
# Poissons Ratio (x) = 0.54855 -0.33018
# Poissons Ratio (y) = 0.20458 0.29260
# Poissons Ratio (z) = -0.18817 0.44712
#
# Static dielectric constant tensor:
#      x y z
#    x 1.952050 0.000000 0.000000 
#    y 0.000000 1.961620 0.000000 
#    z 0.000000 0.000000 1.992060 
# 
# From -- ./inp_files/4448.got.cif
#   From: 2010.05.17/outbox.cif.g08.bks.cpg/sg33_3_cif.got.tgz:4448.got - 2010.06.03 17:15:25.
