data_PCOD9345877
_publ_section_title
;
Structure prediction by ZEFSAII (Michael W. Deem and Ramdas Pophale) SiO2 
 PCOD9345877
Probable space group: P N A 21
;
_chemical_formula_sum "Si O2"
_cell_formula_units_Z 28
_cell_length_a 11.300543
_cell_length_b 17.777194
_cell_length_c 5.375584
_cell_angle_alpha 90.000000
_cell_angle_beta 90.000000
_cell_angle_gamma 90.000000
_cell_volume 1079.911526
_symmetry_space_group_name_H-M "P N A 21"
_symmetry_group_IT_number 33
_symmetry_cell_setting 'orthorhombic'
loop_
_space_group_symop_operation_xyz
x,y,z
-x,-y,1/2+z
1/2-x,1/2+y,1/2+z
1/2+x,1/2-y,z
loop_
_atom_site_type_symbol
_atom_site_label
_atom_site_fract_x
_atom_site_fract_y
_atom_site_fract_z
Si Si1 0.457603 0.304905 0.462340
Si Si2 0.973474 0.661499 0.147144
Si Si3 0.400814 0.585138 0.273243
Si Si4 0.131258 0.928919 0.576900
Si Si5 0.682623 0.855390 0.545438
Si Si6 0.935635 0.500990 0.220949
Si Si7 0.747128 0.701929 0.388266
O O1 0.494907 0.217655 0.419754
O O2 0.568871 0.350311 0.578534
O O3 0.420763 0.365192 0.257936
O O4 0.349716 0.297553 0.663445
O O5 0.881724 0.711245 0.306599
O O6 0.091197 0.643771 0.308736
O O7 0.905780 0.583149 0.097511
O O8 0.339314 0.509584 0.180424
O O9 0.528490 0.558795 0.374304
O O10 0.313979 0.618898 0.473692
O O11 0.241570 0.883436 0.479718
O O12 0.639762 0.923725 0.720203
O O13 0.704107 0.765756 0.582784
O O14 0.033672 0.482491 0.007646
#
# Coordination Sequence:
#
# PCOD9345877 Si02
#       7
#     4   4   4   4   4   4   4
#     4  10  22  44  64  96 135 174 228 291 348 424
#     4  10  22  45  69  98 138 184 235 292 361 431
#     4  11  22  43  65 101 134 179 229 285 356 421
#     4  11  24  40  70  97 137 178 234 289 354 428
#     4  10  23  44  68  98 141 180 233 294 356 430
#     4  10  24  45  69 100 144 189 237 293 357 436
#     4  10  23  43  67  98 133 182 232 288 354 430
#
# _framework density 25.928049000000001
#
# number of rings (size 3 to 8) (size 9 to 14) (size 15 to 20)
#    0.000    1.714    2.857    0.000    4.000    4.571 
#    7.714    0.000    0.000    0.000    0.000    0.000 
#    0.000    0.000    0.000    0.000    0.000    0.000 
#
# Total GULP energy -156097.378949 kJ/mol
# GULP energy per Si atom -5574.906391 kJ/mol
# Density = 2.586904 g / cm^3
# Si number density = 25.928049 Si / 1000 Ang^3
#
#
#
# Elastic Constant Matrix: (Units=GPa)
#
#
# Indices 1 2 3 4 5 6 
#
# 1 50.5360 5.9718 8.8834 0.0000 0.0000 0.0000
# 2 5.9718 173.1409 10.4034 0.0000 0.0000 0.0000
# 3 8.8834 10.4034 30.5456 0.0000 0.0000 0.0000
# 4 0.0000 0.0000 0.0000 35.9003 0.0000 0.0000
# 5 0.0000 0.0000 0.0000 0.0000 19.8687 0.0000
# 6 0.0000 0.0000 0.0000 0.0000 0.0000 18.3905
#
#
#
# Elastic Compliance Matrix: (Units=1/GPa)
#
#
# Indices 1 2 3 4 5 6 
#
# 1 0.020876 -0.000363 -0.005948 0.000000 0.000000 0.000000
# 2 -0.000363 0.005903 -0.001905 0.000000 0.000000 0.000000
# 3 -0.005948 -0.001905 0.035116 0.000000 0.000000 0.000000
# 4 0.000000 0.000000 0.000000 0.027855 0.000000 0.000000
# 5 0.000000 0.000000 0.000000 0.000000 0.050330 0.000000
# 6 0.000000 0.000000 0.000000 0.000000 0.000000 0.054376
#
#
# Mechanical properties :
#
#
# Convention : Reuss Voigt Hill
#
# Bulk Modulus (GPa) = 21.99511 33.85997 27.92754
# Shear Modulus (GPa) = 22.11976 30.09616 26.10796
#
# Velocity S-wave (km/s) = 2.92399 3.41068 3.17667
# Velocity P-wave (km/s) = 4.46108 5.34770 4.92438
#
# Compressibility (1/GPa) = 0.04546464
#
# Stress axis : x y z
#
# Youngs Moduli (GPa) = 47.90129 169.41665 28.47665
#
# Poissons Ratio (x) = 0.06144 0.16937
# Poissons Ratio (y) = 0.01737 0.05424
# Poissons Ratio (z) = 0.28491 0.32272
#
# Static dielectric constant tensor:
#      x y z
#    x 2.020650 0.000000 0.000000 
#    y 0.000000 2.142370 0.000000 
#    z 0.000000 0.000000 2.121640 
# 
# From -- ./inp_files/900.got.cif
#   From: 2010.05.17/outbox.cif.g08.bks.cpg/sg33_1_cif.got.tgz:900.got - 2010.06.03 17:15:25.
