data_PCOD9345490
_publ_section_title
;
Structure prediction by ZEFSAII (Michael W. Deem and Ramdas Pophale) SiO2 
 PCOD9345490
Probable space group: P N A 21
;
_chemical_formula_sum "Si O2"
_cell_formula_units_Z 32
_cell_length_a 15.106072
_cell_length_b 12.031469
_cell_length_c 8.718143
_cell_angle_alpha 90.000000
_cell_angle_beta 90.000000
_cell_angle_gamma 90.000000
_cell_volume 1584.507120
_symmetry_space_group_name_H-M "P N A 21"
_symmetry_group_IT_number 33
_symmetry_cell_setting 'orthorhombic'
loop_
_space_group_symop_operation_xyz
x,y,z
-x,-y,1/2+z
1/2-x,1/2+y,1/2+z
1/2+x,1/2-y,z
loop_
_atom_site_type_symbol
_atom_site_label
_atom_site_fract_x
_atom_site_fract_y
_atom_site_fract_z
Si Si1 0.604930 0.451877 0.256550
Si Si2 0.100850 0.307438 0.285075
Si Si3 0.693782 0.682525 0.778165
Si Si4 0.894598 0.650623 0.145689
Si Si5 0.195815 0.844850 0.139974
Si Si6 0.062422 0.949374 0.569287
Si Si7 0.950489 0.261150 0.855344
Si Si8 0.916148 0.388747 0.145549
O O1 0.603495 0.321167 0.235804
O O2 0.682835 0.525813 0.186837
O O3 0.517876 0.496571 0.168236
O O4 0.598462 0.470323 0.438507
O O5 0.202268 0.342016 0.249713
O O6 0.086322 0.322106 0.467487
O O7 0.016160 0.363388 0.205176
O O8 0.636463 0.593474 0.685186
O O9 0.653838 0.802363 0.723486
O O10 0.679083 0.671514 0.959968
O O11 0.795234 0.690944 0.176519
O O12 0.896708 0.517682 0.169241
O O13 0.964815 0.705796 0.257879
O O14 0.126659 0.777409 0.241681
O O15 0.032213 0.841537 0.470833
O O16 0.917902 0.360283 0.964817
#
# Coordination Sequence:
#
# PCOD9345490 Si02
#       8
#     4   4   4   4   4   4   4   4
#     4  11  21  39  62  94 118 165 204 263 311 375
#     4  11  23  40  66  89 126 167 210 256 319 371
#     4  10  21  42  62  93 127 163 206 263 311 377
#     4  11  24  42  63  91 126 169 209 259 308 377
#     4  10  23  41  63  94 126 159 213 257 315 376
#     4  10  22  37  64  90 126 159 206 260 318 363
#     4  10  22  39  62  92 126 164 205 258 313 371
#     4  11  22  42  64  91 123 170 205 260 313 374
#
# _framework density 20.195553
#
# number of rings (size 3 to 8) (size 9 to 14) (size 15 to 20)
#    0.000    1.500    2.500    3.000    3.500    3.000 
#    2.250    7.500    0.000    0.000    0.000    0.000 
#    0.000    0.000    0.000    0.000    0.000    0.000 
#
# Total GULP energy -178729.453146 kJ/mol
# GULP energy per Si atom -5585.295411 kJ/mol
# Density = 2.014959 g / cm^3
# Si number density = 20.195553 Si / 1000 Ang^3
#
#
#
# Elastic Constant Matrix: (Units=GPa)
#
#
# Indices 1 2 3 4 5 6 
#
# 1 115.5258 30.3608 83.7142 0.0000 0.0000 0.0000
# 2 30.3608 27.5092 21.1372 0.0000 0.0000 0.0000
# 3 83.7142 21.1372 100.7029 0.0000 0.0000 0.0000
# 4 0.0000 0.0000 0.0000 20.3922 0.0000 0.0000
# 5 0.0000 0.0000 0.0000 0.0000 19.7010 0.0000
# 6 0.0000 0.0000 0.0000 0.0000 0.0000 26.5900
#
#
#
# Elastic Compliance Matrix: (Units=1/GPa)
#
#
# Indices 1 2 3 4 5 6 
#
# 1 0.025743 -0.014270 -0.018405 0.000000 0.000000 0.000000
# 2 -0.014270 0.051251 0.001105 0.000000 0.000000 0.000000
# 3 -0.018405 0.001105 0.024999 0.000000 0.000000 0.000000
# 4 0.000000 0.000000 0.000000 0.049038 0.000000 0.000000
# 5 0.000000 0.000000 0.000000 0.000000 0.050759 0.000000
# 6 0.000000 0.000000 0.000000 0.000000 0.000000 0.037608
#
#
# Mechanical properties :
#
#
# Convention : Reuss Voigt Hill
#
# Bulk Modulus (GPa) = 25.73793 57.12915 41.43354
# Shear Modulus (GPa) = 15.84836 20.57168 18.21002
#
# Velocity S-wave (km/s) = 2.80437 3.19505 3.00606
# Velocity P-wave (km/s) = 4.82266 6.47770 5.71045
#
# Compressibility (1/GPa) = 0.03885316
#
# Stress axis : x y z
#
# Youngs Moduli (GPa) = 38.84492 19.51163 40.00229
#
# Poissons Ratio (x) = 0.27843 0.73625
# Poissons Ratio (y) = 0.55431 -0.04420
# Poissons Ratio (z) = 0.71495 -0.02156
#
# Static dielectric constant tensor:
#      x y z
#    x 1.722200 0.000000 0.000000 
#    y 0.000000 1.748190 0.000000 
#    z 0.000000 0.000000 1.692790 
# 
# From -- ./inp_files/4373.got.cif
#   From: 2010.05.17/outbox.cif.g08.bks.cpg/sg33_3_cif.got.tgz:4373.got - 2010.06.03 17:15:25.
