data_PCOD9345084
_publ_section_title
;
Structure prediction by ZEFSAII (Michael W. Deem and Ramdas Pophale) SiO2 
 PCOD9345084
Probable space group: P N A 21
;
_chemical_formula_sum "Si O2"
_cell_formula_units_Z 20
_cell_length_a 13.212259
_cell_length_b 5.199541
_cell_length_c 14.400822
_cell_angle_alpha 90.000000
_cell_angle_beta 90.000000
_cell_angle_gamma 90.000000
_cell_volume 989.303096
_symmetry_space_group_name_H-M "P N A 21"
_symmetry_group_IT_number 33
_symmetry_cell_setting 'orthorhombic'
loop_
_space_group_symop_operation_xyz
x,y,z
-x,-y,1/2+z
1/2-x,1/2+y,1/2+z
1/2+x,1/2-y,z
loop_
_atom_site_type_symbol
_atom_site_label
_atom_site_fract_x
_atom_site_fract_y
_atom_site_fract_z
Si Si1 0.006593 0.913076 0.005790
Si Si2 0.112392 0.924885 0.688739
Si Si3 0.920689 0.592943 0.421289
Si Si4 0.721187 0.068863 0.749048
Si Si5 0.561288 0.561176 0.323495
O O1 0.952810 0.992177 0.099932
O O2 0.085626 0.137608 0.976832
O O3 0.056427 0.635602 0.992499
O O4 0.983262 0.341622 0.852726
O O5 0.032295 0.922695 0.773271
O O6 0.171164 0.655946 0.687440
O O7 0.189453 0.154897 0.710280
O O8 0.076763 0.069950 0.423242
O O9 0.828213 0.544242 0.352167
O O10 0.840949 0.055148 0.760695
#
# Coordination Sequence:
#
# PCOD9345084 Si02
#       5
#     4   4   4   4   4
#     4  10  20  41  59  84 125 152 193 253 289 345
#     4  11  23  40  59  92 120 154 204 245 292 360
#     4   9  19  39  59  82 115 160 188 246 293 350
#     4  11  21  39  62  85 119 162 198 243 301 352
#     4   9  23  39  63  83 125 156 195 245 305 345
#
# _framework density 20.216251
#
# number of rings (size 3 to 8) (size 9 to 14) (size 15 to 20)
#    1.200    0.800    2.000    1.200    2.800    0.000 
#    7.200    0.000    0.000    0.000    0.000    0.000 
#    0.000    0.000    0.000    0.000    0.000    0.000 
#
# Total GULP energy -111394.584035 kJ/mol
# GULP energy per Si atom -5569.729202 kJ/mol
# Density = 2.017024 g / cm^3
# Si number density = 20.216251 Si / 1000 Ang^3
#
#
#
# Elastic Constant Matrix: (Units=GPa)
#
#
# Indices 1 2 3 4 5 6 
#
# 1 41.6809 25.7016 -22.4685 0.0000 0.0000 0.0000
# 2 25.7016 81.3579 -10.9297 0.0000 0.0000 0.0000
# 3 -22.4685 -10.9297 42.9671 0.0000 0.0000 0.0000
# 4 0.0000 0.0000 0.0000 24.2973 0.0000 0.0000
# 5 0.0000 0.0000 0.0000 0.0000 4.7708 0.0000
# 6 0.0000 0.0000 0.0000 0.0000 0.0000 11.7250
#
#
#
# Elastic Compliance Matrix: (Units=1/GPa)
#
#
# Indices 1 2 3 4 5 6 
#
# 1 0.040244 -0.010236 0.018441 0.000000 0.000000 0.000000
# 2 -0.010236 0.015330 -0.001453 0.000000 0.000000 0.000000
# 3 0.018441 -0.001453 0.032547 0.000000 0.000000 0.000000
# 4 0.000000 0.000000 0.000000 0.041157 0.000000 0.000000
# 5 0.000000 0.000000 0.000000 0.000000 0.209607 0.000000
# 6 0.000000 0.000000 0.000000 0.000000 0.000000 0.085288
#
#
# Mechanical properties :
#
#
# Convention : Reuss Voigt Hill
#
# Bulk Modulus (GPa) = 9.84015 16.73475 13.28745
# Shear Modulus (GPa) = 11.24747 19.73881 15.49314
#
# Velocity S-wave (km/s) = 2.36128 3.12810 2.77134
# Velocity P-wave (km/s) = 3.50888 4.61980 4.10212
#
# Compressibility (1/GPa) = 0.10162442
#
# Stress axis : x y z
#
# Youngs Moduli (GPa) = 24.84818 65.23239 30.72470
#
# Poissons Ratio (x) = 0.66773 -0.56659
# Poissons Ratio (y) = 0.25435 0.04465
# Poissons Ratio (z) = -0.45822 0.09480
#
# Static dielectric constant tensor:
#      x y z
#    x 1.688830 0.000000 0.000000 
#    y 0.000000 1.739970 0.000000 
#    z 0.000000 0.000000 1.746010 
# 
# From -- ./inp_files/7778.got.cif
#   From: 2010.05.17/outbox.cif.g08.bks.cpg/sg33_4_cif.got.tgz:7778.got - 2010.06.03 17:15:25.
