data_PCOD9345129
_publ_section_title
;
Structure prediction by ZEFSAII (Michael W. Deem and Ramdas Pophale) SiO2 
 PCOD9345129
Probable space group: P N A 21
;
_chemical_formula_sum "Si O2"
_cell_formula_units_Z 32
_cell_length_a 7.505682
_cell_length_b 18.148170
_cell_length_c 9.115072
_cell_angle_alpha 90.000000
_cell_angle_beta 90.000000
_cell_angle_gamma 90.000000
_cell_volume 1241.603999
_symmetry_space_group_name_H-M "P N A 21"
_symmetry_group_IT_number 33
_symmetry_cell_setting 'orthorhombic'
loop_
_space_group_symop_operation_xyz
x,y,z
-x,-y,1/2+z
1/2-x,1/2+y,1/2+z
1/2+x,1/2-y,z
loop_
_atom_site_type_symbol
_atom_site_label
_atom_site_fract_x
_atom_site_fract_y
_atom_site_fract_z
Si Si1 0.614178 0.043872 0.897070
Si Si2 0.396948 0.126699 0.401684
Si Si3 0.522974 0.397157 0.543233
Si Si4 0.179657 0.786678 0.251155
Si Si5 0.456498 0.537163 0.362747
Si Si6 0.978428 0.827361 0.547206
Si Si7 0.538978 0.853824 0.203818
Si Si8 0.142839 0.331084 0.138325
O O1 0.825349 0.043827 0.857239
O O2 0.478548 0.065812 0.766461
O O3 0.572151 0.959782 0.925208
O O4 0.591816 0.102301 0.026978
O O5 0.187419 0.133789 0.444456
O O6 0.500585 0.161091 0.536548
O O7 0.490675 0.157543 0.260044
O O8 0.407743 0.331317 0.615614
O O9 0.424887 0.457190 0.437970
O O10 0.590593 0.442745 0.691918
O O11 0.073132 0.801497 0.398032
O O12 0.371541 0.817874 0.281092
O O13 0.201239 0.699186 0.235461
O O14 0.390022 0.596954 0.485989
O O15 0.143246 0.843638 0.658634
O O16 0.868648 0.756387 0.598640
#
# Coordination Sequence:
#
# PCOD9345129 Si02
#       8
#     4   4   4   4   4   4   4   4
#     4  10  20  45  68  89 128 178 228 273 322 405
#     4  11  26  40  62 101 139 169 218 281 343 402
#     4  10  21  45  65  98 137 175 223 273 341 410
#     4  11  21  41  72  94 128 174 229 276 329 415
#     4   9  20  42  68  98 135 174 221 280 336 413
#     4  10  20  42  68  90 127 171 226 273 327 401
#     4  12  22  42  68  98 129 175 221 280 338 403
#     4  11  22  43  65  94 129 172 220 278 332 393
#
# _framework density 25.773112000000001
#
# number of rings (size 3 to 8) (size 9 to 14) (size 15 to 20)
#    0.000    1.500    5.000    1.500    0.000    3.000 
#   15.750    0.000    0.000    0.000    0.000    0.000 
#    0.000    0.000    0.000    0.000    0.000    0.000 
#
# Total GULP energy -178469.983933 kJ/mol
# GULP energy per Si atom -5577.186998 kJ/mol
# Density = 2.571445 g / cm^3
# Si number density = 25.773112 Si / 1000 Ang^3
#
#
#
# Elastic Constant Matrix: (Units=GPa)
#
#
# Indices 1 2 3 4 5 6 
#
# 1 51.7611 4.0642 9.2804 0.0000 0.0000 0.0000
# 2 4.0642 82.0744 7.1912 0.0000 0.0000 0.0000
# 3 9.2804 7.1912 43.6430 0.0000 0.0000 0.0000
# 4 0.0000 0.0000 0.0000 18.8275 0.0000 0.0000
# 5 0.0000 0.0000 0.0000 0.0000 35.3437 0.0000
# 6 0.0000 0.0000 0.0000 0.0000 0.0000 23.7953
#
#
#
# Elastic Compliance Matrix: (Units=1/GPa)
#
#
# Indices 1 2 3 4 5 6 
#
# 1 0.020117 -0.000630 -0.004174 0.000000 0.000000 0.000000
# 2 -0.000630 0.012382 -0.001906 0.000000 0.000000 0.000000
# 3 -0.004174 -0.001906 0.024115 0.000000 0.000000 0.000000
# 4 0.000000 0.000000 0.000000 0.053114 0.000000 0.000000
# 5 0.000000 0.000000 0.000000 0.000000 0.028294 0.000000
# 6 0.000000 0.000000 0.000000 0.000000 0.000000 0.042025
#
#
# Mechanical properties :
#
#
# Convention : Reuss Voigt Hill
#
# Bulk Modulus (GPa) = 23.15176 24.28336 23.71756
# Shear Modulus (GPa) = 24.05393 26.05614 25.05504
#
# Velocity S-wave (km/s) = 3.05830 3.18304 3.12130
# Velocity P-wave (km/s) = 4.63394 4.79077 4.71300
#
# Compressibility (1/GPa) = 0.04319326
#
# Stress axis : x y z
#
# Youngs Moduli (GPa) = 49.70819 80.76041 41.46825
#
# Poissons Ratio (x) = 0.05092 0.17309
# Poissons Ratio (y) = 0.03134 0.07905
# Poissons Ratio (z) = 0.20748 0.15395
#
# Static dielectric constant tensor:
#      x y z
#    x 2.192870 0.000000 0.000000 
#    y 0.000000 2.190340 0.000000 
#    z 0.000000 0.000000 2.088050 
# 
# From -- ./inp_files/3516.got.cif
#   From: 2010.05.17/outbox.cif.g08.bks.cpg/sg33_2_cif.got.tgz:3516.got - 2010.06.03 17:15:25.
