data_PCOD9345018
_publ_section_title
;
Structure prediction by ZEFSAII (Michael W. Deem and Ramdas Pophale) SiO2 
 PCOD9345018
Probable space group: P N A 21
;
_chemical_formula_sum "Si O2"
_cell_formula_units_Z 32
_cell_length_a 12.510415
_cell_length_b 11.986745
_cell_length_c 9.435503
_cell_angle_alpha 90.000000
_cell_angle_beta 90.000000
_cell_angle_gamma 90.000000
_cell_volume 1414.940052
_symmetry_space_group_name_H-M "P N A 21"
_symmetry_group_IT_number 33
_symmetry_cell_setting 'orthorhombic'
loop_
_space_group_symop_operation_xyz
x,y,z
-x,-y,1/2+z
1/2-x,1/2+y,1/2+z
1/2+x,1/2-y,z
loop_
_atom_site_type_symbol
_atom_site_label
_atom_site_fract_x
_atom_site_fract_y
_atom_site_fract_z
Si Si1 0.899784 0.955124 0.201710
Si Si2 0.691166 0.695808 0.387209
Si Si3 0.215977 0.532355 0.975155
Si Si4 0.330039 0.721184 0.783774
Si Si5 0.885427 0.127769 0.578872
Si Si6 0.466446 0.172605 0.396462
Si Si7 0.163390 0.112352 0.992007
Si Si8 0.111702 0.804051 0.673038
O O1 0.785119 0.954041 0.120617
O O2 0.903180 0.888205 0.347132
O O3 0.993420 0.913905 0.101225
O O4 0.928036 0.081840 0.242020
O O5 0.771789 0.593840 0.421048
O O6 0.656974 0.679094 0.226343
O O7 0.736248 0.815211 0.436421
O O8 0.601349 0.677145 0.506372
O O9 0.278732 0.616974 0.868582
O O10 0.090575 0.566524 0.966578
O O11 0.409628 0.791080 0.886115
O O12 0.377142 0.670364 0.636566
O O13 0.235790 0.797171 0.720981
O O14 0.898110 0.229387 0.471752
O O15 0.819609 0.018284 0.531478
O O16 0.435820 0.189194 0.231290
#
# Coordination Sequence:
#
# PCOD9345018 Si02
#       8
#     4   4   4   4   4   4   4   4
#     4  11  22  37  62  95 127 161 214 273 321 385
#     4  10  23  41  60  88 133 165 208 270 328 395
#     4  10  21  40  65  88 127 167 211 266 329 384
#     4  10  20  39  60  94 124 164 218 259 324 393
#     4  12  23  36  66  98 125 169 220 271 328 388
#     4  11  21  38  65  92 122 170 212 267 321 391
#     4  11  23  38  61  92 130 166 209 275 325 384
#     4   9  21  35  61  89 122 162 204 263 316 376
#
# _framework density 22.615801999999999
#
# number of rings (size 3 to 8) (size 9 to 14) (size 15 to 20)
#    0.000    1.500    3.750    1.500    5.250    0.000 
#    0.000    0.000   11.000    1.500    0.000    0.000 
#    0.000    0.000    0.000    0.000    0.000    0.000 
#
# Total GULP energy -178208.489482 kJ/mol
# GULP energy per Si atom -5569.015296 kJ/mol
# Density = 2.256433 g / cm^3
# Si number density = 22.615802 Si / 1000 Ang^3
#
#
#
# Elastic Constant Matrix: (Units=GPa)
#
#
# Indices 1 2 3 4 5 6 
#
# 1 31.0734 -6.3843 2.2347 0.0000 0.0000 0.0000
# 2 -6.3843 16.2574 10.7739 0.0000 0.0000 0.0000
# 3 2.2347 10.7739 88.6965 0.0000 0.0000 0.0000
# 4 0.0000 0.0000 0.0000 32.9514 0.0000 0.0000
# 5 0.0000 0.0000 0.0000 0.0000 31.3633 0.0000
# 6 0.0000 0.0000 0.0000 0.0000 0.0000 23.8360
#
#
#
# Elastic Compliance Matrix: (Units=1/GPa)
#
#
# Indices 1 2 3 4 5 6 
#
# 1 0.035646 0.015871 -0.002826 0.000000 0.000000 0.000000
# 2 0.015871 0.073962 -0.009384 0.000000 0.000000 0.000000
# 3 -0.002826 -0.009384 0.012485 0.000000 0.000000 0.000000
# 4 0.000000 0.000000 0.000000 0.030348 0.000000 0.000000
# 5 0.000000 0.000000 0.000000 0.000000 0.031884 0.000000
# 6 0.000000 0.000000 0.000000 0.000000 0.000000 0.041953
#
#
# Mechanical properties :
#
#
# Convention : Reuss Voigt Hill
#
# Bulk Modulus (GPa) = 7.72708 16.58622 12.15665
# Shear Modulus (GPa) = 19.07708 26.25701 22.66705
#
# Velocity S-wave (km/s) = 2.90751 3.41105 3.16929
# Velocity P-wave (km/s) = 3.83348 4.78158 4.33353
#
# Compressibility (1/GPa) = 0.12941506
#
# Stress axis : x y z
#
# Youngs Moduli (GPa) = 28.05374 13.52053 80.09311
#
# Poissons Ratio (x) = -0.21458 0.22634
# Poissons Ratio (y) = -0.44524 0.75159
# Poissons Ratio (z) = 0.07928 0.12688
#
# Static dielectric constant tensor:
#      x y z
#    x 1.957070 0.000000 0.000000 
#    y 0.000000 1.874900 0.000000 
#    z 0.000000 0.000000 1.928240 
# 
# From -- ./inp_files/4398.got.cif
#   From: 2010.05.17/outbox.cif.g08.bks.cpg/sg33_3_cif.got.tgz:4398.got - 2010.06.03 17:15:25.
