data_PCOD9345475
_publ_section_title
;
Structure prediction by ZEFSAII (Michael W. Deem and Ramdas Pophale) SiO2 
 PCOD9345475
Probable space group: P N A 21
;
_chemical_formula_sum "Si O2"
_cell_formula_units_Z 32
_cell_length_a 4.948091
_cell_length_b 19.625058
_cell_length_c 12.597676
_cell_angle_alpha 90.000000
_cell_angle_beta 90.000000
_cell_angle_gamma 90.000000
_cell_volume 1223.317142
_symmetry_space_group_name_H-M "P N A 21"
_symmetry_group_IT_number 33
_symmetry_cell_setting 'orthorhombic'
loop_
_space_group_symop_operation_xyz
x,y,z
-x,-y,1/2+z
1/2-x,1/2+y,1/2+z
1/2+x,1/2-y,z
loop_
_atom_site_type_symbol
_atom_site_label
_atom_site_fract_x
_atom_site_fract_y
_atom_site_fract_z
Si Si1 0.559719 0.886929 0.037520
Si Si2 0.814845 0.589105 0.568240
Si Si3 0.430687 0.520360 0.901701
Si Si4 0.973213 0.205858 0.180817
Si Si5 0.669127 0.909209 0.381612
Si Si6 0.154800 0.199806 0.723227
Si Si7 0.892114 0.511930 0.209164
Si Si8 0.121683 0.796176 0.922016
O O1 0.742487 0.847662 0.125824
O O2 0.397561 0.947418 0.098999
O O3 0.306037 0.848367 0.986206
O O4 0.778188 0.915257 0.952581
O O5 0.057709 0.614396 0.493466
O O6 0.918119 0.550351 0.672885
O O7 0.674835 0.536535 0.486955
O O8 0.619799 0.649491 0.599317
O O9 0.727564 0.487808 0.892987
O O10 0.347686 0.520286 0.777098
O O11 0.783076 0.272748 0.170024
O O12 0.890899 0.182391 0.299253
O O13 0.842705 0.850121 0.325797
O O14 0.452965 0.925593 0.289924
O O15 0.367366 0.262657 0.720080
O O16 0.316008 0.729638 0.939800
#
# Coordination Sequence:
#
# PCOD9345475 Si02
#       8
#     4   4   4   4   4   4   4   4
#     4  10  21  41  67  99 126 176 226 274 339 406
#     4  10  22  40  64  91 124 168 221 266 332 401
#     4  10  22  43  63  96 131 170 221 283 334 404
#     4  10  23  41  63  92 128 167 215 272 329 396
#     4  10  24  42  64  98 129 175 225 276 342 401
#     4  11  26  45  71 101 140 181 227 285 340 408
#     4   9  21  42  62  93 131 166 217 274 337 394
#     4  10  21  42  62  94 131 167 218 274 335 400
#
# _framework density 26.158386
#
# number of rings (size 3 to 8) (size 9 to 14) (size 15 to 20)
#    0.000    2.000    0.000    1.500    7.000    4.000 
#   20.250    0.000    0.000    0.000    0.000    0.000 
#    0.000    0.000    0.000    0.000    0.000    0.000 
#
# Total GULP energy -178571.065402 kJ/mol
# GULP energy per Si atom -5580.345794 kJ/mol
# Density = 2.609885 g / cm^3
# Si number density = 26.158386 Si / 1000 Ang^3
#
#
#
# Elastic Constant Matrix: (Units=GPa)
#
#
# Indices 1 2 3 4 5 6 
#
# 1 74.0661 -7.0848 18.8114 0.0000 0.0000 0.0000
# 2 -7.0848 73.5417 32.7917 0.0000 0.0000 0.0000
# 3 18.8114 32.7917 93.3427 0.0000 0.0000 0.0000
# 4 0.0000 0.0000 0.0000 22.4837 0.0000 0.0000
# 5 0.0000 0.0000 0.0000 0.0000 15.7020 0.0000
# 6 0.0000 0.0000 0.0000 0.0000 0.0000 25.3844
#
#
#
# Elastic Compliance Matrix: (Units=1/GPa)
#
#
# Indices 1 2 3 4 5 6 
#
# 1 0.014869 0.003283 -0.004150 0.000000 0.000000 0.000000
# 2 0.003283 0.016848 -0.006580 0.000000 0.000000 0.000000
# 3 -0.004150 -0.006580 0.013861 0.000000 0.000000 0.000000
# 4 0.000000 0.000000 0.000000 0.044477 0.000000 0.000000
# 5 0.000000 0.000000 0.000000 0.000000 0.063686 0.000000
# 6 0.000000 0.000000 0.000000 0.000000 0.000000 0.039394
#
#
# Mechanical properties :
#
#
# Convention : Reuss Voigt Hill
#
# Bulk Modulus (GPa) = 32.59030 36.66523 34.62777
# Shear Modulus (GPa) = 22.90857 25.80951 24.35904
#
# Velocity S-wave (km/s) = 2.96254 3.14453 3.05489
# Velocity P-wave (km/s) = 4.91814 5.21834 5.07046
#
# Compressibility (1/GPa) = 0.03068397
#
# Stress axis : x y z
#
# Youngs Moduli (GPa) = 67.25183 59.35372 72.14342
#
# Poissons Ratio (x) = -0.19485 0.29939
# Poissons Ratio (y) = -0.22078 0.47473
# Poissons Ratio (z) = 0.27909 0.39057
#
# Static dielectric constant tensor:
#      x y z
#    x 2.231340 0.000000 0.000000 
#    y 0.000000 2.232060 0.000000 
#    z 0.000000 0.000000 2.110610 
# 
# From -- ./inp_files/5572.got.cif
#   From: 2010.05.17/outbox.cif.g08.bks.cpg/sg33_3_cif.got.tgz:5572.got - 2010.06.03 17:15:25.
