data_PCOD9345103
_publ_section_title
;
Structure prediction by ZEFSAII (Michael W. Deem and Ramdas Pophale) SiO2 
 PCOD9345103
Probable space group: P N A 21
;
_chemical_formula_sum "Si O2"
_cell_formula_units_Z 32
_cell_length_a 11.084313
_cell_length_b 10.030321
_cell_length_c 12.519756
_cell_angle_alpha 90.000000
_cell_angle_beta 90.000000
_cell_angle_gamma 90.000000
_cell_volume 1391.936675
_symmetry_space_group_name_H-M "P N A 21"
_symmetry_group_IT_number 33
_symmetry_cell_setting 'orthorhombic'
loop_
_space_group_symop_operation_xyz
x,y,z
-x,-y,1/2+z
1/2-x,1/2+y,1/2+z
1/2+x,1/2-y,z
loop_
_atom_site_type_symbol
_atom_site_label
_atom_site_fract_x
_atom_site_fract_y
_atom_site_fract_z
Si Si1 0.633403 0.226555 0.818150
Si Si2 0.613168 0.658167 0.210191
Si Si3 0.742957 0.984642 0.376380
Si Si4 0.507993 0.915577 0.481642
Si Si5 0.831154 0.587135 0.655998
Si Si6 0.955874 0.129780 0.474057
Si Si7 0.910859 0.131486 0.061223
Si Si8 0.430735 0.652334 0.758894
O O1 0.508037 0.280611 0.765846
O O2 0.750683 0.199056 0.744255
O O3 0.686702 0.345231 0.892432
O O4 0.589777 0.099984 0.887286
O O5 0.611434 0.499935 0.240873
O O6 0.587264 0.691053 0.085779
O O7 0.623152 0.996221 0.445336
O O8 0.705690 0.993439 0.252893
O O9 0.835788 0.096990 0.408663
O O10 0.449831 0.957845 0.593055
O O11 0.556578 0.764794 0.499181
O O12 0.728149 0.596618 0.567599
O O13 0.849087 0.734412 0.705361
O O14 0.043128 0.187072 0.382206
O O15 0.018465 0.992574 0.512641
O O16 0.950491 0.154720 0.183923
#
# Coordination Sequence:
#
# PCOD9345103 Si02
#       8
#     4   4   4   4   4   4   4   4
#     4  12  23  47  69 103 137 176 231 288 341 409
#     4  11  25  42  74 103 138 181 234 279 344 420
#     4  12  23  44  66  99 142 174 228 290 337 404
#     4  11  24  38  72  98 130 182 227 286 338 391
#     4  11  25  43  66 101 136 173 231 288 330 411
#     4  11  22  43  71  95 134 188 219 272 361 411
#     4  10  20  41  68  96 122 176 238 266 329 411
#     4  10  22  44  66  97 133 182 226 275 336 413
#
# _framework density 22.989552
#
# number of rings (size 3 to 8) (size 9 to 14) (size 15 to 20)
#    0.000    1.000    5.000    1.500    5.250    2.000 
#    4.500    0.000    0.000    0.000    0.000    0.000 
#    0.000    0.000    0.000    0.000    0.000    0.000 
#
# Total GULP energy -178701.698127 kJ/mol
# GULP energy per Si atom -5584.428066 kJ/mol
# Density = 2.293723 g / cm^3
# Si number density = 22.989552 Si / 1000 Ang^3
#
#
#
# Elastic Constant Matrix: (Units=GPa)
#
#
# Indices 1 2 3 4 5 6 
#
# 1 123.3021 14.4699 43.9725 0.0000 0.0000 0.0000
# 2 14.4699 38.8928 0.2735 0.0000 0.0000 0.0000
# 3 43.9725 0.2735 112.9135 0.0000 0.0000 0.0000
# 4 0.0000 0.0000 0.0000 21.6033 0.0000 0.0000
# 5 0.0000 0.0000 0.0000 0.0000 37.5718 0.0000
# 6 0.0000 0.0000 0.0000 0.0000 0.0000 12.5238
#
#
#
# Elastic Compliance Matrix: (Units=1/GPa)
#
#
# Indices 1 2 3 4 5 6 
#
# 1 0.009913 -0.003661 -0.003852 0.000000 0.000000 0.000000
# 2 -0.003661 0.027064 0.001360 0.000000 0.000000 0.000000
# 3 -0.003852 0.001360 0.010353 0.000000 0.000000 0.000000
# 4 0.000000 0.000000 0.000000 0.046289 0.000000 0.000000
# 5 0.000000 0.000000 0.000000 0.000000 0.026616 0.000000
# 6 0.000000 0.000000 0.000000 0.000000 0.000000 0.079848
#
#
# Mechanical properties :
#
#
# Convention : Reuss Voigt Hill
#
# Bulk Modulus (GPa) = 28.55076 43.61558 36.08317
# Shear Modulus (GPa) = 22.31503 28.76595 25.54049
#
# Velocity S-wave (km/s) = 3.11892 3.54116 3.33672
# Velocity P-wave (km/s) = 5.04145 5.97769 5.52942
#
# Compressibility (1/GPa) = 0.03502533
#
# Stress axis : x y z
#
# Youngs Moduli (GPa) = 100.87311 36.94909 96.58981
#
# Poissons Ratio (x) = 0.13528 0.37204
# Poissons Ratio (y) = 0.36931 -0.13138
# Poissons Ratio (z) = 0.38854 -0.05026
#
# Static dielectric constant tensor:
#      x y z
#    x 1.839850 0.000000 0.000000 
#    y 0.000000 1.865870 0.000000 
#    z 0.000000 0.000000 1.888140 
# 
# From -- ./inp_files/6490.got.cif
#   From: 2010.05.17/outbox.cif.g08.bks.cpg/sg33_4_cif.got.tgz:6490.got - 2010.06.03 17:15:25.
