data_PCOD9345916
_publ_section_title
;
Structure prediction by ZEFSAII (Michael W. Deem and Ramdas Pophale) SiO2 
 PCOD9345916
Probable space group: P N A 21
;
_chemical_formula_sum "Si O2"
_cell_formula_units_Z 20
_cell_length_a 10.523303
_cell_length_b 5.665789
_cell_length_c 11.765265
_cell_angle_alpha 90.000000
_cell_angle_beta 90.000000
_cell_angle_gamma 90.000000
_cell_volume 701.478211
_symmetry_space_group_name_H-M "P N A 21"
_symmetry_group_IT_number 33
_symmetry_cell_setting 'orthorhombic'
loop_
_space_group_symop_operation_xyz
x,y,z
-x,-y,1/2+z
1/2-x,1/2+y,1/2+z
1/2+x,1/2-y,z
loop_
_atom_site_type_symbol
_atom_site_label
_atom_site_fract_x
_atom_site_fract_y
_atom_site_fract_z
Si Si1 0.185284 0.705428 0.106650
Si Si2 0.645017 0.671529 0.516425
Si Si3 0.975130 0.815756 0.850693
Si Si4 0.427957 0.948722 0.200879
Si Si5 0.730228 0.552042 0.865685
O O1 0.235704 0.443467 0.080283
O O2 0.292346 0.831269 0.181674
O O3 0.050627 0.701579 0.166196
O O4 0.188543 0.833304 0.985956
O O5 0.566944 0.451716 0.465023
O O6 0.572359 0.840375 0.604422
O O7 0.694772 0.823578 0.409728
O O8 0.092647 0.979754 0.807561
O O9 0.048274 0.567344 0.823683
O O10 0.834234 0.728639 0.809928
#
# Coordination Sequence:
#
# PCOD9345916 Si02
#       5
#     4   4   4   4   4
#     4  10  22  45  72 104 142 194 247 303 364 437
#     4  10  22  44  78 104 149 189 247 307 364 442
#     4  11  25  45  71 110 150 191 247 301 373 440
#     4  11  25  45  77 111 146 194 250 304 367 440
#     4  10  22  45  70 103 145 194 243 301 370 435
#
# _framework density 28.511222
#
# number of rings (size 3 to 8) (size 9 to 14) (size 15 to 20)
#    0.000    1.600    0.000    4.800    2.800    4.800 
#    7.200    0.000    0.000    0.000    0.000    0.000 
#    0.000    0.000    0.000    0.000    0.000    0.000 
#
# Total GULP energy -111751.688385 kJ/mol
# GULP energy per Si atom -5587.584419 kJ/mol
# Density = 2.844633 g / cm^3
# Si number density = 28.511222 Si / 1000 Ang^3
#
#
#
# Elastic Constant Matrix: (Units=GPa)
#
#
# Indices 1 2 3 4 5 6 
#
# 1 242.1482 75.0177 71.5817 0.0000 0.0000 0.0000
# 2 75.0177 91.0267 66.2718 0.0000 0.0000 0.0000
# 3 71.5817 66.2718 125.5382 0.0000 0.0000 0.0000
# 4 0.0000 0.0000 0.0000 82.6470 0.0000 0.0000
# 5 0.0000 0.0000 0.0000 0.0000 53.6922 0.0000
# 6 0.0000 0.0000 0.0000 0.0000 0.0000 50.4589
#
#
#
# Elastic Compliance Matrix: (Units=1/GPa)
#
#
# Indices 1 2 3 4 5 6 
#
# 1 0.005663 -0.003762 -0.001243 0.000000 0.000000 0.000000
# 2 -0.003762 0.020343 -0.008594 0.000000 0.000000 0.000000
# 3 -0.001243 -0.008594 0.013211 0.000000 0.000000 0.000000
# 4 0.000000 0.000000 0.000000 0.012100 0.000000 0.000000
# 5 0.000000 0.000000 0.000000 0.000000 0.018625 0.000000
# 6 0.000000 0.000000 0.000000 0.000000 0.000000 0.019818
#
#
# Mechanical properties :
#
#
# Convention : Reuss Voigt Hill
#
# Bulk Modulus (GPa) = 83.20080 98.27283 90.73681
# Shear Modulus (GPa) = 41.33495 53.74907 47.54201
#
# Velocity S-wave (km/s) = 3.81173 4.34659 4.08791
# Velocity P-wave (km/s) = 6.97262 7.72874 7.36040
#
# Compressibility (1/GPa) = 0.01201912
#
# Stress axis : x y z
#
# Youngs Moduli (GPa) = 176.60011 49.15728 75.69293
#
# Poissons Ratio (x) = 0.18492 0.09408
# Poissons Ratio (y) = 0.66432 0.65051
# Poissons Ratio (z) = 0.21950 0.42246
#
# Static dielectric constant tensor:
#      x y z
#    x 2.216470 0.000000 0.000000 
#    y 0.000000 2.271940 0.000000 
#    z 0.000000 0.000000 2.266200 
# 
# From -- ./inp_files/7828.got.cif
#   From: 2010.05.17/outbox.cif.g08.bks.cpg/sg33_4_cif.got.tgz:7828.got - 2010.06.03 17:15:25.
