data_PCOD9345639
_publ_section_title
;
Structure prediction by ZEFSAII (Michael W. Deem and Ramdas Pophale) SiO2 
 PCOD9345639
Probable space group: P N A 21
;
_chemical_formula_sum "Si O2"
_cell_formula_units_Z 32
_cell_length_a 15.510466
_cell_length_b 5.627313
_cell_length_c 17.558486
_cell_angle_alpha 90.000000
_cell_angle_beta 90.000000
_cell_angle_gamma 90.000000
_cell_volume 1532.544111
_symmetry_space_group_name_H-M "P N A 21"
_symmetry_group_IT_number 33
_symmetry_cell_setting 'orthorhombic'
loop_
_space_group_symop_operation_xyz
x,y,z
-x,-y,1/2+z
1/2-x,1/2+y,1/2+z
1/2+x,1/2-y,z
loop_
_atom_site_type_symbol
_atom_site_label
_atom_site_fract_x
_atom_site_fract_y
_atom_site_fract_z
Si Si1 0.607422 0.790235 0.570690
Si Si2 0.896363 0.279131 0.649989
Si Si3 0.651314 0.269148 0.938541
Si Si4 0.743632 0.637770 0.039278
Si Si5 0.527424 0.902181 0.000097
Si Si6 0.499066 0.539720 0.865881
Si Si7 0.679617 0.511394 0.437601
Si Si8 0.032142 0.219436 0.202625
O O1 0.651553 0.580006 0.524168
O O2 0.547006 0.731074 0.642016
O O3 0.681940 0.985452 0.580554
O O4 0.544192 0.898522 0.506987
O O5 0.805235 0.283984 0.605437
O O6 0.967068 0.283741 0.582132
O O7 0.916788 0.527378 0.694306
O O8 0.911037 0.020541 0.687956
O O9 0.577816 0.355573 0.879739
O O10 0.614226 0.040103 0.981319
O O11 0.743797 0.182169 0.908928
O O12 0.670679 0.463562 0.003502
O O13 0.782065 0.755039 0.961319
O O14 0.509331 0.721890 0.934664
O O15 0.400169 0.461545 0.880423
O O16 0.505130 0.675718 0.786445
#
# Coordination Sequence:
#
# PCOD9345639 Si02
#       8
#     4   4   4   4   4   4   4   4
#     4  10  22  38  67 102 130 183 241 298 349 435
#     4  11  23  45  67 100 134 192 234 292 352 430
#     4  11  22  40  68 108 135 182 235 313 356 418
#     4  11  21  38  70 103 135 174 248 308 343 415
#     4  11  20  39  74  92 131 178 244 287 345 421
#     4  12  24  43  70 102 144 191 232 300 373 438
#     4  11  22  39  72 106 131 178 253 300 350 425
#     4  11  28  44  68  99 150 190 235 284 380 442
#
# _framework density 20.880313999999998
#
# number of rings (size 3 to 8) (size 9 to 14) (size 15 to 20)
#    0.000    1.000    5.000    2.250    5.250    0.000 
#    0.000    3.750    0.000    0.000    0.000    0.000 
#    0.000    0.000    0.000    0.000    0.000    0.000 
#
# Total GULP energy -178290.309615 kJ/mol
# GULP energy per Si atom -5571.572175 kJ/mol
# Density = 2.083279 g / cm^3
# Si number density = 20.880314 Si / 1000 Ang^3
#
#
#
# Elastic Constant Matrix: (Units=GPa)
#
#
# Indices 1 2 3 4 5 6 
#
# 1 117.9421 30.4304 22.0929 0.0000 0.0000 0.0000
# 2 30.4304 73.3815 27.8869 0.0000 0.0000 0.0000
# 3 22.0929 27.8869 51.1890 0.0000 0.0000 0.0000
# 4 0.0000 0.0000 0.0000 23.5736 0.0000 0.0000
# 5 0.0000 0.0000 0.0000 0.0000 9.2696 0.0000
# 6 0.0000 0.0000 0.0000 0.0000 0.0000 36.7352
#
#
#
# Elastic Compliance Matrix: (Units=1/GPa)
#
#
# Indices 1 2 3 4 5 6 
#
# 1 0.009747 -0.003081 -0.002528 0.000000 0.000000 0.000000
# 2 -0.003081 0.018159 -0.008563 0.000000 0.000000 0.000000
# 3 -0.002528 -0.008563 0.025292 0.000000 0.000000 0.000000
# 4 0.000000 0.000000 0.000000 0.042420 0.000000 0.000000
# 5 0.000000 0.000000 0.000000 0.000000 0.107880 0.000000
# 6 0.000000 0.000000 0.000000 0.000000 0.000000 0.027222
#
#
# Mechanical properties :
#
#
# Convention : Reuss Voigt Hill
#
# Bulk Modulus (GPa) = 40.23636 44.81478 42.52557
# Shear Modulus (GPa) = 18.70206 24.72248 21.71227
#
# Velocity S-wave (km/s) = 2.99604 3.44468 3.22816
# Velocity P-wave (km/s) = 5.59287 6.10986 5.85707
#
# Compressibility (1/GPa) = 0.02485314
#
# Stress axis : x y z
#
# Youngs Moduli (GPa) = 102.59212 55.06800 39.53877
#
# Poissons Ratio (x) = 0.16968 0.09996
# Poissons Ratio (y) = 0.31612 0.33857
# Poissons Ratio (z) = 0.25938 0.47155
#
# Static dielectric constant tensor:
#      x y z
#    x 1.851710 0.000000 0.000000 
#    y 0.000000 1.879090 0.000000 
#    z 0.000000 0.000000 1.730280 
# 
# From -- ./inp_files/8791.got.cif
#   From: 2010.05.17/outbox.cif.g08.bks.cpg/sg33_5_cif.got.tgz:8791.got - 2010.06.03 17:15:25.
