data_PCOD9345209
_publ_section_title
;
Structure prediction by ZEFSAII (Michael W. Deem and Ramdas Pophale) SiO2 
 PCOD9345209
Probable space group: P N A 21
;
_chemical_formula_sum "Si O2"
_cell_formula_units_Z 24
_cell_length_a 18.586573
_cell_length_b 7.494989
_cell_length_c 7.397560
_cell_angle_alpha 90.000000
_cell_angle_beta 90.000000
_cell_angle_gamma 90.000000
_cell_volume 1030.525678
_symmetry_space_group_name_H-M "P N A 21"
_symmetry_group_IT_number 33
_symmetry_cell_setting 'orthorhombic'
loop_
_space_group_symop_operation_xyz
x,y,z
-x,-y,1/2+z
1/2-x,1/2+y,1/2+z
1/2+x,1/2-y,z
loop_
_atom_site_type_symbol
_atom_site_label
_atom_site_fract_x
_atom_site_fract_y
_atom_site_fract_z
Si Si1 0.747944 0.355008 0.352810
Si Si2 0.137576 0.396914 0.737605
Si Si3 0.617354 0.241971 0.129475
Si Si4 0.137897 0.017848 0.593202
Si Si5 0.972887 0.720044 0.967382
Si Si6 0.625207 0.643218 0.972032
O O1 0.802651 0.453751 0.218684
O O2 0.690261 0.229889 0.250740
O O3 0.699688 0.510381 0.446818
O O4 0.799418 0.245241 0.488655
O O5 0.069789 0.410836 0.603237
O O6 0.166020 0.201419 0.684671
O O7 0.117888 0.373740 0.948014
O O8 0.552145 0.189935 0.262169
O O9 0.617479 0.451036 0.067746
O O10 0.122645 0.888422 0.755206
O O11 0.063626 0.083816 0.504580
O O12 0.055616 0.739313 0.013608
#
# Coordination Sequence:
#
# PCOD9345209 Si02
#       6
#     4   4   4   4   4   4
#     4  11  20  36  59  89 119 152 191 242 299 349
#     4   9  20  39  55  82 123 146 188 243 294 338
#     4  10  21  36  64  80 117 153 197 244 278 339
#     4   8  19  36  57  84 114 149 201 235 283 340
#     4   9  20  39  59  85 114 154 198 240 283 345
#     4  11  20  36  64  84 113 154 201 238 289 353
#
# _framework density 23.289083999999999
#
# number of rings (size 3 to 8) (size 9 to 14) (size 15 to 20)
#    1.000    1.333    0.000    3.000    0.000    0.000 
#    3.000    0.000    0.000    0.000    0.000    0.000 
#    0.000    0.000    0.000    0.000    0.000    0.000 
#
# Total GULP energy -133748.348521 kJ/mol
# GULP energy per Si atom -5572.847855 kJ/mol
# Density = 2.323608 g / cm^3
# Si number density = 23.289084 Si / 1000 Ang^3
#
#
#
# Elastic Constant Matrix: (Units=GPa)
#
#
# Indices 1 2 3 4 5 6 
#
# 1 119.8501 17.6628 30.4681 0.0000 0.0000 0.0000
# 2 17.6628 35.2891 -12.4267 0.0000 0.0000 0.0000
# 3 30.4681 -12.4267 82.8769 0.0000 0.0000 0.0000
# 4 0.0000 0.0000 0.0000 8.8917 0.0000 0.0000
# 5 0.0000 0.0000 0.0000 0.0000 26.0217 0.0000
# 6 0.0000 0.0000 0.0000 0.0000 0.0000 21.0582
#
#
#
# Elastic Compliance Matrix: (Units=1/GPa)
#
#
# Indices 1 2 3 4 5 6 
#
# 1 0.010654 -0.007086 -0.004979 0.000000 0.000000 0.000000
# 2 -0.007086 0.034630 0.007797 0.000000 0.000000 0.000000
# 3 -0.004979 0.007797 0.015066 0.000000 0.000000 0.000000
# 4 0.000000 0.000000 0.000000 0.112464 0.000000 0.000000
# 5 0.000000 0.000000 0.000000 0.000000 0.038429 0.000000
# 6 0.000000 0.000000 0.000000 0.000000 0.000000 0.047488
#
#
# Mechanical properties :
#
#
# Convention : Reuss Voigt Hill
#
# Bulk Modulus (GPa) = 19.29978 34.38052 26.84015
# Shear Modulus (GPa) = 17.57244 24.68178 21.12711
#
# Velocity S-wave (km/s) = 2.74986 3.25899 3.01519
# Velocity P-wave (km/s) = 4.28805 5.38107 4.86535
#
# Compressibility (1/GPa) = 0.05181407
#
# Stress axis : x y z
#
# Youngs Moduli (GPa) = 93.86335 28.87705 66.37592
#
# Poissons Ratio (x) = 0.20461 0.33049
# Poissons Ratio (y) = 0.66509 -0.51756
# Poissons Ratio (z) = 0.46736 -0.22516
#
# Static dielectric constant tensor:
#      x y z
#    x 1.916780 0.000000 0.000000 
#    y 0.000000 1.905730 0.000000 
#    z 0.000000 0.000000 1.956250 
# 
# From -- ./inp_files/4652.got.cif
#   From: 2010.05.17/outbox.cif.g08.bks.cpg/sg33_3_cif.got.tgz:4652.got - 2010.06.03 17:15:25.
