data_PCOD9345398
_publ_section_title
;
Structure prediction by ZEFSAII (Michael W. Deem and Ramdas Pophale) SiO2 
 PCOD9345398
Probable space group: P N A 21
;
_chemical_formula_sum "Si O2"
_cell_formula_units_Z 32
_cell_length_a 12.470456
_cell_length_b 8.492003
_cell_length_c 15.038358
_cell_angle_alpha 90.000000
_cell_angle_beta 90.000000
_cell_angle_gamma 90.000000
_cell_volume 1592.549326
_symmetry_space_group_name_H-M "P N A 21"
_symmetry_group_IT_number 33
_symmetry_cell_setting 'orthorhombic'
loop_
_space_group_symop_operation_xyz
x,y,z
-x,-y,1/2+z
1/2-x,1/2+y,1/2+z
1/2+x,1/2-y,z
loop_
_atom_site_type_symbol
_atom_site_label
_atom_site_fract_x
_atom_site_fract_y
_atom_site_fract_z
Si Si1 0.208021 0.943692 0.270160
Si Si2 0.864985 0.212778 0.941507
Si Si3 0.207089 0.411201 0.084039
Si Si4 0.306738 0.730682 0.115768
Si Si5 0.287791 0.952982 0.953203
Si Si6 0.978003 0.012545 0.193256
Si Si7 0.922762 0.853924 0.512617
Si Si8 0.718785 0.703406 0.769087
O O1 0.209831 0.855116 0.364160
O O2 0.256030 0.837837 0.192042
O O3 0.082178 0.970257 0.250296
O O4 0.270660 0.108690 0.272174
O O5 0.866221 0.400626 0.936146
O O6 0.811901 0.160286 0.034777
O O7 0.983989 0.143617 0.940218
O O8 0.221447 0.597633 0.084409
O O9 0.112910 0.325637 0.031470
O O10 0.208701 0.354540 0.185970
O O11 0.405488 0.634503 0.159340
O O12 0.330484 0.837083 0.029771
O O13 0.260716 0.864636 0.862071
O O14 0.178642 0.039048 0.987399
O O15 0.897578 0.130838 0.244788
O O16 0.028560 0.086324 0.104689
#
# Coordination Sequence:
#
# PCOD9345398 Si02
#       8
#     4   4   4   4   4   4   4   4
#     4  12  24  44  67  97 133 176 213 274 324 384
#     4  11  22  40  67  92 130 169 215 266 327 379
#     4  10  21  40  65  93 125 171 208 267 321 384
#     4  11  23  42  68  94 135 169 219 264 329 390
#     4  11  24  43  64  98 130 173 213 273 321 390
#     4  11  23  43  68  95 127 175 215 269 325 385
#     4  11  21  42  68  92 129 169 215 264 328 385
#     4  11  22  42  65  93 131 168 220 265 325 385
#
# _framework density 20.093568000000001
#
# number of rings (size 3 to 8) (size 9 to 14) (size 15 to 20)
#    0.000    1.000    5.000    3.750    0.000    2.000 
#    0.000    2.500    0.000    0.000    0.000    0.000 
#    0.000    0.000    0.000    0.000    0.000    0.000 
#
# Total GULP energy -178690.063980 kJ/mol
# GULP energy per Si atom -5584.064499 kJ/mol
# Density = 2.004783 g / cm^3
# Si number density = 20.093568 Si / 1000 Ang^3
#
#
#
# Elastic Constant Matrix: (Units=GPa)
#
#
# Indices 1 2 3 4 5 6 
#
# 1 69.1688 19.8609 15.0001 0.0000 0.0000 0.0000
# 2 19.8609 136.5412 39.3074 0.0000 0.0000 0.0000
# 3 15.0001 39.3074 93.5520 0.0000 0.0000 0.0000
# 4 0.0000 0.0000 0.0000 36.2234 0.0000 0.0000
# 5 0.0000 0.0000 0.0000 0.0000 13.0394 0.0000
# 6 0.0000 0.0000 0.0000 0.0000 0.0000 28.1654
#
#
#
# Elastic Compliance Matrix: (Units=1/GPa)
#
#
# Indices 1 2 3 4 5 6 
#
# 1 0.015330 -0.001732 -0.001730 0.000000 0.000000 0.000000
# 2 -0.001732 0.008527 -0.003305 0.000000 0.000000 0.000000
# 3 -0.001730 -0.003305 0.012355 0.000000 0.000000 0.000000
# 4 0.000000 0.000000 0.000000 0.027606 0.000000 0.000000
# 5 0.000000 0.000000 0.000000 0.000000 0.076691 0.000000
# 6 0.000000 0.000000 0.000000 0.000000 0.000000 0.035505
#
#
# Mechanical properties :
#
#
# Convention : Reuss Voigt Hill
#
# Bulk Modulus (GPa) = 44.09570 49.73320 46.91445
# Shear Modulus (GPa) = 25.36680 30.49189 27.92934
#
# Velocity S-wave (km/s) = 3.55693 3.89973 3.73227
# Velocity P-wave (km/s) = 6.23392 6.71429 6.47856
#
# Compressibility (1/GPa) = 0.02267795
#
# Stress axis : x y z
#
# Youngs Moduli (GPa) = 65.23210 117.27223 80.93624
#
# Poissons Ratio (x) = 0.20308 0.14005
# Poissons Ratio (y) = 0.11296 0.26751
# Poissons Ratio (z) = 0.11288 0.38760
#
# Static dielectric constant tensor:
#      x y z
#    x 1.725620 0.000000 0.000000 
#    y 0.000000 1.712520 0.000000 
#    z 0.000000 0.000000 1.708100 
# 
# From -- ./inp_files/7924.got.cif
#   From: 2010.05.17/outbox.cif.g08.bks.cpg/sg33_4_cif.got.tgz:7924.got - 2010.06.03 17:15:25.
