data_PCOD9345339
_publ_section_title
;
Structure prediction by ZEFSAII (Michael W. Deem and Ramdas Pophale) SiO2 
 PCOD9345339
Probable space group: P N A 21
;
_chemical_formula_sum "Si O2"
_cell_formula_units_Z 20
_cell_length_a 22.077727
_cell_length_b 7.011740
_cell_length_c 5.007355
_cell_angle_alpha 90.000000
_cell_angle_beta 90.000000
_cell_angle_gamma 90.000000
_cell_volume 775.154986
_symmetry_space_group_name_H-M "P N A 21"
_symmetry_group_IT_number 33
_symmetry_cell_setting 'orthorhombic'
loop_
_space_group_symop_operation_xyz
x,y,z
-x,-y,1/2+z
1/2-x,1/2+y,1/2+z
1/2+x,1/2-y,z
loop_
_atom_site_type_symbol
_atom_site_label
_atom_site_fract_x
_atom_site_fract_y
_atom_site_fract_z
Si Si1 0.964307 0.958772 0.638890
Si Si2 0.160040 0.476459 0.102117
Si Si3 0.844557 0.925338 0.375071
Si Si4 0.038454 0.460656 0.342648
Si Si5 0.776285 0.857654 0.871196
O O1 0.904412 0.026376 0.483637
O O2 0.949574 0.763190 0.792436
O O3 0.009474 0.921278 0.387644
O O4 0.100142 0.557533 0.239952
O O5 0.197196 0.352369 0.320043
O O6 0.142640 0.305071 0.895045
O O7 0.207585 0.617066 0.963696
O O8 0.791304 0.951696 0.588647
O O9 0.819419 0.963124 0.084711
O O10 0.016493 0.492896 0.641138
#
# Coordination Sequence:
#
# PCOD9345339 Si02
#       5
#     4   4   4   4   4
#     4  11  22  42  66  93 130 175 223 271 326 386
#     4   9  24  41  66  90 130 169 213 274 327 392
#     4   9  22  38  62  87 130 160 208 274 324 376
#     4  11  25  44  67  95 137 175 218 274 336 396
#     4  10  21  39  65  89 127 165 212 261 341 378
#
# _framework density 25.801289000000001
#
# number of rings (size 3 to 8) (size 9 to 14) (size 15 to 20)
#    1.200    0.800    0.000    2.400    8.400    0.000 
#   10.800    0.000    0.000    0.000    0.000    0.000 
#    0.000    0.000    0.000    0.000    0.000    0.000 
#
# Total GULP energy -111716.988860 kJ/mol
# GULP energy per Si atom -5585.849443 kJ/mol
# Density = 2.574256 g / cm^3
# Si number density = 25.801289 Si / 1000 Ang^3
#
#
#
# Elastic Constant Matrix: (Units=GPa)
#
#
# Indices 1 2 3 4 5 6 
#
# 1 124.7385 14.5116 4.6394 0.0000 0.0000 0.0000
# 2 14.5116 44.1402 4.9871 0.0000 0.0000 0.0000
# 3 4.6394 4.9871 101.6547 0.0000 0.0000 0.0000
# 4 0.0000 0.0000 0.0000 9.7046 0.0000 0.0000
# 5 0.0000 0.0000 0.0000 0.0000 43.4030 0.0000
# 6 0.0000 0.0000 0.0000 0.0000 0.0000 31.1289
#
#
#
# Elastic Compliance Matrix: (Units=1/GPa)
#
#
# Indices 1 2 3 4 5 6 
#
# 1 0.008342 -0.002714 -0.000248 0.000000 0.000000 0.000000
# 2 -0.002714 0.023665 -0.001037 0.000000 0.000000 0.000000
# 3 -0.000248 -0.001037 0.009899 0.000000 0.000000 0.000000
# 4 0.000000 0.000000 0.000000 0.103044 0.000000 0.000000
# 5 0.000000 0.000000 0.000000 0.000000 0.023040 0.000000
# 6 0.000000 0.000000 0.000000 0.000000 0.000000 0.032124
#
#
# Mechanical properties :
#
#
# Convention : Reuss Voigt Hill
#
# Bulk Modulus (GPa) = 29.49189 35.42331 32.45760
# Shear Modulus (GPa) = 22.78788 33.27367 28.03077
#
# Velocity S-wave (km/s) = 2.97510 3.59501 3.29965
# Velocity P-wave (km/s) = 4.82254 5.56698 5.20808
#
# Compressibility (1/GPa) = 0.03390763
#
# Stress axis : x y z
#
# Youngs Moduli (GPa) = 119.87864 42.25706 101.01628
#
# Poissons Ratio (x) = 0.11471 0.02501
# Poissons Ratio (y) = 0.32541 0.10476
# Poissons Ratio (z) = 0.02968 0.04382
#
# Static dielectric constant tensor:
#      x y z
#    x 2.055700 0.000000 0.000000 
#    y 0.000000 2.129810 0.000000 
#    z 0.000000 0.000000 1.961210 
# 
# From -- ./inp_files/1950.got.cif
#   From: 2010.05.17/outbox.cif.g08.bks.cpg/sg33_1_cif.got.tgz:1950.got - 2010.06.03 17:15:25.
