data_PCOD9345388
_publ_section_title
;
Structure prediction by ZEFSAII (Michael W. Deem and Ramdas Pophale) SiO2 
 PCOD9345388
Probable space group: P N A 21
;
_chemical_formula_sum "Si O2"
_cell_formula_units_Z 20
_cell_length_a 5.455682
_cell_length_b 7.781939
_cell_length_c 17.533515
_cell_angle_alpha 90.000000
_cell_angle_beta 90.000000
_cell_angle_gamma 90.000000
_cell_volume 744.399135
_symmetry_space_group_name_H-M "P N A 21"
_symmetry_group_IT_number 33
_symmetry_cell_setting 'orthorhombic'
loop_
_space_group_symop_operation_xyz
x,y,z
-x,-y,1/2+z
1/2-x,1/2+y,1/2+z
1/2+x,1/2-y,z
loop_
_atom_site_type_symbol
_atom_site_label
_atom_site_fract_x
_atom_site_fract_y
_atom_site_fract_z
Si Si1 0.107158 0.302303 0.037600
Si Si2 0.107365 0.701647 0.989916
Si Si3 0.906475 0.160179 0.658522
Si Si4 0.412202 0.668060 0.367632
Si Si5 0.948682 0.854862 0.768630
O O1 0.851083 0.264086 0.077684
O O2 0.123217 0.503002 0.015437
O O3 0.094238 0.191501 0.959053
O O4 0.350642 0.766998 0.949075
O O5 0.094028 0.819354 0.066731
O O6 0.136406 0.278629 0.682925
O O7 0.961211 0.978201 0.694593
O O8 0.632787 0.796548 0.342563
O O9 0.508627 0.489299 0.337284
O O10 0.680010 0.771971 0.770169
#
# Coordination Sequence:
#
# PCOD9345388 Si02
#       5
#     4   4   4   4   4
#     4  10  21  40  63  91 122 163 208 255 307 365
#     4  10  21  40  63  91 122 163 208 255 307 365
#     4  10  21  41  64  89 125 165 202 254 310 365
#     4  10  21  41  64  89 125 165 202 254 310 365
#     4  12  24  40  64  96 126 162 206 254 308 370
#
# _framework density 26.867305999999999
#
# number of rings (size 3 to 8) (size 9 to 14) (size 15 to 20)
#    0.000    1.600    0.000    4.800    0.000    0.000 
#    0.000   48.000    0.000    0.000    0.000    0.000 
#    0.000    0.000    0.000    0.000    0.000    0.000 
#
# Total GULP energy -112119.807492 kJ/mol
# GULP energy per Si atom -5605.990375 kJ/mol
# Density = 2.680615 g / cm^3
# Si number density = 26.867306 Si / 1000 Ang^3
#
#
#
# Elastic Constant Matrix: (Units=GPa)
#
#
# Indices 1 2 3 4 5 6 
#
# 1 258.3760 47.3232 -12.8341 0.0000 0.0000 0.0000
# 2 47.3232 125.6917 19.2140 0.0000 0.0000 0.0000
# 3 -12.8341 19.2140 87.4361 0.0000 0.0000 0.0000
# 4 0.0000 0.0000 0.0000 62.0140 0.0000 0.0000
# 5 0.0000 0.0000 0.0000 0.0000 27.6732 0.0000
# 6 0.0000 0.0000 0.0000 0.0000 0.0000 68.7686
#
#
#
# Elastic Compliance Matrix: (Units=1/GPa)
#
#
# Indices 1 2 3 4 5 6 
#
# 1 0.004241 -0.001751 0.001007 0.000000 0.000000 0.000000
# 2 -0.001751 0.008955 -0.002225 0.000000 0.000000 0.000000
# 3 0.001007 -0.002225 0.012074 0.000000 0.000000 0.000000
# 4 0.000000 0.000000 0.000000 0.016125 0.000000 0.000000
# 5 0.000000 0.000000 0.000000 0.000000 0.036136 0.000000
# 6 0.000000 0.000000 0.000000 0.000000 0.000000 0.014542
#
#
# Mechanical properties :
#
#
# Convention : Reuss Voigt Hill
#
# Bulk Modulus (GPa) = 51.72456 64.32335 58.02396
# Shear Modulus (GPa) = 47.86795 59.54454 53.70624
#
# Velocity S-wave (km/s) = 4.22553 4.71281 4.47581
# Velocity P-wave (km/s) = 6.56509 7.32169 6.95369
#
# Compressibility (1/GPa) = 0.01933318
#
# Stress axis : x y z
#
# Youngs Moduli (GPa) = 235.79254 111.66653 82.82475
#
# Poissons Ratio (x) = 0.19550 -0.08342
# Poissons Ratio (y) = 0.41281 0.18428
# Poissons Ratio (z) = -0.23750 0.24845
#
# Static dielectric constant tensor:
#      x y z
#    x 2.276010 0.000000 0.000000 
#    y 0.000000 2.044590 0.000000 
#    z 0.000000 0.000000 2.138670 
# 
# From -- ./inp_files/9181.got.cif
#   From: 2010.05.17/outbox.cif.g08.bks.cpg/sg33_5_cif.got.tgz:9181.got - 2010.06.03 17:15:25.
