data_PCOD9345925
_publ_section_title
;
Structure prediction by ZEFSAII (Michael W. Deem and Ramdas Pophale) SiO2 
 PCOD9345925
Probable space group: P N A 21
;
_chemical_formula_sum "Si O2"
_cell_formula_units_Z 28
_cell_length_a 15.311375
_cell_length_b 5.153766
_cell_length_c 16.279234
_cell_angle_alpha 90.000000
_cell_angle_beta 90.000000
_cell_angle_gamma 90.000000
_cell_volume 1284.614604
_symmetry_space_group_name_H-M "P N A 21"
_symmetry_group_IT_number 33
_symmetry_cell_setting 'orthorhombic'
loop_
_space_group_symop_operation_xyz
x,y,z
-x,-y,1/2+z
1/2-x,1/2+y,1/2+z
1/2+x,1/2-y,z
loop_
_atom_site_type_symbol
_atom_site_label
_atom_site_fract_x
_atom_site_fract_y
_atom_site_fract_z
Si Si1 0.169458 0.016641 0.960160
Si Si2 0.889228 0.705673 0.628826
Si Si3 0.535383 0.670983 0.753627
Si Si4 0.829811 0.694353 0.042708
Si Si5 0.296695 0.315246 0.150639
Si Si6 0.049361 0.307577 0.858454
Si Si7 0.976457 0.367949 0.503557
O O1 0.095884 0.794278 0.954384
O O2 0.146872 0.220607 0.888637
O O3 0.265525 0.899361 0.969801
O O4 0.145678 0.142144 0.048612
O O5 0.802304 0.689478 0.683367
O O6 0.967377 0.829217 0.679069
O O7 0.930481 0.447824 0.588626
O O8 0.631001 0.614142 0.717204
O O9 0.509624 0.443022 0.815302
O O10 0.540001 0.951007 0.797254
O O11 0.825982 0.456853 0.108667
O O12 0.793958 0.956723 0.082854
O O13 0.929441 0.750586 0.019002
O O14 0.005658 0.384239 0.945173
#
# Coordination Sequence:
#
# PCOD9345925 Si02
#       7
#     4   4   4   4   4   4   4
#     4  10  22  45  67  97 131 169 225 269 323 380
#     4  10  23  40  73  96 127 169 222 276 313 388
#     4  12  24  44  64  95 137 175 213 268 337 383
#     4  11  23  38  73  98 123 162 224 273 320 378
#     4  11  23  41  65 104 122 167 215 275 328 375
#     4  11  26  43  62  91 139 181 207 268 328 394
#     4  11  21  45  68  97 127 173 222 269 319 384
#
# _framework density 21.796420999999999
#
# number of rings (size 3 to 8) (size 9 to 14) (size 15 to 20)
#    0.000    1.143    4.286    1.714    4.000    0.000 
#    5.143    0.000    0.000    0.000    0.000    0.000 
#    0.000    0.000    0.000    0.000    0.000    0.000 
#
# Total GULP energy -156281.494420 kJ/mol
# GULP energy per Si atom -5581.481944 kJ/mol
# Density = 2.174681 g / cm^3
# Si number density = 21.796421 Si / 1000 Ang^3
#
#
#
# Elastic Constant Matrix: (Units=GPa)
#
#
# Indices 1 2 3 4 5 6 
#
# 1 110.1837 4.0652 5.1072 0.0000 0.0000 0.0000
# 2 4.0652 89.6159 1.5384 0.0000 0.0000 0.0000
# 3 5.1072 1.5384 25.9718 0.0000 0.0000 0.0000
# 4 0.0000 0.0000 0.0000 36.2204 0.0000 0.0000
# 5 0.0000 0.0000 0.0000 0.0000 10.4034 0.0000
# 6 0.0000 0.0000 0.0000 0.0000 0.0000 15.4267
#
#
#
# Elastic Compliance Matrix: (Units=1/GPa)
#
#
# Indices 1 2 3 4 5 6 
#
# 1 0.009173 -0.000386 -0.001781 0.000000 0.000000 0.000000
# 2 -0.000386 0.011186 -0.000587 0.000000 0.000000 0.000000
# 3 -0.001781 -0.000587 0.038888 0.000000 0.000000 0.000000
# 4 0.000000 0.000000 0.000000 0.027609 0.000000 0.000000
# 5 0.000000 0.000000 0.000000 0.000000 0.096123 0.000000
# 6 0.000000 0.000000 0.000000 0.000000 0.000000 0.064823
#
#
# Mechanical properties :
#
#
# Convention : Reuss Voigt Hill
#
# Bulk Modulus (GPa) = 18.60787 27.46587 23.03687
# Shear Modulus (GPa) = 18.43515 26.74747 22.59131
#
# Velocity S-wave (km/s) = 2.91140 3.50687 3.22292
# Velocity P-wave (km/s) = 4.45615 5.38758 4.94385
#
# Compressibility (1/GPa) = 0.05374069
#
# Stress axis : x y z
#
# Youngs Moduli (GPa) = 109.02125 89.39511 25.71471
#
# Poissons Ratio (x) = 0.03446 0.04579
# Poissons Ratio (y) = 0.04203 0.01509
# Poissons Ratio (z) = 0.19415 0.05246
#
# Static dielectric constant tensor:
#      x y z
#    x 1.821700 0.000000 0.000000 
#    y 0.000000 1.854460 0.000000 
#    z 0.000000 0.000000 1.851560 
# 
# From -- ./inp_files/8744.got.cif
#   From: 2010.05.17/outbox.cif.g08.bks.cpg/sg33_5_cif.got.tgz:8744.got - 2010.06.03 17:15:25.
