data_PCOD9345849
_publ_section_title
;
Structure prediction by ZEFSAII (Michael W. Deem and Ramdas Pophale) SiO2 
 PCOD9345849
Probable space group: P N A 21
;
_chemical_formula_sum "Si O2"
_cell_formula_units_Z 32
_cell_length_a 11.411291
_cell_length_b 13.805739
_cell_length_c 9.359383
_cell_angle_alpha 90.000000
_cell_angle_beta 90.000000
_cell_angle_gamma 90.000000
_cell_volume 1474.489414
_symmetry_space_group_name_H-M "P N A 21"
_symmetry_group_IT_number 33
_symmetry_cell_setting 'orthorhombic'
loop_
_space_group_symop_operation_xyz
x,y,z
-x,-y,1/2+z
1/2-x,1/2+y,1/2+z
1/2+x,1/2-y,z
loop_
_atom_site_type_symbol
_atom_site_label
_atom_site_fract_x
_atom_site_fract_y
_atom_site_fract_z
Si Si1 0.229027 0.862599 0.064640
Si Si2 0.616967 0.232845 0.781899
Si Si3 0.026931 0.544088 0.349679
Si Si4 0.057564 0.918393 0.547521
Si Si5 0.151074 0.557145 0.653125
Si Si6 0.837901 0.776882 0.585575
Si Si7 0.217771 0.402626 0.244945
Si Si8 0.471178 0.404677 0.726934
O O1 0.326996 0.795796 0.132221
O O2 0.110256 0.831389 0.139743
O O3 0.259055 0.968550 0.128495
O O4 0.228011 0.873104 0.897099
O O5 0.516269 0.151933 0.809199
O O6 0.584479 0.344471 0.767460
O O7 0.692390 0.233225 0.928316
O O8 0.062036 0.548019 0.517184
O O9 0.141319 0.499091 0.270960
O O10 0.922596 0.471242 0.295743
O O11 0.178053 0.907670 0.631967
O O12 0.079563 0.934653 0.379917
O O13 0.961796 0.833075 0.569031
O O14 0.997818 0.010142 0.620176
O O15 0.231422 0.653648 0.639693
O O16 0.858857 0.687645 0.691480
#
# Coordination Sequence:
#
# PCOD9345849 Si02
#       8
#     4   4   4   4   4   4   4   4
#     4  10  22  44  60  97 132 173 216 285 340 405
#     4  10  24  40  70  95 131 180 232 271 348 416
#     4  10  23  43  68 100 135 180 226 287 347 420
#     4  11  25  42  67 100 135 182 228 285 353 411
#     4  10  22  43  68  93 138 174 229 284 341 417
#     4  11  24  44  70 100 133 186 231 288 341 427
#     4  11  25  40  69  99 140 173 226 283 354 413
#     4  11  23  42  66  94 134 176 228 281 338 415
#
# _framework density 21.702427
#
# number of rings (size 3 to 8) (size 9 to 14) (size 15 to 20)
#    0.000    1.500    1.250    2.250   12.250    3.000 
#    4.500    0.000    0.000    0.000    0.000    0.000 
#    0.000    0.000    0.000    0.000    0.000    0.000 
#
# Total GULP energy -178477.617022 kJ/mol
# GULP energy per Si atom -5577.425532 kJ/mol
# Density = 2.165303 g / cm^3
# Si number density = 21.702427 Si / 1000 Ang^3
#
#
#
# Elastic Constant Matrix: (Units=GPa)
#
#
# Indices 1 2 3 4 5 6 
#
# 1 35.8431 2.3603 7.6326 0.0000 0.0000 0.0000
# 2 2.3603 36.5790 11.6684 0.0000 0.0000 0.0000
# 3 7.6326 11.6684 84.4215 0.0000 0.0000 0.0000
# 4 0.0000 0.0000 0.0000 16.7210 0.0000 0.0000
# 5 0.0000 0.0000 0.0000 0.0000 37.3624 0.0000
# 6 0.0000 0.0000 0.0000 0.0000 0.0000 43.9528
#
#
#
# Elastic Compliance Matrix: (Units=1/GPa)
#
#
# Indices 1 2 3 4 5 6 
#
# 1 0.028487 -0.001063 -0.002429 0.000000 0.000000 0.000000
# 2 -0.001063 0.028639 -0.003862 0.000000 0.000000 0.000000
# 3 -0.002429 -0.003862 0.012599 0.000000 0.000000 0.000000
# 4 0.000000 0.000000 0.000000 0.059805 0.000000 0.000000
# 5 0.000000 0.000000 0.000000 0.000000 0.026765 0.000000
# 6 0.000000 0.000000 0.000000 0.000000 0.000000 0.022752
#
#
# Mechanical properties :
#
#
# Convention : Reuss Voigt Hill
#
# Bulk Modulus (GPa) = 18.17664 22.24070 20.20867
# Shear Modulus (GPa) = 23.57462 28.61938 26.09700
#
# Velocity S-wave (km/s) = 3.29943 3.63536 3.47146
# Velocity P-wave (km/s) = 4.78629 5.28123 5.03984
#
# Compressibility (1/GPa) = 0.05501567
#
# Stress axis : x y z
#
# Youngs Moduli (GPa) = 35.10431 34.91771 79.37326
#
# Poissons Ratio (x) = 0.03713 0.19276
# Poissons Ratio (y) = 0.03733 0.30655
# Poissons Ratio (z) = 0.08525 0.13486
#
# Static dielectric constant tensor:
#      x y z
#    x 1.882730 0.000000 0.000000 
#    y 0.000000 1.819110 0.000000 
#    z 0.000000 0.000000 1.775110 
# 
# From -- ./inp_files/3992.got.cif
#   From: 2010.05.17/outbox.cif.g08.bks.cpg/sg33_2_cif.got.tgz:3992.got - 2010.06.03 17:15:25.
