data_PCOD9345702
_publ_section_title
;
Structure prediction by ZEFSAII (Michael W. Deem and Ramdas Pophale) SiO2 
 PCOD9345702
Probable space group: P N A 21
;
_chemical_formula_sum "Si O2"
_cell_formula_units_Z 28
_cell_length_a 25.346044
_cell_length_b 5.613478
_cell_length_c 7.736983
_cell_angle_alpha 90.000000
_cell_angle_beta 90.000000
_cell_angle_gamma 90.000000
_cell_volume 1100.813766
_symmetry_space_group_name_H-M "P N A 21"
_symmetry_group_IT_number 33
_symmetry_cell_setting 'orthorhombic'
loop_
_space_group_symop_operation_xyz
x,y,z
-x,-y,1/2+z
1/2-x,1/2+y,1/2+z
1/2+x,1/2-y,z
loop_
_atom_site_type_symbol
_atom_site_label
_atom_site_fract_x
_atom_site_fract_y
_atom_site_fract_z
Si Si1 0.757234 0.516330 0.313920
Si Si2 0.094722 0.855642 0.310214
Si Si3 0.508980 0.252231 0.998420
Si Si4 0.686129 0.890938 0.138009
Si Si5 0.343666 0.739476 0.923559
Si Si6 0.851122 0.354533 0.152371
Si Si7 0.448466 0.249954 0.369068
O O1 0.734434 0.713685 0.183861
O O2 0.800527 0.542252 0.466934
O O3 0.704621 0.440638 0.412610
O O4 0.789635 0.327081 0.196887
O O5 0.036386 0.769517 0.349080
O O6 0.130915 0.755316 0.156638
O O7 0.124783 0.772186 0.485997
O O8 0.104095 0.138129 0.330521
O O9 0.540454 0.502088 0.970659
O O10 0.537027 0.998200 0.965600
O O11 0.482343 0.255272 0.188337
O O12 0.680475 0.062974 0.299067
O O13 0.356414 0.863100 0.104807
O O14 0.888772 0.268692 0.302481
#
# Coordination Sequence:
#
# PCOD9345702 Si02
#       7
#     4   4   4   4   4   4   4
#     4  11  22  40  62  96 130 173 227 282 338 419
#     4   9  23  42  69  92 132 186 226 279 353 422
#     4  11  25  47  75 106 144 187 243 297 365 429
#     4  10  23  37  62  95 127 177 221 282 344 404
#     4  10  22  40  66  91 130 181 224 276 342 419
#     4  10  23  41  68  96 137 178 232 278 357 414
#     4  11  26  45  76 108 144 190 239 302 363 435
#
# _framework density 25.435728999999998
#
# number of rings (size 3 to 8) (size 9 to 14) (size 15 to 20)
#    0.000    1.714    1.429    0.857   16.000    2.286 
#    0.000    0.000    0.000    0.000    0.000    0.000 
#    0.000    0.000    0.000    0.000    0.000    0.000 
#
# Total GULP energy -156211.100083 kJ/mol
# GULP energy per Si atom -5578.967860 kJ/mol
# Density = 2.537784 g / cm^3
# Si number density = 25.435729 Si / 1000 Ang^3
#
#
#
# Elastic Constant Matrix: (Units=GPa)
#
#
# Indices 1 2 3 4 5 6 
#
# 1 91.5495 45.0516 -4.5716 0.0000 0.0000 0.0000
# 2 45.0516 86.3837 12.6611 0.0000 0.0000 0.0000
# 3 -4.5716 12.6611 100.7131 0.0000 0.0000 0.0000
# 4 0.0000 0.0000 0.0000 44.0012 0.0000 0.0000
# 5 0.0000 0.0000 0.0000 0.0000 30.9286 0.0000
# 6 0.0000 0.0000 0.0000 0.0000 0.0000 35.2051
#
#
#
# Elastic Compliance Matrix: (Units=1/GPa)
#
#
# Indices 1 2 3 4 5 6 
#
# 1 0.014972 -0.008056 0.001692 0.000000 0.000000 0.000000
# 2 -0.008056 0.016129 -0.002393 0.000000 0.000000 0.000000
# 3 0.001692 -0.002393 0.010307 0.000000 0.000000 0.000000
# 4 0.000000 0.000000 0.000000 0.022727 0.000000 0.000000
# 5 0.000000 0.000000 0.000000 0.000000 0.032333 0.000000
# 6 0.000000 0.000000 0.000000 0.000000 0.000000 0.028405
#
#
# Mechanical properties :
#
#
# Convention : Reuss Voigt Hill
#
# Bulk Modulus (GPa) = 41.85312 42.76982 42.31147
# Shear Modulus (GPa) = 33.25551 37.06066 35.15809
#
# Velocity S-wave (km/s) = 3.61977 3.82125 3.72187
# Velocity P-wave (km/s) = 5.82756 6.02666 5.92795
#
# Compressibility (1/GPa) = 0.02389308
#
# Stress axis : x y z
#
# Youngs Moduli (GPa) = 66.79063 62.00117 97.02247
#
# Poissons Ratio (x) = 0.49951 -0.16420
# Poissons Ratio (y) = 0.53810 0.23221
# Poissons Ratio (z) = -0.11304 0.14839
#
# Static dielectric constant tensor:
#      x y z
#    x 2.012850 0.000000 0.000000 
#    y 0.000000 2.293540 0.000000 
#    z 0.000000 0.000000 2.107100 
# 
# From -- ./inp_files/5272.got.cif
#   From: 2010.05.17/outbox.cif.g08.bks.cpg/sg33_3_cif.got.tgz:5272.got - 2010.06.03 17:15:25.
