data_PCOD9345881
_publ_section_title
;
Structure prediction by ZEFSAII (Michael W. Deem and Ramdas Pophale) SiO2 
 PCOD9345881
Probable space group: P N A 21
;
_chemical_formula_sum "Si O2"
_cell_formula_units_Z 32
_cell_length_a 8.890703
_cell_length_b 27.472920
_cell_length_c 5.998524
_cell_angle_alpha 90.000000
_cell_angle_beta 90.000000
_cell_angle_gamma 90.000000
_cell_volume 1465.160915
_symmetry_space_group_name_H-M "P N A 21"
_symmetry_group_IT_number 33
_symmetry_cell_setting 'orthorhombic'
loop_
_space_group_symop_operation_xyz
x,y,z
-x,-y,1/2+z
1/2-x,1/2+y,1/2+z
1/2+x,1/2-y,z
loop_
_atom_site_type_symbol
_atom_site_label
_atom_site_fract_x
_atom_site_fract_y
_atom_site_fract_z
Si Si1 0.946914 0.612414 0.342250
Si Si2 0.328449 0.720648 0.710386
Si Si3 0.334536 0.045784 0.613087
Si Si4 0.591556 0.729401 0.395938
Si Si5 0.133873 0.294492 0.608164
Si Si6 0.213836 0.963053 0.368494
Si Si7 0.877541 0.956043 0.504062
Si Si8 0.680503 0.876287 0.727889
O O1 0.943667 0.653435 0.149707
O O2 0.779226 0.591031 0.351473
O O3 0.040496 0.564554 0.278267
O O4 0.035883 0.631280 0.563423
O O5 0.484764 0.706696 0.587927
O O6 0.206716 0.735640 0.525216
O O7 0.250639 0.673736 0.821423
O O8 0.349651 0.767456 0.871074
O O9 0.180547 0.046042 0.750919
O O10 0.349476 0.084642 0.417854
O O11 0.334879 0.992434 0.515887
O O12 0.703621 0.701186 0.229828
O O13 0.474357 0.758498 0.245047
O O14 0.055547 0.959971 0.494668
O O15 0.187219 0.997861 0.149164
O O16 0.812941 0.905193 0.597289
#
# Coordination Sequence:
#
# PCOD9345881 Si02
#       8
#     4   4   4   4   4   4   4   4
#     4  11  26  42  70 100 137 173 241 283 350 421
#     4  11  23  44  70  94 138 180 235 290 361 409
#     4  10  24  41  70  95 136 181 223 276 359 406
#     4  10  24  42  67  94 137 176 228 288 344 423
#     4  11  24  44  68 102 134 187 230 293 354 416
#     4  11  23  43  69  97 140 178 224 288 339 420
#     4  10  22  44  65 102 134 179 226 279 347 410
#     4  10  24  44  69  98 130 182 229 291 344 419
#
# _framework density 21.840605
#
# number of rings (size 3 to 8) (size 9 to 14) (size 15 to 20)
#    0.000    1.500    2.500    0.750   10.500    1.000 
#    2.250    0.000    0.000    0.000    0.000    0.000 
#    0.000    0.000    0.000    0.000    0.000    0.000 
#
# Total GULP energy -178232.105973 kJ/mol
# GULP energy per Si atom -5569.753312 kJ/mol
# Density = 2.179089 g / cm^3
# Si number density = 21.840605 Si / 1000 Ang^3
#
#
#
# Elastic Constant Matrix: (Units=GPa)
#
#
# Indices 1 2 3 4 5 6 
#
# 1 106.0572 28.1883 22.6579 0.0000 0.0000 0.0000
# 2 28.1883 73.2942 5.8609 0.0000 0.0000 0.0000
# 3 22.6579 5.8609 39.1839 0.0000 0.0000 0.0000
# 4 0.0000 0.0000 0.0000 26.6134 0.0000 0.0000
# 5 0.0000 0.0000 0.0000 0.0000 6.5399 0.0000
# 6 0.0000 0.0000 0.0000 0.0000 0.0000 29.9459
#
#
#
# Elastic Compliance Matrix: (Units=1/GPa)
#
#
# Indices 1 2 3 4 5 6 
#
# 1 0.011840 -0.004054 -0.006240 0.000000 0.000000 0.000000
# 2 -0.004054 0.015197 0.000071 0.000000 0.000000 0.000000
# 3 -0.006240 0.000071 0.029118 0.000000 0.000000 0.000000
# 4 0.000000 0.000000 0.000000 0.037575 0.000000 0.000000
# 5 0.000000 0.000000 0.000000 0.000000 0.152907 0.000000
# 6 0.000000 0.000000 0.000000 0.000000 0.000000 0.033394
#
#
# Mechanical properties :
#
#
# Convention : Reuss Voigt Hill
#
# Bulk Modulus (GPa) = 28.00396 36.88328 32.44362
# Shear Modulus (GPa) = 16.00619 23.40840 19.70729
#
# Velocity S-wave (km/s) = 2.71008 3.27736 3.00713
# Velocity P-wave (km/s) = 4.75842 5.58978 5.19077
#
# Compressibility (1/GPa) = 0.03570924
#
# Stress axis : x y z
#
# Youngs Moduli (GPa) = 84.46293 65.80149 34.34292
#
# Poissons Ratio (x) = 0.26679 0.21429
# Poissons Ratio (y) = 0.34245 -0.00245
# Poissons Ratio (z) = 0.52702 -0.00469
#
# Static dielectric constant tensor:
#      x y z
#    x 1.941680 0.000000 0.000000 
#    y 0.000000 1.793230 0.000000 
#    z 0.000000 0.000000 1.873940 
# 
# From -- ./inp_files/622.got.cif
#   From: 2010.05.17/outbox.cif.g08.bks.cpg/sg33_1_cif.got.tgz:622.got - 2010.06.03 17:15:25.
