data_PCOD9345427
_publ_section_title
;
Structure prediction by ZEFSAII (Michael W. Deem and Ramdas Pophale) SiO2 
 PCOD9345427
Probable space group: P N A 21
;
_chemical_formula_sum "Si O2"
_cell_formula_units_Z 32
_cell_length_a 10.402182
_cell_length_b 8.790333
_cell_length_c 11.468444
_cell_angle_alpha 90.000000
_cell_angle_beta 90.000000
_cell_angle_gamma 90.000000
_cell_volume 1048.658965
_symmetry_space_group_name_H-M "P N A 21"
_symmetry_group_IT_number 33
_symmetry_cell_setting 'orthorhombic'
loop_
_space_group_symop_operation_xyz
x,y,z
-x,-y,1/2+z
1/2-x,1/2+y,1/2+z
1/2+x,1/2-y,z
loop_
_atom_site_type_symbol
_atom_site_label
_atom_site_fract_x
_atom_site_fract_y
_atom_site_fract_z
Si Si1 0.097092 0.608250 0.038350
Si Si2 0.206348 0.601025 0.287047
Si Si3 0.422452 0.364999 0.867028
Si Si4 0.454928 0.451985 0.594841
Si Si5 0.879890 0.162650 0.234720
Si Si6 0.174537 0.421764 0.578930
Si Si7 0.586217 0.105166 0.841473
Si Si8 0.858363 0.796759 0.856919
O O1 0.194762 0.610763 0.146003
O O2 0.318283 0.802413 0.970207
O O3 0.967204 0.509235 0.061404
O O4 0.049596 0.784073 0.032223
O O5 0.457923 0.737750 0.403094
O O6 0.320761 0.484058 0.303124
O O7 0.060805 0.545158 0.312844
O O8 0.397967 0.534894 0.904403
O O9 0.300074 0.251989 0.867529
O O10 0.446327 0.388709 0.728133
O O11 0.562630 0.585721 0.614827
O O12 0.309034 0.509311 0.571843
O O13 0.756244 0.271939 0.259433
O O14 0.007656 0.235216 0.288800
O O15 0.151998 0.370556 0.714086
O O16 0.645945 0.976807 0.924071
#
# Coordination Sequence:
#
# PCOD9345427 Si02
#       8
#     4   4   4   4   4   4   4   4
#     4  10  21  40  79 123 166 235 308 380 466 545
#     4   8  19  43  78 120 175 232 311 377 455 550
#     4   8  20  44  75 122 168 239 286 382 444 553
#     4  10  23  42  75 118 171 229 296 374 443 547
#     4  11  25  51  78 135 179 242 298 384 457 567
#     4  11  24  44  76 130 172 239 305 381 461 552
#     4   9  20  44  78 124 179 238 305 388 459 557
#     4  11  26  48  83 128 188 242 311 374 473 557
#
# _framework density 30.515163999999999
#
# number of rings (size 3 to 8) (size 9 to 14) (size 15 to 20)
#    0.750    1.500    1.250    0.750    5.250    2.000 
#    9.000    2.500    0.000    0.000    6.500    0.000 
#    0.000    0.000    0.000    0.375    0.000    0.000 
#
# Total GULP energy -178273.950355 kJ/mol
# GULP energy per Si atom -5571.060949 kJ/mol
# Density = 3.044571 g / cm^3
# Si number density = 30.515164 Si / 1000 Ang^3
#
#
#
# Elastic Constant Matrix: (Units=GPa)
#
#
# Indices 1 2 3 4 5 6 
#
# 1 160.4093 64.7752 58.1103 0.0000 0.0000 0.0000
# 2 64.7752 192.8925 85.4779 0.0000 0.0000 0.0000
# 3 58.1103 85.4779 150.5660 0.0000 0.0000 0.0000
# 4 0.0000 0.0000 0.0000 75.1513 0.0000 0.0000
# 5 0.0000 0.0000 0.0000 0.0000 30.9063 0.0000
# 6 0.0000 0.0000 0.0000 0.0000 0.0000 53.8372
#
#
#
# Elastic Compliance Matrix: (Units=1/GPa)
#
#
# Indices 1 2 3 4 5 6 
#
# 1 0.007635 -0.001681 -0.001992 0.000000 0.000000 0.000000
# 2 -0.001681 0.007297 -0.003494 0.000000 0.000000 0.000000
# 3 -0.001992 -0.003494 0.009394 0.000000 0.000000 0.000000
# 4 0.000000 0.000000 0.000000 0.013306 0.000000 0.000000
# 5 0.000000 0.000000 0.000000 0.000000 0.032356 0.000000
# 6 0.000000 0.000000 0.000000 0.000000 0.000000 0.018575
#
#
# Mechanical properties :
#
#
# Convention : Reuss Voigt Hill
#
# Bulk Modulus (GPa) = 100.08486 102.28828 101.18657
# Shear Modulus (GPa) = 47.06911 51.67925 49.37418
#
# Velocity S-wave (km/s) = 3.93171 4.11975 4.02683
# Velocity P-wave (km/s) = 7.31305 7.49820 7.40621
#
# Compressibility (1/GPa) = 0.00999152
#
# Stress axis : x y z
#
# Youngs Moduli (GPa) = 130.98365 137.04380 106.45118
#
# Poissons Ratio (x) = 0.23036 0.21208
# Poissons Ratio (y) = 0.22017 0.37192
# Poissons Ratio (z) = 0.26095 0.47880
#
# Static dielectric constant tensor:
#      x y z
#    x 2.698910 0.000000 0.000000 
#    y 0.000000 2.595870 0.000000 
#    z 0.000000 0.000000 2.534060 
# 
# From -- ./inp_files/7632.got.cif
#   From: 2010.05.17/outbox.cif.g08.bks.cpg/sg33_4_cif.got.tgz:7632.got - 2010.06.03 17:15:25.
