data_PCOD9345892
_publ_section_title
;
Structure prediction by ZEFSAII (Michael W. Deem and Ramdas Pophale) SiO2 
 PCOD9345892
Probable space group: P N A 21
;
_chemical_formula_sum "Si O2"
_cell_formula_units_Z 32
_cell_length_a 31.862384
_cell_length_b 5.176827
_cell_length_c 8.496691
_cell_angle_alpha 90.000000
_cell_angle_beta 90.000000
_cell_angle_gamma 90.000000
_cell_volume 1401.495617
_symmetry_space_group_name_H-M "P N A 21"
_symmetry_group_IT_number 33
_symmetry_cell_setting 'orthorhombic'
loop_
_space_group_symop_operation_xyz
x,y,z
-x,-y,1/2+z
1/2-x,1/2+y,1/2+z
1/2+x,1/2-y,z
loop_
_atom_site_type_symbol
_atom_site_label
_atom_site_fract_x
_atom_site_fract_y
_atom_site_fract_z
Si Si1 0.363384 0.855036 0.096220
Si Si2 0.019021 0.511825 0.964377
Si Si3 0.081288 0.740968 0.726793
Si Si4 0.871083 0.884894 0.440779
Si Si5 0.733531 0.246502 0.622985
Si Si6 0.449037 0.518050 0.631793
Si Si7 0.442142 0.635022 0.978140
Si Si8 0.223797 0.244011 0.990938
O O1 0.372923 0.783323 0.280107
O O2 0.315069 0.788863 0.070824
O O3 0.385322 0.135178 0.098556
O O4 0.393113 0.704650 0.977742
O O5 0.023360 0.229523 0.037422
O O6 0.041132 0.734055 0.069065
O O7 0.045980 0.552144 0.803065
O O8 0.971246 0.610407 0.966167
O O9 0.112639 0.845863 0.863504
O O10 0.055911 0.972819 0.640736
O O11 0.903818 0.866231 0.582261
O O12 0.825359 0.820709 0.505368
O O13 0.759822 0.470360 0.535429
O O14 0.733794 0.307840 0.807886
O O15 0.752894 0.966119 0.595716
O O16 0.454285 0.499002 0.817076
#
# Coordination Sequence:
#
# PCOD9345892 Si02
#       8
#     4   4   4   4   4   4   4   4
#     4  10  23  43  69  92 137 184 223 269 351 414
#     4  11  25  43  66  94 139 177 229 272 345 404
#     4  10  22  44  68  95 131 191 219 277 336 428
#     4   9  22  43  70  92 135 179 229 261 352 413
#     4  11  26  44  71 101 141 174 232 276 350 405
#     4  11  25  43  65 101 132 174 225 290 329 396
#     4  11  26  38  67 100 132 174 231 288 332 392
#     4  11  25  44  72 105 135 181 222 289 335 416
#
# _framework density 22.832751999999999
#
# number of rings (size 3 to 8) (size 9 to 14) (size 15 to 20)
#    0.000    1.500    1.250    1.500   14.000    2.000 
#    0.000    0.000    0.000    0.000    0.000    0.000 
#    0.000    0.000    0.000    0.000    0.000    0.000 
#
# Total GULP energy -178402.297031 kJ/mol
# GULP energy per Si atom -5575.071782 kJ/mol
# Density = 2.278078 g / cm^3
# Si number density = 22.832752 Si / 1000 Ang^3
#
#
#
# Elastic Constant Matrix: (Units=GPa)
#
#
# Indices 1 2 3 4 5 6 
#
# 1 90.4154 2.1159 21.9879 0.0000 0.0000 0.0000
# 2 2.1159 53.8367 7.4664 0.0000 0.0000 0.0000
# 3 21.9879 7.4664 51.1561 0.0000 0.0000 0.0000
# 4 0.0000 0.0000 0.0000 33.8936 0.0000 0.0000
# 5 0.0000 0.0000 0.0000 0.0000 27.3440 0.0000
# 6 0.0000 0.0000 0.0000 0.0000 0.0000 28.8992
#
#
#
# Elastic Compliance Matrix: (Units=1/GPa)
#
#
# Indices 1 2 3 4 5 6 
#
# 1 0.012355 0.000256 -0.005348 0.000000 0.000000 0.000000
# 2 0.000256 0.018964 -0.002878 0.000000 0.000000 0.000000
# 3 -0.005348 -0.002878 0.022267 0.000000 0.000000 0.000000
# 4 0.000000 0.000000 0.000000 0.029504 0.000000 0.000000
# 5 0.000000 0.000000 0.000000 0.000000 0.036571 0.000000
# 6 0.000000 0.000000 0.000000 0.000000 0.000000 0.034603
#
#
# Mechanical properties :
#
#
# Convention : Reuss Voigt Hill
#
# Bulk Modulus (GPa) = 26.56325 28.72764 27.64545
# Shear Modulus (GPa) = 27.35971 28.94991 28.15481
#
# Velocity S-wave (km/s) = 3.46535 3.56464 3.51535
# Velocity P-wave (km/s) = 5.26029 5.43611 5.34892
#
# Compressibility (1/GPa) = 0.03764600
#
# Stress axis : x y z
#
# Youngs Moduli (GPa) = 80.94187 52.73223 44.91041
#
# Poissons Ratio (x) = -0.01350 0.24016
# Poissons Ratio (y) = -0.02073 0.12925
# Poissons Ratio (z) = 0.43285 0.15176
#
# Static dielectric constant tensor:
#      x y z
#    x 1.885650 0.000000 0.000000 
#    y 0.000000 1.924030 0.000000 
#    z 0.000000 0.000000 1.889550 
# 
# From -- ./inp_files/5300.got.cif
#   From: 2010.05.17/outbox.cif.g08.bks.cpg/sg33_3_cif.got.tgz:5300.got - 2010.06.03 17:15:25.
