data_PCOD9345638
_publ_section_title
;
Structure prediction by ZEFSAII (Michael W. Deem and Ramdas Pophale) SiO2 
 PCOD9345638
Probable space group: P N A 21
;
_chemical_formula_sum "Si O2"
_cell_formula_units_Z 32
_cell_length_a 15.465611
_cell_length_b 5.558456
_cell_length_c 17.114972
_cell_angle_alpha 90.000000
_cell_angle_beta 90.000000
_cell_angle_gamma 90.000000
_cell_volume 1471.287169
_symmetry_space_group_name_H-M "P N A 21"
_symmetry_group_IT_number 33
_symmetry_cell_setting 'orthorhombic'
loop_
_space_group_symop_operation_xyz
x,y,z
-x,-y,1/2+z
1/2-x,1/2+y,1/2+z
1/2+x,1/2-y,z
loop_
_atom_site_type_symbol
_atom_site_label
_atom_site_fract_x
_atom_site_fract_y
_atom_site_fract_z
Si Si1 0.140960 0.228267 0.516390
Si Si2 0.244587 0.543709 0.309981
Si Si3 0.066135 0.502184 0.376588
Si Si4 0.853323 0.710256 0.600615
Si Si5 0.896516 0.246325 0.378832
Si Si6 0.008960 0.120113 0.983538
Si Si7 0.220974 0.794320 0.152912
Si Si8 0.772578 0.604621 0.448486
O O1 0.094168 0.428637 0.465114
O O2 0.199382 0.294691 0.590701
O O3 0.207182 0.113855 0.454255
O O4 0.067177 0.027155 0.526462
O O5 0.144349 0.465352 0.315929
O O6 0.323170 0.354797 0.320325
O O7 0.257617 0.720555 0.237225
O O8 0.246759 0.700221 0.387752
O O9 0.988510 0.332716 0.346757
O O10 0.029068 0.762573 0.402779
O O11 0.942328 0.734356 0.552235
O O12 0.839517 0.440194 0.633601
O O13 0.779983 0.715872 0.533313
O O14 0.830346 0.950741 0.650320
O O15 0.860373 0.484249 0.420277
O O16 0.917644 0.058053 0.447942
#
# Coordination Sequence:
#
# PCOD9345638 Si02
#       8
#     4   4   4   4   4   4   4   4
#     4  10  22  38  66  99 130 176 235 287 343 424
#     4  12  24  43  68 102 141 190 229 299 362 434
#     4  11  22  39  72 104 132 176 255 298 347 423
#     4  11  23  45  67  97 132 186 232 286 343 425
#     4  11  22  40  67 108 133 183 232 308 353 415
#     4  11  21  38  68 102 130 173 243 299 339 407
#     4  11  28  44  66  99 144 186 229 280 373 430
#     4  11  20  39  74  93 134 178 245 285 342 420
#
# _framework density 21.749663999999999
#
# number of rings (size 3 to 8) (size 9 to 14) (size 15 to 20)
#    0.000    1.000    5.000    2.250    5.250    0.000 
#    2.250    1.250    0.000    0.000    0.000    0.000 
#    0.000    0.000    0.000    0.000    0.000    0.000 
#
# Total GULP energy -178275.048938 kJ/mol
# GULP energy per Si atom -5571.095279 kJ/mol
# Density = 2.170016 g / cm^3
# Si number density = 21.749664 Si / 1000 Ang^3
#
#
#
# Elastic Constant Matrix: (Units=GPa)
#
#
# Indices 1 2 3 4 5 6 
#
# 1 97.1126 13.7231 2.6558 0.0000 0.0000 0.0000
# 2 13.7231 60.3395 11.6453 0.0000 0.0000 0.0000
# 3 2.6558 11.6453 20.2128 0.0000 0.0000 0.0000
# 4 0.0000 0.0000 0.0000 26.2893 0.0000 0.0000
# 5 0.0000 0.0000 0.0000 0.0000 -5.4075 0.0000
# 6 0.0000 0.0000 0.0000 0.0000 0.0000 87.7491
#
#
#
# Elastic Compliance Matrix: (Units=1/GPa)
#
#
# Indices 1 2 3 4 5 6 
#
# 1 0.010639 -0.002419 -0.000004 0.000000 0.000000 0.000000
# 2 -0.002419 0.019196 -0.010742 0.000000 0.000000 0.000000
# 3 -0.000004 -0.010742 0.055663 0.000000 0.000000 0.000000
# 4 0.000000 0.000000 0.000000 0.038038 0.000000 0.000000
# 5 0.000000 0.000000 0.000000 0.000000 -0.184929 0.000000
# 6 0.000000 0.000000 0.000000 0.000000 0.000000 0.011396
#
#
# Mechanical properties :
#
#
# Convention : Reuss Voigt Hill
#
# Bulk Modulus (GPa) = 16.90095 25.96815 21.43455
# Shear Modulus (GPa) = -1267.78919 31.70224 -618.04348
#
# Velocity S-wave (km/s) = -24.16953 3.82199 -16.87540
# Velocity P-wave (km/s) = 27.76870 5.60734 19.23094
#
# Compressibility (1/GPa) = 0.05916829
#
# Stress axis : x y z
#
# Youngs Moduli (GPa) = 93.99154 52.09389 17.96535
#
# Poissons Ratio (x) = 0.12601 0.00008
# Poissons Ratio (y) = 0.22735 0.19298
# Poissons Ratio (z) = 0.00041 0.55958
#
# Static dielectric constant tensor:
#      x y z
#    x 1.899230 0.000000 0.000000 
#    y 0.000000 1.879750 0.000000 
#    z 0.000000 0.000000 1.795440 
# 
# From -- ./inp_files/8770.got.cif
#   From: 2010.05.17/outbox.cif.g08.bks.cpg/sg33_5_cif.got.tgz:8770.got - 2010.06.03 17:15:25.
