data_PCOD9345290
_publ_section_title
;
Structure prediction by ZEFSAII (Michael W. Deem and Ramdas Pophale) SiO2 
 PCOD9345290
Probable space group: P N A 21
;
_chemical_formula_sum "Si O2"
_cell_formula_units_Z 20
_cell_length_a 7.568707
_cell_length_b 7.213552
_cell_length_c 13.428025
_cell_angle_alpha 90.000000
_cell_angle_beta 90.000000
_cell_angle_gamma 90.000000
_cell_volume 733.133393
_symmetry_space_group_name_H-M "P N A 21"
_symmetry_group_IT_number 33
_symmetry_cell_setting 'orthorhombic'
loop_
_space_group_symop_operation_xyz
x,y,z
-x,-y,1/2+z
1/2-x,1/2+y,1/2+z
1/2+x,1/2-y,z
loop_
_atom_site_type_symbol
_atom_site_label
_atom_site_fract_x
_atom_site_fract_y
_atom_site_fract_z
Si Si1 0.275102 0.124976 0.989800
Si Si2 0.887199 0.874471 0.803606
Si Si3 0.740539 0.984442 0.219710
Si Si4 0.557139 0.111101 0.845452
Si Si5 0.571124 0.477688 0.533376
O O1 0.436880 0.023929 0.934829
O O2 0.152593 0.221507 0.903738
O O3 0.358714 0.306522 0.039104
O O4 0.138644 0.001633 0.050397
O O5 0.857438 0.680814 0.745519
O O6 0.065630 0.965224 0.762817
O O7 0.704793 0.986625 0.795764
O O8 0.907009 0.886048 0.924943
O O9 0.796672 0.898121 0.114432
O O10 0.593538 0.846793 0.265389
#
# Coordination Sequence:
#
# PCOD9345290 Si02
#       5
#     4   4   4   4   4
#     4   9  19  39  65  86 126 171 223 273 328 399
#     4  11  23  40  66  98 137 172 222 290 329 404
#     4  12  22  40  65  97 135 176 223 274 345 404
#     4  10  21  39  64  91 128 173 218 276 338 390
#     4  10  21  38  64  98 124 178 226 271 342 401
#
# _framework density 27.280165
#
# number of rings (size 3 to 8) (size 9 to 14) (size 15 to 20)
#    0.000    1.600    4.000    1.200    0.000    0.000 
#    3.600    2.000    0.000    0.000    0.000    0.000 
#    0.000    0.000    0.000    0.000    0.000    0.000 
#
# Total GULP energy -111543.678801 kJ/mol
# GULP energy per Si atom -5577.183940 kJ/mol
# Density = 2.721807 g / cm^3
# Si number density = 27.280165 Si / 1000 Ang^3
#
#
#
# Elastic Constant Matrix: (Units=GPa)
#
#
# Indices 1 2 3 4 5 6 
#
# 1 180.8408 37.5806 23.2905 0.0000 0.0000 0.0000
# 2 37.5806 90.6154 13.2423 0.0000 0.0000 0.0000
# 3 23.2905 13.2423 71.5544 0.0000 0.0000 0.0000
# 4 0.0000 0.0000 0.0000 24.4769 0.0000 0.0000
# 5 0.0000 0.0000 0.0000 0.0000 27.3903 0.0000
# 6 0.0000 0.0000 0.0000 0.0000 0.0000 43.5114
#
#
#
# Elastic Compliance Matrix: (Units=1/GPa)
#
#
# Indices 1 2 3 4 5 6 
#
# 1 0.006223 -0.002348 -0.001591 0.000000 0.000000 0.000000
# 2 -0.002348 0.012229 -0.001499 0.000000 0.000000 0.000000
# 3 -0.001591 -0.001499 0.014771 0.000000 0.000000 0.000000
# 4 0.000000 0.000000 0.000000 0.040855 0.000000 0.000000
# 5 0.000000 0.000000 0.000000 0.000000 0.036509 0.000000
# 6 0.000000 0.000000 0.000000 0.000000 0.000000 0.022982
#
#
# Mechanical properties :
#
#
# Convention : Reuss Voigt Hill
#
# Bulk Modulus (GPa) = 44.75055 54.58192 49.66623
# Shear Modulus (GPa) = 32.91799 37.00220 34.96009
#
# Velocity S-wave (km/s) = 3.47748 3.68690 3.58372
# Velocity P-wave (km/s) = 5.70644 6.17864 5.94723
#
# Compressibility (1/GPa) = 0.02234609
#
# Stress axis : x y z
#
# Youngs Moduli (GPa) = 160.70479 81.77595 67.70222
#
# Poissons Ratio (x) = 0.19203 0.10770
# Poissons Ratio (y) = 0.37737 0.10147
# Poissons Ratio (z) = 0.25566 0.12256
#
# Static dielectric constant tensor:
#      x y z
#    x 2.102000 0.000000 0.000000 
#    y 0.000000 2.266710 0.000000 
#    z 0.000000 0.000000 2.400860 
# 
# From -- ./inp_files/5760.got.cif
#   From: 2010.05.17/outbox.cif.g08.bks.cpg/sg33_3_cif.got.tgz:5760.got - 2010.06.03 17:15:25.
