data_PCOD9345569
_publ_section_title
;
Structure prediction by ZEFSAII (Michael W. Deem and Ramdas Pophale) SiO2 
 PCOD9345569
Probable space group: P N A 21
;
_chemical_formula_sum "Si O2"
_cell_formula_units_Z 32
_cell_length_a 8.599724
_cell_length_b 14.870061
_cell_length_c 10.826794
_cell_angle_alpha 90.000000
_cell_angle_beta 90.000000
_cell_angle_gamma 90.000000
_cell_volume 1384.513315
_symmetry_space_group_name_H-M "P N A 21"
_symmetry_group_IT_number 33
_symmetry_cell_setting 'orthorhombic'
loop_
_space_group_symop_operation_xyz
x,y,z
-x,-y,1/2+z
1/2-x,1/2+y,1/2+z
1/2+x,1/2-y,z
loop_
_atom_site_type_symbol
_atom_site_label
_atom_site_fract_x
_atom_site_fract_y
_atom_site_fract_z
Si Si1 0.991214 0.593668 0.871270
Si Si2 0.051727 0.670617 0.143416
Si Si3 0.644484 0.840304 0.635237
Si Si4 0.908792 0.560919 0.492687
Si Si5 0.696663 0.652371 0.192482
Si Si6 0.623343 0.665473 0.467655
Si Si7 0.929941 0.960206 0.638725
Si Si8 0.749561 0.984941 0.239372
O O1 0.042923 0.656569 0.759924
O O2 0.825905 0.549716 0.841135
O O3 0.014671 0.630061 0.007657
O O4 0.099703 0.504101 0.875772
O O5 0.125122 0.767035 0.112944
O O6 0.176994 0.616196 0.230935
O O7 0.881469 0.668618 0.204659
O O8 0.578845 0.914513 0.538941
O O9 0.614239 0.748824 0.561316
O O10 0.813869 0.877953 0.671951
O O11 0.807978 0.647543 0.471177
O O12 0.824953 0.518213 0.610383
O O13 0.602145 0.669841 0.321046
O O14 0.664056 0.554186 0.134901
O O15 0.519688 0.582936 0.520267
O O16 0.070104 0.990941 0.729440
#
# Coordination Sequence:
#
# PCOD9345569 Si02
#       8
#     4   4   4   4   4   4   4   4
#     4  10  21  44  71  99 142 191 237 304 365 448
#     4  11  25  48  71 105 146 201 247 308 375 439
#     4  11  23  41  70 109 138 188 242 299 374 431
#     4   9  19  39  65  94 133 182 233 285 364 420
#     4  12  27  46  71 108 148 195 256 305 375 454
#     4  11  25  43  70 104 145 187 244 311 358 455
#     4  11  24  45  70 111 144 190 248 298 381 432
#     4   9  20  40  70 100 140 186 241 294 364 433
#
# _framework density 23.112815000000001
#
# number of rings (size 3 to 8) (size 9 to 14) (size 15 to 20)
#    0.000    1.500    0.000    5.250    5.250    2.000 
#   11.250    0.000    0.000    0.000    0.000    0.000 
#    0.000    0.000    0.000    0.000    0.000    0.000 
#
# Total GULP energy -178205.972284 kJ/mol
# GULP energy per Si atom -5568.936634 kJ/mol
# Density = 2.306021 g / cm^3
# Si number density = 23.112815 Si / 1000 Ang^3
#
#
#
# Elastic Constant Matrix: (Units=GPa)
#
#
# Indices 1 2 3 4 5 6 
#
# 1 78.8593 25.6151 -5.1436 0.0000 0.0000 0.0000
# 2 25.6151 98.2198 19.6350 0.0000 0.0000 0.0000
# 3 -5.1436 19.6350 68.9589 0.0000 0.0000 0.0000
# 4 0.0000 0.0000 0.0000 41.3296 0.0000 0.0000
# 5 0.0000 0.0000 0.0000 0.0000 19.6329 0.0000
# 6 0.0000 0.0000 0.0000 0.0000 0.0000 35.6165
#
#
#
# Elastic Compliance Matrix: (Units=1/GPa)
#
#
# Indices 1 2 3 4 5 6 
#
# 1 0.014173 -0.004143 0.002237 0.000000 0.000000 0.000000
# 2 -0.004143 0.012007 -0.003728 0.000000 0.000000 0.000000
# 3 0.002237 -0.003728 0.015730 0.000000 0.000000 0.000000
# 4 0.000000 0.000000 0.000000 0.024196 0.000000 0.000000
# 5 0.000000 0.000000 0.000000 0.000000 0.050935 0.000000
# 6 0.000000 0.000000 0.000000 0.000000 0.000000 0.028077
#
#
# Mechanical properties :
#
#
# Convention : Reuss Voigt Hill
#
# Bulk Modulus (GPa) = 32.63635 36.25011 34.44323
# Shear Modulus (GPa) = 30.01220 33.04456 31.52838
#
# Velocity S-wave (km/s) = 3.60739 3.78525 3.69739
# Velocity P-wave (km/s) = 5.61268 5.90103 5.75866
#
# Compressibility (1/GPa) = 0.03064068
#
# Stress axis : x y z
#
# Youngs Moduli (GPa) = 70.55903 83.28462 63.57406
#
# Poissons Ratio (x) = 0.34507 -0.14221
# Poissons Ratio (y) = 0.29235 0.23700
# Poissons Ratio (z) = -0.15783 0.31047
#
# Static dielectric constant tensor:
#      x y z
#    x 1.919230 0.000000 0.000000 
#    y 0.000000 1.947950 0.000000 
#    z 0.000000 0.000000 1.881680 
# 
# From -- ./inp_files/6030.got.cif
#   From: 2010.05.17/outbox.cif.g08.bks.cpg/sg33_4_cif.got.tgz:6030.got - 2010.06.03 17:15:25.
