data_PCOD9345555
_publ_section_title
;
Structure prediction by ZEFSAII (Michael W. Deem and Ramdas Pophale) SiO2 
 PCOD9345555
Probable space group: P N A 21
;
_chemical_formula_sum "Si O2"
_cell_formula_units_Z 24
_cell_length_a 10.644393
_cell_length_b 17.054913
_cell_length_c 5.398356
_cell_angle_alpha 90.000000
_cell_angle_beta 90.000000
_cell_angle_gamma 90.000000
_cell_volume 980.013211
_symmetry_space_group_name_H-M "P N A 21"
_symmetry_group_IT_number 33
_symmetry_cell_setting 'orthorhombic'
loop_
_space_group_symop_operation_xyz
x,y,z
-x,-y,1/2+z
1/2-x,1/2+y,1/2+z
1/2+x,1/2-y,z
loop_
_atom_site_type_symbol
_atom_site_label
_atom_site_fract_x
_atom_site_fract_y
_atom_site_fract_z
Si Si1 0.601312 0.584992 0.429520
Si Si2 0.289497 0.777614 0.548376
Si Si3 0.433929 0.821521 0.050649
Si Si4 0.317838 0.144076 0.332164
Si Si5 0.145526 0.068307 0.702512
Si Si6 0.814318 0.511862 0.085736
O O1 0.683925 0.654475 0.540654
O O2 0.463293 0.611486 0.351837
O O3 0.581515 0.511863 0.609998
O O4 0.689090 0.548995 0.212059
O O5 0.372217 0.786503 0.299712
O O6 0.218652 0.695958 0.595716
O O7 0.369627 0.791650 0.797663
O O8 0.404367 0.914633 0.061934
O O9 0.582381 0.811840 0.005742
O O10 0.193259 0.122358 0.482749
O O11 0.368235 0.058944 0.249278
O O12 0.266053 0.033234 0.843435
#
# Coordination Sequence:
#
# PCOD9345555 Si02
#       6
#     4   4   4   4   4   4
#     4  10  21  43  75 108 154 195 257 315 382 456
#     4  11  27  52  74 112 156 209 250 325 398 464
#     4  11  27  51  79 108 161 205 257 323 395 468
#     4  11  29  46  78 114 153 204 268 321 397 473
#     4  11  21  42  74 113 148 205 259 318 381 471
#     4  10  23  42  74 111 146 200 261 314 385 458
#
# _framework density 24.489464999999999
#
# number of rings (size 3 to 8) (size 9 to 14) (size 15 to 20)
#    0.000    1.333    3.333    0.000    7.000    1.333 
#    6.000    0.000    0.000    0.000    0.000    0.000 
#    0.000    0.000    0.000    0.000    0.000    0.000 
#
# Total GULP energy -134329.777214 kJ/mol
# GULP energy per Si atom -5597.074051 kJ/mol
# Density = 2.443373 g / cm^3
# Si number density = 24.489465 Si / 1000 Ang^3
#
#
#
# Elastic Constant Matrix: (Units=GPa)
#
#
# Indices 1 2 3 4 5 6 
#
# 1 84.6600 39.8148 32.2926 0.0000 0.0000 0.0000
# 2 39.8148 126.3447 45.6760 0.0000 0.0000 0.0000
# 3 32.2926 45.6760 119.9582 0.0000 0.0000 0.0000
# 4 0.0000 0.0000 0.0000 41.1627 0.0000 0.0000
# 5 0.0000 0.0000 0.0000 0.0000 33.2785 0.0000
# 6 0.0000 0.0000 0.0000 0.0000 0.0000 8.7260
#
#
#
# Elastic Compliance Matrix: (Units=1/GPa)
#
#
# Indices 1 2 3 4 5 6 
#
# 1 0.014489 -0.003660 -0.002507 0.000000 0.000000 0.000000
# 2 -0.003660 0.010103 -0.002862 0.000000 0.000000 0.000000
# 3 -0.002507 -0.002862 0.010101 0.000000 0.000000 0.000000
# 4 0.000000 0.000000 0.000000 0.024294 0.000000 0.000000
# 5 0.000000 0.000000 0.000000 0.000000 0.030049 0.000000
# 6 0.000000 0.000000 0.000000 0.000000 0.000000 0.114601
#
#
# Mechanical properties :
#
#
# Convention : Reuss Voigt Hill
#
# Bulk Modulus (GPa) = 60.11000 62.94773 61.52887
# Shear Modulus (GPa) = 22.00331 30.84538 26.42435
#
# Velocity S-wave (km/s) = 3.00072 3.55285 3.28839
# Velocity P-wave (km/s) = 6.05015 6.52611 6.29263
#
# Compressibility (1/GPa) = 0.01663617
#
# Stress axis : x y z
#
# Youngs Moduli (GPa) = 69.01624 98.98413 99.00291
#
# Poissons Ratio (x) = 0.36225 0.24820
# Poissons Ratio (y) = 0.25258 0.28330
# Poissons Ratio (z) = 0.17303 0.28325
#
# Static dielectric constant tensor:
#      x y z
#    x 1.909540 0.000000 0.000000 
#    y 0.000000 1.951990 0.000000 
#    z 0.000000 0.000000 1.983080 
# 
# From -- ./inp_files/882.got.cif
#   From: 2010.05.17/outbox.cif.g08.bks.cpg/sg33_1_cif.got.tgz:882.got - 2010.06.03 17:15:25.
