data_PCOD9345793
_publ_section_title
;
Structure prediction by ZEFSAII (Michael W. Deem and Ramdas Pophale) SiO2 
 PCOD9345793
Probable space group: P N A 21
;
_chemical_formula_sum "Si O2"
_cell_formula_units_Z 24
_cell_length_a 12.115034
_cell_length_b 5.094085
_cell_length_c 17.431156
_cell_angle_alpha 90.000000
_cell_angle_beta 90.000000
_cell_angle_gamma 90.000000
_cell_volume 1075.764019
_symmetry_space_group_name_H-M "P N A 21"
_symmetry_group_IT_number 33
_symmetry_cell_setting 'orthorhombic'
loop_
_space_group_symop_operation_xyz
x,y,z
-x,-y,1/2+z
1/2-x,1/2+y,1/2+z
1/2+x,1/2-y,z
loop_
_atom_site_type_symbol
_atom_site_label
_atom_site_fract_x
_atom_site_fract_y
_atom_site_fract_z
Si Si1 0.709703 0.267117 0.752370
Si Si2 0.406278 0.232740 0.996140
Si Si3 0.904891 0.928939 0.398098
Si Si4 0.406278 0.232740 0.178552
Si Si5 0.595109 0.428939 0.276594
Si Si6 0.290297 0.732883 0.922322
O O1 0.678835 0.272388 0.842938
O O2 0.671371 0.533329 0.711291
O O3 0.638492 0.037087 0.713304
O O4 0.836596 0.178155 0.746480
O O5 0.402517 0.229583 0.087346
O O6 0.530027 0.285039 0.965241
O O7 0.328629 0.466671 0.963401
O O8 0.361508 0.962912 0.961388
O O9 0.836596 0.178155 0.428212
O O10 0.000000 0.000000 0.337346
O O11 0.530027 0.285039 0.209451
O O12 0.678836 0.272388 0.331754
#
# Coordination Sequence:
#
# PCOD9345793 Si02
#       6
#     4   4   4   4   4   4
#     4  11  23  42  66  94 127 166 217 268 315 376
#     4  11  25  42  63  95 132 170 211 261 326 387
#     4  10  22  42  67  93 123 166 215 263 312 375
#     4  11  25  42  63  95 132 170 211 261 326 387
#     4  10  22  42  67  93 123 166 215 263 312 375
#     4  11  23  42  66  94 127 166 217 268 315 376
#
# _framework density 22.309728
#
# number of rings (size 3 to 8) (size 9 to 14) (size 15 to 20)
#    0.000    1.333    0.000    6.000    0.000   10.667 
#    0.000    0.000    0.000    0.000    0.000    0.000 
#    0.000    0.000    0.000    0.000    0.000    0.000 
#
# Total GULP energy -134279.162572 kJ/mol
# GULP energy per Si atom -5594.965107 kJ/mol
# Density = 2.225895 g / cm^3
# Si number density = 22.309728 Si / 1000 Ang^3
#
#
#
# Elastic Constant Matrix: (Units=GPa)
#
#
# Indices 1 2 3 4 5 6 
#
# 1 69.6221 1.6236 9.3789 0.0000 0.0000 0.0000
# 2 1.6236 105.0675 41.2991 0.0000 0.0000 0.0000
# 3 9.3789 41.2991 142.9362 0.0000 0.0000 0.0000
# 4 0.0000 0.0000 0.0000 22.0853 0.0000 0.0000
# 5 0.0000 0.0000 0.0000 0.0000 23.8039 0.0000
# 6 0.0000 0.0000 0.0000 0.0000 0.0000 32.4833
#
#
#
# Elastic Compliance Matrix: (Units=1/GPa)
#
#
# Indices 1 2 3 4 5 6 
#
# 1 0.014494 0.000169 -0.001000 0.000000 0.000000 0.000000
# 2 0.000169 0.010739 -0.003114 0.000000 0.000000 0.000000
# 3 -0.001000 -0.003114 0.007961 0.000000 0.000000 0.000000
# 4 0.000000 0.000000 0.000000 0.045279 0.000000 0.000000
# 5 0.000000 0.000000 0.000000 0.000000 0.042010 0.000000
# 6 0.000000 0.000000 0.000000 0.000000 0.000000 0.030785
#
#
# Mechanical properties :
#
#
# Convention : Reuss Voigt Hill
#
# Bulk Modulus (GPa) = 39.51793 46.91432 43.21612
# Shear Modulus (GPa) = 29.83415 33.36278 31.59847
#
# Velocity S-wave (km/s) = 3.66084 3.87128 3.76753
# Velocity P-wave (km/s) = 5.96831 6.40755 6.19183
#
# Compressibility (1/GPa) = 0.02530497
#
# Stress axis : x y z
#
# Youngs Moduli (GPa) = 68.99400 93.11765 125.60492
#
# Poissons Ratio (x) = -0.01574 0.12559
# Poissons Ratio (y) = -0.01166 0.39113
# Poissons Ratio (z) = 0.06899 0.28997
#
# Static dielectric constant tensor:
#      x y z
#    x 1.891620 0.000000 0.000000 
#    y 0.000000 1.860990 0.000000 
#    z 0.000000 0.000000 1.767920 
# 
# From -- ./inp_files/8613.got.cif
#   From: 2010.05.17/outbox.cif.g08.bks.cpg/sg33_5_cif.got.tgz:8613.got - 2010.06.03 17:15:25.
