data_PCOD9345858
_publ_section_title
;
Structure prediction by ZEFSAII (Michael W. Deem and Ramdas Pophale) SiO2 
 PCOD9345858
Probable space group: P N A 21
;
_chemical_formula_sum "Si O2"
_cell_formula_units_Z 28
_cell_length_a 9.102173
_cell_length_b 24.919640
_cell_length_c 5.564154
_cell_angle_alpha 90.000000
_cell_angle_beta 90.000000
_cell_angle_gamma 90.000000
_cell_volume 1262.077404
_symmetry_space_group_name_H-M "P N A 21"
_symmetry_group_IT_number 33
_symmetry_cell_setting 'orthorhombic'
loop_
_space_group_symop_operation_xyz
x,y,z
-x,-y,1/2+z
1/2-x,1/2+y,1/2+z
1/2+x,1/2-y,z
loop_
_atom_site_type_symbol
_atom_site_label
_atom_site_fract_x
_atom_site_fract_y
_atom_site_fract_z
Si Si1 0.261046 0.789446 0.526150
Si Si2 0.763796 0.892847 0.551501
Si Si3 0.749614 0.309517 0.677908
Si Si4 0.497749 0.160206 0.358737
Si Si5 0.003213 0.825607 0.816013
Si Si6 0.240644 0.884427 0.140052
Si Si7 0.906097 0.002827 0.672077
O O1 0.273088 0.734399 0.382370
O O2 0.394843 0.803679 0.699394
O O3 0.250493 0.840782 0.351420
O O4 0.109970 0.786879 0.672129
O O5 0.750498 0.870291 0.281417
O O6 0.623730 0.869987 0.696590
O O7 0.911023 0.863132 0.639870
O O8 0.795632 0.954460 0.603950
O O9 0.618794 0.301955 0.491461
O O10 0.906018 0.304800 0.549433
O O11 0.605052 0.119228 0.499111
O O12 0.114245 0.861976 0.966910
O O13 0.187044 0.943005 0.213793
O O14 0.006971 0.008110 0.426235
#
# Coordination Sequence:
#
# PCOD9345858 Si02
#       7
#     4   4   4   4   4   4   4
#     4  11  25  45  72 104 147 195 241 307 377 456
#     4  11  24  45  72 105 146 186 249 304 372 447
#     4  11  25  45  72 104 147 195 241 307 377 456
#     4  10  26  47  66 108 146 186 245 306 378 450
#     4  10  22  43  70 104 136 188 243 294 362 444
#     4  11  24  45  72 105 146 186 249 304 372 447
#     4  12  26  48  80 112 148 200 260 316 378 452
#
# _framework density 22.185642000000001
#
# number of rings (size 3 to 8) (size 9 to 14) (size 15 to 20)
#    0.000    1.143    1.429    3.429    4.000   11.429 
#    5.143    4.286    0.000    0.000    0.000    0.000 
#    0.000    0.000    0.000    0.000    0.000    0.000 
#
# Total GULP energy -156747.906268 kJ/mol
# GULP energy per Si atom -5598.139510 kJ/mol
# Density = 2.213515 g / cm^3
# Si number density = 22.185642 Si / 1000 Ang^3
#
#
#
# Elastic Constant Matrix: (Units=GPa)
#
#
# Indices 1 2 3 4 5 6 
#
# 1 124.8972 7.3253 18.2144 0.0000 0.0000 0.0000
# 2 7.3253 85.2062 -7.7255 0.0000 0.0000 0.0000
# 3 18.2144 -7.7255 49.8015 0.0000 0.0000 0.0000
# 4 0.0000 0.0000 0.0000 33.3462 0.0000 0.0000
# 5 0.0000 0.0000 0.0000 0.0000 8.0043 0.0000
# 6 0.0000 0.0000 0.0000 0.0000 0.0000 -15.0074
#
#
#
# Elastic Compliance Matrix: (Units=1/GPa)
#
#
# Indices 1 2 3 4 5 6 
#
# 1 0.008546 -0.001033 -0.003286 0.000000 0.000000 0.000000
# 2 -0.001033 0.012028 0.002244 0.000000 0.000000 0.000000
# 3 -0.003286 0.002244 0.021630 0.000000 0.000000 0.000000
# 4 0.000000 0.000000 0.000000 0.029988 0.000000 0.000000
# 5 0.000000 0.000000 0.000000 0.000000 0.124933 0.000000
# 6 0.000000 0.000000 0.000000 0.000000 0.000000 -0.066634
#
#
# Mechanical properties :
#
#
# Convention : Reuss Voigt Hill
#
# Bulk Modulus (GPa) = 26.27822 32.83704 29.55763
# Shear Modulus (GPa) = 33.93819 21.40799 27.67309
#
# Velocity S-wave (km/s) = 3.91543 3.10973 3.53560
# Velocity P-wave (km/s) = 5.68429 5.26565 5.47897
#
# Compressibility (1/GPa) = 0.03805433
#
# Stress axis : x y z
#
# Youngs Moduli (GPa) = 117.00894 83.13635 46.23306
#
# Poissons Ratio (x) = 0.08585 0.15192
# Poissons Ratio (y) = 0.12083 -0.10373
# Poissons Ratio (z) = 0.38448 -0.18652
#
# Static dielectric constant tensor:
#      x y z
#    x 1.785710 0.000000 0.000000 
#    y 0.000000 1.755270 0.000000 
#    z 0.000000 0.000000 1.877300 
# 
# From -- ./inp_files/495.got.cif
#   From: 2010.05.17/outbox.cif.g08.bks.cpg/sg33_1_cif.got.tgz:495.got - 2010.06.03 17:15:25.
