data_PCOD9345102
_publ_section_title
;
Structure prediction by ZEFSAII (Michael W. Deem and Ramdas Pophale) SiO2 
 PCOD9345102
Probable space group: P N A 21
;
_chemical_formula_sum "Si O2"
_cell_formula_units_Z 28
_cell_length_a 8.682026
_cell_length_b 16.803900
_cell_length_c 7.791787
_cell_angle_alpha 90.000000
_cell_angle_beta 90.000000
_cell_angle_gamma 90.000000
_cell_volume 1136.758584
_symmetry_space_group_name_H-M "P N A 21"
_symmetry_group_IT_number 33
_symmetry_cell_setting 'orthorhombic'
loop_
_space_group_symop_operation_xyz
x,y,z
-x,-y,1/2+z
1/2-x,1/2+y,1/2+z
1/2+x,1/2-y,z
loop_
_atom_site_type_symbol
_atom_site_label
_atom_site_fract_x
_atom_site_fract_y
_atom_site_fract_z
Si Si1 0.438356 0.641100 0.023970
Si Si2 0.397137 0.051325 0.977000
Si Si3 0.787020 0.088794 0.314732
Si Si4 0.264999 0.698342 0.364346
Si Si5 0.171587 0.555122 0.881741
Si Si6 0.505389 0.201738 0.328676
Si Si7 0.078969 0.813856 0.544875
O O1 0.362512 0.665490 0.203278
O O2 0.616161 0.618930 0.981192
O O3 0.344140 0.567244 0.943751
O O4 0.422604 0.724031 0.923920
O O5 0.375683 0.137956 0.897130
O O6 0.283713 0.995143 0.865877
O O7 0.567422 0.014518 0.959669
O O8 0.346201 0.050594 0.175825
O O9 0.643041 0.145470 0.270020
O O10 0.888551 0.104223 0.145162
O O11 0.399025 0.690243 0.504698
O O12 0.188323 0.786031 0.387286
O O13 0.095339 0.639900 0.937628
O O14 0.401896 0.242697 0.184003
#
# Coordination Sequence:
#
# PCOD9345102 Si02
#       7
#     4   4   4   4   4   4   4
#     4  11  24  40  67 105 143 186 239 298 354 432
#     4  11  24  46  70 103 140 193 239 292 376 436
#     4  10  23  42  68 100 138 191 235 295 366 428
#     4  12  26  41  70 105 144 186 245 298 358 440
#     4  11  23  44  71  99 146 188 236 297 363 443
#     4  10  20  41  68  94 135 191 233 292 354 427
#     4  11  22  44  68 102 138 189 241 298 361 430
#
# _framework density 24.631440000000001
#
# number of rings (size 3 to 8) (size 9 to 14) (size 15 to 20)
#    0.000    1.143    2.857    4.286    4.000    2.286 
#    0.000    4.286    0.000    0.000    0.000    0.000 
#    0.000    0.000    0.000    0.000    0.000    0.000 
#
# Total GULP energy -156355.789280 kJ/mol
# GULP energy per Si atom -5584.135331 kJ/mol
# Density = 2.457538 g / cm^3
# Si number density = 24.631440 Si / 1000 Ang^3
#
#
#
# Elastic Constant Matrix: (Units=GPa)
#
#
# Indices 1 2 3 4 5 6 
#
# 1 83.2213 14.4825 11.5394 0.0000 0.0000 0.0000
# 2 14.4825 80.7582 37.5947 0.0000 0.0000 0.0000
# 3 11.5394 37.5947 72.9361 0.0000 0.0000 0.0000
# 4 0.0000 0.0000 0.0000 32.7293 0.0000 0.0000
# 5 0.0000 0.0000 0.0000 0.0000 36.9042 0.0000
# 6 0.0000 0.0000 0.0000 0.0000 0.0000 26.2991
#
#
#
# Elastic Compliance Matrix: (Units=1/GPa)
#
#
# Indices 1 2 3 4 5 6 
#
# 1 0.012467 -0.001734 -0.001079 0.000000 0.000000 0.000000
# 2 -0.001734 0.016533 -0.008248 0.000000 0.000000 0.000000
# 3 -0.001079 -0.008248 0.018133 0.000000 0.000000 0.000000
# 4 0.000000 0.000000 0.000000 0.030554 0.000000 0.000000
# 5 0.000000 0.000000 0.000000 0.000000 0.027097 0.000000
# 6 0.000000 0.000000 0.000000 0.000000 0.000000 0.038024
#
#
# Mechanical properties :
#
#
# Convention : Reuss Voigt Hill
#
# Bulk Modulus (GPa) = 39.97961 40.46099 40.22030
# Shear Modulus (GPa) = 28.85743 30.73980 29.79861
#
# Velocity S-wave (km/s) = 3.42653 3.53652 3.48196
# Velocity P-wave (km/s) = 5.64988 5.75658 5.70348
#
# Compressibility (1/GPa) = 0.02501275
#
# Stress axis : x y z
#
# Youngs Moduli (GPa) = 80.20890 60.48525 55.14947
#
# Poissons Ratio (x) = 0.10485 0.05950
# Poissons Ratio (y) = 0.13904 0.45485
# Poissons Ratio (z) = 0.08654 0.49886
#
# Static dielectric constant tensor:
#      x y z
#    x 1.979230 0.000000 0.000000 
#    y 0.000000 1.939330 0.000000 
#    z 0.000000 0.000000 2.076730 
# 
# From -- ./inp_files/3331.got.cif
#   From: 2010.05.17/outbox.cif.g08.bks.cpg/sg33_2_cif.got.tgz:3331.got - 2010.06.03 17:15:25.
