data_PCOD9345775
_publ_section_title
;
Structure prediction by ZEFSAII (Michael W. Deem and Ramdas Pophale) SiO2 
 PCOD9345775
Probable space group: P N A 21
;
_chemical_formula_sum "Si O2"
_cell_formula_units_Z 32
_cell_length_a 29.006072
_cell_length_b 7.762497
_cell_length_c 5.504177
_cell_angle_alpha 90.000000
_cell_angle_beta 90.000000
_cell_angle_gamma 90.000000
_cell_volume 1239.317999
_symmetry_space_group_name_H-M "P N A 21"
_symmetry_group_IT_number 33
_symmetry_cell_setting 'orthorhombic'
loop_
_space_group_symop_operation_xyz
x,y,z
-x,-y,1/2+z
1/2-x,1/2+y,1/2+z
1/2+x,1/2-y,z
loop_
_atom_site_type_symbol
_atom_site_label
_atom_site_fract_x
_atom_site_fract_y
_atom_site_fract_z
Si Si1 0.816298 0.809960 0.320370
Si Si2 0.039545 0.152326 0.950775
Si Si3 0.437669 0.329991 0.163163
Si Si4 0.348223 0.455130 0.948703
Si Si5 0.473155 0.974336 0.195136
Si Si6 0.879198 0.695747 0.689286
Si Si7 0.766297 0.192525 0.103604
Si Si8 0.699004 0.024994 0.457107
O O1 0.860309 0.703851 0.414539
O O2 0.780210 0.790842 0.531229
O O3 0.833253 0.993120 0.226237
O O4 0.795087 0.701765 0.102441
O O5 0.067012 0.265516 0.151897
O O6 0.986891 0.128459 0.034577
O O7 0.041948 0.276344 0.715322
O O8 0.062760 0.970768 0.880703
O O9 0.395030 0.352223 0.980844
O O10 0.438344 0.131632 0.244658
O O11 0.298601 0.377214 0.880004
O O12 0.361391 0.627315 0.811210
O O13 0.507064 0.990268 0.428023
O O14 0.851348 0.544510 0.826316
O O15 0.741114 0.041567 0.260506
O O16 0.797640 0.365383 0.146387
#
# Coordination Sequence:
#
# PCOD9345775 Si02
#       8
#     4   4   4   4   4   4   4   4
#     4  10  22  42  64  93 135 175 227 293 353 427
#     4  11  22  44  73 100 148 195 238 298 368 435
#     4  11  23  43  71 109 139 199 241 295 371 435
#     4  11  23  42  66 103 140 176 245 298 352 451
#     4  10  24  46  71 108 149 191 250 306 358 447
#     4  10  23  43  64 101 138 183 234 296 350 442
#     4  11  23  42  67  98 133 185 226 301 365 442
#     4  10  24  40  68  96 132 182 237 287 373 433
#
# _framework density 25.820654000000001
#
# number of rings (size 3 to 8) (size 9 to 14) (size 15 to 20)
#    0.000    1.500    2.500    1.500    5.250    3.000 
#   11.250    0.000    0.000    0.000    0.000    0.000 
#    0.000    0.000    0.000    0.000    0.000    0.000 
#
# Total GULP energy -178137.552317 kJ/mol
# GULP energy per Si atom -5566.798510 kJ/mol
# Density = 2.576189 g / cm^3
# Si number density = 25.820654 Si / 1000 Ang^3
#
#
#
# Elastic Constant Matrix: (Units=GPa)
#
#
# Indices 1 2 3 4 5 6 
#
# 1 127.3087 3.6840 14.8360 0.0000 0.0000 0.0000
# 2 3.6840 67.9237 -8.2373 0.0000 0.0000 0.0000
# 3 14.8360 -8.2373 39.9408 0.0000 0.0000 0.0000
# 4 0.0000 0.0000 0.0000 42.4565 0.0000 0.0000
# 5 0.0000 0.0000 0.0000 0.0000 21.1842 0.0000
# 6 0.0000 0.0000 0.0000 0.0000 0.0000 33.9149
#
#
#
# Elastic Compliance Matrix: (Units=1/GPa)
#
#
# Indices 1 2 3 4 5 6 
#
# 1 0.008257 -0.000841 -0.003240 0.000000 0.000000 0.000000
# 2 -0.000841 0.015186 0.003444 0.000000 0.000000 0.000000
# 3 -0.003240 0.003444 0.026951 0.000000 0.000000 0.000000
# 4 0.000000 0.000000 0.000000 0.023554 0.000000 0.000000
# 5 0.000000 0.000000 0.000000 0.000000 0.047205 0.000000
# 6 0.000000 0.000000 0.000000 0.000000 0.000000 0.029486
#
#
# Mechanical properties :
#
#
# Convention : Reuss Voigt Hill
#
# Bulk Modulus (GPa) = 20.35849 28.41538 24.38693
# Shear Modulus (GPa) = 29.71152 34.50383 32.10768
#
# Velocity S-wave (km/s) = 3.39586 3.65949 3.53014
# Velocity P-wave (km/s) = 4.82468 5.37444 5.10696
#
# Compressibility (1/GPa) = 0.04911956
#
# Stress axis : x y z
#
# Youngs Moduli (GPa) = 121.11113 65.85142 37.10430
#
# Poissons Ratio (x) = 0.05537 0.12023
# Poissons Ratio (y) = 0.10183 -0.12779
# Poissons Ratio (z) = 0.39245 -0.22680
#
# Static dielectric constant tensor:
#      x y z
#    x 2.147250 0.000000 0.000000 
#    y 0.000000 2.171030 0.000000 
#    z 0.000000 0.000000 2.150530 
# 
# From -- ./inp_files/2537.got.cif
#   From: 2010.05.17/outbox.cif.g08.bks.cpg/sg33_2_cif.got.tgz:2537.got - 2010.06.03 17:15:25.
