data_PCOD9345693
_publ_section_title
;
Structure prediction by ZEFSAII (Michael W. Deem and Ramdas Pophale) SiO2 
 PCOD9345693
Probable space group: P N A 21
;
_chemical_formula_sum "Si O2"
_cell_formula_units_Z 12
_cell_length_a 5.755762
_cell_length_b 13.346408
_cell_length_c 5.172503
_cell_angle_alpha 90.000000
_cell_angle_beta 90.000000
_cell_angle_gamma 90.000000
_cell_volume 397.345205
_symmetry_space_group_name_H-M "P N A 21"
_symmetry_group_IT_number 33
_symmetry_cell_setting 'orthorhombic'
loop_
_space_group_symop_operation_xyz
x,y,z
-x,-y,1/2+z
1/2-x,1/2+y,1/2+z
1/2+x,1/2-y,z
loop_
_atom_site_type_symbol
_atom_site_label
_atom_site_fract_x
_atom_site_fract_y
_atom_site_fract_z
Si Si1 0.430511 0.207680 0.189900
Si Si2 0.026427 0.868091 0.308264
Si Si3 0.277733 0.958362 0.812034
O O1 0.173635 0.238860 0.292141
O O2 0.472140 0.091703 0.266060
O O3 0.459496 0.252595 0.896004
O O4 0.146681 0.917054 0.559606
O O5 0.778176 0.924413 0.307362
O O6 0.165009 0.906699 0.062171
#
# Coordination Sequence:
#
# PCOD9345693 Si02
#       3
#     4   4   4
#     4  10  22  40  64  94 128 168 214 264 320 382
#     4   9  19  38  63  93 129 169 214 264 319 381
#     4   9  19  38  63  93 129 169 214 264 319 381
#
# _framework density 30.200438999999999
#
# number of rings (size 3 to 8) (size 9 to 14) (size 15 to 20)
#    0.000    2.667    0.000    0.000    0.000   10.667 
#    0.000   26.667    0.000    0.000    0.000    0.000 
#    0.000    0.000    0.000    0.000    0.000    0.000 
#
# Total GULP energy -67007.591696 kJ/mol
# GULP energy per Si atom -5583.965975 kJ/mol
# Density = 3.013170 g / cm^3
# Si number density = 30.200439 Si / 1000 Ang^3
#
#
#
# Elastic Constant Matrix: (Units=GPa)
#
#
# Indices 1 2 3 4 5 6 
#
# 1 180.5870 59.7288 43.9568 0.0000 0.0000 0.0000
# 2 59.7288 205.9126 63.2951 0.0000 0.0000 0.0000
# 3 43.9568 63.2951 209.1606 0.0000 0.0000 0.0000
# 4 0.0000 0.0000 0.0000 18.9146 0.0000 0.0000
# 5 0.0000 0.0000 0.0000 0.0000 59.2861 0.0000
# 6 0.0000 0.0000 0.0000 0.0000 0.0000 66.8076
#
#
#
# Elastic Compliance Matrix: (Units=1/GPa)
#
#
# Indices 1 2 3 4 5 6 
#
# 1 0.006258 -0.001556 -0.000844 0.000000 0.000000 0.000000
# 2 -0.001556 0.005741 -0.001410 0.000000 0.000000 0.000000
# 3 -0.000844 -0.001410 0.005385 0.000000 0.000000 0.000000
# 4 0.000000 0.000000 0.000000 0.052869 0.000000 0.000000
# 5 0.000000 0.000000 0.000000 0.000000 0.016867 0.000000
# 6 0.000000 0.000000 0.000000 0.000000 0.000000 0.014968
#
#
# Mechanical properties :
#
#
# Convention : Reuss Voigt Hill
#
# Bulk Modulus (GPa) = 102.42450 103.29130 102.85790
# Shear Modulus (GPa) = 44.26180 57.58026 50.92103
#
# Velocity S-wave (km/s) = 3.83247 4.37120 4.11067
# Velocity P-wave (km/s) = 7.31931 7.72999 7.52745
#
# Compressibility (1/GPa) = 0.00976329
#
# Stress axis : x y z
#
# Youngs Moduli (GPa) = 159.80773 174.17923 185.69125
#
# Poissons Ratio (x) = 0.27095 0.15678
# Poissons Ratio (y) = 0.24859 0.26191
# Poissons Ratio (z) = 0.13493 0.24567
#
# Static dielectric constant tensor:
#      x y z
#    x 2.449230 0.000000 0.000000 
#    y 0.000000 2.627940 0.000000 
#    z 0.000000 0.000000 2.368270 
# 
# From -- ./inp_files/103.got.cif
#   From: 2010.05.17/outbox.cif.g08.bks.cpg/sg33_1_cif.got.tgz:103.got - 2010.06.03 17:15:25.
