data_PCOD9345406
_publ_section_title
;
Structure prediction by ZEFSAII (Michael W. Deem and Ramdas Pophale) SiO2 
 PCOD9345406
Probable space group: P N A 21
;
_chemical_formula_sum "Si O2"
_cell_formula_units_Z 20
_cell_length_a 18.732930
_cell_length_b 7.341952
_cell_length_c 5.296812
_cell_angle_alpha 90.000000
_cell_angle_beta 90.000000
_cell_angle_gamma 90.000000
_cell_volume 728.503781
_symmetry_space_group_name_H-M "P N A 21"
_symmetry_group_IT_number 33
_symmetry_cell_setting 'orthorhombic'
loop_
_space_group_symop_operation_xyz
x,y,z
-x,-y,1/2+z
1/2-x,1/2+y,1/2+z
1/2+x,1/2-y,z
loop_
_atom_site_type_symbol
_atom_site_label
_atom_site_fract_x
_atom_site_fract_y
_atom_site_fract_z
Si Si1 0.045789 0.541527 0.702780
Si Si2 0.895286 0.827104 0.202038
Si Si3 0.053082 0.880153 0.391364
Si Si4 0.682535 0.787464 0.196645
Si Si5 0.768388 0.100724 0.214625
O O1 0.107975 0.389934 0.717147
O O2 0.067458 0.746156 0.630675
O O3 0.000435 0.479499 0.455196
O O4 0.825547 0.938951 0.277636
O O5 0.968934 0.877595 0.348283
O O6 0.916191 0.918635 0.933134
O O7 0.101474 0.781130 0.183618
O O8 0.692329 0.002150 0.228398
O O9 0.713682 0.683745 0.442397
O O10 0.723322 0.741673 0.939816
#
# Coordination Sequence:
#
# PCOD9345406 Si02
#       5
#     4   4   4   4   4
#     4  10  22  38  60  98 128 166 212 266 334 388
#     4  10  21  40  67  95 131 166 220 268 332 381
#     4  10  21  40  67  95 131 166 220 268 332 381
#     4  11  25  45  68  97 132 177 220 270 334 392
#     4  11  25  45  68  97 132 177 220 270 334 392
#
# _framework density 27.453527999999999
#
# number of rings (size 3 to 8) (size 9 to 14) (size 15 to 20)
#    0.000    1.600    0.000    3.600    2.800    9.600 
#   14.400    0.000    0.000    0.000    0.000    0.000 
#    0.000    0.000    0.000    0.000    0.000    0.000 
#
# Total GULP energy -112021.663558 kJ/mol
# GULP energy per Si atom -5601.083178 kJ/mol
# Density = 2.739104 g / cm^3
# Si number density = 27.453528 Si / 1000 Ang^3
#
#
#
# Elastic Constant Matrix: (Units=GPa)
#
#
# Indices 1 2 3 4 5 6 
#
# 1 71.8246 27.2957 22.7597 0.0000 0.0000 0.0000
# 2 27.2957 87.1946 23.6752 0.0000 0.0000 0.0000
# 3 22.7597 23.6752 129.8898 0.0000 0.0000 0.0000
# 4 0.0000 0.0000 0.0000 32.4878 0.0000 0.0000
# 5 0.0000 0.0000 0.0000 0.0000 38.8575 0.0000
# 6 0.0000 0.0000 0.0000 0.0000 0.0000 59.1186
#
#
#
# Elastic Compliance Matrix: (Units=1/GPa)
#
#
# Indices 1 2 3 4 5 6 
#
# 1 0.016294 -0.004551 -0.002026 0.000000 0.000000 0.000000
# 2 -0.004551 0.013337 -0.001633 0.000000 0.000000 0.000000
# 3 -0.002026 -0.001633 0.008352 0.000000 0.000000 0.000000
# 4 0.000000 0.000000 0.000000 0.030781 0.000000 0.000000
# 5 0.000000 0.000000 0.000000 0.000000 0.025735 0.000000
# 6 0.000000 0.000000 0.000000 0.000000 0.000000 0.016915
#
#
# Mechanical properties :
#
#
# Convention : Reuss Voigt Hill
#
# Bulk Modulus (GPa) = 46.37669 48.48557 47.43113
# Shear Modulus (GPa) = 37.03134 40.43799 38.73466
#
# Velocity S-wave (km/s) = 3.67669 3.84208 3.76029
# Velocity P-wave (km/s) = 5.91215 6.11404 6.01394
#
# Compressibility (1/GPa) = 0.02156255
#
# Stress axis : x y z
#
# Youngs Moduli (GPa) = 61.37174 74.98091 119.73883
#
# Poissons Ratio (x) = 0.34122 0.24255
# Poissons Ratio (y) = 0.27929 0.19559
# Poissons Ratio (z) = 0.12432 0.12248
#
# Static dielectric constant tensor:
#      x y z
#    x 2.189450 0.000000 0.000000 
#    y 0.000000 2.100920 0.000000 
#    z 0.000000 0.000000 2.154460 
# 
# From -- ./inp_files/1614.got.cif
#   From: 2010.05.17/outbox.cif.g08.bks.cpg/sg33_1_cif.got.tgz:1614.got - 2010.06.03 17:15:25.
