data_PCOD9345450
_publ_section_title
;
Structure prediction by ZEFSAII (Michael W. Deem and Ramdas Pophale) SiO2 
 PCOD9345450
Probable space group: P N A 21
;
_chemical_formula_sum "Si O2"
_cell_formula_units_Z 32
_cell_length_a 12.933857
_cell_length_b 18.463667
_cell_length_c 5.329839
_cell_angle_alpha 90.000000
_cell_angle_beta 90.000000
_cell_angle_gamma 90.000000
_cell_volume 1272.799817
_symmetry_space_group_name_H-M "P N A 21"
_symmetry_group_IT_number 33
_symmetry_cell_setting 'orthorhombic'
loop_
_space_group_symop_operation_xyz
x,y,z
-x,-y,1/2+z
1/2-x,1/2+y,1/2+z
1/2+x,1/2-y,z
loop_
_atom_site_type_symbol
_atom_site_label
_atom_site_fract_x
_atom_site_fract_y
_atom_site_fract_z
Si Si1 0.412816 0.663618 0.188930
Si Si2 0.750000 0.596663 0.048547
Si Si3 0.972000 0.041402 0.401386
Si Si4 0.875506 0.714488 0.808740
Si Si5 0.587184 0.836382 0.908164
Si Si6 0.750000 0.334392 0.048547
Si Si7 0.124494 0.785512 0.288354
Si Si8 0.028000 0.458598 0.695708
O O1 0.459181 0.611876 0.971922
O O2 0.313302 0.628227 0.325178
O O3 0.515163 0.679194 0.351533
O O4 0.382925 0.741873 0.074086
O O5 0.649780 0.555766 0.944071
O O6 0.704709 0.649923 0.260515
O O7 0.850220 0.555766 0.153023
O O8 0.795291 0.649923 0.836579
O O9 0.995558 0.014436 0.122286
O O10 0.836953 0.778554 0.637815
O O11 0.984837 0.679194 0.745561
O O12 0.686698 0.871773 0.771917
O O13 0.617075 0.758127 0.023008
O O14 0.540819 0.888124 0.125172
O O15 0.836953 0.278554 0.959279
O O16 0.995558 0.514436 0.474808
#
# Coordination Sequence:
#
# PCOD9345450 Si02
#       8
#     4   4   4   4   4   4   4   4
#     4  10  23  41  66 100 143 173 240 291 358 427
#     4  10  22  49  70 102 145 188 238 304 374 428
#     4  11  28  50  72 102 144 199 247 291 346 439
#     4  10  21  41  65 105 134 178 228 297 372 421
#     4  10  23  41  66 100 143 173 240 291 358 427
#     4  12  20  35  68 106 135 178 216 304 362 430
#     4  10  21  41  65 105 134 178 228 297 372 421
#     4  11  28  50  72 102 144 199 247 291 346 439
#
# _framework density 25.141425000000002
#
# number of rings (size 3 to 8) (size 9 to 14) (size 15 to 20)
#    0.000    1.500    2.500    0.750    3.500    6.000 
#    4.500    0.000    0.000    0.000    0.000    0.000 
#    0.000    0.000    0.000    0.000    0.000    0.000 
#
# Total GULP energy -178895.542362 kJ/mol
# GULP energy per Si atom -5590.485699 kJ/mol
# Density = 2.508420 g / cm^3
# Si number density = 25.141425 Si / 1000 Ang^3
#
#
#
# Elastic Constant Matrix: (Units=GPa)
#
#
# Indices 1 2 3 4 5 6 
#
# 1 154.5131 43.0051 42.6220 0.0000 0.0000 0.0000
# 2 43.0051 80.0312 6.6963 0.0000 0.0000 0.0000
# 3 42.6220 6.6963 53.0616 0.0000 0.0000 0.0000
# 4 0.0000 0.0000 0.0000 29.2695 0.0000 0.0000
# 5 0.0000 0.0000 0.0000 0.0000 35.7736 0.0000
# 6 0.0000 0.0000 0.0000 0.0000 0.0000 37.6814
#
#
#
# Elastic Compliance Matrix: (Units=1/GPa)
#
#
# Indices 1 2 3 4 5 6 
#
# 1 0.009766 -0.004640 -0.007259 0.000000 0.000000 0.000000
# 2 -0.004640 0.014833 0.001855 0.000000 0.000000 0.000000
# 3 -0.007259 0.001855 0.024443 0.000000 0.000000 0.000000
# 4 0.000000 0.000000 0.000000 0.034165 0.000000 0.000000
# 5 0.000000 0.000000 0.000000 0.000000 0.027954 0.000000
# 6 0.000000 0.000000 0.000000 0.000000 0.000000 0.026538
#
#
# Mechanical properties :
#
#
# Convention : Reuss Voigt Hill
#
# Bulk Modulus (GPa) = 34.53723 52.47252 43.50488
# Shear Modulus (GPa) = 29.86185 33.56374 31.71280
#
# Velocity S-wave (km/s) = 3.45012 3.65773 3.55544
# Velocity P-wave (km/s) = 5.44409 6.22534 5.84778
#
# Compressibility (1/GPa) = 0.02895426
#
# Stress axis : x y z
#
# Youngs Moduli (GPa) = 102.39829 67.41556 40.91223
#
# Poissons Ratio (x) = 0.31283 0.29697
# Poissons Ratio (y) = 0.47516 -0.07591
# Poissons Ratio (z) = 0.74329 -0.12508
#
# Static dielectric constant tensor:
#      x y z
#    x 1.989660 0.000000 0.000000 
#    y 0.000000 1.987600 0.000000 
#    z 0.000000 0.000000 2.178880 
# 
# From -- ./inp_files/1042.got.cif
#   From: 2010.05.17/outbox.cif.g08.bks.cpg/sg33_1_cif.got.tgz:1042.got - 2010.06.03 17:15:25.
