data_PCOD9345790
_publ_section_title
;
Structure prediction by ZEFSAII (Michael W. Deem and Ramdas Pophale) SiO2 
 PCOD9345790
Probable space group: P N A 21
;
_chemical_formula_sum "Si O2"
_cell_formula_units_Z 28
_cell_length_a 23.597321
_cell_length_b 5.689934
_cell_length_c 8.518930
_cell_angle_alpha 90.000000
_cell_angle_beta 90.000000
_cell_angle_gamma 90.000000
_cell_volume 1143.812870
_symmetry_space_group_name_H-M "P N A 21"
_symmetry_group_IT_number 33
_symmetry_cell_setting 'orthorhombic'
loop_
_space_group_symop_operation_xyz
x,y,z
-x,-y,1/2+z
1/2-x,1/2+y,1/2+z
1/2+x,1/2-y,z
loop_
_atom_site_type_symbol
_atom_site_label
_atom_site_fract_x
_atom_site_fract_y
_atom_site_fract_z
Si Si1 0.032138 0.028195 0.622630
Si Si2 0.841902 0.415413 0.624290
Si Si3 0.027087 0.668169 0.352694
Si Si4 0.380900 0.904427 0.014276
Si Si5 0.747166 0.231996 0.439704
Si Si6 0.692284 0.417537 0.152186
Si Si7 0.580646 0.838290 0.825506
O O1 0.076586 0.186129 0.529514
O O2 0.981581 0.177752 0.697234
O O3 0.014504 0.820025 0.508141
O O4 0.065968 0.923330 0.771023
O O5 0.777114 0.419564 0.552483
O O6 0.849055 0.693870 0.658050
O O7 0.883619 0.359518 0.481185
O O8 0.834893 0.163202 0.714685
O O9 0.089260 0.562347 0.379376
O O10 0.979521 0.468680 0.342753
O O11 0.387353 0.041611 0.178718
O O12 0.317126 0.830857 0.983512
O O13 0.743332 0.340245 0.267229
O O14 0.784241 0.999465 0.481368
#
# Coordination Sequence:
#
# PCOD9345790 Si02
#       7
#     4   4   4   4   4   4   4
#     4  10  22  43  67  99 133 190 226 299 354 431
#     4  10  25  43  69 103 134 186 233 297 354 433
#     4  10  22  42  67 101 138 182 241 288 363 431
#     4  10  22  42  67 101 133 185 232 295 359 430
#     4  10  24  44  68 102 140 187 238 301 356 445
#     4  10  25  43  69 101 142 181 242 292 365 415
#     4  10  22  43  67  99 134 185 236 292 359 431
#
# _framework density 24.479531000000001
#
# number of rings (size 3 to 8) (size 9 to 14) (size 15 to 20)
#    0.857    1.143    0.000    1.714    6.000    3.429 
#   12.857    0.000    0.000    0.000    0.000    0.000 
#    0.000    0.000    0.000    0.000    0.000    0.000 
#
# Total GULP energy -156281.116800 kJ/mol
# GULP energy per Si atom -5581.468457 kJ/mol
# Density = 2.442381 g / cm^3
# Si number density = 24.479531 Si / 1000 Ang^3
#
#
#
# Elastic Constant Matrix: (Units=GPa)
#
#
# Indices 1 2 3 4 5 6 
#
# 1 80.3340 24.1941 6.0897 0.0000 0.0000 0.0000
# 2 24.1941 137.6417 44.6088 0.0000 0.0000 0.0000
# 3 6.0897 44.6088 21.9014 0.0000 0.0000 0.0000
# 4 0.0000 0.0000 0.0000 60.2497 0.0000 0.0000
# 5 0.0000 0.0000 0.0000 0.0000 43.7917 0.0000
# 6 0.0000 0.0000 0.0000 0.0000 0.0000 18.6378
#
#
#
# Elastic Compliance Matrix: (Units=1/GPa)
#
#
# Indices 1 2 3 4 5 6 
#
# 1 0.013215 -0.003331 0.003109 0.000000 0.000000 0.000000
# 2 -0.003331 0.022215 -0.044321 0.000000 0.000000 0.000000
# 3 0.003109 -0.044321 0.135069 0.000000 0.000000 0.000000
# 4 0.000000 0.000000 0.000000 0.016598 0.000000 0.000000
# 5 0.000000 0.000000 0.000000 0.000000 0.022835 0.000000
# 6 0.000000 0.000000 0.000000 0.000000 0.000000 0.053654
#
#
# Mechanical properties :
#
#
# Convention : Reuss Voigt Hill
#
# Bulk Modulus (GPa) = 12.28296 43.29581 27.78938
# Shear Modulus (GPa) = 13.16448 35.53481 24.34965
#
# Velocity S-wave (km/s) = 2.32151 3.81414 3.15730
# Velocity P-wave (km/s) = 3.49492 6.09277 4.96670
#
# Compressibility (1/GPa) = 0.08141361
#
# Stress axis : x y z
#
# Youngs Moduli (GPa) = 75.66913 45.01463 7.40364
#
# Poissons Ratio (x) = 0.14993 -0.02302
# Poissons Ratio (y) = 0.25203 0.32814
# Poissons Ratio (z) = -0.23529 1.99511
#
# Static dielectric constant tensor:
#      x y z
#    x 1.949010 0.000000 0.000000 
#    y 0.000000 1.969840 0.000000 
#    z 0.000000 0.000000 2.016620 
# 
# From -- ./inp_files/5276.got.cif
#   From: 2010.05.17/outbox.cif.g08.bks.cpg/sg33_3_cif.got.tgz:5276.got - 2010.06.03 17:15:25.
