data_PCOD9345685
_publ_section_title
;
Structure prediction by ZEFSAII (Michael W. Deem and Ramdas Pophale) SiO2 
 PCOD9345685
Probable space group: P N A 21
;
_chemical_formula_sum "Si O2"
_cell_formula_units_Z 32
_cell_length_a 8.659021
_cell_length_b 11.209326
_cell_length_c 15.145640
_cell_angle_alpha 90.000000
_cell_angle_beta 90.000000
_cell_angle_gamma 90.000000
_cell_volume 1470.062917
_symmetry_space_group_name_H-M "P N A 21"
_symmetry_group_IT_number 33
_symmetry_cell_setting 'orthorhombic'
loop_
_space_group_symop_operation_xyz
x,y,z
-x,-y,1/2+z
1/2-x,1/2+y,1/2+z
1/2+x,1/2-y,z
loop_
_atom_site_type_symbol
_atom_site_label
_atom_site_fract_x
_atom_site_fract_y
_atom_site_fract_z
Si Si1 0.732794 0.222943 0.705580
Si Si2 0.591162 0.134415 0.427364
Si Si3 0.487127 0.572716 0.263157
Si Si4 0.554079 0.892608 0.109332
Si Si5 0.056963 0.396046 0.229446
Si Si6 0.769110 0.283820 0.138458
Si Si7 0.955995 0.100301 0.428722
Si Si8 0.487487 0.424231 0.082391
O O1 0.647399 0.327612 0.759555
O O2 0.851992 0.145521 0.762193
O O3 0.601209 0.144192 0.660995
O O4 0.829883 0.283688 0.626077
O O5 0.491631 0.083457 0.508933
O O6 0.556584 0.075099 0.332412
O O7 0.773565 0.122208 0.444735
O O8 0.540964 0.273067 0.420556
O O9 0.470283 0.479712 0.341537
O O10 0.483404 0.496132 0.173747
O O11 0.619764 0.002756 0.164277
O O12 0.163903 0.281875 0.211331
O O13 0.890024 0.363589 0.191430
O O14 0.655592 0.361151 0.078139
O O15 0.864232 0.183106 0.085614
O O16 0.028930 0.021300 0.506480
#
# Coordination Sequence:
#
# PCOD9345685 Si02
#       8
#     4   4   4   4   4   4   4   4
#     4  10  22  40  63  89 126 169 211 255 314 380
#     4  12  24  40  64  96 124 160 214 262 314 382
#     4  11  23  42  64  92 129 169 213 267 320 373
#     4  11  22  40  64  91 125 164 204 258 315 372
#     4  11  22  40  64  91 125 164 204 258 315 372
#     4  10  22  40  63  89 126 169 211 255 314 380
#     4  12  26  42  66  94 126 164 210 266 320 378
#     4  11  23  42  64  92 129 169 213 267 320 373
#
# _framework density 21.767775
#
# number of rings (size 3 to 8) (size 9 to 14) (size 15 to 20)
#    0.000    1.000    0.000    9.000    0.000    3.000 
#    0.000    5.000    0.000    0.000    0.000    0.000 
#    0.000    0.000    0.000    0.000    0.000    0.000 
#
# Total GULP energy -179144.413982 kJ/mol
# GULP energy per Si atom -5598.262937 kJ/mol
# Density = 2.171823 g / cm^3
# Si number density = 21.767775 Si / 1000 Ang^3
#
#
#
# Elastic Constant Matrix: (Units=GPa)
#
#
# Indices 1 2 3 4 5 6 
#
# 1 81.6263 23.5102 -8.1607 0.0000 0.0000 0.0000
# 2 23.5102 92.4965 38.9233 0.0000 0.0000 0.0000
# 3 -8.1607 38.9233 123.3708 0.0000 0.0000 0.0000
# 4 0.0000 0.0000 0.0000 36.4858 0.0000 0.0000
# 5 0.0000 0.0000 0.0000 0.0000 7.1525 0.0000
# 6 0.0000 0.0000 0.0000 0.0000 0.0000 2.2195
#
#
#
# Elastic Compliance Matrix: (Units=1/GPa)
#
#
# Indices 1 2 3 4 5 6 
#
# 1 0.013773 -0.004479 0.002324 0.000000 0.000000 0.000000
# 2 -0.004479 0.013923 -0.004689 0.000000 0.000000 0.000000
# 3 0.002324 -0.004689 0.009739 0.000000 0.000000 0.000000
# 4 0.000000 0.000000 0.000000 0.027408 0.000000 0.000000
# 5 0.000000 0.000000 0.000000 0.000000 0.139811 0.000000
# 6 0.000000 0.000000 0.000000 0.000000 0.000000 0.450557
#
#
# Mechanical properties :
#
#
# Convention : Reuss Voigt Hill
#
# Bulk Modulus (GPa) = 42.10946 45.11547 43.61247
# Shear Modulus (GPa) = 7.38756 25.38628 16.38692
#
# Velocity S-wave (km/s) = 1.84423 3.41872 2.74671
# Velocity P-wave (km/s) = 4.89099 6.02945 5.48981
#
# Compressibility (1/GPa) = 0.02374763
#
# Stress axis : x y z
#
# Youngs Moduli (GPa) = 72.60419 71.82501 102.68305
#
# Poissons Ratio (x) = 0.32169 -0.23865
# Poissons Ratio (y) = 0.32518 0.48147
# Poissons Ratio (z) = -0.16874 0.33678
#
# Static dielectric constant tensor:
#      x y z
#    x 1.809320 0.000000 0.000000 
#    y 0.000000 1.838450 0.000000 
#    z 0.000000 0.000000 1.723030 
# 
# From -- ./inp_files/7645.got.cif
#   From: 2010.05.17/outbox.cif.g08.bks.cpg/sg33_4_cif.got.tgz:7645.got - 2010.06.03 17:15:25.
