data_PCOD9345707
_publ_section_title
;
Structure prediction by ZEFSAII (Michael W. Deem and Ramdas Pophale) SiO2 
 PCOD9345707
Probable space group: P N A 21
;
_chemical_formula_sum "Si O2"
_cell_formula_units_Z 28
_cell_length_a 9.376373
_cell_length_b 5.276511
_cell_length_c 20.132379
_cell_angle_alpha 90.000000
_cell_angle_beta 90.000000
_cell_angle_gamma 90.000000
_cell_volume 996.040095
_symmetry_space_group_name_H-M "P N A 21"
_symmetry_group_IT_number 33
_symmetry_cell_setting 'orthorhombic'
loop_
_space_group_symop_operation_xyz
x,y,z
-x,-y,1/2+z
1/2-x,1/2+y,1/2+z
1/2+x,1/2-y,z
loop_
_atom_site_type_symbol
_atom_site_label
_atom_site_fract_x
_atom_site_fract_y
_atom_site_fract_z
Si Si1 0.164224 0.748928 0.418360
Si Si2 0.146751 0.091526 0.809569
Si Si3 0.163076 0.795498 0.558839
Si Si4 0.970801 0.248803 0.418218
Si Si5 0.476227 0.205488 0.564958
Si Si6 0.082151 0.907353 0.209479
Si Si7 0.198235 0.778693 0.700583
O O1 0.280394 0.769826 0.361998
O O2 0.239228 0.735723 0.490142
O O3 0.068468 0.497355 0.409692
O O4 0.068927 0.997357 0.420962
O O5 0.249182 0.997155 0.750065
O O6 0.119170 0.834419 0.853581
O O7 0.004761 0.193656 0.773460
O O8 0.049458 0.568480 0.565260
O O9 0.252625 0.784815 0.625501
O O10 0.094564 0.072615 0.559408
O O11 0.899860 0.273630 0.492234
O O12 0.414707 0.265239 0.638528
O O13 0.237416 0.017458 0.225474
O O14 0.970410 0.152604 0.198766
#
# Coordination Sequence:
#
# PCOD9345707 Si02
#       7
#     4   4   4   4   4   4   4
#     4  10  22  42  67  95 136 177 229 281 343 407
#     4  10  22  40  67 103 135 184 221 291 338 417
#     4   9  19  40  66  94 128 176 223 280 333 405
#     4  10  22  42  67  96 137 176 230 280 345 403
#     4   9  19  40  65  95 129 177 223 277 331 405
#     4   9  20  40  64 102 132 181 217 284 333 411
#     4   9  20  40  68  97 137 175 225 277 345 402
#
# _framework density 28.111315999999999
#
# number of rings (size 3 to 8) (size 9 to 14) (size 15 to 20)
#    0.857    1.714    0.000    0.857    2.000    1.143 
#    7.714    5.714    3.143    0.000    0.000    0.000 
#    0.000    0.000    0.000    0.000    0.000    0.000 
#
# Total GULP energy -156538.607813 kJ/mol
# GULP energy per Si atom -5590.664565 kJ/mol
# Density = 2.804733 g / cm^3
# Si number density = 28.111316 Si / 1000 Ang^3
#
#
#
# Elastic Constant Matrix: (Units=GPa)
#
#
# Indices 1 2 3 4 5 6 
#
# 1 70.5045 50.1649 31.1553 0.0000 0.0000 0.0000
# 2 50.1649 132.6619 5.7275 0.0000 0.0000 0.0000
# 3 31.1553 5.7275 198.0744 0.0000 0.0000 0.0000
# 4 0.0000 0.0000 0.0000 27.1807 0.0000 0.0000
# 5 0.0000 0.0000 0.0000 0.0000 15.6183 0.0000
# 6 0.0000 0.0000 0.0000 0.0000 0.0000 53.9544
#
#
#
# Elastic Compliance Matrix: (Units=1/GPa)
#
#
# Indices 1 2 3 4 5 6 
#
# 1 0.021147 -0.007863 -0.003099 0.000000 0.000000 0.000000
# 2 -0.007863 0.010471 0.000934 0.000000 0.000000 0.000000
# 3 -0.003099 0.000934 0.005509 0.000000 0.000000 0.000000
# 4 0.000000 0.000000 0.000000 0.036791 0.000000 0.000000
# 5 0.000000 0.000000 0.000000 0.000000 0.064028 0.000000
# 6 0.000000 0.000000 0.000000 0.000000 0.000000 0.018534
#
#
# Mechanical properties :
#
#
# Convention : Reuss Voigt Hill
#
# Bulk Modulus (GPa) = 58.57657 63.92626 61.25141
# Shear Modulus (GPa) = 27.43840 40.29688 33.86764
#
# Velocity S-wave (km/s) = 3.12759 3.79023 3.47474
# Velocity P-wave (km/s) = 5.82452 6.47644 6.15911
#
# Compressibility (1/GPa) = 0.01707167
#
# Stress axis : x y z
#
# Youngs Moduli (GPa) = 47.28696 95.50249 181.51989
#
# Poissons Ratio (x) = 0.75093 0.56252
# Poissons Ratio (y) = 0.37181 -0.16954
# Poissons Ratio (z) = 0.14654 -0.08920
#
# Static dielectric constant tensor:
#      x y z
#    x 2.196940 0.000000 0.000000 
#    y 0.000000 2.189330 0.000000 
#    z 0.000000 0.000000 2.289830 
# 
# From -- ./inp_files/9039.got.cif
#   From: 2010.05.17/outbox.cif.g08.bks.cpg/sg33_5_cif.got.tgz:9039.got - 2010.06.03 17:15:25.
