data_PCOD9345032
_publ_section_title
;
Structure prediction by ZEFSAII (Michael W. Deem and Ramdas Pophale) SiO2 
 PCOD9345032
Probable space group: P N A 21
;
_chemical_formula_sum "Si O2"
_cell_formula_units_Z 24
_cell_length_a 5.391950
_cell_length_b 12.173188
_cell_length_c 14.139294
_cell_angle_alpha 90.000000
_cell_angle_beta 90.000000
_cell_angle_gamma 90.000000
_cell_volume 928.063966
_symmetry_space_group_name_H-M "P N A 21"
_symmetry_group_IT_number 33
_symmetry_cell_setting 'orthorhombic'
loop_
_space_group_symop_operation_xyz
x,y,z
-x,-y,1/2+z
1/2-x,1/2+y,1/2+z
1/2+x,1/2-y,z
loop_
_atom_site_type_symbol
_atom_site_label
_atom_site_fract_x
_atom_site_fract_y
_atom_site_fract_z
Si Si1 0.301897 0.686897 0.291210
Si Si2 0.120638 0.607705 0.607847
Si Si3 0.161254 0.526995 0.973343
Si Si4 0.008349 0.835237 0.494763
Si Si5 0.527551 0.180171 0.314152
Si Si6 0.057341 0.178100 0.597987
O O1 0.512896 0.783058 0.281284
O O2 0.340516 0.655464 0.400191
O O3 0.391575 0.618587 0.199646
O O4 0.412260 0.599822 0.587775
O O5 0.015661 0.632286 0.709478
O O6 0.008438 0.498826 0.563428
O O7 0.081520 0.719362 0.543505
O O8 0.264264 0.406054 0.953277
O O9 0.016022 0.584771 0.890041
O O10 0.384658 0.604334 0.007223
O O11 0.797362 0.234428 0.324830
O O12 0.286598 0.266780 0.594531
#
# Coordination Sequence:
#
# PCOD9345032 Si02
#       6
#     4   4   4   4   4   4
#     4  10  20  39  67  94 132 178 230 291 367 419
#     4  12  25  48  76 105 156 202 256 316 388 458
#     4  12  28  44  76 109 146 201 259 312 383 461
#     4  12  23  44  70 104 146 197 248 318 370 456
#     4  12  28  53  79 111 158 209 258 320 391 470
#     4  10  24  46  68 101 146 189 233 307 373 444
#
# _framework density 25.860285000000001
#
# number of rings (size 3 to 8) (size 9 to 14) (size 15 to 20)
#    0.000    0.667    5.000    1.000    4.667    2.667 
#    3.000    0.000    0.000    0.000    0.000    0.000 
#    0.000    0.000    0.000    0.000    0.000    0.000 
#
# Total GULP energy -133901.059191 kJ/mol
# GULP energy per Si atom -5579.210800 kJ/mol
# Density = 2.580143 g / cm^3
# Si number density = 25.860285 Si / 1000 Ang^3
#
#
#
# Elastic Constant Matrix: (Units=GPa)
#
#
# Indices 1 2 3 4 5 6 
#
# 1 97.6850 31.3573 5.4641 0.0000 0.0000 0.0000
# 2 31.3573 70.1833 54.7875 0.0000 0.0000 0.0000
# 3 5.4641 54.7875 126.9738 0.0000 0.0000 0.0000
# 4 0.0000 0.0000 0.0000 48.5476 0.0000 0.0000
# 5 0.0000 0.0000 0.0000 0.0000 35.8156 0.0000
# 6 0.0000 0.0000 0.0000 0.0000 0.0000 40.0366
#
#
#
# Elastic Compliance Matrix: (Units=1/GPa)
#
#
# Indices 1 2 3 4 5 6 
#
# 1 0.012597 -0.007849 0.002845 0.000000 0.000000 0.000000
# 2 -0.007849 0.026376 -0.011043 0.000000 0.000000 0.000000
# 3 0.002845 -0.011043 0.012518 0.000000 0.000000 0.000000
# 4 0.000000 0.000000 0.000000 0.020598 0.000000 0.000000
# 5 0.000000 0.000000 0.000000 0.000000 0.027921 0.000000
# 6 0.000000 0.000000 0.000000 0.000000 0.000000 0.024977
#
#
# Mechanical properties :
#
#
# Convention : Reuss Voigt Hill
#
# Bulk Modulus (GPa) = 51.55557 53.11775 52.33666
# Shear Modulus (GPa) = 30.57199 38.42885 34.50042
#
# Velocity S-wave (km/s) = 3.44204 3.85907 3.65651
# Velocity P-wave (km/s) = 5.98133 6.35936 6.17324
#
# Compressibility (1/GPa) = 0.01939655
#
# Stress axis : x y z
#
# Youngs Moduli (GPa) = 79.38109 37.91335 79.88381
#
# Poissons Ratio (x) = 0.29759 -0.22724
# Poissons Ratio (y) = 0.62307 0.88216
# Poissons Ratio (z) = -0.22581 0.41868
#
# Static dielectric constant tensor:
#      x y z
#    x 2.769420 0.000000 0.000000 
#    y 0.000000 2.108670 0.000000 
#    z 0.000000 0.000000 2.126860 
# 
# From -- ./inp_files/7391.got.cif
#   From: 2010.05.17/outbox.cif.g08.bks.cpg/sg33_4_cif.got.tgz:7391.got - 2010.06.03 17:15:25.
