data_PCOD9345909
_publ_section_title
;
Structure prediction by ZEFSAII (Michael W. Deem and Ramdas Pophale) SiO2 
 PCOD9345909
Probable space group: P N A 21
;
_chemical_formula_sum "Si O2"
_cell_formula_units_Z 28
_cell_length_a 18.049045
_cell_length_b 7.764122
_cell_length_c 7.757464
_cell_angle_alpha 90.000000
_cell_angle_beta 90.000000
_cell_angle_gamma 90.000000
_cell_volume 1087.092120
_symmetry_space_group_name_H-M "P N A 21"
_symmetry_group_IT_number 33
_symmetry_cell_setting 'orthorhombic'
loop_
_space_group_symop_operation_xyz
x,y,z
-x,-y,1/2+z
1/2-x,1/2+y,1/2+z
1/2+x,1/2-y,z
loop_
_atom_site_type_symbol
_atom_site_label
_atom_site_fract_x
_atom_site_fract_y
_atom_site_fract_z
Si Si1 0.164735 0.129970 0.880330
Si Si2 0.590231 0.064048 0.061723
Si Si3 0.313994 0.521763 0.837046
Si Si4 0.212129 0.721196 0.572864
Si Si5 0.428018 0.699767 0.063958
Si Si6 0.402809 0.322613 0.548561
Si Si7 0.064524 0.573259 0.450981
O O1 0.250385 0.105291 0.919624
O O2 0.138075 0.195072 0.700431
O O3 0.145489 0.278876 0.021786
O O4 0.120990 0.954291 0.902120
O O5 0.605178 0.873750 0.983728
O O6 0.581787 0.998172 0.259342
O O7 0.517055 0.148264 0.973925
O O8 0.251727 0.641379 0.743595
O O9 0.282613 0.418189 0.002813
O O10 0.346381 0.379067 0.701768
O O11 0.387916 0.622919 0.895997
O O12 0.125434 0.684818 0.547253
O O13 0.511464 0.632050 0.096669
O O14 0.443601 0.899423 0.054730
#
# Coordination Sequence:
#
# PCOD9345909 Si02
#       7
#     4   4   4   4   4   4   4
#     4  11  25  44  69 103 149 190 247 299 373 457
#     4  11  23  44  74 104 141 189 250 313 365 447
#     4  11  24  47  72 106 153 196 254 312 391 466
#     4  11  25  47  71 108 150 201 247 314 389 468
#     4  11  24  43  71 107 139 192 246 311 377 449
#     4  10  22  44  72 105 140 192 248 310 373 446
#     4  11  23  43  73 103 142 188 248 309 380 447
#
# _framework density 25.756786000000002
#
# number of rings (size 3 to 8) (size 9 to 14) (size 15 to 20)
#    0.000    1.143    1.429    5.143    2.000    3.429 
#   10.286    0.000    0.000    0.000    0.000    0.000 
#    0.000    0.000    0.000    0.000    0.000    0.000 
#
# Total GULP energy -156211.941351 kJ/mol
# GULP energy per Si atom -5578.997905 kJ/mol
# Density = 2.569816 g / cm^3
# Si number density = 25.756786 Si / 1000 Ang^3
#
#
#
# Elastic Constant Matrix: (Units=GPa)
#
#
# Indices 1 2 3 4 5 6 
#
# 1 91.7808 30.0945 21.6896 0.0000 0.0000 0.0000
# 2 30.0945 85.9779 8.8955 0.0000 0.0000 0.0000
# 3 21.6896 8.8955 63.2289 0.0000 0.0000 0.0000
# 4 0.0000 0.0000 0.0000 -0.4857 0.0000 0.0000
# 5 0.0000 0.0000 0.0000 0.0000 20.8554 0.0000
# 6 0.0000 0.0000 0.0000 0.0000 0.0000 32.5794
#
#
#
# Elastic Compliance Matrix: (Units=1/GPa)
#
#
# Indices 1 2 3 4 5 6 
#
# 1 0.013208 -0.004216 -0.003938 0.000000 0.000000 0.000000
# 2 -0.004216 0.013148 -0.000404 0.000000 0.000000 0.000000
# 3 -0.003938 -0.000404 0.017223 0.000000 0.000000 0.000000
# 4 0.000000 0.000000 0.000000 -2.058737 0.000000 0.000000
# 5 0.000000 0.000000 0.000000 0.000000 0.047949 0.000000
# 6 0.000000 0.000000 0.000000 0.000000 0.000000 0.030694
#
#
# Mechanical properties :
#
#
# Convention : Reuss Voigt Hill
#
# Bulk Modulus (GPa) = 37.78533 40.26074 39.02304
# Shear Modulus (GPa) = -2.61701 22.61036 9.99668
#
# Velocity S-wave (km/s) = -1.00909 2.96605 1.97221
# Velocity P-wave (km/s) = 3.65297 5.23402 4.51327
#
# Compressibility (1/GPa) = 0.02646530
#
# Stress axis : x y z
#
# Youngs Moduli (GPa) = 75.70898 76.05534 58.06140
#
# Poissons Ratio (x) = 0.32064 0.22863
# Poissons Ratio (y) = 0.31918 0.02344
# Poissons Ratio (z) = 0.29813 0.03070
#
# Static dielectric constant tensor:
#      x y z
#    x 2.161960 0.000000 0.000000 
#    y 0.000000 2.041820 0.000000 
#    z 0.000000 0.000000 2.107610 
# 
# From -- ./inp_files/4786.got.cif
#   From: 2010.05.17/outbox.cif.g08.bks.cpg/sg33_3_cif.got.tgz:4786.got - 2010.06.03 17:15:25.
