data_PCOD9345905
_publ_section_title
;
Structure prediction by ZEFSAII (Michael W. Deem and Ramdas Pophale) SiO2 
 PCOD9345905
Probable space group: P N A 21
;
_chemical_formula_sum "Si O2"
_cell_formula_units_Z 28
_cell_length_a 9.567348
_cell_length_b 21.454060
_cell_length_c 5.332143
_cell_angle_alpha 90.000000
_cell_angle_beta 90.000000
_cell_angle_gamma 90.000000
_cell_volume 1094.467450
_symmetry_space_group_name_H-M "P N A 21"
_symmetry_group_IT_number 33
_symmetry_cell_setting 'orthorhombic'
loop_
_space_group_symop_operation_xyz
x,y,z
-x,-y,1/2+z
1/2-x,1/2+y,1/2+z
1/2+x,1/2-y,z
loop_
_atom_site_type_symbol
_atom_site_label
_atom_site_fract_x
_atom_site_fract_y
_atom_site_fract_z
Si Si1 0.431056 0.280057 0.263250
Si Si2 0.689171 0.267351 0.937423
Si Si3 0.952053 0.316027 0.663475
Si Si4 0.715990 0.609938 0.820605
Si Si5 0.063161 0.423124 0.974834
Si Si6 0.011572 0.038686 0.050278
Si Si7 0.789591 0.490320 0.157133
O O1 0.431552 0.211914 0.388439
O O2 0.361857 0.331623 0.448806
O O3 0.584981 0.292829 0.154758
O O4 0.308082 0.277088 0.056896
O O5 0.796304 0.312436 0.787507
O O6 0.573236 0.230968 0.771156
O O7 0.017528 0.382774 0.734042
O O8 0.600578 0.590561 0.613121
O O9 0.742503 0.550119 0.993827
O O10 0.862613 0.619598 0.680510
O O11 0.928416 0.457928 0.069368
O O12 0.173755 0.478291 0.920008
O O13 0.012407 0.015988 0.762394
O O14 0.165891 0.058352 0.133479
#
# Coordination Sequence:
#
# PCOD9345905 Si02
#       7
#     4   4   4   4   4   4   4
#     4  11  24  45  71 102 143 193 249 303 383 436
#     4  10  24  44  65 102 141 180 247 300 364 448
#     4  11  25  44  71 102 144 195 242 310 369 456
#     4  11  24  44  71 103 145 194 239 320 371 463
#     4  12  24  45  70 104 148 186 248 302 389 457
#     4  10  22  44  70 107 150 189 247 301 382 456
#     4  11  25  42  72 108 145 191 244 304 388 458
#
# _framework density 25.583219
#
# number of rings (size 3 to 8) (size 9 to 14) (size 15 to 20)
#    0.000    1.143    4.286    0.857    6.000    0.000 
#    0.000    7.143    0.000    0.000    0.000    0.000 
#    0.000    0.000    0.000    0.000    0.000    0.000 
#
# Total GULP energy -156258.407447 kJ/mol
# GULP energy per Si atom -5580.657409 kJ/mol
# Density = 2.552499 g / cm^3
# Si number density = 25.583219 Si / 1000 Ang^3
#
#
#
# Elastic Constant Matrix: (Units=GPa)
#
#
# Indices 1 2 3 4 5 6 
#
# 1 202.9992 39.3504 43.5503 0.0000 0.0000 0.0000
# 2 39.3504 70.6138 9.6997 0.0000 0.0000 0.0000
# 3 43.5503 9.6997 45.0990 0.0000 0.0000 0.0000
# 4 0.0000 0.0000 0.0000 23.7599 0.0000 0.0000
# 5 0.0000 0.0000 0.0000 0.0000 23.5429 0.0000
# 6 0.0000 0.0000 0.0000 0.0000 0.0000 53.0802
#
#
#
# Elastic Compliance Matrix: (Units=1/GPa)
#
#
# Indices 1 2 3 4 5 6 
#
# 1 0.006765 -0.002960 -0.005896 0.000000 0.000000 0.000000
# 2 -0.002960 0.015888 -0.000559 0.000000 0.000000 0.000000
# 3 -0.005896 -0.000559 0.027987 0.000000 0.000000 0.000000
# 4 0.000000 0.000000 0.000000 0.042088 0.000000 0.000000
# 5 0.000000 0.000000 0.000000 0.000000 0.042476 0.000000
# 6 0.000000 0.000000 0.000000 0.000000 0.000000 0.018839
#
#
# Mechanical properties :
#
#
# Convention : Reuss Voigt Hill
#
# Bulk Modulus (GPa) = 31.43629 55.99031 43.71330
# Shear Modulus (GPa) = 27.25169 35.15071 31.20120
#
# Velocity S-wave (km/s) = 3.26731 3.71074 3.49606
# Velocity P-wave (km/s) = 5.15250 6.34764 5.78104
#
# Compressibility (1/GPa) = 0.03181037
#
# Stress axis : x y z
#
# Youngs Moduli (GPa) = 147.82534 62.94169 35.73085
#
# Poissons Ratio (x) = 0.18630 0.21066
# Poissons Ratio (y) = 0.43754 0.01997
# Poissons Ratio (z) = 0.87155 0.03518
#
# Static dielectric constant tensor:
#      x y z
#    x 2.002820 0.000000 0.000000 
#    y 0.000000 2.118680 0.000000 
#    z 0.000000 0.000000 2.134030 
# 
# From -- ./inp_files/467.got.cif
#   From: 2010.05.17/outbox.cif.g08.bks.cpg/sg33_1_cif.got.tgz:467.got - 2010.06.03 17:15:25.
