data_PCOD9345930
_publ_section_title
;
Structure prediction by ZEFSAII (Michael W. Deem and Ramdas Pophale) SiO2 
 PCOD9345930
Probable space group: P N A 21
;
_chemical_formula_sum "Si O2"
_cell_formula_units_Z 28
_cell_length_a 24.735876
_cell_length_b 5.272563
_cell_length_c 8.652973
_cell_angle_alpha 90.000000
_cell_angle_beta 90.000000
_cell_angle_gamma 90.000000
_cell_volume 1128.533412
_symmetry_space_group_name_H-M "P N A 21"
_symmetry_group_IT_number 33
_symmetry_cell_setting 'orthorhombic'
loop_
_space_group_symop_operation_xyz
x,y,z
-x,-y,1/2+z
1/2-x,1/2+y,1/2+z
1/2+x,1/2-y,z
loop_
_atom_site_type_symbol
_atom_site_label
_atom_site_fract_x
_atom_site_fract_y
_atom_site_fract_z
Si Si1 0.554562 0.749875 0.139540
Si Si2 0.380147 0.600801 0.431976
Si Si3 0.531019 0.940180 0.469658
Si Si4 0.769948 0.125069 0.585410
Si Si5 0.405267 0.542256 0.074697
Si Si6 0.808926 0.866205 0.876636
Si Si7 0.655816 0.017820 0.132609
O O1 0.523936 0.810544 0.299777
O O2 0.615317 0.812072 0.195369
O O3 0.569577 0.505389 0.035360
O O4 0.525617 0.949111 0.027475
O O5 0.322535 0.470583 0.486953
O O6 0.392814 0.575828 0.254210
O O7 0.366545 0.891038 0.470629
O O8 0.568145 0.198450 0.499866
O O9 0.555956 0.701809 0.561045
O O10 0.718725 0.142199 0.475930
O O11 0.784050 0.420055 0.617714
O O12 0.767895 0.002956 0.756293
O O13 0.348103 0.484283 0.990396
O O14 0.848267 0.742615 0.751209
#
# Coordination Sequence:
#
# PCOD9345930 Si02
#       7
#     4   4   4   4   4   4   4
#     4  11  25  47  73 106 149 194 254 314 380 456
#     4  10  25  45  71 105 145 194 250 311 381 444
#     4  12  28  46  77 109 149 205 253 312 392 452
#     4  10  25  43  70 103 142 202 247 316 379 461
#     4  12  28  47  74 114 152 200 253 319 376 466
#     4  11  25  45  71 105 151 198 255 309 387 453
#     4  10  22  45  68  98 146 193 240 321 369 452
#
# _framework density 24.810963000000001
#
# number of rings (size 3 to 8) (size 9 to 14) (size 15 to 20)
#    0.000    1.143    1.429    3.429   12.000    1.143 
#    0.000    0.000    0.000    0.000    0.000    0.000 
#    0.000    0.000    0.000    0.000    0.000    0.000 
#
# Total GULP energy -155934.264504 kJ/mol
# GULP energy per Si atom -5569.080875 kJ/mol
# Density = 2.475449 g / cm^3
# Si number density = 24.810963 Si / 1000 Ang^3
#
#
#
# Elastic Constant Matrix: (Units=GPa)
#
#
# Indices 1 2 3 4 5 6 
#
# 1 68.6357 9.8551 12.8949 0.0000 0.0000 0.0000
# 2 9.8551 79.0836 22.0049 0.0000 0.0000 0.0000
# 3 12.8949 22.0049 125.7508 0.0000 0.0000 0.0000
# 4 0.0000 0.0000 0.0000 21.7435 0.0000 0.0000
# 5 0.0000 0.0000 0.0000 0.0000 32.8172 0.0000
# 6 0.0000 0.0000 0.0000 0.0000 0.0000 31.6351
#
#
#
# Elastic Compliance Matrix: (Units=1/GPa)
#
#
# Indices 1 2 3 4 5 6 
#
# 1 0.015027 -0.001518 -0.001275 0.000000 0.000000 0.000000
# 2 -0.001518 0.013445 -0.002197 0.000000 0.000000 0.000000
# 3 -0.001275 -0.002197 0.008467 0.000000 0.000000 0.000000
# 4 0.000000 0.000000 0.000000 0.045991 0.000000 0.000000
# 5 0.000000 0.000000 0.000000 0.000000 0.030472 0.000000
# 6 0.000000 0.000000 0.000000 0.000000 0.000000 0.031610
#
#
# Mechanical properties :
#
#
# Convention : Reuss Voigt Hill
#
# Bulk Modulus (GPa) = 37.09265 40.33110 38.71188
# Shear Modulus (GPa) = 30.49149 32.48684 31.48916
#
# Velocity S-wave (km/s) = 3.50944 3.62245 3.56640
# Velocity P-wave (km/s) = 5.60394 5.81265 5.70925
#
# Compressibility (1/GPa) = 0.02695952
#
# Stress axis : x y z
#
# Youngs Moduli (GPa) = 66.54599 74.37518 118.09881
#
# Poissons Ratio (x) = 0.11288 0.15062
# Poissons Ratio (y) = 0.10100 0.25948
# Poissons Ratio (z) = 0.08487 0.16341
#
# Static dielectric constant tensor:
#      x y z
#    x 2.072850 0.000000 0.000000 
#    y 0.000000 2.158070 0.000000 
#    z 0.000000 0.000000 2.019180 
# 
# From -- ./inp_files/5254.got.cif
#   From: 2010.05.17/outbox.cif.g08.bks.cpg/sg33_3_cif.got.tgz:5254.got - 2010.06.03 17:15:25.
