data_PCOD9345939
_publ_section_title
;
Structure prediction by ZEFSAII (Michael W. Deem and Ramdas Pophale) SiO2 
 PCOD9345939
Probable space group: P N A 21
;
_chemical_formula_sum "Si O2"
_cell_formula_units_Z 32
_cell_length_a 15.427972
_cell_length_b 5.342365
_cell_length_c 15.736943
_cell_angle_alpha 90.000000
_cell_angle_beta 90.000000
_cell_angle_gamma 90.000000
_cell_volume 1297.068076
_symmetry_space_group_name_H-M "P N A 21"
_symmetry_group_IT_number 33
_symmetry_cell_setting 'orthorhombic'
loop_
_space_group_symop_operation_xyz
x,y,z
-x,-y,1/2+z
1/2-x,1/2+y,1/2+z
1/2+x,1/2-y,z
loop_
_atom_site_type_symbol
_atom_site_label
_atom_site_fract_x
_atom_site_fract_y
_atom_site_fract_z
Si Si1 0.726921 0.397799 0.017020
Si Si2 0.671429 0.502973 0.454381
Si Si3 0.121321 0.972925 0.169763
Si Si4 0.225465 0.616287 0.792269
Si Si5 0.472268 0.159823 0.893122
Si Si6 0.474014 0.967182 0.711781
Si Si7 0.860216 0.903617 0.337003
Si Si8 0.418072 0.889012 0.052497
O O1 0.650266 0.501979 0.073297
O O2 0.818594 0.518688 0.042920
O O3 0.695140 0.431744 0.922017
O O4 0.753380 0.104217 0.016628
O O5 0.717620 0.354085 0.378905
O O6 0.622780 0.721166 0.401539
O O7 0.596004 0.385245 0.512380
O O8 0.204946 0.074509 0.219619
O O9 0.049026 0.183710 0.186962
O O10 0.096536 0.690832 0.194945
O O11 0.170442 0.362179 0.799842
O O12 0.164455 0.857472 0.780793
O O13 0.481138 0.972495 0.813918
O O14 0.541302 0.370627 0.867241
O O15 0.481361 0.028890 0.984943
O O16 0.548359 0.064854 0.646975
#
# Coordination Sequence:
#
# PCOD9345939 Si02
#       8
#     4   4   4   4   4   4   4   4
#     4  10  25  42  69 101 140 182 240 292 360 420
#     4  10  22  45  71  98 139 195 227 298 359 428
#     4  12  27  47  70 104 145 186 239 304 364 426
#     4  11  23  45  69  99 135 181 232 286 355 425
#     4  11  26  46  72 108 149 192 244 300 365 440
#     4  12  29  45  75 106 147 191 244 297 371 435
#     4  11  25  42  71 103 133 185 236 287 354 429
#     4  11  25  46  75 103 148 192 244 300 370 433
#
# _framework density 24.671026000000001
#
# number of rings (size 3 to 8) (size 9 to 14) (size 15 to 20)
#    0.000    1.000    2.500    2.250   12.250    1.000 
#    0.000    0.000    0.000    0.000    0.000    0.000 
#    0.000    0.000    0.000    0.000    0.000    0.000 
#
# Total GULP energy -178752.370498 kJ/mol
# GULP energy per Si atom -5586.011578 kJ/mol
# Density = 2.461487 g / cm^3
# Si number density = 24.671026 Si / 1000 Ang^3
#
#
#
# Elastic Constant Matrix: (Units=GPa)
#
#
# Indices 1 2 3 4 5 6 
#
# 1 52.1838 -3.4521 13.3497 0.0000 0.0000 0.0000
# 2 -3.4521 62.0106 12.0274 0.0000 0.0000 0.0000
# 3 13.3497 12.0274 77.1674 0.0000 0.0000 0.0000
# 4 0.0000 0.0000 0.0000 -3.9598 0.0000 0.0000
# 5 0.0000 0.0000 0.0000 0.0000 57.7802 0.0000
# 6 0.0000 0.0000 0.0000 0.0000 0.0000 31.4561
#
#
#
# Elastic Compliance Matrix: (Units=1/GPa)
#
#
# Indices 1 2 3 4 5 6 
#
# 1 0.020257 0.001864 -0.003795 0.000000 0.000000 0.000000
# 2 0.001864 0.016800 -0.002941 0.000000 0.000000 0.000000
# 3 -0.003795 -0.002941 0.014074 0.000000 0.000000 0.000000
# 4 0.000000 0.000000 0.000000 -0.252538 0.000000 0.000000
# 5 0.000000 0.000000 0.000000 0.000000 0.017307 0.000000
# 6 0.000000 0.000000 0.000000 0.000000 0.000000 0.031790
#
#
# Mechanical properties :
#
#
# Convention : Reuss Voigt Hill
#
# Bulk Modulus (GPa) = 24.16210 26.13463 25.14837
# Shear Modulus (GPa) = -38.82903 28.35107 -5.23898
#
# Velocity S-wave (km/s) = -3.97151 3.39361 -1.45882
# Velocity P-wave (km/s) = 3.34896 5.09624 2.71626
#
# Compressibility (1/GPa) = 0.04138712
#
# Stress axis : x y z
#
# Youngs Moduli (GPa) = 49.36525 59.52220 71.05436
#
# Poissons Ratio (x) = -0.11094 0.26965
# Poissons Ratio (y) = -0.09201 0.20897
# Poissons Ratio (z) = 0.18734 0.17505
#
# Static dielectric constant tensor:
#      x y z
#    x 1.949080 0.000000 0.000000 
#    y 0.000000 2.158630 0.000000 
#    z 0.000000 0.000000 1.945010 
# 
# From -- ./inp_files/8263.got.cif
#   From: 2010.05.17/outbox.cif.g08.bks.cpg/sg33_5_cif.got.tgz:8263.got - 2010.06.03 17:15:25.
