data_PCOD9345081
_publ_section_title
;
Structure prediction by ZEFSAII (Michael W. Deem and Ramdas Pophale) SiO2 
 PCOD9345081
Probable space group: P N A 21
;
_chemical_formula_sum "Si O2"
_cell_formula_units_Z 24
_cell_length_a 14.044439
_cell_length_b 12.313210
_cell_length_c 5.873105
_cell_angle_alpha 90.000000
_cell_angle_beta 90.000000
_cell_angle_gamma 90.000000
_cell_volume 1015.648538
_symmetry_space_group_name_H-M "P N A 21"
_symmetry_group_IT_number 33
_symmetry_cell_setting 'orthorhombic'
loop_
_space_group_symop_operation_xyz
x,y,z
-x,-y,1/2+z
1/2-x,1/2+y,1/2+z
1/2+x,1/2-y,z
loop_
_atom_site_type_symbol
_atom_site_label
_atom_site_fract_x
_atom_site_fract_y
_atom_site_fract_z
Si Si1 0.426739 0.060204 0.014660
Si Si2 0.158880 0.188053 0.007888
Si Si3 0.497137 0.438760 0.250883
Si Si4 0.367326 0.919907 0.363210
Si Si5 0.721913 0.902454 0.142290
Si Si6 0.843209 0.247955 0.277105
O O1 0.414443 0.155582 0.198930
O O2 0.367773 0.956645 0.103063
O O3 0.534069 0.033569 0.963069
O O4 0.372219 0.098585 0.794568
O O5 0.091619 0.134503 0.196378
O O6 0.256229 0.241513 0.101359
O O7 0.115038 0.293216 0.890725
O O8 0.189585 0.102966 0.813680
O O9 0.510906 0.498341 0.500274
O O10 0.405172 0.360198 0.280382
O O11 0.284749 0.989521 0.486904
O O12 0.709747 0.791147 0.002309
#
# Coordination Sequence:
#
# PCOD9345081 Si02
#       6
#     4   4   4   4   4   4
#     4  10  20  40  70 104 136 187 249 314 375 450
#     4  11  27  47  75 110 152 210 260 322 405 478
#     4  12  31  53  82 115 166 218 275 333 418 492
#     4  11  21  40  72 104 141 184 249 309 382 455
#     4  10  24  44  70 108 149 188 259 323 389 464
#     4  10  25  48  71 107 154 203 266 323 395 479
#
# _framework density 23.630220000000001
#
# number of rings (size 3 to 8) (size 9 to 14) (size 15 to 20)
#    0.000    1.333    3.333    0.000    9.333    4.000 
#    0.000    0.000    0.000    0.000    0.000    0.000 
#    0.000    0.000    0.000    0.000    0.000    0.000 
#
# Total GULP energy -133811.450042 kJ/mol
# GULP energy per Si atom -5575.477085 kJ/mol
# Density = 2.357644 g / cm^3
# Si number density = 23.630220 Si / 1000 Ang^3
#
#
#
# Elastic Constant Matrix: (Units=GPa)
#
#
# Indices 1 2 3 4 5 6 
#
# 1 55.3125 18.7593 8.9984 0.0000 0.0000 0.0000
# 2 18.7593 94.0747 13.7244 0.0000 0.0000 0.0000
# 3 8.9984 13.7244 61.1932 0.0000 0.0000 0.0000
# 4 0.0000 0.0000 0.0000 22.6231 0.0000 0.0000
# 5 0.0000 0.0000 0.0000 0.0000 21.2340 0.0000
# 6 0.0000 0.0000 0.0000 0.0000 0.0000 32.5841
#
#
#
# Elastic Compliance Matrix: (Units=1/GPa)
#
#
# Indices 1 2 3 4 5 6 
#
# 1 0.019643 -0.003614 -0.002078 0.000000 0.000000 0.000000
# 2 -0.003614 0.011654 -0.002082 0.000000 0.000000 0.000000
# 3 -0.002078 -0.002082 0.017114 0.000000 0.000000 0.000000
# 4 0.000000 0.000000 0.000000 0.044203 0.000000 0.000000
# 5 0.000000 0.000000 0.000000 0.000000 0.047094 0.000000
# 6 0.000000 0.000000 0.000000 0.000000 0.000000 0.030690
#
#
# Mechanical properties :
#
#
# Convention : Reuss Voigt Hill
#
# Bulk Modulus (GPa) = 30.42936 32.61609 31.52272
# Shear Modulus (GPa) = 25.39352 26.56146 25.97749
#
# Velocity S-wave (km/s) = 3.28170 3.35632 3.31922
# Velocity P-wave (km/s) = 5.22156 5.37145 5.29703
#
# Compressibility (1/GPa) = 0.03286300
#
# Stress axis : x y z
#
# Youngs Moduli (GPa) = 50.90931 85.80543 58.43073
#
# Poissons Ratio (x) = 0.31008 0.12142
# Poissons Ratio (y) = 0.18398 0.12168
# Poissons Ratio (z) = 0.10579 0.17868
#
# Static dielectric constant tensor:
#      x y z
#    x 1.893910 0.000000 0.000000 
#    y 0.000000 1.962570 0.000000 
#    z 0.000000 0.000000 2.004490 
# 
# From -- ./inp_files/1274.got.cif
#   From: 2010.05.17/outbox.cif.g08.bks.cpg/sg33_1_cif.got.tgz:1274.got - 2010.06.03 17:15:25.
