data_PCOD9345274
_publ_section_title
;
Structure prediction by ZEFSAII (Michael W. Deem and Ramdas Pophale) SiO2 
 PCOD9345274
Probable space group: P N A 21
;
_chemical_formula_sum "Si O2"
_cell_formula_units_Z 28
_cell_length_a 10.472815
_cell_length_b 5.468326
_cell_length_c 20.582275
_cell_angle_alpha 90.000000
_cell_angle_beta 90.000000
_cell_angle_gamma 90.000000
_cell_volume 1178.721502
_symmetry_space_group_name_H-M "P N A 21"
_symmetry_group_IT_number 33
_symmetry_cell_setting 'orthorhombic'
loop_
_space_group_symop_operation_xyz
x,y,z
-x,-y,1/2+z
1/2-x,1/2+y,1/2+z
1/2+x,1/2-y,z
loop_
_atom_site_type_symbol
_atom_site_label
_atom_site_fract_x
_atom_site_fract_y
_atom_site_fract_z
Si Si1 0.785288 0.359986 0.301940
Si Si2 0.640644 0.443375 0.986703
Si Si3 0.776036 0.367639 0.863817
Si Si4 0.274014 0.059183 0.638184
Si Si5 0.440691 0.925022 0.757719
Si Si6 0.312459 0.052933 0.108252
Si Si7 0.049773 0.553010 0.015630
O O1 0.909876 0.395241 0.259062
O O2 0.769543 0.594691 0.348012
O O3 0.648082 0.316241 0.267594
O O4 0.807870 0.093964 0.335233
O O5 0.763774 0.425275 0.939884
O O6 0.687614 0.434864 0.061173
O O7 0.558006 0.689471 0.978182
O O8 0.564305 0.193537 0.974370
O O9 0.903089 0.414276 0.821482
O O10 0.385506 0.030032 0.690866
O O11 0.182629 0.822433 0.638811
O O12 0.207314 0.315695 0.652421
O O13 0.329538 0.067718 0.565163
O O14 0.429708 0.985621 0.062044
#
# Coordination Sequence:
#
# PCOD9345274 Si02
#       7
#     4   4   4   4   4   4   4
#     4  10  25  43  64  97 132 169 225 261 333 384
#     4  10  21  40  58  92 120 162 212 258 321 381
#     4  10  24  39  65  92 132 171 219 272 328 390
#     4  10  23  37  63  89 126 160 214 254 330 375
#     4  10  26  43  67  98 134 174 220 274 327 400
#     4  10  22  40  60  93 120 167 205 266 315 387
#     4  10  21  38  61  89 124 161 209 263 320 383
#
# _framework density 23.754552
#
# number of rings (size 3 to 8) (size 9 to 14) (size 15 to 20)
#    0.857    1.143    0.000    1.714    6.000    2.286 
#    0.000    0.000    0.000    0.000    0.000    0.000 
#    0.000    0.000    0.000    0.000    0.000    0.000 
#
# Total GULP energy -156097.651610 kJ/mol
# GULP energy per Si atom -5574.916129 kJ/mol
# Density = 2.370049 g / cm^3
# Si number density = 23.754552 Si / 1000 Ang^3
#
#
#
# Elastic Constant Matrix: (Units=GPa)
#
#
# Indices 1 2 3 4 5 6 
#
# 1 55.2379 29.7980 -12.0657 0.0000 0.0000 0.0000
# 2 29.7980 180.8511 13.9294 0.0000 0.0000 0.0000
# 3 -12.0657 13.9294 27.7686 0.0000 0.0000 0.0000
# 4 0.0000 0.0000 0.0000 21.4095 0.0000 0.0000
# 5 0.0000 0.0000 0.0000 0.0000 23.4259 0.0000
# 6 0.0000 0.0000 0.0000 0.0000 0.0000 12.4362
#
#
#
# Elastic Compliance Matrix: (Units=1/GPa)
#
#
# Indices 1 2 3 4 5 6 
#
# 1 0.023473 -0.004840 0.012627 0.000000 0.000000 0.000000
# 2 -0.004840 0.006750 -0.005489 0.000000 0.000000 0.000000
# 3 0.012627 -0.005489 0.044252 0.000000 0.000000 0.000000
# 4 0.000000 0.000000 0.000000 0.046708 0.000000 0.000000
# 5 0.000000 0.000000 0.000000 0.000000 0.042688 0.000000
# 6 0.000000 0.000000 0.000000 0.000000 0.000000 0.080410
#
#
# Mechanical properties :
#
#
# Convention : Reuss Voigt Hill
#
# Bulk Modulus (GPa) = 12.64701 36.35345 24.50023
# Shear Modulus (GPa) = 18.79413 26.93407 22.86410
#
# Velocity S-wave (km/s) = 2.81584 3.37092 3.10581
# Velocity P-wave (km/s) = 3.98843 5.52158 4.81640
#
# Compressibility (1/GPa) = 0.07907010
#
# Stress axis : x y z
#
# Youngs Moduli (GPa) = 42.60296 148.15623 22.59797
#
# Poissons Ratio (x) = 0.71708 -0.28534
# Poissons Ratio (y) = 0.20620 0.12404
# Poissons Ratio (z) = -0.53794 0.81320
#
# Static dielectric constant tensor:
#      x y z
#    x 1.881660 0.000000 0.000000 
#    y 0.000000 1.965170 0.000000 
#    z 0.000000 0.000000 1.941830 
# 
# From -- ./inp_files/9021.got.cif
#   From: 2010.05.17/outbox.cif.g08.bks.cpg/sg33_5_cif.got.tgz:9021.got - 2010.06.03 17:15:25.
