data_PCOD9345965
_publ_section_title
;
Structure prediction by ZEFSAII (Michael W. Deem and Ramdas Pophale) SiO2 
 PCOD9345965
Probable space group: P N A 21
;
_chemical_formula_sum "Si O2"
_cell_formula_units_Z 28
_cell_length_a 23.021475
_cell_length_b 8.971909
_cell_length_c 5.393360
_cell_angle_alpha 90.000000
_cell_angle_beta 90.000000
_cell_angle_gamma 90.000000
_cell_volume 1113.980056
_symmetry_space_group_name_H-M "P N A 21"
_symmetry_group_IT_number 33
_symmetry_cell_setting 'orthorhombic'
loop_
_space_group_symop_operation_xyz
x,y,z
-x,-y,1/2+z
1/2-x,1/2+y,1/2+z
1/2+x,1/2-y,z
loop_
_atom_site_type_symbol
_atom_site_label
_atom_site_fract_x
_atom_site_fract_y
_atom_site_fract_z
Si Si1 0.317199 0.300628 0.834120
Si Si2 0.416439 0.763462 0.841158
Si Si3 0.294383 0.747285 0.020342
Si Si4 0.735871 0.535985 0.696036
Si Si5 0.871019 0.963785 0.484931
Si Si6 0.419240 0.114203 0.803806
Si Si7 0.455080 0.288749 0.308621
O O1 0.252982 0.306654 0.718212
O O2 0.358931 0.423983 0.716168
O O3 0.350007 0.146892 0.803438
O O4 0.308058 0.331860 0.120226
O O5 0.392652 0.692454 0.587127
O O6 0.477511 0.679448 0.866782
O O7 0.430054 0.938960 0.831314
O O8 0.364158 0.733554 0.037285
O O9 0.264836 0.584524 0.975119
O O10 0.287721 0.871114 0.805321
O O11 0.694385 0.445024 0.881693
O O12 0.917445 0.059260 0.327852
O O13 0.438529 0.177800 0.536613
O O14 0.445067 0.205921 0.042006
#
# Coordination Sequence:
#
# PCOD9345965 Si02
#       7
#     4   4   4   4   4   4   4
#     4  10  22  47  71  97 151 196 248 314 391 455
#     4  12  26  46  74 116 150 199 268 325 386 480
#     4  11  26  41  68 108 144 191 252 313 388 455
#     4  11  23  45  70 102 146 193 251 317 378 472
#     4  10  24  45  71 105 143 199 254 323 382 460
#     4  11  25  50  77 112 150 214 259 325 395 472
#     4  11  26  50  77 108 160 206 260 325 406 464
#
# _framework density 25.135103000000001
#
# number of rings (size 3 to 8) (size 9 to 14) (size 15 to 20)
#    0.000    1.143    2.857    1.714    2.000    6.857 
#    0.000    0.000    0.000    0.000    0.000    0.000 
#    0.000    0.000    0.000    0.000    0.000    0.000 
#
# Total GULP energy -156070.183852 kJ/mol
# GULP energy per Si atom -5573.935138 kJ/mol
# Density = 2.507789 g / cm^3
# Si number density = 25.135103 Si / 1000 Ang^3
#
#
#
# Elastic Constant Matrix: (Units=GPa)
#
#
# Indices 1 2 3 4 5 6 
#
# 1 108.5133 45.2301 28.3175 0.0000 0.0000 0.0000
# 2 45.2301 89.8827 30.4113 0.0000 0.0000 0.0000
# 3 28.3175 30.4113 75.0954 0.0000 0.0000 0.0000
# 4 0.0000 0.0000 0.0000 36.1036 0.0000 0.0000
# 5 0.0000 0.0000 0.0000 0.0000 21.5633 0.0000
# 6 0.0000 0.0000 0.0000 0.0000 0.0000 35.8034
#
#
#
# Elastic Compliance Matrix: (Units=1/GPa)
#
#
# Indices 1 2 3 4 5 6 
#
# 1 0.012028 -0.005235 -0.002415 0.000000 0.000000 0.000000
# 2 -0.005235 0.015171 -0.004170 0.000000 0.000000 0.000000
# 3 -0.002415 -0.004170 0.015916 0.000000 0.000000 0.000000
# 4 0.000000 0.000000 0.000000 0.027698 0.000000 0.000000
# 5 0.000000 0.000000 0.000000 0.000000 0.046375 0.000000
# 6 0.000000 0.000000 0.000000 0.000000 0.000000 0.027930
#
#
# Mechanical properties :
#
#
# Convention : Reuss Voigt Hill
#
# Bulk Modulus (GPa) = 51.35076 53.48992 52.42034
# Shear Modulus (GPa) = 28.53064 29.99621 29.26343
#
# Velocity S-wave (km/s) = 3.37277 3.45831 3.41581
# Velocity P-wave (km/s) = 5.97006 6.10522 6.03802
#
# Compressibility (1/GPa) = 0.01947391
#
# Stress axis : x y z
#
# Youngs Moduli (GPa) = 83.13946 65.91577 62.83081
#
# Poissons Ratio (x) = 0.34510 0.15176
# Poissons Ratio (y) = 0.43527 0.26198
# Poissons Ratio (z) = 0.20082 0.27484
#
# Static dielectric constant tensor:
#      x y z
#    x 2.050500 0.000000 0.000000 
#    y 0.000000 2.133450 0.000000 
#    z 0.000000 0.000000 2.143070 
# 
# From -- ./inp_files/2222.got.cif
#   From: 2010.05.17/outbox.cif.g08.bks.cpg/sg33_2_cif.got.tgz:2222.got - 2010.06.03 17:15:25.
