data_PCOD9345026
_publ_section_title
;
Structure prediction by ZEFSAII (Michael W. Deem and Ramdas Pophale) SiO2 
 PCOD9345026
Probable space group: P N A 21
;
_chemical_formula_sum "Si O2"
_cell_formula_units_Z 32
_cell_length_a 10.928058
_cell_length_b 16.004049
_cell_length_c 7.722952
_cell_angle_alpha 90.000000
_cell_angle_beta 90.000000
_cell_angle_gamma 90.000000
_cell_volume 1350.691601
_symmetry_space_group_name_H-M "P N A 21"
_symmetry_group_IT_number 33
_symmetry_cell_setting 'orthorhombic'
loop_
_space_group_symop_operation_xyz
x,y,z
-x,-y,1/2+z
1/2-x,1/2+y,1/2+z
1/2+x,1/2-y,z
loop_
_atom_site_type_symbol
_atom_site_label
_atom_site_fract_x
_atom_site_fract_y
_atom_site_fract_z
Si Si1 0.771202 0.079040 0.713510
Si Si2 0.023456 0.373607 0.879186
Si Si3 0.181696 0.734762 0.291107
Si Si4 0.411665 0.812174 0.747001
Si Si5 0.558480 0.544073 0.517633
Si Si6 0.340267 0.986023 0.887135
Si Si7 0.645491 0.712979 0.690696
Si Si8 0.137794 0.091275 0.748491
O O1 0.631502 0.084148 0.776268
O O2 0.818647 0.173875 0.712062
O O3 0.759589 0.039673 0.527785
O O4 0.846823 0.032473 0.860181
O O5 0.941737 0.316255 0.754071
O O6 0.932682 0.443699 0.953822
O O7 0.082863 0.324109 0.038330
O O8 0.169144 0.745265 0.500870
O O9 0.302728 0.682914 0.239370
O O10 0.412269 0.904663 0.826560
O O11 0.530505 0.756560 0.783579
O O12 0.275254 0.779094 0.787656
O O13 0.610090 0.616694 0.645715
O O14 0.438232 0.582865 0.427018
O O15 0.550427 0.453940 0.608952
O O16 0.258708 0.032271 0.743068
#
# Coordination Sequence:
#
# PCOD9345026 Si02
#       8
#     4   4   4   4   4   4   4   4
#     4  11  22  40  63  92 124 167 207 265 318 386
#     4  10  20  39  65  87 118 169 215 255 319 385
#     4   9  21  37  64  88 120 166 214 255 315 397
#     4  11  20  41  64  93 126 170 217 274 318 394
#     4  11  22  39  65  90 130 167 213 262 323 389
#     4  11  23  40  62  93 130 160 215 269 326 384
#     4  10  20  39  69  91 127 175 221 260 331 400
#     4  11  22  41  62  94 125 168 212 264 318 389
#
# _framework density 23.691565000000001
#
# number of rings (size 3 to 8) (size 9 to 14) (size 15 to 20)
#    0.000    1.500    3.750    2.250    3.500    1.000 
#    4.500    1.250    0.000    0.000    0.000    0.000 
#    0.000    0.000    0.000    0.000    0.000    0.000 
#
# Total GULP energy -178796.833678 kJ/mol
# GULP energy per Si atom -5587.401052 kJ/mol
# Density = 2.363764 g / cm^3
# Si number density = 23.691565 Si / 1000 Ang^3
#
#
#
# Elastic Constant Matrix: (Units=GPa)
#
#
# Indices 1 2 3 4 5 6 
#
# 1 118.9282 31.9707 9.9227 0.0000 0.0000 0.0000
# 2 31.9707 82.0483 18.4297 0.0000 0.0000 0.0000
# 3 9.9227 18.4297 29.6787 0.0000 0.0000 0.0000
# 4 0.0000 0.0000 0.0000 39.1528 0.0000 0.0000
# 5 0.0000 0.0000 0.0000 0.0000 24.0560 0.0000
# 6 0.0000 0.0000 0.0000 0.0000 0.0000 41.4737
#
#
#
# Elastic Compliance Matrix: (Units=1/GPa)
#
#
# Indices 1 2 3 4 5 6 
#
# 1 0.009418 -0.003443 -0.001011 0.000000 0.000000 0.000000
# 2 -0.003443 0.015422 -0.008426 0.000000 0.000000 0.000000
# 3 -0.001011 -0.008426 0.039264 0.000000 0.000000 0.000000
# 4 0.000000 0.000000 0.000000 0.025541 0.000000 0.000000
# 5 0.000000 0.000000 0.000000 0.000000 0.041570 0.000000
# 6 0.000000 0.000000 0.000000 0.000000 0.000000 0.024112
#
#
# Mechanical properties :
#
#
# Convention : Reuss Voigt Hill
#
# Bulk Modulus (GPa) = 26.07851 39.03350 32.55601
# Shear Modulus (GPa) = 25.79080 32.29199 29.04139
#
# Velocity S-wave (km/s) = 3.30298 3.69591 3.50496
# Velocity P-wave (km/s) = 5.05744 5.89275 5.49100
#
# Compressibility (1/GPa) = 0.03834575
#
# Stress axis : x y z
#
# Youngs Moduli (GPa) = 106.17636 64.84235 25.46843
#
# Poissons Ratio (x) = 0.22324 0.02575
# Poissons Ratio (y) = 0.36554 0.21459
# Poissons Ratio (z) = 0.10734 0.54634
#
# Static dielectric constant tensor:
#      x y z
#    x 1.927960 0.000000 0.000000 
#    y 0.000000 1.903020 0.000000 
#    z 0.000000 0.000000 1.899740 
# 
# From -- ./inp_files/4095.got.cif
#   From: 2010.05.17/outbox.cif.g08.bks.cpg/sg33_3_cif.got.tgz:4095.got - 2010.06.03 17:15:25.
