data_PCOD9345308
_publ_section_title
;
Structure prediction by ZEFSAII (Michael W. Deem and Ramdas Pophale) SiO2 
 PCOD9345308
Probable space group: P N A 21
;
_chemical_formula_sum "Si O2"
_cell_formula_units_Z 28
_cell_length_a 17.813118
_cell_length_b 5.344002
_cell_length_c 11.182238
_cell_angle_alpha 90.000000
_cell_angle_beta 90.000000
_cell_angle_gamma 90.000000
_cell_volume 1064.474564
_symmetry_space_group_name_H-M "P N A 21"
_symmetry_group_IT_number 33
_symmetry_cell_setting 'orthorhombic'
loop_
_space_group_symop_operation_xyz
x,y,z
-x,-y,1/2+z
1/2-x,1/2+y,1/2+z
1/2+x,1/2-y,z
loop_
_atom_site_type_symbol
_atom_site_label
_atom_site_fract_x
_atom_site_fract_y
_atom_site_fract_z
Si Si1 0.292942 0.207082 0.476840
Si Si2 0.985735 0.573879 0.132463
Si Si3 0.212499 0.872087 0.283015
Si Si4 0.336056 0.705761 0.132067
Si Si5 0.587184 0.690801 0.452067
Si Si6 0.872747 0.681636 0.640360
Si Si7 0.060056 0.965028 0.959279
O O1 0.220641 0.351035 0.537317
O O2 0.366406 0.323594 0.414492
O O3 0.255357 0.029956 0.382534
O O4 0.325004 0.052338 0.591500
O O5 0.909112 0.666958 0.191320
O O6 0.048707 0.411541 0.199498
O O7 0.949841 0.416839 0.022917
O O8 0.028869 0.805086 0.072419
O O9 0.277112 0.683756 0.238627
O O10 0.144846 0.735379 0.350067
O O11 0.173258 0.093704 0.202321
O O12 0.369824 0.479278 0.052773
O O13 0.517002 0.537620 0.394364
O O14 0.903303 0.790651 0.515511
#
# Coordination Sequence:
#
# PCOD9345308 Si02
#       7
#     4   4   4   4   4   4   4
#     4  10  22  40  62  93 129 165 212 277 318 370
#     4   9  20  41  68  85 129 170 207 270 318 370
#     4  11  23  38  63  98 125 173 219 256 327 380
#     4  10  21  39  59  96 129 159 218 270 311 376
#     4   9  21  40  61  92 129 170 213 263 317 379
#     4  10  21  42  65  91 131 173 213 265 321 379
#     4   9  18  42  64  87 128 164 208 269 314 378
#
# _framework density 26.304054000000001
#
# number of rings (size 3 to 8) (size 9 to 14) (size 15 to 20)
#    0.000    2.286    1.429    0.000    4.000    1.143 
#   10.286   12.857    0.000    0.000    0.000    0.000 
#    0.000    0.000    0.000    0.000    0.000    0.000 
#
# Total GULP energy -156043.030686 kJ/mol
# GULP energy per Si atom -5572.965382 kJ/mol
# Density = 2.624419 g / cm^3
# Si number density = 26.304054 Si / 1000 Ang^3
#
#
#
# Elastic Constant Matrix: (Units=GPa)
#
#
# Indices 1 2 3 4 5 6 
#
# 1 196.8152 48.3224 50.5793 0.0000 0.0000 0.0000
# 2 48.3224 45.5841 -4.0404 0.0000 0.0000 0.0000
# 3 50.5793 -4.0404 42.9948 0.0000 0.0000 0.0000
# 4 0.0000 0.0000 0.0000 14.4982 0.0000 0.0000
# 5 0.0000 0.0000 0.0000 0.0000 43.1547 0.0000
# 6 0.0000 0.0000 0.0000 0.0000 0.0000 29.3893
#
#
#
# Elastic Compliance Matrix: (Units=1/GPa)
#
#
# Indices 1 2 3 4 5 6 
#
# 1 0.013334 -0.015656 -0.017157 0.000000 0.000000 0.000000
# 2 -0.015656 0.040504 0.022224 0.000000 0.000000 0.000000
# 3 -0.017157 0.022224 0.045531 0.000000 0.000000 0.000000
# 4 0.000000 0.000000 0.000000 0.068974 0.000000 0.000000
# 5 0.000000 0.000000 0.000000 0.000000 0.023172 0.000000
# 6 0.000000 0.000000 0.000000 0.000000 0.000000 0.034026
#
#
# Mechanical properties :
#
#
# Convention : Reuss Voigt Hill
#
# Bulk Modulus (GPa) = 12.78938 52.79075 32.79006
# Shear Modulus (GPa) = 18.32956 30.11062 24.22009
#
# Velocity S-wave (km/s) = 2.64263 3.38703 3.03772
# Velocity P-wave (km/s) = 3.76616 5.95055 4.97961
#
# Compressibility (1/GPa) = 0.07818985
#
# Stress axis : x y z
#
# Youngs Moduli (GPa) = 74.99625 24.68921 21.96299
#
# Poissons Ratio (x) = 0.38653 0.37683
# Poissons Ratio (y) = 1.17412 -0.48810
# Poissons Ratio (z) = 1.28674 -0.54869
#
# Static dielectric constant tensor:
#      x y z
#    x 2.159610 0.000000 0.000000 
#    y 0.000000 2.129580 0.000000 
#    z 0.000000 0.000000 2.130000 
# 
# From -- ./inp_files/6957.got.cif
#   From: 2010.05.17/outbox.cif.g08.bks.cpg/sg33_4_cif.got.tgz:6957.got - 2010.06.03 17:15:25.
