data_PCOD9345910
_publ_section_title
;
Structure prediction by ZEFSAII (Michael W. Deem and Ramdas Pophale) SiO2 
 PCOD9345910
Probable space group: P N A 21
;
_chemical_formula_sum "Si O2"
_cell_formula_units_Z 32
_cell_length_a 13.225761
_cell_length_b 10.146989
_cell_length_c 9.120518
_cell_angle_alpha 90.000000
_cell_angle_beta 90.000000
_cell_angle_gamma 90.000000
_cell_volume 1223.988577
_symmetry_space_group_name_H-M "P N A 21"
_symmetry_group_IT_number 33
_symmetry_cell_setting 'orthorhombic'
loop_
_space_group_symop_operation_xyz
x,y,z
-x,-y,1/2+z
1/2-x,1/2+y,1/2+z
1/2+x,1/2-y,z
loop_
_atom_site_type_symbol
_atom_site_label
_atom_site_fract_x
_atom_site_fract_y
_atom_site_fract_z
Si Si1 0.408548 0.767951 0.046160
Si Si2 0.032206 0.629110 0.625506
Si Si3 0.097752 0.904731 0.031999
Si Si4 0.241362 0.601930 0.524841
Si Si5 0.716049 0.501562 0.531192
Si Si6 0.870289 0.672655 0.386585
Si Si7 0.876717 0.507741 0.796165
Si Si8 0.465476 0.408155 0.207490
O O1 0.528851 0.726534 0.040547
O O2 0.333599 0.643056 0.005433
O O3 0.383481 0.786800 0.218461
O O4 0.391032 0.885523 0.929124
O O5 0.974404 0.634064 0.469626
O O6 0.980669 0.508219 0.708268
O O7 0.152877 0.627756 0.640147
O O8 0.996855 0.760217 0.708844
O O9 0.212397 0.955351 0.044623
O O10 0.076293 0.948042 0.864367
O O11 0.049225 0.990500 0.160284
O O12 0.327380 0.707556 0.490014
O O13 0.172613 0.613837 0.378858
O O14 0.784038 0.560373 0.402419
O O15 0.791533 0.525725 0.669839
O O16 0.617801 0.584750 0.578647
#
# Coordination Sequence:
#
# PCOD9345910 Si02
#       8
#     4   4   4   4   4   4   4   4
#     4  11  24  47  74 115 152 195 268 321 367 462
#     4  11  25  43  73 105 150 195 249 313 384 441
#     4  11  23  42  74 105 142 195 259 307 375 450
#     4  12  23  46  75 105 146 205 247 311 383 455
#     4  10  22  44  72 108 152 200 251 314 377 456
#     4  11  23  47  71 111 155 198 251 310 387 448
#     4  11  24  47  73 106 153 198 250 319 379 455
#     4  11  20  42  70 107 142 192 247 323 356 455
#
# _framework density 26.144034000000001
#
# number of rings (size 3 to 8) (size 9 to 14) (size 15 to 20)
#    0.000    1.000    6.250    0.750    0.000    1.000 
#   11.250    5.000    0.000    0.000    0.000    0.000 
#    0.000    0.000    0.000    0.000    0.000    0.000 
#
# Total GULP energy -178507.753110 kJ/mol
# GULP energy per Si atom -5578.367285 kJ/mol
# Density = 2.608453 g / cm^3
# Si number density = 26.144034 Si / 1000 Ang^3
#
#
#
# Elastic Constant Matrix: (Units=GPa)
#
#
# Indices 1 2 3 4 5 6 
#
# 1 128.3103 22.5765 20.8208 0.0000 0.0000 0.0000
# 2 22.5765 67.2256 11.8725 0.0000 0.0000 0.0000
# 3 20.8208 11.8725 85.7315 0.0000 0.0000 0.0000
# 4 0.0000 0.0000 0.0000 37.8718 0.0000 0.0000
# 5 0.0000 0.0000 0.0000 0.0000 24.6668 0.0000
# 6 0.0000 0.0000 0.0000 0.0000 0.0000 33.2842
#
#
#
# Elastic Compliance Matrix: (Units=1/GPa)
#
#
# Indices 1 2 3 4 5 6 
#
# 1 0.008522 -0.002559 -0.001715 0.000000 0.000000 0.000000
# 2 -0.002559 0.016017 -0.001597 0.000000 0.000000 0.000000
# 3 -0.001715 -0.001597 0.012302 0.000000 0.000000 0.000000
# 4 0.000000 0.000000 0.000000 0.026405 0.000000 0.000000
# 5 0.000000 0.000000 0.000000 0.000000 0.040540 0.000000
# 6 0.000000 0.000000 0.000000 0.000000 0.000000 0.030044
#
#
# Mechanical properties :
#
#
# Convention : Reuss Voigt Hill
#
# Bulk Modulus (GPa) = 39.84229 43.53411 41.68820
# Shear Modulus (GPa) = 32.48048 34.23108 33.35578
#
# Velocity S-wave (km/s) = 3.52855 3.62239 3.57577
# Velocity P-wave (km/s) = 5.64566 5.84666 5.74704
#
# Compressibility (1/GPa) = 0.02509896
#
# Stress axis : x y z
#
# Youngs Moduli (GPa) = 117.34015 62.43492 81.28755
#
# Poissons Ratio (x) = 0.15978 0.13943
# Poissons Ratio (y) = 0.30029 0.12978
# Poissons Ratio (z) = 0.20128 0.09968
#
# Static dielectric constant tensor:
#      x y z
#    x 2.163640 0.000000 0.000000 
#    y 0.000000 2.144610 0.000000 
#    z 0.000000 0.000000 2.068750 
# 
# From -- ./inp_files/4392.got.cif
#   From: 2010.05.17/outbox.cif.g08.bks.cpg/sg33_3_cif.got.tgz:4392.got - 2010.06.03 17:15:25.
