data_PCOD9345739
_publ_section_title
;
Structure prediction by ZEFSAII (Michael W. Deem and Ramdas Pophale) SiO2 
 PCOD9345739
Probable space group: P N A 21
;
_chemical_formula_sum "Si O2"
_cell_formula_units_Z 20
_cell_length_a 15.671607
_cell_length_b 4.821076
_cell_length_c 10.299744
_cell_angle_alpha 90.000000
_cell_angle_beta 90.000000
_cell_angle_gamma 90.000000
_cell_volume 778.186945
_symmetry_space_group_name_H-M "P N A 21"
_symmetry_group_IT_number 33
_symmetry_cell_setting 'orthorhombic'
loop_
_space_group_symop_operation_xyz
x,y,z
-x,-y,1/2+z
1/2-x,1/2+y,1/2+z
1/2+x,1/2-y,z
loop_
_atom_site_type_symbol
_atom_site_label
_atom_site_fract_x
_atom_site_fract_y
_atom_site_fract_z
Si Si1 0.165251 0.152189 0.074250
Si Si2 0.011469 0.559787 0.629773
Si Si3 0.595956 0.590597 0.809983
Si Si4 0.940741 0.944387 0.963671
Si Si5 0.217052 0.166161 0.589570
O O1 0.081353 0.295289 0.137175
O O2 0.222168 0.418823 0.047162
O O3 0.227858 0.926114 0.139932
O O4 0.140035 0.983938 0.944692
O O5 0.070143 0.600095 0.758399
O O6 0.007384 0.263428 0.561060
O O7 0.062391 0.755875 0.529070
O O8 0.655227 0.445218 0.703783
O O9 0.497888 0.497787 0.838058
O O10 0.848224 0.800978 0.967244
#
# Coordination Sequence:
#
# PCOD9345739 Si02
#       5
#     4   4   4   4   4
#     4  11  24  42  65 101 134 169 230 288 335 403
#     4  10  22  41  65  94 128 176 228 269 334 423
#     4  10  24  44  68  90 136 184 214 276 346 396
#     4  10  22  41  65  94 128 176 228 269 334 423
#     4  11  24  42  65 101 134 169 230 288 335 403
#
# _framework density 25.700768
#
# number of rings (size 3 to 8) (size 9 to 14) (size 15 to 20)
#    0.000    1.600    0.000    4.800    0.000   17.600 
#    0.000    0.000    0.000    0.000    0.000    0.000 
#    0.000    0.000    0.000    0.000    0.000    0.000 
#
# Total GULP energy -111406.928626 kJ/mol
# GULP energy per Si atom -5570.346431 kJ/mol
# Density = 2.564227 g / cm^3
# Si number density = 25.700768 Si / 1000 Ang^3
#
#
#
# Elastic Constant Matrix: (Units=GPa)
#
#
# Indices 1 2 3 4 5 6 
#
# 1 161.5063 55.1874 37.9253 0.0000 0.0000 0.0000
# 2 55.1874 143.3807 13.0014 0.0000 0.0000 0.0000
# 3 37.9253 13.0014 57.0288 0.0000 0.0000 0.0000
# 4 0.0000 0.0000 0.0000 19.5789 0.0000 0.0000
# 5 0.0000 0.0000 0.0000 0.0000 19.0210 0.0000
# 6 0.0000 0.0000 0.0000 0.0000 0.0000 68.7915
#
#
#
# Elastic Compliance Matrix: (Units=1/GPa)
#
#
# Indices 1 2 3 4 5 6 
#
# 1 0.008274 -0.002742 -0.004877 0.000000 0.000000 0.000000
# 2 -0.002742 0.008031 -0.000007 0.000000 0.000000 0.000000
# 3 -0.004877 -0.000007 0.020780 0.000000 0.000000 0.000000
# 4 0.000000 0.000000 0.000000 0.051075 0.000000 0.000000
# 5 0.000000 0.000000 0.000000 0.000000 0.052574 0.000000
# 6 0.000000 0.000000 0.000000 0.000000 0.000000 0.014537
#
#
# Mechanical properties :
#
#
# Convention : Reuss Voigt Hill
#
# Bulk Modulus (GPa) = 45.80565 63.79378 54.79971
# Shear Modulus (GPa) = 28.12133 38.53172 33.32653
#
# Velocity S-wave (km/s) = 3.31143 3.87621 3.60490
# Velocity P-wave (km/s) = 5.69931 6.70141 6.22057
#
# Compressibility (1/GPa) = 0.02183137
#
# Stress axis : x y z
#
# Youngs Moduli (GPa) = 120.85911 124.52283 48.12313
#
# Poissons Ratio (x) = 0.34150 0.23471
# Poissons Ratio (y) = 0.33145 0.00034
# Poissons Ratio (z) = 0.58945 0.00088
#
# Static dielectric constant tensor:
#      x y z
#    x 2.149330 0.000000 0.000000 
#    y 0.000000 1.971240 0.000000 
#    z 0.000000 0.000000 2.206460 
# 
# From -- ./inp_files/6580.got.cif
#   From: 2010.05.17/outbox.cif.g08.bks.cpg/sg33_4_cif.got.tgz:6580.got - 2010.06.03 17:15:25.
