data_PCOD9345403
_publ_section_title
;
Structure prediction by ZEFSAII (Michael W. Deem and Ramdas Pophale) SiO2 
 PCOD9345403
Probable space group: P N A 21
;
_chemical_formula_sum "Si O2"
_cell_formula_units_Z 32
_cell_length_a 8.807525
_cell_length_b 10.443897
_cell_length_c 13.860231
_cell_angle_alpha 90.000000
_cell_angle_beta 90.000000
_cell_angle_gamma 90.000000
_cell_volume 1274.931740
_symmetry_space_group_name_H-M "P N A 21"
_symmetry_group_IT_number 33
_symmetry_cell_setting 'orthorhombic'
loop_
_space_group_symop_operation_xyz
x,y,z
-x,-y,1/2+z
1/2-x,1/2+y,1/2+z
1/2+x,1/2-y,z
loop_
_atom_site_type_symbol
_atom_site_label
_atom_site_fract_x
_atom_site_fract_y
_atom_site_fract_z
Si Si1 0.436749 0.043121 0.405940
Si Si2 0.948894 0.915206 0.518778
Si Si3 0.167173 0.309799 0.667242
Si Si4 0.423558 0.286864 0.535826
Si Si5 0.852103 0.113216 0.846222
Si Si6 0.454222 0.412971 0.234206
Si Si7 0.103781 0.343284 0.237839
Si Si8 0.617341 0.915979 0.573344
O O1 0.449177 0.182720 0.454205
O O2 0.270464 0.984963 0.392299
O O3 0.517083 0.055344 0.303869
O O4 0.536435 0.958090 0.476395
O O5 0.036155 0.923967 0.619221
O O6 0.781250 0.859782 0.543521
O O7 0.045547 0.841910 0.437411
O O8 0.930551 0.068379 0.495483
O O9 0.257756 0.255527 0.575380
O O10 0.247912 0.301489 0.771992
O O11 0.161094 0.460341 0.639322
O O12 0.010583 0.243484 0.637519
O O13 0.977878 0.038628 0.782902
O O14 0.280184 0.373859 0.249871
O O15 0.567954 0.301208 0.268295
O O16 0.013950 0.349643 0.136074
#
# Coordination Sequence:
#
# PCOD9345403 Si02
#       8
#     4   4   4   4   4   4   4   4
#     4  11  22  39  70 103 128 181 227 281 336 410
#     4  11  22  41  67  96 136 179 225 281 347 405
#     4  10  21  41  63  95 138 169 218 280 331 399
#     4  10  21  40  66  96 130 176 223 277 336 392
#     4  12  22  42  64 100 138 176 226 277 344 412
#     4  12  25  42  67  96 138 178 221 289 341 404
#     4  12  24  42  67 100 132 179 232 275 349 409
#     4  10  21  43  64  98 140 168 222 290 338 401
#
# _framework density 25.099381999999999
#
# number of rings (size 3 to 8) (size 9 to 14) (size 15 to 20)
#    0.000    1.000    3.750    4.500    0.000    5.000 
#    0.000    3.750    0.000    0.000    0.000    0.000 
#    0.000    0.000    0.000    0.000    0.000    0.000 
#
# Total GULP energy -178724.798441 kJ/mol
# GULP energy per Si atom -5585.149951 kJ/mol
# Density = 2.504225 g / cm^3
# Si number density = 25.099382 Si / 1000 Ang^3
#
#
#
# Elastic Constant Matrix: (Units=GPa)
#
#
# Indices 1 2 3 4 5 6 
#
# 1 132.4150 18.0278 28.8157 0.0000 0.0000 0.0000
# 2 18.0278 32.0091 10.4390 0.0000 0.0000 0.0000
# 3 28.8157 10.4390 126.4857 0.0000 0.0000 0.0000
# 4 0.0000 0.0000 0.0000 20.9326 0.0000 0.0000
# 5 0.0000 0.0000 0.0000 0.0000 53.3559 0.0000
# 6 0.0000 0.0000 0.0000 0.0000 0.0000 25.8695
#
#
#
# Elastic Compliance Matrix: (Units=1/GPa)
#
#
# Indices 1 2 3 4 5 6 
#
# 1 0.008475 -0.004258 -0.001579 0.000000 0.000000 0.000000
# 2 -0.004258 0.034245 -0.001856 0.000000 0.000000 0.000000
# 3 -0.001579 -0.001856 0.008419 0.000000 0.000000 0.000000
# 4 0.000000 0.000000 0.000000 0.047772 0.000000 0.000000
# 5 0.000000 0.000000 0.000000 0.000000 0.018742 0.000000
# 6 0.000000 0.000000 0.000000 0.000000 0.000000 0.038655
#
#
# Mechanical properties :
#
#
# Convention : Reuss Voigt Hill
#
# Bulk Modulus (GPa) = 27.97084 45.05275 36.51179
# Shear Modulus (GPa) = 27.23098 35.60676 31.41887
#
# Velocity S-wave (km/s) = 3.29740 3.77056 3.54189
# Velocity P-wave (km/s) = 5.06609 6.07823 5.59509
#
# Compressibility (1/GPa) = 0.03575152
#
# Stress axis : x y z
#
# Youngs Moduli (GPa) = 117.98732 29.20147 118.77843
#
# Poissons Ratio (x) = 0.12435 0.18760
# Poissons Ratio (y) = 0.50244 0.22047
# Poissons Ratio (z) = 0.18635 0.05420
#
# Static dielectric constant tensor:
#      x y z
#    x 1.944800 0.000000 0.000000 
#    y 0.000000 2.089660 0.000000 
#    z 0.000000 0.000000 1.987450 
# 
# From -- ./inp_files/7676.got.cif
#   From: 2010.05.17/outbox.cif.g08.bks.cpg/sg33_4_cif.got.tgz:7676.got - 2010.06.03 17:15:25.
