data_PCOD9345141
_publ_section_title
;
Structure prediction by ZEFSAII (Michael W. Deem and Ramdas Pophale) SiO2 
 PCOD9345141
Probable space group: P N A 21
;
_chemical_formula_sum "Si O2"
_cell_formula_units_Z 16
_cell_length_a 10.226251
_cell_length_b 12.322862
_cell_length_c 4.995902
_cell_angle_alpha 90.000000
_cell_angle_beta 90.000000
_cell_angle_gamma 90.000000
_cell_volume 629.566983
_symmetry_space_group_name_H-M "P N A 21"
_symmetry_group_IT_number 33
_symmetry_cell_setting 'orthorhombic'
loop_
_space_group_symop_operation_xyz
x,y,z
-x,-y,1/2+z
1/2-x,1/2+y,1/2+z
1/2+x,1/2-y,z
loop_
_atom_site_type_symbol
_atom_site_label
_atom_site_fract_x
_atom_site_fract_y
_atom_site_fract_z
Si Si1 0.439664 0.231970 0.546550
Si Si2 0.810681 0.461743 0.288578
Si Si3 0.444876 0.861147 0.561857
Si Si4 0.921352 0.023987 0.441231
O O1 0.330332 0.140964 0.482690
O O2 0.557234 0.200602 0.341653
O O3 0.389642 0.349607 0.471245
O O4 0.495459 0.219642 0.842284
O O5 0.821454 0.573946 0.452047
O O6 0.691904 0.456742 0.085489
O O7 0.943011 0.453154 0.109171
O O8 0.954286 0.993483 0.138637
#
# Coordination Sequence:
#
# PCOD9345141 Si02
#       4
#     4   4   4   4
#     4  10  22  44  68 106 132 188 234 288 363 393
#     4  10  23  44  74 101 140 182 250 284 346 419
#     4  10  20  42  74 103 128 175 257 292 322 412
#     4  12  29  46  66 106 158 183 223 294 375 428
#
# _framework density 25.414294000000002
#
# number of rings (size 3 to 8) (size 9 to 14) (size 15 to 20)
#    1.500    0.000    2.500    1.500    3.500    2.000 
#    4.500    0.000    0.000    0.000    0.000    0.000 
#    0.000    0.000    0.000    0.000    0.000    0.000 
#
# Total GULP energy -89527.375792 kJ/mol
# GULP energy per Si atom -5595.460987 kJ/mol
# Density = 2.535645 g / cm^3
# Si number density = 25.414294 Si / 1000 Ang^3
#
#
#
# Elastic Constant Matrix: (Units=GPa)
#
#
# Indices 1 2 3 4 5 6 
#
# 1 69.0012 -12.4608 0.5581 0.0000 0.0000 0.0000
# 2 -12.4608 73.4960 1.4248 0.0000 0.0000 0.0000
# 3 0.5581 1.4248 105.7903 0.0000 0.0000 0.0000
# 4 0.0000 0.0000 0.0000 28.2440 0.0000 0.0000
# 5 0.0000 0.0000 0.0000 0.0000 31.7516 0.0000
# 6 0.0000 0.0000 0.0000 0.0000 0.0000 21.9000
#
#
#
# Elastic Compliance Matrix: (Units=1/GPa)
#
#
# Indices 1 2 3 4 5 6 
#
# 1 0.014952 0.002537 -0.000113 0.000000 0.000000 0.000000
# 2 0.002537 0.014040 -0.000202 0.000000 0.000000 0.000000
# 3 -0.000113 -0.000202 0.009456 0.000000 0.000000 0.000000
# 4 0.000000 0.000000 0.000000 0.035406 0.000000 0.000000
# 5 0.000000 0.000000 0.000000 0.000000 0.031494 0.000000
# 6 0.000000 0.000000 0.000000 0.000000 0.000000 0.045662
#
#
# Mechanical properties :
#
#
# Convention : Reuss Voigt Hill
#
# Bulk Modulus (GPa) = 23.31489 25.25909 24.28699
# Shear Modulus (GPa) = 31.08217 33.63015 32.35616
#
# Velocity S-wave (km/s) = 3.50096 3.64163 3.57199
# Velocity P-wave (km/s) = 5.05333 5.25761 5.15648
#
# Compressibility (1/GPa) = 0.04289105
#
# Stress axis : x y z
#
# Youngs Moduli (GPa) = 66.88248 71.22375 105.75310
#
# Poissons Ratio (x) = -0.18070 0.01196
# Poissons Ratio (y) = -0.16969 0.02141
# Poissons Ratio (z) = 0.00756 0.01442
#
# Static dielectric constant tensor:
#      x y z
#    x 2.070530 0.000000 0.000000 
#    y 0.000000 2.002030 0.000000 
#    z 0.000000 0.000000 1.978980 
# 
# From -- ./inp_files/709.got.cif
#   From: 2010.05.17/outbox.cif.g08.bks.cpg/sg33_1_cif.got.tgz:709.got - 2010.06.03 17:15:25.
