data_PCOD9345181
_publ_section_title
;
Structure prediction by ZEFSAII (Michael W. Deem and Ramdas Pophale) SiO2 
 PCOD9345181
Probable space group: P N A 21
;
_chemical_formula_sum "Si O2"
_cell_formula_units_Z 28
_cell_length_a 21.443370
_cell_length_b 11.891302
_cell_length_c 5.130605
_cell_angle_alpha 90.000000
_cell_angle_beta 90.000000
_cell_angle_gamma 90.000000
_cell_volume 1308.250858
_symmetry_space_group_name_H-M "P N A 21"
_symmetry_group_IT_number 33
_symmetry_cell_setting 'orthorhombic'
loop_
_space_group_symop_operation_xyz
x,y,z
-x,-y,1/2+z
1/2-x,1/2+y,1/2+z
1/2+x,1/2-y,z
loop_
_atom_site_type_symbol
_atom_site_label
_atom_site_fract_x
_atom_site_fract_y
_atom_site_fract_z
Si Si1 0.712523 0.872331 0.278680
Si Si2 0.179393 0.759137 0.793246
Si Si3 0.452265 0.621390 0.210666
Si Si4 0.270130 0.921391 0.123935
Si Si5 0.340613 0.556485 0.824963
Si Si6 0.571005 0.599005 0.966216
Si Si7 0.162976 0.225685 0.903608
O O1 0.696077 0.779504 0.502225
O O2 0.788151 0.858421 0.247942
O O3 0.699717 0.988426 0.426838
O O4 0.678987 0.841410 0.009039
O O5 0.228727 0.842858 0.932244
O O6 0.113249 0.823049 0.785359
O O7 0.396227 0.583924 0.020664
O O8 0.517355 0.668668 0.110753
O O9 0.468327 0.502067 0.340020
O O10 0.411132 0.707146 0.379311
O O11 0.316211 0.845271 0.295076
O O12 0.224478 0.987941 0.325170
O O13 0.378916 0.471417 0.632075
O O14 0.324812 0.676816 0.691068
#
# Coordination Sequence:
#
# PCOD9345181 Si02
#       7
#     4   4   4   4   4   4   4
#     4  10  22  39  58  87 122 158 201 245 299 379
#     4  10  23  38  59  88 119 158 204 243 306 365
#     4  11  20  35  56  86 120 151 205 245 313 369
#     4   9  20  37  58  83 119 156 190 248 305 353
#     4   9  19  35  52  84 116 151 193 242 297 373
#     4  10  21  34  58  83 117 160 190 257 303 364
#     4   9  21  34  53  87 115 152 195 246 301 361
#
# _framework density 21.402623999999999
#
# number of rings (size 3 to 8) (size 9 to 14) (size 15 to 20)
#    0.000    2.286    1.429    0.857   14.000    2.286 
#    0.000    0.000    0.000    1.714    0.000    0.000 
#    0.000    0.000    0.000    0.000    0.000    0.000 
#
# Total GULP energy -155928.468697 kJ/mol
# GULP energy per Si atom -5568.873882 kJ/mol
# Density = 2.135391 g / cm^3
# Si number density = 21.402624 Si / 1000 Ang^3
#
#
#
# Elastic Constant Matrix: (Units=GPa)
#
#
# Indices 1 2 3 4 5 6 
#
# 1 87.9052 13.8155 -6.7437 0.0000 0.0000 0.0000
# 2 13.8155 70.3265 -3.6560 0.0000 0.0000 0.0000
# 3 -6.7437 -3.6560 26.7513 0.0000 0.0000 0.0000
# 4 0.0000 0.0000 0.0000 33.7603 0.0000 0.0000
# 5 0.0000 0.0000 0.0000 0.0000 29.7418 0.0000
# 6 0.0000 0.0000 0.0000 0.0000 0.0000 12.5629
#
#
#
# Elastic Compliance Matrix: (Units=1/GPa)
#
#
# Indices 1 2 3 4 5 6 
#
# 1 0.011930 -0.002203 0.002706 0.000000 0.000000 0.000000
# 2 -0.002203 0.014728 0.001457 0.000000 0.000000 0.000000
# 3 0.002706 0.001457 0.038263 0.000000 0.000000 0.000000
# 4 0.000000 0.000000 0.000000 0.029621 0.000000 0.000000
# 5 0.000000 0.000000 0.000000 0.000000 0.033623 0.000000
# 6 0.000000 0.000000 0.000000 0.000000 0.000000 0.079600
#
#
# Mechanical properties :
#
#
# Convention : Reuss Voigt Hill
#
# Bulk Modulus (GPa) = 14.52596 21.31273 17.91934
# Shear Modulus (GPa) = 22.04693 27.31748 24.68221
#
# Velocity S-wave (km/s) = 3.21301 3.57650 3.39961
# Velocity P-wave (km/s) = 4.53501 5.19949 4.87857
#
# Compressibility (1/GPa) = 0.06884227
#
# Stress axis : x y z
#
# Youngs Moduli (GPa) = 83.82432 67.89835 26.13503
#
# Poissons Ratio (x) = 0.14957 -0.07073
# Poissons Ratio (y) = 0.18465 -0.03809
# Poissons Ratio (z) = -0.22685 -0.09896
#
# Static dielectric constant tensor:
#      x y z
#    x 1.804780 0.000000 0.000000 
#    y 0.000000 1.850580 0.000000 
#    z 0.000000 0.000000 2.060990 
# 
# From -- ./inp_files/1983.got.cif
#   From: 2010.05.17/outbox.cif.g08.bks.cpg/sg33_1_cif.got.tgz:1983.got - 2010.06.03 17:15:25.
