data_PCOD9345221
_publ_section_title
;
Structure prediction by ZEFSAII (Michael W. Deem and Ramdas Pophale) SiO2 
 PCOD9345221
Probable space group: P N A 21
;
_chemical_formula_sum "Si O2"
_cell_formula_units_Z 28
_cell_length_a 14.105330
_cell_length_b 17.759377
_cell_length_c 6.099904
_cell_angle_alpha 90.000000
_cell_angle_beta 90.000000
_cell_angle_gamma 90.000000
_cell_volume 1528.037378
_symmetry_space_group_name_H-M "P N A 21"
_symmetry_group_IT_number 33
_symmetry_cell_setting 'orthorhombic'
loop_
_space_group_symop_operation_xyz
x,y,z
-x,-y,1/2+z
1/2-x,1/2+y,1/2+z
1/2+x,1/2-y,z
loop_
_atom_site_type_symbol
_atom_site_label
_atom_site_fract_x
_atom_site_fract_y
_atom_site_fract_z
Si Si1 0.792282 0.648070 0.225760
Si Si2 0.023954 0.595609 0.618998
Si Si3 0.819550 0.376791 0.774329
Si Si4 0.648473 0.998410 0.953058
Si Si5 0.269910 0.728258 0.601140
Si Si6 0.065120 0.272963 0.397773
Si Si7 0.136354 0.768363 0.978664
O O1 0.800660 0.563521 0.313963
O O2 0.791537 0.704626 0.431907
O O3 0.697916 0.664728 0.084399
O O4 0.880947 0.674749 0.075505
O O5 0.080626 0.607911 0.394691
O O6 0.097713 0.559208 0.788169
O O7 0.936073 0.540540 0.580703
O O8 0.982338 0.671273 0.721624
O O9 0.793574 0.449164 0.629132
O O10 0.834980 0.305762 0.616106
O O11 0.748832 0.347023 0.962276
O O12 0.354206 0.724620 0.777157
O O13 0.176117 0.752428 0.735349
O O14 0.976837 0.225602 0.489423
#
# Coordination Sequence:
#
# PCOD9345221 Si02
#       7
#     4   4   4   4   4   4   4
#     4  10  23  34  54  84 123 149 191 246 302 363
#     4  12  21  32  55  85 123 157 184 232 303 371
#     4  11  21  34  53  81 124 155 191 237 301 365
#     4  12  21  32  51  85 122 159 188 230 309 375
#     4  10  21  37  54  81 123 153 195 244 291 352
#     4  11  20  36  57  82 120 158 201 243 298 363
#     4  10  21  37  54  80 119 151 198 244 292 357
#
# _framework density 18.324159999999999
#
# number of rings (size 3 to 8) (size 9 to 14) (size 15 to 20)
#    0.000    1.143    5.714    1.714    0.000    0.000 
#    0.000    0.000    0.000    0.000    0.000    0.000 
#  192.857    0.000    0.000    0.000    0.000    0.000 
#
# Total GULP energy -156312.228084 kJ/mol
# GULP energy per Si atom -5582.579574 kJ/mol
# Density = 1.828245 g / cm^3
# Si number density = 18.324160 Si / 1000 Ang^3
#
#
#
# Elastic Constant Matrix: (Units=GPa)
#
#
# Indices 1 2 3 4 5 6 
#
# 1 74.6145 40.3314 23.7030 0.0000 0.0000 0.0000
# 2 40.3314 78.4537 33.5345 0.0000 0.0000 0.0000
# 3 23.7030 33.5345 73.6163 0.0000 0.0000 0.0000
# 4 0.0000 0.0000 0.0000 41.8099 0.0000 0.0000
# 5 0.0000 0.0000 0.0000 0.0000 30.6750 0.0000
# 6 0.0000 0.0000 0.0000 0.0000 0.0000 27.1210
#
#
#
# Elastic Compliance Matrix: (Units=1/GPa)
#
#
# Indices 1 2 3 4 5 6 
#
# 1 0.018805 -0.008791 -0.002050 0.000000 0.000000 0.000000
# 2 -0.008791 0.019938 -0.006252 0.000000 0.000000 0.000000
# 3 -0.002050 -0.006252 0.017092 0.000000 0.000000 0.000000
# 4 0.000000 0.000000 0.000000 0.023918 0.000000 0.000000
# 5 0.000000 0.000000 0.000000 0.000000 0.032600 0.000000
# 6 0.000000 0.000000 0.000000 0.000000 0.000000 0.036872
#
#
# Mechanical properties :
#
#
# Convention : Reuss Voigt Hill
#
# Bulk Modulus (GPa) = 46.19171 46.86916 46.53043
# Shear Modulus (GPa) = 26.22918 28.52890 27.37904
#
# Velocity S-wave (km/s) = 3.78749 3.95004 3.86962
# Velocity P-wave (km/s) = 6.66255 6.81447 6.73894
#
# Compressibility (1/GPa) = 0.02164891
#
# Stress axis : x y z
#
# Youngs Moduli (GPa) = 53.17628 50.15567 58.50685
#
# Poissons Ratio (x) = 0.44092 0.11996
# Poissons Ratio (y) = 0.46747 0.36577
# Poissons Ratio (z) = 0.10903 0.31356
#
# Static dielectric constant tensor:
#      x y z
#    x 1.652790 0.000000 0.000000 
#    y 0.000000 1.626050 0.000000 
#    z 0.000000 0.000000 1.688240 
# 
# From -- ./inp_files/940.got.cif
#   From: 2010.05.17/outbox.cif.g08.bks.cpg/sg33_1_cif.got.tgz:940.got - 2010.06.03 17:15:25.
