data_PCOD9345243
_publ_section_title
;
Structure prediction by ZEFSAII (Michael W. Deem and Ramdas Pophale) SiO2 
 PCOD9345243
Probable space group: P N A 21
;
_chemical_formula_sum "Si O2"
_cell_formula_units_Z 24
_cell_length_a 12.947213
_cell_length_b 10.319696
_cell_length_c 7.013236
_cell_angle_alpha 90.000000
_cell_angle_beta 90.000000
_cell_angle_gamma 90.000000
_cell_volume 937.047595
_symmetry_space_group_name_H-M "P N A 21"
_symmetry_group_IT_number 33
_symmetry_cell_setting 'orthorhombic'
loop_
_space_group_symop_operation_xyz
x,y,z
-x,-y,1/2+z
1/2-x,1/2+y,1/2+z
1/2+x,1/2-y,z
loop_
_atom_site_type_symbol
_atom_site_label
_atom_site_fract_x
_atom_site_fract_y
_atom_site_fract_z
Si Si1 0.375055 0.594897 0.838240
Si Si2 0.978605 0.521207 0.309847
Si Si3 0.127760 0.278331 0.040512
Si Si4 0.601820 0.807668 0.073820
Si Si5 0.768604 0.622403 0.202386
Si Si6 0.448200 0.586151 0.230420
O O1 0.362799 0.738593 0.757179
O O2 0.295517 0.507926 0.720174
O O3 0.488637 0.540643 0.784444
O O4 0.366210 0.568423 0.062604
O O5 0.958340 0.612854 0.499045
O O6 0.935953 0.382337 0.383186
O O7 0.888225 0.582372 0.169693
O O8 0.086816 0.578917 0.233453
O O9 0.226663 0.325684 0.922296
O O10 0.094406 0.152278 0.919433
O O11 0.710359 0.731151 0.079537
O O12 0.525440 0.693050 0.140296
#
# Coordination Sequence:
#
# PCOD9345243 Si02
#       6
#     4   4   4   4   4   4
#     4  11  20  39  66  88 121 168 204 257 323 352
#     4   9  22  39  61  90 127 162 209 259 318 377
#     4   9  21  40  56  91 125 153 210 253 302 376
#     4  10  21  40  63  89 129 163 207 266 318 369
#     4   9  23  39  59  91 128 159 212 266 293 397
#     4  10  21  37  63  91 120 159 210 257 296 381
#
# _framework density 25.612359000000001
#
# number of rings (size 3 to 8) (size 9 to 14) (size 15 to 20)
#    1.000    1.333    1.667    0.000    4.667    1.333 
#    0.000    3.333    0.000    0.000    0.000    0.000 
#    0.000    0.000    0.000    0.000    0.000    0.000 
#
# Total GULP energy -133714.133021 kJ/mol
# GULP energy per Si atom -5571.422209 kJ/mol
# Density = 2.555406 g / cm^3
# Si number density = 25.612359 Si / 1000 Ang^3
#
#
#
# Elastic Constant Matrix: (Units=GPa)
#
#
# Indices 1 2 3 4 5 6 
#
# 1 68.5936 14.8920 11.1829 0.0000 0.0000 0.0000
# 2 14.8920 60.1905 18.3062 0.0000 0.0000 0.0000
# 3 11.1829 18.3062 63.1470 0.0000 0.0000 0.0000
# 4 0.0000 0.0000 0.0000 42.4972 0.0000 0.0000
# 5 0.0000 0.0000 0.0000 0.0000 33.2939 0.0000
# 6 0.0000 0.0000 0.0000 0.0000 0.0000 39.0381
#
#
#
# Elastic Compliance Matrix: (Units=1/GPa)
#
#
# Indices 1 2 3 4 5 6 
#
# 1 0.015591 -0.003309 -0.001802 0.000000 0.000000 0.000000
# 2 -0.003309 0.018923 -0.004900 0.000000 0.000000 0.000000
# 3 -0.001802 -0.004900 0.017576 0.000000 0.000000 0.000000
# 4 0.000000 0.000000 0.000000 0.023531 0.000000 0.000000
# 5 0.000000 0.000000 0.000000 0.000000 0.030036 0.000000
# 6 0.000000 0.000000 0.000000 0.000000 0.000000 0.025616
#
#
# Mechanical properties :
#
#
# Convention : Reuss Voigt Hill
#
# Bulk Modulus (GPa) = 31.18392 31.18815 31.18603
# Shear Modulus (GPa) = 30.86754 32.80251 31.83503
#
# Velocity S-wave (km/s) = 3.47534 3.58261 3.52938
# Velocity P-wave (km/s) = 5.32031 5.41451 5.36762
#
# Compressibility (1/GPa) = 0.03206781
#
# Stress axis : x y z
#
# Youngs Moduli (GPa) = 64.14023 52.84602 56.89736
#
# Poissons Ratio (x) = 0.17489 0.10251
# Poissons Ratio (y) = 0.21227 0.27878
# Poissons Ratio (z) = 0.11556 0.25893
#
# Static dielectric constant tensor:
#      x y z
#    x 2.076660 0.000000 0.000000 
#    y 0.000000 2.040340 0.000000 
#    z 0.000000 0.000000 2.135320 
# 
# From -- ./inp_files/4313.got.cif
#   From: 2010.05.17/outbox.cif.g08.bks.cpg/sg33_3_cif.got.tgz:4313.got - 2010.06.03 17:15:25.
