data_PCOD9345876
_publ_section_title
;
Structure prediction by ZEFSAII (Michael W. Deem and Ramdas Pophale) SiO2 
 PCOD9345876
Probable space group: P N A 21
;
_chemical_formula_sum "Si O2"
_cell_formula_units_Z 28
_cell_length_a 22.564455
_cell_length_b 9.056027
_cell_length_c 6.162053
_cell_angle_alpha 90.000000
_cell_angle_beta 90.000000
_cell_angle_gamma 90.000000
_cell_volume 1259.180491
_symmetry_space_group_name_H-M "P N A 21"
_symmetry_group_IT_number 33
_symmetry_cell_setting 'orthorhombic'
loop_
_space_group_symop_operation_xyz
x,y,z
-x,-y,1/2+z
1/2-x,1/2+y,1/2+z
1/2+x,1/2-y,z
loop_
_atom_site_type_symbol
_atom_site_label
_atom_site_fract_x
_atom_site_fract_y
_atom_site_fract_z
Si Si1 0.351815 0.932317 0.197910
Si Si2 0.735013 0.669597 0.102325
Si Si3 0.195248 0.053736 0.447905
Si Si4 0.426962 0.141561 0.447477
Si Si5 0.055162 0.458326 0.324041
Si Si6 0.620166 0.564866 0.833418
Si Si7 0.375865 0.715248 0.571052
O O1 0.293264 0.930305 0.052995
O O2 0.346216 0.796388 0.364950
O O3 0.367743 0.069142 0.349147
O O4 0.407153 0.926211 0.037692
O O5 0.718737 0.597844 0.337393
O O6 0.679966 0.627095 0.950497
O O7 0.756735 0.839257 0.068204
O O8 0.142738 0.001366 0.606994
O O9 0.169070 0.158363 0.256202
O O10 0.486234 0.057983 0.371702
O O11 0.426499 0.304005 0.350413
O O12 0.427734 0.112498 0.706393
O O13 0.077402 0.331178 0.161881
O O14 0.595551 0.431326 0.976021
#
# Coordination Sequence:
#
# PCOD9345876 Si02
#       7
#     4   4   4   4   4   4   4
#     4  11  22  43  73  94 140 186 229 283 358 419
#     4  11  24  40  68 102 139 187 228 282 358 429
#     4  11  24  43  67  99 144 181 231 291 354 423
#     4  11  25  43  68 107 134 182 243 291 351 427
#     4  11  22  45  70  96 139 184 234 293 350 416
#     4  11  25  44  66 104 141 177 238 289 350 426
#     4  10  22  44  64  96 133 185 229 283 351 418
#
# _framework density 22.236684
#
# number of rings (size 3 to 8) (size 9 to 14) (size 15 to 20)
#    0.000    1.143    4.286    0.857    2.000    4.571 
#    5.143    0.000    0.000    0.000    0.000    0.000 
#    0.000    0.000    0.000    0.000    0.000    0.000 
#
# Total GULP energy -156135.820809 kJ/mol
# GULP energy per Si atom -5576.279315 kJ/mol
# Density = 2.218607 g / cm^3
# Si number density = 22.236684 Si / 1000 Ang^3
#
#
#
# Elastic Constant Matrix: (Units=GPa)
#
#
# Indices 1 2 3 4 5 6 
#
# 1 60.3568 -5.7396 22.3007 0.0000 0.0000 0.0000
# 2 -5.7396 76.1893 42.2916 0.0000 0.0000 0.0000
# 3 22.3007 42.2916 98.9515 0.0000 0.0000 0.0000
# 4 0.0000 0.0000 0.0000 24.5612 0.0000 0.0000
# 5 0.0000 0.0000 0.0000 0.0000 31.6119 0.0000
# 6 0.0000 0.0000 0.0000 0.0000 0.0000 31.0401
#
#
#
# Elastic Compliance Matrix: (Units=1/GPa)
#
#
# Indices 1 2 3 4 5 6 
#
# 1 0.019486 0.005121 -0.006580 0.000000 0.000000 0.000000
# 2 0.005121 0.018553 -0.009084 0.000000 0.000000 0.000000
# 3 -0.006580 -0.009084 0.015471 0.000000 0.000000 0.000000
# 4 0.000000 0.000000 0.000000 0.040715 0.000000 0.000000
# 5 0.000000 0.000000 0.000000 0.000000 0.031634 0.000000
# 6 0.000000 0.000000 0.000000 0.000000 0.000000 0.032216
#
#
# Mechanical properties :
#
#
# Convention : Reuss Voigt Hill
#
# Bulk Modulus (GPa) = 30.84107 39.24478 35.04293
# Shear Modulus (GPa) = 26.31997 29.21896 27.76946
#
# Velocity S-wave (km/s) = 3.44412 3.62884 3.53769
# Velocity P-wave (km/s) = 5.45120 5.93675 5.69915
#
# Compressibility (1/GPa) = 0.03242429
#
# Stress axis : x y z
#
# Youngs Moduli (GPa) = 51.31808 53.89930 64.63616
#
# Poissons Ratio (x) = -0.27599 0.42531
# Poissons Ratio (y) = -0.26278 0.58713
# Poissons Ratio (z) = 0.33768 0.48960
#
# Static dielectric constant tensor:
#      x y z
#    x 1.834830 0.000000 0.000000 
#    y 0.000000 1.854750 0.000000 
#    z 0.000000 0.000000 1.908740 
# 
# From -- ./inp_files/2216.got.cif
#   From: 2010.05.17/outbox.cif.g08.bks.cpg/sg33_2_cif.got.tgz:2216.got - 2010.06.03 17:15:25.
