data_PCOD9345224
_publ_section_title
;
Structure prediction by ZEFSAII (Michael W. Deem and Ramdas Pophale) SiO2 
 PCOD9345224
Probable space group: P N A 21
;
_chemical_formula_sum "Si O2"
_cell_formula_units_Z 24
_cell_length_a 5.495408
_cell_length_b 7.594110
_cell_length_c 22.575385
_cell_angle_alpha 90.000000
_cell_angle_beta 90.000000
_cell_angle_gamma 90.000000
_cell_volume 942.132511
_symmetry_space_group_name_H-M "P N A 21"
_symmetry_group_IT_number 33
_symmetry_cell_setting 'orthorhombic'
loop_
_space_group_symop_operation_xyz
x,y,z
-x,-y,1/2+z
1/2-x,1/2+y,1/2+z
1/2+x,1/2-y,z
loop_
_atom_site_type_symbol
_atom_site_label
_atom_site_fract_x
_atom_site_fract_y
_atom_site_fract_z
Si Si1 0.494533 0.146809 0.258230
Si Si2 0.501440 0.728824 0.634466
Si Si3 0.616243 0.049741 0.866238
Si Si4 0.481180 0.655956 0.016722
Si Si5 0.007001 0.157942 0.659907
Si Si6 0.616377 0.449677 0.912951
O O1 0.257633 0.267987 0.272639
O O2 0.494764 0.127021 0.186897
O O3 0.450804 0.973909 0.297491
O O4 0.751929 0.747093 0.600104
O O5 0.499373 0.549126 0.672105
O O6 0.636071 0.249358 0.890069
O O7 0.882313 0.970991 0.879185
O O8 0.380730 0.970131 0.899231
O O9 0.707846 0.784195 0.001019
O O10 0.548158 0.478863 0.981420
O O11 0.490258 0.648952 0.087760
O O12 0.259216 0.246823 0.678930
#
# Coordination Sequence:
#
# PCOD9345224 Si02
#       6
#     4   4   4   4   4   4
#     4  10  21  37  63  83 118 157 204 248 304 368
#     4  10  21  40  65  94 122 164 211 260 312 371
#     4  10  21  37  57  84 121 158 198 254 302 352
#     4  10  21  37  59  91 121 165 204 245 302 371
#     4  10  21  40  66  93 131 164 205 257 319 373
#     4  10  21  37  56  85 123 160 202 248 303 357
#
# _framework density 25.474125999999998
#
# number of rings (size 3 to 8) (size 9 to 14) (size 15 to 20)
#    0.000    2.000    0.000    3.000    0.000    4.000 
#    6.000    0.000   88.000    0.000    0.000    0.000 
#    0.000    0.000    0.000    0.000    0.000    0.000 
#
# Total GULP energy -133957.987170 kJ/mol
# GULP energy per Si atom -5581.582799 kJ/mol
# Density = 2.541615 g / cm^3
# Si number density = 25.474126 Si / 1000 Ang^3
#
#
#
# Elastic Constant Matrix: (Units=GPa)
#
#
# Indices 1 2 3 4 5 6 
#
# 1 279.4309 35.8495 21.9087 0.0000 0.0000 0.0000
# 2 35.8495 67.4737 3.3421 0.0000 0.0000 0.0000
# 3 21.9087 3.3421 49.7803 0.0000 0.0000 0.0000
# 4 0.0000 0.0000 0.0000 37.9640 0.0000 0.0000
# 5 0.0000 0.0000 0.0000 0.0000 26.0402 0.0000
# 6 0.0000 0.0000 0.0000 0.0000 0.0000 35.1945
#
#
#
# Elastic Compliance Matrix: (Units=1/GPa)
#
#
# Indices 1 2 3 4 5 6 
#
# 1 0.003965 -0.002027 -0.001609 0.000000 0.000000 0.000000
# 2 -0.002027 0.015906 -0.000176 0.000000 0.000000 0.000000
# 3 -0.001609 -0.000176 0.020808 0.000000 0.000000 0.000000
# 4 0.000000 0.000000 0.000000 0.026341 0.000000 0.000000
# 5 0.000000 0.000000 0.000000 0.000000 0.038402 0.000000
# 6 0.000000 0.000000 0.000000 0.000000 0.000000 0.028414
#
#
# Mechanical properties :
#
#
# Convention : Reuss Voigt Hill
#
# Bulk Modulus (GPa) = 30.25170 57.65393 43.95281
# Shear Modulus (GPa) = 32.79171 42.21206 37.50189
#
# Velocity S-wave (km/s) = 3.59173 4.07511 3.84103
# Velocity P-wave (km/s) = 5.39462 6.69504 6.07970
#
# Compressibility (1/GPa) = 0.03305599
#
# Stress axis : x y z
#
# Youngs Moduli (GPa) = 252.21404 62.86851 48.05811
#
# Poissons Ratio (x) = 0.12743 0.07732
# Poissons Ratio (y) = 0.51121 0.00845
# Poissons Ratio (z) = 0.40579 0.01105
#
# Static dielectric constant tensor:
#      x y z
#    x 2.069520 0.000000 0.000000 
#    y 0.000000 1.904280 0.000000 
#    z 0.000000 0.000000 1.992130 
# 
# From -- ./inp_files/9315.got.cif
#   From: 2010.05.17/outbox.cif.g08.bks.cpg/sg33_5_cif.got.tgz:9315.got - 2010.06.03 17:15:25.
