data_PCOD9345572
_publ_section_title
;
Structure prediction by ZEFSAII (Michael W. Deem and Ramdas Pophale) SiO2 
 PCOD9345572
Probable space group: P N A 21
;
_chemical_formula_sum "Si O2"
_cell_formula_units_Z 28
_cell_length_a 15.746635
_cell_length_b 14.562302
_cell_length_c 5.309476
_cell_angle_alpha 90.000000
_cell_angle_beta 90.000000
_cell_angle_gamma 90.000000
_cell_volume 1217.501364
_symmetry_space_group_name_H-M "P N A 21"
_symmetry_group_IT_number 33
_symmetry_cell_setting 'orthorhombic'
loop_
_space_group_symop_operation_xyz
x,y,z
-x,-y,1/2+z
1/2-x,1/2+y,1/2+z
1/2+x,1/2-y,z
loop_
_atom_site_type_symbol
_atom_site_label
_atom_site_fract_x
_atom_site_fract_y
_atom_site_fract_z
Si Si1 0.640447 0.353985 0.627140
Si Si2 0.554835 0.502026 0.313609
Si Si3 0.527225 0.950725 0.337526
Si Si4 0.718044 0.236707 0.284359
Si Si5 0.369159 0.317269 0.015183
Si Si6 0.797549 0.369898 0.932898
Si Si7 0.458366 0.756519 0.491201
O O1 0.608621 0.412217 0.391916
O O2 0.682965 0.255971 0.557709
O O3 0.714879 0.401969 0.783145
O O4 0.561312 0.324073 0.793967
O O5 0.516944 0.498062 0.034819
O O6 0.611779 0.591593 0.362118
O O7 0.626042 0.940162 0.414275
O O8 0.485949 0.850416 0.360486
O O9 0.484366 0.011763 0.556342
O O10 0.837515 0.270207 0.848730
O O11 0.763928 0.333738 0.203144
O O12 0.630435 0.225283 0.131342
O O13 0.292290 0.332616 0.212197
O O14 0.457652 0.280141 0.137898
#
# Coordination Sequence:
#
# PCOD9345572 Si02
#       7
#     4   4   4   4   4   4   4
#     4  11  22  41  73  92 141 181 233 284 350 415
#     4  12  26  43  69 107 136 179 233 288 350 410
#     4  11  26  44  69 102 134 179 230 284 343 409
#     4   9  21  40  67  96 125 185 223 275 342 411
#     4   9  20  44  64  96 133 177 226 277 343 417
#     4   8  22  43  63  95 133 178 223 278 348 406
#     4  10  21  45  65  96 136 179 226 282 346 414
#
# _framework density 22.997920000000001
#
# number of rings (size 3 to 8) (size 9 to 14) (size 15 to 20)
#    0.857    1.143    1.429    0.857    6.000    2.286 
#    2.571    0.000    0.000    0.000    0.000    0.000 
#    0.000    0.000    0.000    0.000    0.000    0.000 
#
# Total GULP energy -155983.564710 kJ/mol
# GULP energy per Si atom -5570.841597 kJ/mol
# Density = 2.294558 g / cm^3
# Si number density = 22.997920 Si / 1000 Ang^3
#
#
#
# Elastic Constant Matrix: (Units=GPa)
#
#
# Indices 1 2 3 4 5 6 
#
# 1 131.3248 25.4311 12.8183 0.0000 0.0000 0.0000
# 2 25.4311 64.4244 -0.2200 0.0000 0.0000 0.0000
# 3 12.8183 -0.2200 30.0306 0.0000 0.0000 0.0000
# 4 0.0000 0.0000 0.0000 18.5915 0.0000 0.0000
# 5 0.0000 0.0000 0.0000 0.0000 26.9331 0.0000
# 6 0.0000 0.0000 0.0000 0.0000 0.0000 30.2780
#
#
#
# Elastic Compliance Matrix: (Units=1/GPa)
#
#
# Indices 1 2 3 4 5 6 
#
# 1 0.008640 -0.003423 -0.003713 0.000000 0.000000 0.000000
# 2 -0.003423 0.016879 0.001585 0.000000 0.000000 0.000000
# 3 -0.003713 0.001585 0.034896 0.000000 0.000000 0.000000
# 4 0.000000 0.000000 0.000000 0.053788 0.000000 0.000000
# 5 0.000000 0.000000 0.000000 0.000000 0.037129 0.000000
# 6 0.000000 0.000000 0.000000 0.000000 0.000000 0.033027
#
#
# Mechanical properties :
#
#
# Convention : Reuss Voigt Hill
#
# Bulk Modulus (GPa) = 20.27912 33.53760 26.90836
# Shear Modulus (GPa) = 23.59613 27.67721 25.63667
#
# Velocity S-wave (km/s) = 3.20662 3.47286 3.34239
# Velocity P-wave (km/s) = 4.74835 5.54036 5.15957
#
# Compressibility (1/GPa) = 0.04931180
#
# Stress axis : x y z
#
# Youngs Moduli (GPa) = 115.74020 59.24591 28.65672
#
# Poissons Ratio (x) = 0.20281 0.10640
# Poissons Ratio (y) = 0.39621 -0.04542
# Poissons Ratio (z) = 0.42974 -0.09389
#
# Static dielectric constant tensor:
#      x y z
#    x 1.930920 0.000000 0.000000 
#    y 0.000000 1.885960 0.000000 
#    z 0.000000 0.000000 1.895720 
# 
# From -- ./inp_files/1414.got.cif
#   From: 2010.05.17/outbox.cif.g08.bks.cpg/sg33_1_cif.got.tgz:1414.got - 2010.06.03 17:15:25.
