data_PCOD9345135
_publ_section_title
;
Structure prediction by ZEFSAII (Michael W. Deem and Ramdas Pophale) SiO2 
 PCOD9345135
Probable space group: P N A 21
;
_chemical_formula_sum "Si O2"
_cell_formula_units_Z 32
_cell_length_a 8.365534
_cell_length_b 10.915191
_cell_length_c 15.057124
_cell_angle_alpha 90.000000
_cell_angle_beta 90.000000
_cell_angle_gamma 90.000000
_cell_volume 1374.887094
_symmetry_space_group_name_H-M "P N A 21"
_symmetry_group_IT_number 33
_symmetry_cell_setting 'orthorhombic'
loop_
_space_group_symop_operation_xyz
x,y,z
-x,-y,1/2+z
1/2-x,1/2+y,1/2+z
1/2+x,1/2-y,z
loop_
_atom_site_type_symbol
_atom_site_label
_atom_site_fract_x
_atom_site_fract_y
_atom_site_fract_z
Si Si1 0.094538 0.602619 0.378390
Si Si2 0.407848 0.518781 0.831902
Si Si3 0.050979 0.826841 0.984925
Si Si4 0.498683 0.328566 0.182835
Si Si5 0.280667 0.791600 0.298159
Si Si6 0.856295 0.628257 0.099266
Si Si7 0.066073 0.641812 0.830789
Si Si8 0.184154 0.637452 0.577415
O O1 0.218913 0.654116 0.306918
O O2 0.052865 0.460083 0.369207
O O3 0.170447 0.637192 0.472039
O O4 0.924426 0.668133 0.362028
O O5 0.456398 0.569591 0.928712
O O6 0.527933 0.563787 0.754652
O O7 0.369839 0.376546 0.826274
O O8 0.235020 0.579926 0.805830
O O9 0.111947 0.739038 0.906078
O O10 0.955369 0.732985 0.048314
O O11 0.192715 0.880433 0.043246
O O12 0.519815 0.213723 0.251226
O O13 0.643081 0.371837 0.121596
O O14 0.374380 0.267660 0.115867
O O15 0.328155 0.826043 0.198666
O O16 0.915424 0.486728 0.103248
#
# Coordination Sequence:
#
# PCOD9345135 Si02
#       8
#     4   4   4   4   4   4   4   4
#     4  11  24  44  68  96 140 184 226 288 355 413
#     4  10  21  42  69  99 132 176 229 281 350 415
#     4  11  23  40  72  97 132 172 227 288 337 414
#     4  11  22  42  68 100 136 178 230 293 336 420
#     4  11  24  46  64  96 141 181 227 287 352 418
#     4  12  24  45  68 102 136 176 236 287 343 415
#     4  10  20  42  69 100 131 182 230 283 350 408
#     4  12  24  43  68 104 140 181 237 287 349 419
#
# _framework density 23.274639000000001
#
# number of rings (size 3 to 8) (size 9 to 14) (size 15 to 20)
#    0.000    1.000    5.000    2.250    0.000    2.000 
#    2.250    2.500    0.000    0.000    0.000    0.000 
#    0.000    0.000    0.000    0.000    0.000    0.000 
#
# Total GULP energy -178763.869444 kJ/mol
# GULP energy per Si atom -5586.370920 kJ/mol
# Density = 2.322166 g / cm^3
# Si number density = 23.274639 Si / 1000 Ang^3
#
#
#
# Elastic Constant Matrix: (Units=GPa)
#
#
# Indices 1 2 3 4 5 6 
#
# 1 28.2956 24.6643 17.1998 0.0000 0.0000 0.0000
# 2 24.6643 72.0088 29.4545 0.0000 0.0000 0.0000
# 3 17.1998 29.4545 83.5479 0.0000 0.0000 0.0000
# 4 0.0000 0.0000 0.0000 31.8754 0.0000 0.0000
# 5 0.0000 0.0000 0.0000 0.0000 31.3228 0.0000
# 6 0.0000 0.0000 0.0000 0.0000 0.0000 36.5052
#
#
#
# Elastic Compliance Matrix: (Units=1/GPa)
#
#
# Indices 1 2 3 4 5 6 
#
# 1 0.052245 -0.015769 -0.005196 0.000000 0.000000 0.000000
# 2 -0.015769 0.020987 -0.004152 0.000000 0.000000 0.000000
# 3 -0.005196 -0.004152 0.014503 0.000000 0.000000 0.000000
# 4 0.000000 0.000000 0.000000 0.031372 0.000000 0.000000
# 5 0.000000 0.000000 0.000000 0.000000 0.031926 0.000000
# 6 0.000000 0.000000 0.000000 0.000000 0.000000 0.027393
#
#
# Mechanical properties :
#
#
# Convention : Reuss Voigt Hill
#
# Bulk Modulus (GPa) = 26.66737 36.27660 31.47198
# Shear Modulus (GPa) = 20.73293 27.44294 24.08794
#
# Velocity S-wave (km/s) = 2.98786 3.43752 3.22054
# Velocity P-wave (km/s) = 4.83587 5.60138 5.23264
#
# Compressibility (1/GPa) = 0.03749902
#
# Stress axis : x y z
#
# Youngs Moduli (GPa) = 19.14046 47.64845 68.95199
#
# Poissons Ratio (x) = 0.75139 0.35828
# Poissons Ratio (y) = 0.30184 0.28632
# Poissons Ratio (z) = 0.09946 0.19786
#
# Static dielectric constant tensor:
#      x y z
#    x 1.898640 0.000000 0.000000 
#    y 0.000000 1.912360 0.000000 
#    z 0.000000 0.000000 1.848200 
# 
# From -- ./inp_files/7646.got.cif
#   From: 2010.05.17/outbox.cif.g08.bks.cpg/sg33_4_cif.got.tgz:7646.got - 2010.06.03 17:15:25.
