data_PCOD9345603
_publ_section_title
;
Structure prediction by ZEFSAII (Michael W. Deem and Ramdas Pophale) SiO2 
 PCOD9345603
Probable space group: P N A 21
;
_chemical_formula_sum "Si O2"
_cell_formula_units_Z 16
_cell_length_a 11.433964
_cell_length_b 9.135347
_cell_length_c 5.260757
_cell_angle_alpha 90.000000
_cell_angle_beta 90.000000
_cell_angle_gamma 90.000000
_cell_volume 549.503054
_symmetry_space_group_name_H-M "P N A 21"
_symmetry_group_IT_number 33
_symmetry_cell_setting 'orthorhombic'
loop_
_space_group_symop_operation_xyz
x,y,z
-x,-y,1/2+z
1/2-x,1/2+y,1/2+z
1/2+x,1/2-y,z
loop_
_atom_site_type_symbol
_atom_site_label
_atom_site_fract_x
_atom_site_fract_y
_atom_site_fract_z
Si Si1 0.305879 0.846761 0.364720
Si Si2 0.186987 0.583240 0.229858
Si Si3 0.069101 0.946121 0.885851
Si Si4 0.052954 0.333275 0.355778
O O1 0.191676 0.750316 0.312916
O O2 0.293413 0.016308 0.445658
O O3 0.370219 0.785132 0.614408
O O4 0.379309 0.808801 0.116934
O O5 0.297727 0.503174 0.368709
O O6 0.065014 0.509092 0.319123
O O7 0.058826 0.769284 0.861107
O O8 0.998617 0.007842 0.641370
#
# Coordination Sequence:
#
# PCOD9345603 Si02
#       4
#     4   4   4   4
#     4  10  22  36  62  88 131 156 215 258 344 370
#     4  10  23  38  65  91 128 170 212 277 325 400
#     4  12  21  37  65  93 119 165 230 271 322 400
#     4  10  22  37  58  94 122 165 207 278 319 390
#
# _framework density 29.117218000000001
#
# number of rings (size 3 to 8) (size 9 to 14) (size 15 to 20)
#    1.500    0.000    5.000    0.000    7.000    0.000 
#    0.000    0.000    5.500    0.000    0.000    0.000 
#    0.000    0.000    0.000    0.000    0.000    0.000 
#
# Total GULP energy -89511.459760 kJ/mol
# GULP energy per Si atom -5594.466235 kJ/mol
# Density = 2.905095 g / cm^3
# Si number density = 29.117218 Si / 1000 Ang^3
#
#
#
# Elastic Constant Matrix: (Units=GPa)
#
#
# Indices 1 2 3 4 5 6 
#
# 1 112.3120 30.7243 57.8225 0.0000 0.0000 0.0000
# 2 30.7243 172.0903 32.4339 0.0000 0.0000 0.0000
# 3 57.8225 32.4339 228.5586 0.0000 0.0000 0.0000
# 4 0.0000 0.0000 0.0000 11.5467 0.0000 0.0000
# 5 0.0000 0.0000 0.0000 0.0000 65.3831 0.0000
# 6 0.0000 0.0000 0.0000 0.0000 0.0000 19.7753
#
#
#
# Elastic Compliance Matrix: (Units=1/GPa)
#
#
# Indices 1 2 3 4 5 6 
#
# 1 0.010565 -0.001420 -0.002471 0.000000 0.000000 0.000000
# 2 -0.001420 0.006162 -0.000515 0.000000 0.000000 0.000000
# 3 -0.002471 -0.000515 0.005073 0.000000 0.000000 0.000000
# 4 0.000000 0.000000 0.000000 0.086605 0.000000 0.000000
# 5 0.000000 0.000000 0.000000 0.000000 0.015294 0.000000
# 6 0.000000 0.000000 0.000000 0.000000 0.000000 0.050568
#
#
# Mechanical properties :
#
#
# Convention : Reuss Voigt Hill
#
# Bulk Modulus (GPa) = 77.00312 83.88024 80.44168
# Shear Modulus (GPa) = 26.67957 45.47302 36.07629
#
# Velocity S-wave (km/s) = 3.03030 3.95615 3.52376
# Velocity P-wave (km/s) = 6.22470 7.05255 6.65152
#
# Compressibility (1/GPa) = 0.01298649
#
# Stress axis : x y z
#
# Youngs Moduli (GPa) = 94.65594 162.29644 197.10273
#
# Poissons Ratio (x) = 0.23053 0.48707
# Poissons Ratio (y) = 0.13445 0.10151
# Poissons Ratio (z) = 0.23391 0.08359
#
# Static dielectric constant tensor:
#      x y z
#    x 2.242940 0.000000 0.000000 
#    y 0.000000 2.432660 0.000000 
#    z 0.000000 0.000000 2.274880 
# 
# From -- ./inp_files/660.got.cif
#   From: 2010.05.17/outbox.cif.g08.bks.cpg/sg33_1_cif.got.tgz:660.got - 2010.06.03 17:15:25.
