data_PCOD9345461
_publ_section_title
;
Structure prediction by ZEFSAII (Michael W. Deem and Ramdas Pophale) SiO2 
 PCOD9345461
Probable space group: P N A 21
;
_chemical_formula_sum "Si O2"
_cell_formula_units_Z 32
_cell_length_a 12.360997
_cell_length_b 7.863606
_cell_length_c 15.830843
_cell_angle_alpha 90.000000
_cell_angle_beta 90.000000
_cell_angle_gamma 90.000000
_cell_volume 1538.789762
_symmetry_space_group_name_H-M "P N A 21"
_symmetry_group_IT_number 33
_symmetry_cell_setting 'orthorhombic'
loop_
_space_group_symop_operation_xyz
x,y,z
-x,-y,1/2+z
1/2-x,1/2+y,1/2+z
1/2+x,1/2-y,z
loop_
_atom_site_type_symbol
_atom_site_label
_atom_site_fract_x
_atom_site_fract_y
_atom_site_fract_z
Si Si1 0.562808 0.172151 0.884480
Si Si2 0.210343 0.267504 0.291010
Si Si3 0.550263 0.945822 0.218951
Si Si4 0.182908 0.543779 0.652504
Si Si5 0.134385 0.661935 0.476439
Si Si6 0.779528 0.985016 0.928472
Si Si7 0.816476 0.259410 0.572474
Si Si8 0.337123 0.462818 0.414244
O O1 0.489253 0.158650 0.801245
O O2 0.488495 0.109121 0.961914
O O3 0.597652 0.365607 0.900167
O O4 0.669731 0.055446 0.883417
O O5 0.132081 0.409444 0.252474
O O6 0.240833 0.132332 0.219974
O O7 0.166381 0.158480 0.370349
O O8 0.319900 0.351359 0.330413
O O9 0.606312 0.839030 0.143752
O O10 0.438001 0.020845 0.185354
O O11 0.173669 0.664419 0.571647
O O12 0.233309 0.365995 0.620553
O O13 0.214807 0.529961 0.431995
O O14 0.148844 0.849145 0.439560
O O15 0.745501 0.902902 0.017826
O O16 0.870526 0.145426 0.496881
#
# Coordination Sequence:
#
# PCOD9345461 Si02
#       8
#     4   4   4   4   4   4   4   4
#     4  11  22  40  70  96 126 171 218 267 324 393
#     4  11  23  42  66  94 136 170 216 269 323 384
#     4  12  25  41  69  99 134 169 219 278 326 380
#     4  11  25  43  64  99 132 168 217 271 329 380
#     4  10  21  41  66  91 125 169 212 264 325 388
#     4  10  22  44  68  92 131 177 214 265 326 388
#     4  10  24  44  65  93 135 174 217 272 324 391
#     4   9  22  43  64  92 129 172 213 262 323 394
#
# _framework density 20.795563999999999
#
# number of rings (size 3 to 8) (size 9 to 14) (size 15 to 20)
#    0.000    1.500    2.500    1.500    3.500    4.000 
#    2.250    0.000    0.000    0.000    0.000    0.000 
#    0.000    0.000    0.000    0.000    0.000    0.000 
#
# Total GULP energy -178661.773970 kJ/mol
# GULP energy per Si atom -5583.180437 kJ/mol
# Density = 2.074823 g / cm^3
# Si number density = 20.795564 Si / 1000 Ang^3
#
#
#
# Elastic Constant Matrix: (Units=GPa)
#
#
# Indices 1 2 3 4 5 6 
#
# 1 64.2704 30.9230 30.8461 0.0000 0.0000 0.0000
# 2 30.9230 103.4129 44.0671 0.0000 0.0000 0.0000
# 3 30.8461 44.0671 89.0866 0.0000 0.0000 0.0000
# 4 0.0000 0.0000 0.0000 41.8203 0.0000 0.0000
# 5 0.0000 0.0000 0.0000 0.0000 16.3638 0.0000
# 6 0.0000 0.0000 0.0000 0.0000 0.0000 8.8824
#
#
#
# Elastic Compliance Matrix: (Units=1/GPa)
#
#
# Indices 1 2 3 4 5 6 
#
# 1 0.019769 -0.003794 -0.004968 0.000000 0.000000 0.000000
# 2 -0.003794 0.012981 -0.005107 0.000000 0.000000 0.000000
# 3 -0.004968 -0.005107 0.015472 0.000000 0.000000 0.000000
# 4 0.000000 0.000000 0.000000 0.023912 0.000000 0.000000
# 5 0.000000 0.000000 0.000000 0.000000 0.061111 0.000000
# 6 0.000000 0.000000 0.000000 0.000000 0.000000 0.112582
#
#
# Mechanical properties :
#
#
# Convention : Reuss Voigt Hill
#
# Bulk Modulus (GPa) = 48.82305 52.04915 50.43610
# Shear Modulus (GPa) = 17.83208 23.47554 20.65381
#
# Velocity S-wave (km/s) = 2.93148 3.36351 3.15490
# Velocity P-wave (km/s) = 5.91495 6.33779 6.13002
#
# Compressibility (1/GPa) = 0.02048213
#
# Stress axis : x y z
#
# Youngs Moduli (GPa) = 50.58333 77.03600 64.63460
#
# Poissons Ratio (x) = 0.29231 0.32112
# Poissons Ratio (y) = 0.19194 0.33011
# Poissons Ratio (z) = 0.25131 0.39344
#
# Static dielectric constant tensor:
#      x y z
#    x 1.718170 0.000000 0.000000 
#    y 0.000000 1.733130 0.000000 
#    z 0.000000 0.000000 1.805120 
# 
# From -- ./inp_files/7952.got.cif
#   From: 2010.05.17/outbox.cif.g08.bks.cpg/sg33_4_cif.got.tgz:7952.got - 2010.06.03 17:15:25.
