data_PCOD9345033
_publ_section_title
;
Structure prediction by ZEFSAII (Michael W. Deem and Ramdas Pophale) SiO2 
 PCOD9345033
Probable space group: P N A 21
;
_chemical_formula_sum "Si O2"
_cell_formula_units_Z 32
_cell_length_a 8.662892
_cell_length_b 31.453087
_cell_length_c 5.076642
_cell_angle_alpha 90.000000
_cell_angle_beta 90.000000
_cell_angle_gamma 90.000000
_cell_volume 1383.256484
_symmetry_space_group_name_H-M "P N A 21"
_symmetry_group_IT_number 33
_symmetry_cell_setting 'orthorhombic'
loop_
_space_group_symop_operation_xyz
x,y,z
-x,-y,1/2+z
1/2-x,1/2+y,1/2+z
1/2+x,1/2-y,z
loop_
_atom_site_type_symbol
_atom_site_label
_atom_site_fract_x
_atom_site_fract_y
_atom_site_fract_z
Si Si1 0.921842 0.448451 0.065670
Si Si2 0.877632 0.840014 0.828703
Si Si3 0.176605 0.793474 0.329791
Si Si4 0.687134 0.860409 0.345633
Si Si5 0.866365 0.543077 0.071349
Si Si6 0.311204 0.375265 0.491557
Si Si7 0.550713 0.248268 0.543877
Si Si8 0.572398 0.179029 0.183245
O O1 0.827251 0.408130 0.961250
O O2 0.831937 0.493101 0.039723
O O3 0.999002 0.446108 0.355569
O O4 0.062812 0.451255 0.860402
O O5 0.752975 0.856072 0.049796
O O6 0.934165 0.793024 0.901075
O O7 0.030051 0.869360 0.833732
O O8 0.808424 0.838493 0.539463
O O9 0.160648 0.842435 0.234887
O O10 0.285527 0.770840 0.117189
O O11 0.279138 0.794914 0.585324
O O12 0.031868 0.762661 0.314326
O O13 0.524354 0.838674 0.434315
O O14 0.727138 0.576102 0.049229
O O15 0.155240 0.358456 0.346435
O O16 0.476431 0.210752 0.369772
#
# Coordination Sequence:
#
# PCOD9345033 Si02
#       8
#     4   4   4   4   4   4   4   4
#     4  10  21  38  68 101 130 162 224 270 330 386
#     4  11  28  42  64  91 142 172 217 270 344 389
#     4  10  23  38  65  86 128 163 223 269 326 387
#     4  12  25  44  66  99 130 177 216 279 330 402
#     4  10  20  39  68 100 129 167 214 282 319 394
#     4  10  23  43  62  98 126 176 217 270 330 403
#     4  10  24  42  56  97 122 174 220 275 326 389
#     4  11  24  40  73  88 125 173 231 271 323 398
#
# _framework density 23.133815999999999
#
# number of rings (size 3 to 8) (size 9 to 14) (size 15 to 20)
#    0.000    1.500    1.250    2.250   10.500    2.000 
#    0.000    1.250    0.000    0.000    0.000    0.000 
#    0.000    0.000    0.000    0.000    0.000    0.000 
#
# Total GULP energy -178813.678279 kJ/mol
# GULP energy per Si atom -5587.927446 kJ/mol
# Density = 2.308116 g / cm^3
# Si number density = 23.133816 Si / 1000 Ang^3
#
#
#
# Elastic Constant Matrix: (Units=GPa)
#
#
# Indices 1 2 3 4 5 6 
#
# 1 59.4241 19.3935 9.7645 0.0000 0.0000 0.0000
# 2 19.3935 98.6002 -6.8600 0.0000 0.0000 0.0000
# 3 9.7645 -6.8600 70.1015 0.0000 0.0000 0.0000
# 4 0.0000 0.0000 0.0000 19.0754 0.0000 0.0000
# 5 0.0000 0.0000 0.0000 0.0000 35.5252 0.0000
# 6 0.0000 0.0000 0.0000 0.0000 0.0000 29.7865
#
#
#
# Elastic Compliance Matrix: (Units=1/GPa)
#
#
# Indices 1 2 3 4 5 6 
#
# 1 0.018575 -0.003860 -0.002965 0.000000 0.000000 0.000000
# 2 -0.003860 0.011014 0.001615 0.000000 0.000000 0.000000
# 3 -0.002965 0.001615 0.014836 0.000000 0.000000 0.000000
# 4 0.000000 0.000000 0.000000 0.052423 0.000000 0.000000
# 5 0.000000 0.000000 0.000000 0.000000 0.028149 0.000000
# 6 0.000000 0.000000 0.000000 0.000000 0.000000 0.033572
#
#
# Mechanical properties :
#
#
# Convention : Reuss Voigt Hill
#
# Bulk Modulus (GPa) = 29.40671 30.30242 29.85457
# Shear Modulus (GPa) = 27.72793 30.59928 29.16361
#
# Velocity S-wave (km/s) = 3.46582 3.64085 3.55441
# Velocity P-wave (km/s) = 5.36237 5.54992 5.45695
#
# Compressibility (1/GPa) = 0.03400584
#
# Stress axis : x y z
#
# Youngs Moduli (GPa) = 53.83557 90.79743 67.40308
#
# Poissons Ratio (x) = 0.35046 0.19985
# Poissons Ratio (y) = 0.20779 -0.10888
# Poissons Ratio (z) = 0.15962 -0.14667
#
# Static dielectric constant tensor:
#      x y z
#    x 1.926820 0.000000 0.000000 
#    y 0.000000 1.887810 0.000000 
#    z 0.000000 0.000000 1.891580 
# 
# From -- ./inp_files/615.got.cif
#   From: 2010.05.17/outbox.cif.g08.bks.cpg/sg33_1_cif.got.tgz:615.got - 2010.06.03 17:15:25.
