data_PCOD9345975
_publ_section_title
;
Structure prediction by ZEFSAII (Michael W. Deem and Ramdas Pophale) SiO2 
 PCOD9345975
Probable space group: P N A 21
;
_chemical_formula_sum "Si O2"
_cell_formula_units_Z 24
_cell_length_a 33.227535
_cell_length_b 4.847127
_cell_length_c 5.609020
_cell_angle_alpha 90.000000
_cell_angle_beta 90.000000
_cell_angle_gamma 90.000000
_cell_volume 903.378003
_symmetry_space_group_name_H-M "P N A 21"
_symmetry_group_IT_number 33
_symmetry_cell_setting 'orthorhombic'
loop_
_space_group_symop_operation_xyz
x,y,z
-x,-y,1/2+z
1/2-x,1/2+y,1/2+z
1/2+x,1/2-y,z
loop_
_atom_site_type_symbol
_atom_site_label
_atom_site_fract_x
_atom_site_fract_y
_atom_site_fract_z
Si Si1 0.790440 0.261009 0.222350
Si Si2 0.298472 0.742236 0.533149
Si Si3 0.354241 0.085218 0.875177
Si Si4 0.910840 0.759178 0.212134
Si Si5 0.082695 0.763903 0.026716
Si Si6 0.496665 0.834918 0.033840
O O1 0.794688 0.579422 0.292894
O O2 0.802642 0.070190 0.445068
O O3 0.743949 0.210618 0.165093
O O4 0.819917 0.229839 0.998860
O O5 0.398543 0.451460 0.321788
O O6 0.333372 0.882286 0.684526
O O7 0.389119 0.266515 0.753873
O O8 0.377221 0.889344 0.059624
O O9 0.918996 0.549418 0.432036
O O10 0.952517 0.791174 0.068332
O O11 0.036293 0.855666 0.053665
O O12 0.501608 0.028501 0.270522
#
# Coordination Sequence:
#
# PCOD9345975 Si02
#       6
#     4   4   4   4   4   4
#     4  12  28  51  82 117 154 212 268 333 414 498
#     4  12  28  51  82 117 154 212 268 333 414 498
#     4  12  28  52  82 118 170 206 276 346 412 494
#     4  11  27  50  79 118 161 219 273 339 416 497
#     4  11  27  50  79 118 161 219 273 339 416 497
#     4  10  22  50  84 118 168 224 288 348 424 510
#
# _framework density 26.566951
#
# number of rings (size 3 to 8) (size 9 to 14) (size 15 to 20)
#    0.000    0.667    3.333    2.000    0.000   14.667 
#    0.000    0.000    0.000    0.000    0.000    0.000 
#    0.000    0.000    0.000    0.000    0.000    0.000 
#
# Total GULP energy -134732.882077 kJ/mol
# GULP energy per Si atom -5613.870087 kJ/mol
# Density = 2.650648 g / cm^3
# Si number density = 26.566951 Si / 1000 Ang^3
#
#
#
# Elastic Constant Matrix: (Units=GPa)
#
#
# Indices 1 2 3 4 5 6 
#
# 1 160.7719 12.9071 26.1520 0.0000 0.0000 0.0000
# 2 12.9071 86.7666 22.1912 0.0000 0.0000 0.0000
# 3 26.1520 22.1912 95.0952 0.0000 0.0000 0.0000
# 4 0.0000 0.0000 0.0000 46.4482 0.0000 0.0000
# 5 0.0000 0.0000 0.0000 0.0000 60.0977 0.0000
# 6 0.0000 0.0000 0.0000 0.0000 0.0000 12.1381
#
#
#
# Elastic Compliance Matrix: (Units=1/GPa)
#
#
# Indices 1 2 3 4 5 6 
#
# 1 0.006535 -0.000545 -0.001670 0.000000 0.000000 0.000000
# 2 -0.000545 0.012302 -0.002721 0.000000 0.000000 0.000000
# 3 -0.001670 -0.002721 0.011610 0.000000 0.000000 0.000000
# 4 0.000000 0.000000 0.000000 0.021529 0.000000 0.000000
# 5 0.000000 0.000000 0.000000 0.000000 0.016640 0.000000
# 6 0.000000 0.000000 0.000000 0.000000 0.000000 0.082385
#
#
# Mechanical properties :
#
#
# Convention : Reuss Voigt Hill
#
# Bulk Modulus (GPa) = 48.60160 51.68160 50.14160
# Shear Modulus (GPa) = 29.80938 42.49567 36.15253
#
# Velocity S-wave (km/s) = 3.35333 4.00380 3.69292
# Velocity P-wave (km/s) = 5.77294 6.39292 6.09082
#
# Compressibility (1/GPa) = 0.02057545
#
# Stress axis : x y z
#
# Youngs Moduli (GPa) = 153.01236 81.28662 86.13248
#
# Poissons Ratio (x) = 0.04430 0.14385
# Poissons Ratio (y) = 0.08340 0.23436
# Poissons Ratio (z) = 0.25555 0.22117
#
# Static dielectric constant tensor:
#      x y z
#    x 2.065100 0.000000 0.000000 
#    y 0.000000 2.014350 0.000000 
#    z 0.000000 0.000000 2.069460 
# 
# From -- ./inp_files/2267.got.cif
#   From: 2010.05.17/outbox.cif.g08.bks.cpg/sg33_2_cif.got.tgz:2267.got - 2010.06.03 17:15:25.
