data_PCOD9345917
_publ_section_title
;
Structure prediction by ZEFSAII (Michael W. Deem and Ramdas Pophale) SiO2 
 PCOD9345917
Probable space group: P N A 21
;
_chemical_formula_sum "Si O2"
_cell_formula_units_Z 32
_cell_length_a 13.088626
_cell_length_b 14.007342
_cell_length_c 8.931435
_cell_angle_alpha 90.000000
_cell_angle_beta 90.000000
_cell_angle_gamma 90.000000
_cell_volume 1637.461254
_symmetry_space_group_name_H-M "P N A 21"
_symmetry_group_IT_number 33
_symmetry_cell_setting 'orthorhombic'
loop_
_space_group_symop_operation_xyz
x,y,z
-x,-y,1/2+z
1/2-x,1/2+y,1/2+z
1/2+x,1/2-y,z
loop_
_atom_site_type_symbol
_atom_site_label
_atom_site_fract_x
_atom_site_fract_y
_atom_site_fract_z
Si Si1 0.874449 0.191537 0.844800
Si Si2 0.098599 0.488070 0.163718
Si Si3 0.820550 0.046027 0.098106
Si Si4 0.468378 0.628529 0.096830
Si Si5 0.378565 0.302609 0.345098
Si Si6 0.901787 0.537323 0.022001
Si Si7 0.449103 0.162749 0.091687
Si Si8 0.781120 0.726420 0.088755
O O1 0.787893 0.233296 0.736324
O O2 0.960809 0.144971 0.740811
O O3 0.825844 0.111813 0.951974
O O4 0.924418 0.272440 0.949500
O O5 0.213142 0.508333 0.114656
O O6 0.089879 0.477210 0.343025
O O7 0.060829 0.386087 0.095132
O O8 0.013400 0.559073 0.095216
O O9 0.829416 0.117146 0.238972
O O10 0.915081 0.974017 0.096550
O O11 0.377504 0.705145 0.095133
O O12 0.539862 0.648109 0.954132
O O13 0.431194 0.225399 0.237984
O O14 0.291899 0.255079 0.447296
O O15 0.121805 0.567887 0.588173
O O16 0.823004 0.618497 0.066365
#
# Coordination Sequence:
#
# PCOD9345917 Si02
#       8
#     4   4   4   4   4   4   4   4
#     4  10  25  42  62  95 128 170 213 260 321 379
#     4  10  23  38  70  92 127 161 215 263 324 367
#     4  11  23  43  65  91 127 173 212 259 318 394
#     4  11  25  39  65  91 129 167 212 262 320 376
#     4  10  22  45  62  90 131 168 216 256 323 383
#     4  10  23  40  65  96 127 163 209 272 315 368
#     4   9  23  42  66  92 130 167 207 274 313 376
#     4  11  24  39  67  95 131 167 212 266 314 385
#
# _framework density 19.542448
#
# number of rings (size 3 to 8) (size 9 to 14) (size 15 to 20)
#    0.750    1.000    1.250    1.500    7.000    3.000 
#    0.000    0.000    0.000    0.000    0.000    0.000 
#    0.000    0.000    0.000    0.000    0.000    0.000 
#
# Total GULP energy -178653.215585 kJ/mol
# GULP energy per Si atom -5582.912987 kJ/mol
# Density = 1.949797 g / cm^3
# Si number density = 19.542448 Si / 1000 Ang^3
#
#
#
# Elastic Constant Matrix: (Units=GPa)
#
#
# Indices 1 2 3 4 5 6 
#
# 1 73.4227 -19.8141 28.1012 0.0000 0.0000 0.0000
# 2 -19.8141 20.9502 0.7053 0.0000 0.0000 0.0000
# 3 28.1012 0.7053 106.3443 0.0000 0.0000 0.0000
# 4 0.0000 0.0000 0.0000 -29.8326 0.0000 0.0000
# 5 0.0000 0.0000 0.0000 0.0000 6.0274 0.0000
# 6 0.0000 0.0000 0.0000 0.0000 0.0000 12.1995
#
#
#
# Elastic Compliance Matrix: (Units=1/GPa)
#
#
# Indices 1 2 3 4 5 6 
#
# 1 0.021322 0.020360 -0.005769 0.000000 0.000000 0.000000
# 2 0.020360 0.067185 -0.005826 0.000000 0.000000 0.000000
# 3 -0.005769 -0.005826 0.010967 0.000000 0.000000 0.000000
# 4 0.000000 0.000000 0.000000 -0.033520 0.000000 0.000000
# 5 0.000000 0.000000 0.000000 0.000000 0.165910 0.000000
# 6 0.000000 0.000000 0.000000 0.000000 0.000000 0.081970
#
#
# Mechanical properties :
#
#
# Convention : Reuss Voigt Hill
#
# Bulk Modulus (GPa) = 8.54671 24.30023 16.42347
# Shear Modulus (GPa) = 14.91180 10.46051 12.68616
#
# Velocity S-wave (km/s) = 2.76533 2.31610 2.55062
# Velocity P-wave (km/s) = 3.81824 4.42877 4.13479
#
# Compressibility (1/GPa) = 0.11700402
#
# Stress axis : x y z
#
# Youngs Moduli (GPa) = 46.89890 14.88436 91.18573
#
# Poissons Ratio (x) = -0.30305 0.52609
# Poissons Ratio (y) = -0.95488 0.53123
# Poissons Ratio (z) = 0.27058 0.08671
#
# Static dielectric constant tensor:
#      x y z
#    x 1.659940 0.000000 0.000000 
#    y 0.000000 1.755100 0.000000 
#    z 0.000000 0.000000 1.660830 
# 
# From -- ./inp_files/3991.got.cif
#   From: 2010.05.17/outbox.cif.g08.bks.cpg/sg33_2_cif.got.tgz:3991.got - 2010.06.03 17:15:25.
