data_PCOD9345075
_publ_section_title
;
Structure prediction by ZEFSAII (Michael W. Deem and Ramdas Pophale) SiO2 
 PCOD9345075
Probable space group: P N A 21
;
_chemical_formula_sum "Si O2"
_cell_formula_units_Z 32
_cell_length_a 19.806514
_cell_length_b 6.712320
_cell_length_c 10.686831
_cell_angle_alpha 90.000000
_cell_angle_beta 90.000000
_cell_angle_gamma 90.000000
_cell_volume 1420.789175
_symmetry_space_group_name_H-M "P N A 21"
_symmetry_group_IT_number 33
_symmetry_cell_setting 'orthorhombic'
loop_
_space_group_symop_operation_xyz
x,y,z
-x,-y,1/2+z
1/2-x,1/2+y,1/2+z
1/2+x,1/2-y,z
loop_
_atom_site_type_symbol
_atom_site_label
_atom_site_fract_x
_atom_site_fract_y
_atom_site_fract_z
Si Si1 0.426985 0.033091 0.532710
Si Si2 0.868718 0.973012 0.859779
Si Si3 0.149609 0.606248 0.771616
Si Si4 0.557761 0.197805 0.644965
Si Si5 0.366113 0.987185 0.806873
Si Si6 0.769321 0.212505 0.750808
Si Si7 0.014116 0.756867 0.402419
Si Si8 0.320711 0.500100 0.112902
O O1 0.383846 0.010971 0.659246
O O2 0.463676 0.818352 0.508771
O O3 0.387176 0.105287 0.408117
O O4 0.491485 0.173586 0.560916
O O5 0.862399 0.740686 0.843254
O O6 0.838144 0.083805 0.737838
O O7 0.943182 0.042420 0.896410
O O8 0.819605 0.058456 0.968247
O O9 0.097122 0.510101 0.671111
O O10 0.210793 0.446588 0.781959
O O11 0.173610 0.816759 0.710705
O O12 0.530850 0.256483 0.780279
O O13 0.611654 0.366153 0.614627
O O14 0.296398 0.101213 0.834029
O O15 0.427365 0.091127 0.880771
O O16 0.738111 0.341960 0.638710
#
# Coordination Sequence:
#
# PCOD9345075 Si02
#       8
#     4   4   4   4   4   4   4   4
#     4  10  20  40  68  96 136 174 222 286 344 410
#     4  11  23  40  64  89 126 172 212 271 339 396
#     4  10  22  42  64  95 132 175 224 279 337 405
#     4   9  20  37  58  93 129 162 215 263 329 409
#     4  10  22  42  64  95 132 175 224 279 337 405
#     4  10  24  44  60  94 124 170 238 268 326 404
#     4   9  20  37  58  93 129 162 215 263 329 409
#     4  11  23  40  64  89 126 172 212 271 339 396
#
# _framework density 22.522691999999999
#
# number of rings (size 3 to 8) (size 9 to 14) (size 15 to 20)
#    0.000    2.000    0.000    2.250    1.750    8.000 
#    4.500   11.250    0.000    0.000    0.000    0.000 
#    0.000    0.000    0.000    0.000    0.000    0.000 
#
# Total GULP energy -178297.756539 kJ/mol
# GULP energy per Si atom -5571.804892 kJ/mol
# Density = 2.247143 g / cm^3
# Si number density = 22.522692 Si / 1000 Ang^3
#
#
#
# Elastic Constant Matrix: (Units=GPa)
#
#
# Indices 1 2 3 4 5 6 
#
# 1 76.9360 27.5414 36.6776 0.0000 0.0000 0.0000
# 2 27.5414 131.7057 39.1615 0.0000 0.0000 0.0000
# 3 36.6776 39.1615 86.9596 0.0000 0.0000 0.0000
# 4 0.0000 0.0000 0.0000 17.8016 0.0000 0.0000
# 5 0.0000 0.0000 0.0000 0.0000 14.2872 0.0000
# 6 0.0000 0.0000 0.0000 0.0000 0.0000 35.8817
#
#
#
# Elastic Compliance Matrix: (Units=1/GPa)
#
#
# Indices 1 2 3 4 5 6 
#
# 1 0.016556 -0.001600 -0.006262 0.000000 0.000000 0.000000
# 2 -0.001600 0.008921 -0.003343 0.000000 0.000000 0.000000
# 3 -0.006262 -0.003343 0.015646 0.000000 0.000000 0.000000
# 4 0.000000 0.000000 0.000000 0.056175 0.000000 0.000000
# 5 0.000000 0.000000 0.000000 0.000000 0.069993 0.000000
# 6 0.000000 0.000000 0.000000 0.000000 0.000000 0.027869
#
#
# Mechanical properties :
#
#
# Convention : Reuss Voigt Hill
#
# Bulk Modulus (GPa) = 53.43812 55.81803 54.62807
# Shear Modulus (GPa) = 22.34054 26.40882 24.37468
#
# Velocity S-wave (km/s) = 3.15288 3.42796 3.29329
# Velocity P-wave (km/s) = 6.08540 6.36433 6.22642
#
# Compressibility (1/GPa) = 0.01871323
#
# Stress axis : x y z
#
# Youngs Moduli (GPa) = 60.40077 112.09252 63.91278
#
# Poissons Ratio (x) = 0.17935 0.40025
# Poissons Ratio (y) = 0.09664 0.21364
# Poissons Ratio (z) = 0.37826 0.37470
#
# Static dielectric constant tensor:
#      x y z
#    x 1.844450 0.000000 0.000000 
#    y 0.000000 2.130230 0.000000 
#    z 0.000000 0.000000 1.924950 
# 
# From -- ./inp_files/7253.got.cif
#   From: 2010.05.17/outbox.cif.g08.bks.cpg/sg33_4_cif.got.tgz:7253.got - 2010.06.03 17:15:25.
