data_PCOD9345897
_publ_section_title
;
Structure prediction by ZEFSAII (Michael W. Deem and Ramdas Pophale) SiO2 
 PCOD9345897
Probable space group: P N A 21
;
_chemical_formula_sum "Si O2"
_cell_formula_units_Z 20
_cell_length_a 13.885751
_cell_length_b 12.321127
_cell_length_c 5.411272
_cell_angle_alpha 90.000000
_cell_angle_beta 90.000000
_cell_angle_gamma 90.000000
_cell_volume 925.804254
_symmetry_space_group_name_H-M "P N A 21"
_symmetry_group_IT_number 33
_symmetry_cell_setting 'orthorhombic'
loop_
_space_group_symop_operation_xyz
x,y,z
-x,-y,1/2+z
1/2-x,1/2+y,1/2+z
1/2+x,1/2-y,z
loop_
_atom_site_type_symbol
_atom_site_label
_atom_site_fract_x
_atom_site_fract_y
_atom_site_fract_z
Si Si1 0.178643 0.308131 0.671300
Si Si2 0.083191 0.095200 0.447020
Si Si3 0.532816 0.240933 0.074182
Si Si4 0.394129 0.367404 0.757881
Si Si5 0.971888 0.558404 0.916321
O O1 0.147502 0.187123 0.582430
O O2 0.291265 0.326297 0.672907
O O3 0.133836 0.402581 0.499073
O O4 0.120042 0.317515 0.930350
O O5 0.073543 0.146036 0.174640
O O6 0.975936 0.096186 0.562565
O O7 0.121169 0.973388 0.431250
O O8 0.490809 0.171734 0.301496
O O9 0.446053 0.268861 0.896512
O O10 0.980203 0.482274 0.672628
#
# Coordination Sequence:
#
# PCOD9345897 Si02
#       5
#     4   4   4   4   4
#     4  10  24  44  68 108 141 186 250 298 361 447
#     4  10  22  44  69 101 144 190 241 299 368 431
#     4  10  22  44  69 102 145 184 244 298 359 439
#     4  11  22  46  72 102 145 192 242 305 366 442
#     4  11  22  46  70 101 151 192 235 302 372 431
#
# _framework density 21.602836
#
# number of rings (size 3 to 8) (size 9 to 14) (size 15 to 20)
#    0.000    1.600    4.000    0.000    0.000    3.200 
#   18.000    0.000    0.000    0.000    0.000    0.000 
#    0.000    0.000    0.000    0.000    0.000    0.000 
#
# Total GULP energy -111437.918590 kJ/mol
# GULP energy per Si atom -5571.895930 kJ/mol
# Density = 2.155367 g / cm^3
# Si number density = 21.602836 Si / 1000 Ang^3
#
#
#
# Elastic Constant Matrix: (Units=GPa)
#
#
# Indices 1 2 3 4 5 6 
#
# 1 150.2082 41.1826 40.4196 0.0000 0.0000 0.0000
# 2 41.1826 80.0564 16.1639 0.0000 0.0000 0.0000
# 3 40.4196 16.1639 90.6239 0.0000 0.0000 0.0000
# 4 0.0000 0.0000 0.0000 42.8428 0.0000 0.0000
# 5 0.0000 0.0000 0.0000 0.0000 1.3455 0.0000
# 6 0.0000 0.0000 0.0000 0.0000 0.0000 18.5605
#
#
#
# Elastic Compliance Matrix: (Units=1/GPa)
#
#
# Indices 1 2 3 4 5 6 
#
# 1 0.008531 -0.003755 -0.003135 0.000000 0.000000 0.000000
# 2 -0.003755 0.014611 -0.000931 0.000000 0.000000 0.000000
# 3 -0.003135 -0.000931 0.012599 0.000000 0.000000 0.000000
# 4 0.000000 0.000000 0.000000 0.023341 0.000000 0.000000
# 5 0.000000 0.000000 0.000000 0.000000 0.743193 0.000000
# 6 0.000000 0.000000 0.000000 0.000000 0.000000 0.053878
#
#
# Mechanical properties :
#
#
# Convention : Reuss Voigt Hill
#
# Bulk Modulus (GPa) = 49.75690 57.38006 53.56848
# Shear Modulus (GPa) = 5.69155 27.42459 16.55807
#
# Velocity S-wave (km/s) = 1.62492 3.56686 2.77154
# Velocity P-wave (km/s) = 5.15781 6.60169 5.92391
#
# Compressibility (1/GPa) = 0.02009772
#
# Stress axis : x y z
#
# Youngs Moduli (GPa) = 117.22475 68.44149 79.37177
#
# Poissons Ratio (x) = 0.25702 0.24883
# Poissons Ratio (y) = 0.44022 0.07390
# Poissons Ratio (z) = 0.36750 0.06373
#
# Static dielectric constant tensor:
#      x y z
#    x 1.742410 0.000000 0.000000 
#    y 0.000000 1.885660 0.000000 
#    z 0.000000 0.000000 1.909020 
# 
# From -- ./inp_files/754.got.cif
#   From: 2010.05.17/outbox.cif.g08.bks.cpg/sg33_1_cif.got.tgz:754.got - 2010.06.03 17:15:25.
