data_PCOD9345882
_publ_section_title
;
Structure prediction by ZEFSAII (Michael W. Deem and Ramdas Pophale) SiO2 
 PCOD9345882
Probable space group: P N A 21
;
_chemical_formula_sum "Si O2"
_cell_formula_units_Z 28
_cell_length_a 24.618656
_cell_length_b 8.561534
_cell_length_c 5.199806
_cell_angle_alpha 90.000000
_cell_angle_beta 90.000000
_cell_angle_gamma 90.000000
_cell_volume 1095.981104
_symmetry_space_group_name_H-M "P N A 21"
_symmetry_group_IT_number 33
_symmetry_cell_setting 'orthorhombic'
loop_
_space_group_symop_operation_xyz
x,y,z
-x,-y,1/2+z
1/2-x,1/2+y,1/2+z
1/2+x,1/2-y,z
loop_
_atom_site_type_symbol
_atom_site_label
_atom_site_fract_x
_atom_site_fract_y
_atom_site_fract_z
Si Si1 0.399585 0.976039 0.962090
Si Si2 0.730411 0.501513 0.377535
Si Si3 0.866535 0.941760 0.484616
Si Si4 0.867339 0.174041 0.083003
Si Si5 0.806744 0.718898 0.095177
Si Si6 0.948152 0.666944 0.486893
Si Si7 0.474782 0.422076 0.886020
O O1 0.438827 0.952751 0.718625
O O2 0.377888 0.146837 0.027927
O O3 0.345299 0.872924 0.899969
O O4 0.427267 0.905096 0.219265
O O5 0.695077 0.625017 0.541847
O O6 0.782901 0.588063 0.279297
O O7 0.741193 0.332346 0.500215
O O8 0.686996 0.459782 0.155405
O O9 0.844599 0.843604 0.236475
O O10 0.913775 0.822964 0.565094
O O11 0.883347 0.108251 0.362996
O O12 0.909354 0.080435 0.895408
O O13 0.006840 0.745487 0.456961
O O14 0.496165 0.532585 0.118738
#
# Coordination Sequence:
#
# PCOD9345882 Si02
#       7
#     4   4   4   4   4   4   4
#     4  11  26  45  69 102 149 179 231 293 364 413
#     4  11  24  43  68  94 140 180 243 284 355 419
#     4  10  22  44  65  95 136 178 235 283 348 416
#     4  11  27  43  68 106 135 185 237 300 348 437
#     4  10  25  40  65  97 132 190 226 291 347 423
#     4  11  23  46  71 100 142 187 226 293 354 423
#     4  12  25  43  78 104 138 185 242 286 360 427
#
# _framework density 25.547882000000001
#
# number of rings (size 3 to 8) (size 9 to 14) (size 15 to 20)
#    0.000    1.143    2.857    1.714    8.000    3.429 
#    0.000    0.000    0.000    0.000    0.000    0.000 
#    0.000    0.000    0.000    0.000    0.000    0.000 
#
# Total GULP energy -156590.810119 kJ/mol
# GULP energy per Si atom -5592.528933 kJ/mol
# Density = 2.548973 g / cm^3
# Si number density = 25.547882 Si / 1000 Ang^3
#
#
#
# Elastic Constant Matrix: (Units=GPa)
#
#
# Indices 1 2 3 4 5 6 
#
# 1 56.1165 3.8124 -13.9198 0.0000 0.0000 0.0000
# 2 3.8124 102.3832 12.9383 0.0000 0.0000 0.0000
# 3 -13.9198 12.9383 84.8273 0.0000 0.0000 0.0000
# 4 0.0000 0.0000 0.0000 39.6843 0.0000 0.0000
# 5 0.0000 0.0000 0.0000 0.0000 24.3981 0.0000
# 6 0.0000 0.0000 0.0000 0.0000 0.0000 39.9839
#
#
#
# Elastic Compliance Matrix: (Units=1/GPa)
#
#
# Indices 1 2 3 4 5 6 
#
# 1 0.018698 -0.001105 0.003237 0.000000 0.000000 0.000000
# 2 -0.001105 0.010025 -0.001710 0.000000 0.000000 0.000000
# 3 0.003237 -0.001710 0.012581 0.000000 0.000000 0.000000
# 4 0.000000 0.000000 0.000000 0.025199 0.000000 0.000000
# 5 0.000000 0.000000 0.000000 0.000000 0.040987 0.000000
# 6 0.000000 0.000000 0.000000 0.000000 0.000000 0.025010
#
#
# Mechanical properties :
#
#
# Convention : Reuss Voigt Hill
#
# Bulk Modulus (GPa) = 23.72722 27.66541 25.69631
# Shear Modulus (GPa) = 34.31588 36.84634 35.58111
#
# Velocity S-wave (km/s) = 3.66894 3.80181 3.73597
# Velocity P-wave (km/s) = 5.22070 5.48854 5.35629
#
# Compressibility (1/GPa) = 0.04214569
#
# Stress axis : x y z
#
# Youngs Moduli (GPa) = 53.48144 99.75533 79.48690
#
# Poissons Ratio (x) = 0.11026 -0.25729
# Poissons Ratio (y) = 0.05911 0.13595
# Poissons Ratio (z) = -0.17311 0.17062
#
# Static dielectric constant tensor:
#      x y z
#    x 2.078870 0.000000 0.000000 
#    y 0.000000 2.004540 0.000000 
#    z 0.000000 0.000000 2.121810 
# 
# From -- ./inp_files/2252.got.cif
#   From: 2010.05.17/outbox.cif.g08.bks.cpg/sg33_2_cif.got.tgz:2252.got - 2010.06.03 17:15:25.
