data_PCOD9345302
_publ_section_title
;
Structure prediction by ZEFSAII (Michael W. Deem and Ramdas Pophale) SiO2 
 PCOD9345302
Probable space group: P N A 21
;
_chemical_formula_sum "Si O2"
_cell_formula_units_Z 32
_cell_length_a 8.170378
_cell_length_b 15.125371
_cell_length_c 12.233319
_cell_angle_alpha 90.000000
_cell_angle_beta 90.000000
_cell_angle_gamma 90.000000
_cell_volume 1511.793543
_symmetry_space_group_name_H-M "P N A 21"
_symmetry_group_IT_number 33
_symmetry_cell_setting 'orthorhombic'
loop_
_space_group_symop_operation_xyz
x,y,z
-x,-y,1/2+z
1/2-x,1/2+y,1/2+z
1/2+x,1/2-y,z
loop_
_atom_site_type_symbol
_atom_site_label
_atom_site_fract_x
_atom_site_fract_y
_atom_site_fract_z
Si Si1 0.460228 0.842699 0.248360
Si Si2 0.576963 0.024801 0.190793
Si Si3 0.715360 0.742998 0.594341
Si Si4 0.423511 0.439270 0.140941
Si Si5 0.246880 0.112779 0.267201
Si Si6 0.506957 0.135940 0.996705
Si Si7 0.332049 0.281072 0.618216
Si Si8 0.380936 0.624502 0.012680
O O1 0.426982 0.856568 0.375657
O O2 0.551186 0.752311 0.216890
O O3 0.301067 0.844490 0.172717
O O4 0.576575 0.922343 0.215219
O O5 0.758880 0.059842 0.216887
O O6 0.422377 0.064755 0.255755
O O7 0.533382 0.045736 0.063036
O O8 0.605076 0.654704 0.580971
O O9 0.719913 0.791597 0.711241
O O10 0.671966 0.821350 0.508698
O O11 0.892556 0.703166 0.572497
O O12 0.599619 0.433946 0.198580
O O13 0.399121 0.527845 0.069032
O O14 0.181710 0.115905 0.389660
O O15 0.442555 0.329059 0.528480
O O16 0.241769 0.195221 0.569231
#
# Coordination Sequence:
#
# PCOD9345302 Si02
#       8
#     4   4   4   4   4   4   4   4
#     4  11  21  43  64  94 131 179 215 282 348 404
#     4  10  24  41  65  99 133 169 230 281 336 425
#     4  10  21  41  64  97 129 170 231 281 334 425
#     4  11  23  47  64 102 142 170 242 295 334 433
#     4  11  25  45  70  98 140 184 228 294 363 408
#     4  10  21  38  66  91 127 171 214 276 344 394
#     4  10  24  43  66  94 139 173 239 276 344 436
#     4  11  25  46  69 103 137 192 229 299 359 423
#
# _framework density 21.166910999999999
#
# number of rings (size 3 to 8) (size 9 to 14) (size 15 to 20)
#    0.000    1.500    2.500    1.500    5.250    0.000 
#   13.500    0.000    0.000    0.000    0.000    0.000 
#    0.000    0.000    0.000    0.000    0.000    0.000 
#
# Total GULP energy -178321.277443 kJ/mol
# GULP energy per Si atom -5572.539920 kJ/mol
# Density = 2.111873 g / cm^3
# Si number density = 21.166911 Si / 1000 Ang^3
#
#
#
# Elastic Constant Matrix: (Units=GPa)
#
#
# Indices 1 2 3 4 5 6 
#
# 1 69.0994 8.2648 -1.7136 0.0000 0.0000 0.0000
# 2 8.2648 85.2734 17.0917 0.0000 0.0000 0.0000
# 3 -1.7136 17.0917 81.3588 0.0000 0.0000 0.0000
# 4 0.0000 0.0000 0.0000 14.6319 0.0000 0.0000
# 5 0.0000 0.0000 0.0000 0.0000 13.2366 0.0000
# 6 0.0000 0.0000 0.0000 0.0000 0.0000 38.8113
#
#
#
# Elastic Compliance Matrix: (Units=1/GPa)
#
#
# Indices 1 2 3 4 5 6 
#
# 1 0.014673 -0.001549 0.000635 0.000000 0.000000 0.000000
# 2 -0.001549 0.012406 -0.002639 0.000000 0.000000 0.000000
# 3 0.000635 -0.002639 0.012859 0.000000 0.000000 0.000000
# 4 0.000000 0.000000 0.000000 0.068344 0.000000 0.000000
# 5 0.000000 0.000000 0.000000 0.000000 0.075548 0.000000
# 6 0.000000 0.000000 0.000000 0.000000 0.000000 0.025766
#
#
# Mechanical properties :
#
#
# Convention : Reuss Voigt Hill
#
# Bulk Modulus (GPa) = 30.45933 31.44638 30.95286
# Shear Modulus (GPa) = 21.96387 27.47520 24.71954
#
# Velocity S-wave (km/s) = 3.22475 3.60672 3.42107
# Velocity P-wave (km/s) = 5.31852 5.67743 5.50091
#
# Compressibility (1/GPa) = 0.03283066
#
# Stress axis : x y z
#
# Youngs Moduli (GPa) = 68.15267 80.60573 77.76674
#
# Poissons Ratio (x) = 0.12488 -0.04934
# Poissons Ratio (y) = 0.10559 0.20522
# Poissons Ratio (z) = -0.04324 0.21271
#
# Static dielectric constant tensor:
#      x y z
#    x 1.853980 0.000000 0.000000 
#    y 0.000000 1.775880 0.000000 
#    z 0.000000 0.000000 1.748570 
# 
# From -- ./inp_files/6027.got.cif
#   From: 2010.05.17/outbox.cif.g08.bks.cpg/sg33_4_cif.got.tgz:6027.got - 2010.06.03 17:15:25.
