data_PCOD9345622
_publ_section_title
;
Structure prediction by ZEFSAII (Michael W. Deem and Ramdas Pophale) SiO2 
 PCOD9345622
Probable space group: P N A 21
;
_chemical_formula_sum "Si O2"
_cell_formula_units_Z 20
_cell_length_a 12.950697
_cell_length_b 9.178736
_cell_length_c 7.372036
_cell_angle_alpha 90.000000
_cell_angle_beta 90.000000
_cell_angle_gamma 90.000000
_cell_volume 876.321504
_symmetry_space_group_name_H-M "P N A 21"
_symmetry_group_IT_number 33
_symmetry_cell_setting 'orthorhombic'
loop_
_space_group_symop_operation_xyz
x,y,z
-x,-y,1/2+z
1/2-x,1/2+y,1/2+z
1/2+x,1/2-y,z
loop_
_atom_site_type_symbol
_atom_site_label
_atom_site_fract_x
_atom_site_fract_y
_atom_site_fract_z
Si Si1 0.763684 0.148995 0.643380
Si Si2 0.426478 0.155141 0.548731
Si Si3 0.594533 0.365110 0.740763
Si Si4 0.398945 0.047046 0.933379
Si Si5 0.088765 0.882182 0.473431
O O1 0.830509 0.242733 0.497386
O O2 0.691116 0.259290 0.757916
O O3 0.841685 0.085707 0.794431
O O4 0.689167 0.038977 0.539727
O O5 0.513573 0.266834 0.623924
O O6 0.380908 0.068335 0.720751
O O7 0.491266 0.038605 0.436647
O O8 0.531248 0.406157 0.919718
O O9 0.619975 0.509574 0.630603
O O10 0.405218 0.210163 0.013322
#
# Coordination Sequence:
#
# PCOD9345622 Si02
#       5
#     4   4   4   4   4
#     4   9  19  36  56  83 113 144 187 230 277 335
#     4   9  20  37  58  83 115 148 186 235 278 332
#     4   9  20  37  57  83 114 144 186 236 279 331
#     4   9  19  38  59  83 114 150 189 231 281 333
#     4  10  22  38  58  84 114 150 188 234 283 333
#
# _framework density 22.822673000000002
#
# number of rings (size 3 to 8) (size 9 to 14) (size 15 to 20)
#    0.000    3.200    0.000    0.000    0.000   14.400 
#    0.000   10.000    0.000    0.000    0.000    0.000 
#    0.000    0.000    0.000    0.000    0.000    0.000 
#
# Total GULP energy -111588.605238 kJ/mol
# GULP energy per Si atom -5579.430262 kJ/mol
# Density = 2.277073 g / cm^3
# Si number density = 22.822673 Si / 1000 Ang^3
#
#
#
# Elastic Constant Matrix: (Units=GPa)
#
#
# Indices 1 2 3 4 5 6 
#
# 1 97.9325 24.0646 23.8966 0.0000 0.0000 0.0000
# 2 24.0646 84.5694 44.2317 0.0000 0.0000 0.0000
# 3 23.8966 44.2317 32.5597 0.0000 0.0000 0.0000
# 4 0.0000 0.0000 0.0000 31.5701 0.0000 0.0000
# 5 0.0000 0.0000 0.0000 0.0000 24.0438 0.0000
# 6 0.0000 0.0000 0.0000 0.0000 0.0000 -7.6886
#
#
#
# Elastic Compliance Matrix: (Units=1/GPa)
#
#
# Indices 1 2 3 4 5 6 
#
# 1 0.012901 0.004426 -0.015481 0.000000 0.000000 0.000000
# 2 0.004426 0.042365 -0.060800 0.000000 0.000000 0.000000
# 3 -0.015481 -0.060800 0.124670 0.000000 0.000000 0.000000
# 4 0.000000 0.000000 0.000000 0.031676 0.000000 0.000000
# 5 0.000000 0.000000 0.000000 0.000000 0.041591 0.000000
# 6 0.000000 0.000000 0.000000 0.000000 0.000000 -0.130062
#
#
# Mechanical properties :
#
#
# Convention : Reuss Voigt Hill
#
# Bulk Modulus (GPa) = 27.60446 44.38304 35.99375
# Shear Modulus (GPa) = 17.92585 17.77628 17.85106
#
# Velocity S-wave (km/s) = 2.80561 2.79388 2.79975
# Velocity P-wave (km/s) = 4.75570 5.46780 5.12414
#
# Compressibility (1/GPa) = 0.03622603
#
# Stress axis : x y z
#
# Youngs Moduli (GPa) = 77.51304 23.60429 8.02116
#
# Poissons Ratio (x) = -0.10446 0.12417
# Poissons Ratio (y) = -0.34305 0.48769
# Poissons Ratio (z) = 1.19995 1.43515
#
# Static dielectric constant tensor:
#      x y z
#    x 1.922590 0.000000 0.000000 
#    y 0.000000 1.860970 0.000000 
#    z 0.000000 0.000000 1.870420 
# 
# From -- ./inp_files/4205.got.cif
#   From: 2010.05.17/outbox.cif.g08.bks.cpg/sg33_3_cif.got.tgz:4205.got - 2010.06.03 17:15:25.
