data_PCOD9345635
_publ_section_title
;
Structure prediction by ZEFSAII (Michael W. Deem and Ramdas Pophale) SiO2 
 PCOD9345635
Probable space group: P N A 21
;
_chemical_formula_sum "Si O2"
_cell_formula_units_Z 32
_cell_length_a 31.874683
_cell_length_b 7.719651
_cell_length_c 5.103883
_cell_angle_alpha 90.000000
_cell_angle_beta 90.000000
_cell_angle_gamma 90.000000
_cell_volume 1255.868742
_symmetry_space_group_name_H-M "P N A 21"
_symmetry_group_IT_number 33
_symmetry_cell_setting 'orthorhombic'
loop_
_space_group_symop_operation_xyz
x,y,z
-x,-y,1/2+z
1/2-x,1/2+y,1/2+z
1/2+x,1/2-y,z
loop_
_atom_site_type_symbol
_atom_site_label
_atom_site_fract_x
_atom_site_fract_y
_atom_site_fract_z
Si Si1 0.837816 0.474317 0.051340
Si Si2 0.116020 0.060421 0.909260
Si Si3 0.477105 0.950552 0.361219
Si Si4 0.112128 0.452760 0.076076
Si Si5 0.688115 0.331144 0.538394
Si Si6 0.803366 0.119433 0.602143
Si Si7 0.025064 0.053797 0.731923
Si Si8 0.240309 0.612298 0.376083
O O1 0.858567 0.507553 0.328215
O O2 0.818688 0.646586 0.908111
O O3 0.794680 0.369431 0.100823
O O4 0.874706 0.446089 0.840343
O O5 0.110744 0.238269 0.080098
O O6 0.148817 0.923613 0.032570
O O7 0.143347 0.113514 0.654292
O O8 0.070911 0.989492 0.825924
O O9 0.433932 0.011981 0.488438
O O10 0.470736 0.760878 0.240057
O O11 0.507699 0.939063 0.612819
O O12 0.704377 0.481707 0.345872
O O13 0.718418 0.281158 0.785020
O O14 0.767217 0.060857 0.401671
O O15 0.792797 0.315241 0.666365
O O16 0.009636 0.998961 0.446403
#
# Coordination Sequence:
#
# PCOD9345635 Si02
#       8
#     4   4   4   4   4   4   4   4
#     4  11  22  42  63  95 126 174 222 273 327 400
#     4   9  22  41  65  94 126 179 223 272 341 410
#     4  11  23  45  72 103 137 178 228 284 351 418
#     4  10  22  42  69  93 129 175 222 269 339 414
#     4  10  22  38  65  86 128 175 228 267 327 406
#     4  11  23  41  62  92 130 174 227 276 336 401
#     4  11  25  45  73 103 141 183 230 286 351 425
#     4  11  25  38  59  94 129 174 220 279 332 394
#
# _framework density 25.480369
#
# number of rings (size 3 to 8) (size 9 to 14) (size 15 to 20)
#    0.000    1.500    2.500    1.500    5.250    2.000 
#    6.750    0.000    0.000    0.000    0.000    0.000 
#    0.000    0.000    0.000    0.000    0.000    0.000 
#
# Total GULP energy -178189.652122 kJ/mol
# GULP energy per Si atom -5568.426629 kJ/mol
# Density = 2.542237 g / cm^3
# Si number density = 25.480369 Si / 1000 Ang^3
#
#
#
# Elastic Constant Matrix: (Units=GPa)
#
#
# Indices 1 2 3 4 5 6 
#
# 1 109.1322 5.0093 -10.0543 0.0000 0.0000 0.0000
# 2 5.0093 52.4499 20.9601 0.0000 0.0000 0.0000
# 3 -10.0543 20.9601 75.8862 0.0000 0.0000 0.0000
# 4 0.0000 0.0000 0.0000 22.1710 0.0000 0.0000
# 5 0.0000 0.0000 0.0000 0.0000-1032.1691 0.0000
# 6 0.0000 0.0000 0.0000 0.0000 0.0000 -23.5179
#
#
#
# Elastic Compliance Matrix: (Units=1/GPa)
#
#
# Indices 1 2 3 4 5 6 
#
# 1 0.009390 -0.001567 0.001677 0.000000 0.000000 0.000000
# 2 -0.001567 0.021693 -0.006199 0.000000 0.000000 0.000000
# 3 0.001677 -0.006199 0.015112 0.000000 0.000000 0.000000
# 4 0.000000 0.000000 0.000000 0.045104 0.000000 0.000000
# 5 0.000000 0.000000 0.000000 0.000000 -0.000969 0.000000
# 6 0.000000 0.000000 0.000000 0.000000 0.000000 -0.042521
#
#
# Mechanical properties :
#
#
# Convention : Reuss Voigt Hill
#
# Bulk Modulus (GPa) = 29.39801 29.92204 29.66003
# Shear Modulus (GPa) = 70.10062 -191.93299 -60.91619
#
# Velocity S-wave (km/s) = 5.25084 -8.68846 -4.89479
# Velocity P-wave (km/s) = 6.95157 9.42782 4.50330
#
# Compressibility (1/GPa) = 0.03401591
#
# Stress axis : x y z
#
# Youngs Moduli (GPa) = 106.50075 46.09819 66.17232
#
# Poissons Ratio (x) = 0.07223 -0.11096
# Poissons Ratio (y) = 0.16687 0.41022
# Poissons Ratio (z) = -0.17858 0.28577
#
# Static dielectric constant tensor:
#      x y z
#    x 2.144070 0.000000 0.000000 
#    y 0.000000 2.185140 0.000000 
#    z 0.000000 0.000000 2.205180 
# 
# From -- ./inp_files/2518.got.cif
#   From: 2010.05.17/outbox.cif.g08.bks.cpg/sg33_2_cif.got.tgz:2518.got - 2010.06.03 17:15:25.
