data_PCOD9345078
_publ_section_title
;
Structure prediction by ZEFSAII (Michael W. Deem and Ramdas Pophale) SiO2 
 PCOD9345078
Probable space group: P N A 21
;
_chemical_formula_sum "Si O2"
_cell_formula_units_Z 28
_cell_length_a 16.041018
_cell_length_b 8.762089
_cell_length_c 8.299490
_cell_angle_alpha 90.000000
_cell_angle_beta 90.000000
_cell_angle_gamma 90.000000
_cell_volume 1166.516785
_symmetry_space_group_name_H-M "P N A 21"
_symmetry_group_IT_number 33
_symmetry_cell_setting 'orthorhombic'
loop_
_space_group_symop_operation_xyz
x,y,z
-x,-y,1/2+z
1/2-x,1/2+y,1/2+z
1/2+x,1/2-y,z
loop_
_atom_site_type_symbol
_atom_site_label
_atom_site_fract_x
_atom_site_fract_y
_atom_site_fract_z
Si Si1 0.412480 0.560549 0.323300
Si Si2 0.608058 0.540251 0.299206
Si Si3 0.260687 0.976309 0.451676
Si Si4 0.139902 0.768251 0.981039
Si Si5 0.892717 0.633897 0.191252
Si Si6 0.374361 0.758812 0.639729
Si Si7 0.015716 0.437747 0.377305
O O1 0.510095 0.519424 0.318201
O O2 0.360327 0.406919 0.352591
O O3 0.391180 0.681790 0.183470
O O4 0.399178 0.662557 0.482772
O O5 0.666339 0.585316 0.446161
O O6 0.648736 0.376204 0.259819
O O7 0.624989 0.654047 0.152993
O O8 0.310987 0.928453 0.284944
O O9 0.305934 0.879234 0.589603
O O10 0.283232 0.152786 0.482001
O O11 0.059597 0.663918 0.945209
O O12 0.971249 0.588442 0.308023
O O13 0.914611 0.559489 0.018169
O O14 0.447514 0.853098 0.722196
#
# Coordination Sequence:
#
# PCOD9345078 Si02
#       7
#     4   4   4   4   4   4   4
#     4  10  20  40  69  96 124 169 234 276 327 394
#     4  11  22  43  65  97 133 170 219 284 339 397
#     4  10  24  45  62  95 141 174 218 270 352 409
#     4  10  21  40  68  93 129 170 224 277 328 402
#     4  10  21  37  66  95 131 173 219 274 326 405
#     4  10  23  42  65  96 133 172 227 277 325 412
#     4  11  19  39  65  98 125 174 231 270 325 393
#
# _framework density 24.003084000000001
#
# number of rings (size 3 to 8) (size 9 to 14) (size 15 to 20)
#    0.000    1.714    2.857    2.571    0.000    1.143 
#    7.714    4.286    0.000    0.000    0.000    0.000 
#    0.000    0.000    0.000    0.000    0.000    0.000 
#
# Total GULP energy -156489.909042 kJ/mol
# GULP energy per Si atom -5588.925323 kJ/mol
# Density = 2.394845 g / cm^3
# Si number density = 24.003084 Si / 1000 Ang^3
#
#
#
# Elastic Constant Matrix: (Units=GPa)
#
#
# Indices 1 2 3 4 5 6 
#
# 1 57.2344 19.6673 12.6203 0.0000 0.0000 0.0000
# 2 19.6673 121.1733 11.9781 0.0000 0.0000 0.0000
# 3 12.6203 11.9781 41.4094 0.0000 0.0000 0.0000
# 4 0.0000 0.0000 0.0000 17.5743 0.0000 0.0000
# 5 0.0000 0.0000 0.0000 0.0000 36.0826 0.0000
# 6 0.0000 0.0000 0.0000 0.0000 0.0000 -8.4700
#
#
#
# Elastic Compliance Matrix: (Units=1/GPa)
#
#
# Indices 1 2 3 4 5 6 
#
# 1 0.019528 -0.002657 -0.005183 0.000000 0.000000 0.000000
# 2 -0.002657 0.008857 -0.001752 0.000000 0.000000 0.000000
# 3 -0.005183 -0.001752 0.026236 0.000000 0.000000 0.000000
# 4 0.000000 0.000000 0.000000 0.056901 0.000000 0.000000
# 5 0.000000 0.000000 0.000000 0.000000 0.027714 0.000000
# 6 0.000000 0.000000 0.000000 0.000000 0.000000 -0.118064
#
#
# Mechanical properties :
#
#
# Convention : Reuss Voigt Hill
#
# Bulk Modulus (GPa) = 28.21984 34.26094 31.24039
# Shear Modulus (GPa) = 95.84331 20.74080 58.29206
#
# Velocity S-wave (km/s) = 6.32584 2.94273 4.93335
# Velocity P-wave (km/s) = 8.07077 5.08436 6.74493
#
# Compressibility (1/GPa) = 0.03543606
#
# Stress axis : x y z
#
# Youngs Moduli (GPa) = 51.20871 112.90338 38.11626
#
# Poissons Ratio (x) = 0.30001 0.19755
# Poissons Ratio (y) = 0.13607 0.06679
# Poissons Ratio (z) = 0.26541 0.19783
#
# Static dielectric constant tensor:
#      x y z
#    x 1.818510 0.000000 0.000000 
#    y 0.000000 1.962430 0.000000 
#    z 0.000000 0.000000 1.997410 
# 
# From -- ./inp_files/4773.got.cif
#   From: 2010.05.17/outbox.cif.g08.bks.cpg/sg33_3_cif.got.tgz:4773.got - 2010.06.03 17:15:25.
