data_PCOD9345500
_publ_section_title
;
Structure prediction by ZEFSAII (Michael W. Deem and Ramdas Pophale) SiO2 
 PCOD9345500
Probable space group: P N A 21
;
_chemical_formula_sum "Si O2"
_cell_formula_units_Z 32
_cell_length_a 12.900249
_cell_length_b 14.342904
_cell_length_c 8.596950
_cell_angle_alpha 90.000000
_cell_angle_beta 90.000000
_cell_angle_gamma 90.000000
_cell_volume 1590.668151
_symmetry_space_group_name_H-M "P N A 21"
_symmetry_group_IT_number 33
_symmetry_cell_setting 'orthorhombic'
loop_
_space_group_symop_operation_xyz
x,y,z
-x,-y,1/2+z
1/2-x,1/2+y,1/2+z
1/2+x,1/2-y,z
loop_
_atom_site_type_symbol
_atom_site_label
_atom_site_fract_x
_atom_site_fract_y
_atom_site_fract_z
Si Si1 0.009127 0.112116 0.375000
Si Si2 0.401779 0.133857 0.057176
Si Si3 0.181974 0.440831 0.691486
Si Si4 0.782787 0.841105 0.351941
Si Si5 0.197245 0.800247 0.760784
Si Si6 0.607073 0.483352 0.080516
Si Si7 0.657248 0.254068 0.537901
Si Si8 0.853557 0.646756 0.507592
O O1 0.077380 0.077574 0.230514
O O2 0.058946 0.203314 0.450535
O O3 0.895553 0.133479 0.310726
O O4 0.991689 0.036183 0.510193
O O5 0.352939 0.215940 0.162206
O O6 0.373230 0.034010 0.131007
O O7 0.337712 0.142932 0.895416
O O8 0.524386 0.145072 0.041466
O O9 0.301865 0.448187 0.638629
O O10 0.136947 0.346855 0.614405
O O11 0.173010 0.429616 0.876842
O O12 0.845736 0.920999 0.441978
O O13 0.806547 0.825682 0.171834
O O14 0.821813 0.745338 0.431003
O O15 0.282641 0.856123 0.660464
O O16 0.253797 0.758893 0.910537
#
# Coordination Sequence:
#
# PCOD9345500 Si02
#       8
#     4   4   4   4   4   4   4   4
#     4  12  25  40  71  94 132 180 220 279 336 400
#     4  10  21  42  66  93 127 173 216 267 328 408
#     4  10  23  43  63  95 137 161 218 276 327 404
#     4   9  21  41  65  92 131 165 221 273 326 395
#     4  11  23  42  63  95 130 171 222 271 326 395
#     4  11  23  45  64 102 129 170 229 280 326 398
#     4  11  22  42  63  96 133 174 214 274 338 395
#     4  10  22  41  65  91 127 176 210 268 337 393
#
# _framework density 20.117331
#
# number of rings (size 3 to 8) (size 9 to 14) (size 15 to 20)
#    0.000    1.500    1.250    4.500    1.750    4.000 
#    9.000    0.000    0.000    0.000    0.000    0.000 
#    0.000    0.000    0.000    0.000    0.000    0.000 
#
# Total GULP energy -178782.822357 kJ/mol
# GULP energy per Si atom -5586.963199 kJ/mol
# Density = 2.007154 g / cm^3
# Si number density = 20.117331 Si / 1000 Ang^3
#
#
#
# Elastic Constant Matrix: (Units=GPa)
#
#
# Indices 1 2 3 4 5 6 
#
# 1 110.5314 33.3397 54.3430 0.0000 0.0000 0.0000
# 2 33.3397 56.2569 35.5565 0.0000 0.0000 0.0000
# 3 54.3430 35.5565 113.9191 0.0000 0.0000 0.0000
# 4 0.0000 0.0000 0.0000 22.3316 0.0000 0.0000
# 5 0.0000 0.0000 0.0000 0.0000 27.2599 0.0000
# 6 0.0000 0.0000 0.0000 0.0000 0.0000 16.0077
#
#
#
# Elastic Compliance Matrix: (Units=1/GPa)
#
#
# Indices 1 2 3 4 5 6 
#
# 1 0.012712 -0.004610 -0.004625 0.000000 0.000000 0.000000
# 2 -0.004610 0.023816 -0.005234 0.000000 0.000000 0.000000
# 3 -0.004625 -0.005234 0.012618 0.000000 0.000000 0.000000
# 4 0.000000 0.000000 0.000000 0.044780 0.000000 0.000000
# 5 0.000000 0.000000 0.000000 0.000000 0.036684 0.000000
# 6 0.000000 0.000000 0.000000 0.000000 0.000000 0.062470
#
#
# Mechanical properties :
#
#
# Convention : Reuss Voigt Hill
#
# Bulk Modulus (GPa) = 49.48783 58.57624 54.03203
# Shear Modulus (GPa) = 21.85759 23.61772 22.73765
#
# Velocity S-wave (km/s) = 3.29979 3.43008 3.36557
# Velocity P-wave (km/s) = 6.25869 6.69834 6.48224
#
# Compressibility (1/GPa) = 0.02020699
#
# Stress axis : x y z
#
# Youngs Moduli (GPa) = 78.66811 41.98855 79.25123
#
# Poissons Ratio (x) = 0.19358 0.36653
# Poissons Ratio (y) = 0.36268 0.41482
# Poissons Ratio (z) = 0.36383 0.21978
#
# Static dielectric constant tensor:
#      x y z
#    x 1.687760 0.000000 0.000000 
#    y 0.000000 1.707090 0.000000 
#    z 0.000000 0.000000 1.734920 
# 
# From -- ./inp_files/3921.got.cif
#   From: 2010.05.17/outbox.cif.g08.bks.cpg/sg33_2_cif.got.tgz:3921.got - 2010.06.03 17:15:25.
