data_PCOD9345058
_publ_section_title
;
Structure prediction by ZEFSAII (Michael W. Deem and Ramdas Pophale) SiO2 
 PCOD9345058
Probable space group: P N A 21
;
_chemical_formula_sum "Si O2"
_cell_formula_units_Z 20
_cell_length_a 5.425116
_cell_length_b 17.985344
_cell_length_c 8.065773
_cell_angle_alpha 90.000000
_cell_angle_beta 90.000000
_cell_angle_gamma 90.000000
_cell_volume 786.998261
_symmetry_space_group_name_H-M "P N A 21"
_symmetry_group_IT_number 33
_symmetry_cell_setting 'orthorhombic'
loop_
_space_group_symop_operation_xyz
x,y,z
-x,-y,1/2+z
1/2-x,1/2+y,1/2+z
1/2+x,1/2-y,z
loop_
_atom_site_type_symbol
_atom_site_label
_atom_site_fract_x
_atom_site_fract_y
_atom_site_fract_z
Si Si1 0.691393 0.530706 0.083120
Si Si2 0.413624 0.123920 0.072482
Si Si3 0.417912 0.401037 0.234453
Si Si4 0.794652 0.775460 0.978210
Si Si5 0.003872 0.344647 0.716209
O O1 0.879065 0.464247 0.037079
O O2 0.464233 0.483048 0.152654
O O3 0.818473 0.584079 0.216354
O O4 0.637083 0.580152 0.923818
O O5 0.679736 0.135216 0.151837
O O6 0.182221 0.138064 0.195627
O O7 0.394601 0.164871 0.897688
O O8 0.056688 0.761726 0.893496
O O9 0.835466 0.722920 0.143333
O O10 0.700725 0.850244 0.068821
#
# Coordination Sequence:
#
# PCOD9345058 Si02
#       5
#     4   4   4   4   4
#     4  10  22  37  61  89 129 157 194 260 307 383
#     4  10  23  36  59  87 124 155 198 254 309 371
#     4  10  23  36  53  95 118 162 192 233 336 349
#     4   8  20  35  57  89 104 164 203 251 279 356
#     4  10  20  40  64  86 121 154 215 248 295 369
#
# _framework density 25.413018000000001
#
# number of rings (size 3 to 8) (size 9 to 14) (size 15 to 20)
#    2.400    0.000    0.000    2.400    5.600    1.600 
#    0.000    0.000    0.000    7.200    0.000    0.000 
#    0.000    0.000    0.000    0.000    0.000    0.000 
#
# Total GULP energy -111588.001783 kJ/mol
# GULP energy per Si atom -5579.400089 kJ/mol
# Density = 2.535518 g / cm^3
# Si number density = 25.413018 Si / 1000 Ang^3
#
#
#
# Elastic Constant Matrix: (Units=GPa)
#
#
# Indices 1 2 3 4 5 6 
#
# 1 193.1145 8.9401 39.0929 0.0000 0.0000 0.0000
# 2 8.9401 43.3869 -12.4811 0.0000 0.0000 0.0000
# 3 39.0929 -12.4811 78.6436 0.0000 0.0000 0.0000
# 4 0.0000 0.0000 0.0000 32.5094 0.0000 0.0000
# 5 0.0000 0.0000 0.0000 0.0000 47.6582 0.0000
# 6 0.0000 0.0000 0.0000 0.0000 0.0000 38.7595
#
#
#
# Elastic Compliance Matrix: (Units=1/GPa)
#
#
# Indices 1 2 3 4 5 6 
#
# 1 0.005947 -0.002175 -0.003302 0.000000 0.000000 0.000000
# 2 -0.002175 0.024947 0.005040 0.000000 0.000000 0.000000
# 3 -0.003302 0.005040 0.015157 0.000000 0.000000 0.000000
# 4 0.000000 0.000000 0.000000 0.030760 0.000000 0.000000
# 5 0.000000 0.000000 0.000000 0.000000 0.020983 0.000000
# 6 0.000000 0.000000 0.000000 0.000000 0.000000 0.025800
#
#
# Mechanical properties :
#
#
# Convention : Reuss Voigt Hill
#
# Bulk Modulus (GPa) = 22.13470 42.91653 32.52562
# Shear Modulus (GPa) = 35.83562 42.42495 39.13029
#
# Velocity S-wave (km/s) = 3.75924 4.09028 3.92825
# Velocity P-wave (km/s) = 5.25085 6.26351 5.77940
#
# Compressibility (1/GPa) = 0.04517793
#
# Stress axis : x y z
#
# Youngs Moduli (GPa) = 168.14271 40.08559 65.97732
#
# Poissons Ratio (x) = 0.08720 0.21783
# Poissons Ratio (y) = 0.36575 -0.33256
# Poissons Ratio (z) = 0.55514 -0.20205
#
# Static dielectric constant tensor:
#      x y z
#    x 2.147290 0.000000 0.000000 
#    y 0.000000 2.082340 0.000000 
#    z 0.000000 0.000000 1.993870 
# 
# From -- ./inp_files/2681.got.cif
#   From: 2010.05.17/outbox.cif.g08.bks.cpg/sg33_2_cif.got.tgz:2681.got - 2010.06.03 17:15:25.
