data_PCOD9345173
_publ_section_title
;
Structure prediction by ZEFSAII (Michael W. Deem and Ramdas Pophale) SiO2 
 PCOD9345173
Probable space group: P N A 21
;
_chemical_formula_sum "Si O2"
_cell_formula_units_Z 28
_cell_length_a 14.324078
_cell_length_b 6.230452
_cell_length_c 12.315294
_cell_angle_alpha 90.000000
_cell_angle_beta 90.000000
_cell_angle_gamma 90.000000
_cell_volume 1099.084330
_symmetry_space_group_name_H-M "P N A 21"
_symmetry_group_IT_number 33
_symmetry_cell_setting 'orthorhombic'
loop_
_space_group_symop_operation_xyz
x,y,z
-x,-y,1/2+z
1/2-x,1/2+y,1/2+z
1/2+x,1/2-y,z
loop_
_atom_site_type_symbol
_atom_site_label
_atom_site_fract_x
_atom_site_fract_y
_atom_site_fract_z
Si Si1 0.960174 0.306280 0.926060
Si Si2 0.240265 0.370409 0.347942
Si Si3 0.868326 0.267720 0.714831
Si Si4 0.315522 0.499922 0.014546
Si Si5 0.321607 0.999136 0.236881
Si Si6 0.962503 0.677274 0.073443
Si Si7 0.656504 0.257184 0.962554
O O1 0.950084 0.217379 0.803960
O O2 0.865549 0.211360 0.972663
O O3 0.048981 0.210735 0.988941
O O4 0.963871 0.558097 0.956314
O O5 0.173857 0.521328 0.275242
O O6 0.294232 0.520975 0.432912
O O7 0.198835 0.172980 0.417635
O O8 0.307181 0.246655 0.265238
O O9 0.778855 0.108686 0.701302
O O10 0.931553 0.286142 0.608743
O O11 0.214563 0.400326 0.041811
O O12 0.392454 0.621072 0.084624
O O13 0.406655 0.980876 0.154065
O O14 0.346317 0.871638 0.347414
#
# Coordination Sequence:
#
# PCOD9345173 Si02
#       7
#     4   4   4   4   4   4   4
#     4  12  24  45  69 104 140 188 240 296 356 432
#     4  10  20  45  72  91 135 188 230 293 359 422
#     4  11  23  46  68 103 141 182 240 294 360 431
#     4  11  23  45  67  97 145 183 234 294 349 428
#     4  10  23  44  70 100 137 185 231 297 359 423
#     4  12  27  43  70 108 142 186 246 294 357 439
#     4  10  22  42  72  99 132 186 235 290 364 421
#
# _framework density 25.475750999999999
#
# number of rings (size 3 to 8) (size 9 to 14) (size 15 to 20)
#    0.000    1.143    7.143    0.000    2.000    6.857 
#    5.143    0.000    0.000    0.000    0.000    0.000 
#    0.000    0.000    0.000    0.000    0.000    0.000 
#
# Total GULP energy -156271.219563 kJ/mol
# GULP energy per Si atom -5581.114984 kJ/mol
# Density = 2.541777 g / cm^3
# Si number density = 25.475751 Si / 1000 Ang^3
#
#
#
# Elastic Constant Matrix: (Units=GPa)
#
#
# Indices 1 2 3 4 5 6 
#
# 1 147.4457 30.9729 11.2806 0.0000 0.0000 0.0000
# 2 30.9729 71.6539 3.6532 0.0000 0.0000 0.0000
# 3 11.2806 3.6532 53.1848 0.0000 0.0000 0.0000
# 4 0.0000 0.0000 0.0000 23.7816 0.0000 0.0000
# 5 0.0000 0.0000 0.0000 0.0000 36.1017 0.0000
# 6 0.0000 0.0000 0.0000 0.0000 0.0000 33.8787
#
#
#
# Elastic Compliance Matrix: (Units=1/GPa)
#
#
# Indices 1 2 3 4 5 6 
#
# 1 0.007560 -0.003197 -0.001384 0.000000 0.000000 0.000000
# 2 -0.003197 0.015357 -0.000377 0.000000 0.000000 0.000000
# 3 -0.001384 -0.000377 0.019122 0.000000 0.000000 0.000000
# 4 0.000000 0.000000 0.000000 0.042049 0.000000 0.000000
# 5 0.000000 0.000000 0.000000 0.000000 0.027700 0.000000
# 6 0.000000 0.000000 0.000000 0.000000 0.000000 0.029517
#
#
# Mechanical properties :
#
#
# Convention : Reuss Voigt Hill
#
# Bulk Modulus (GPa) = 31.13018 40.45531 35.79274
# Shear Modulus (GPa) = 30.87799 33.84424 32.36111
#
# Velocity S-wave (km/s) = 3.48523 3.64880 3.56795
# Velocity P-wave (km/s) = 5.33309 5.80224 5.57261
#
# Compressibility (1/GPa) = 0.03212317
#
# Stress axis : x y z
#
# Youngs Moduli (GPa) = 132.28158 65.11610 52.29645
#
# Poissons Ratio (x) = 0.20819 0.07237
# Poissons Ratio (y) = 0.42292 0.01970
# Poissons Ratio (z) = 0.18305 0.02453
#
# Static dielectric constant tensor:
#      x y z
#    x 2.029360 0.000000 0.000000 
#    y 0.000000 2.009450 0.000000 
#    z 0.000000 0.000000 2.141690 
# 
# From -- ./inp_files/8112.got.cif
#   From: 2010.05.17/outbox.cif.g08.bks.cpg/sg33_5_cif.got.tgz:8112.got - 2010.06.03 17:15:25.
