data_PCOD9345865
_publ_section_title
;
Structure prediction by ZEFSAII (Michael W. Deem and Ramdas Pophale) SiO2 
 PCOD9345865
Probable space group: P N A 21
;
_chemical_formula_sum "Si O2"
_cell_formula_units_Z 32
_cell_length_a 11.590557
_cell_length_b 15.251107
_cell_length_c 7.090357
_cell_angle_alpha 90.000000
_cell_angle_beta 90.000000
_cell_angle_gamma 90.000000
_cell_volume 1253.354076
_symmetry_space_group_name_H-M "P N A 21"
_symmetry_group_IT_number 33
_symmetry_cell_setting 'orthorhombic'
loop_
_space_group_symop_operation_xyz
x,y,z
-x,-y,1/2+z
1/2-x,1/2+y,1/2+z
1/2+x,1/2-y,z
loop_
_atom_site_type_symbol
_atom_site_label
_atom_site_fract_x
_atom_site_fract_y
_atom_site_fract_z
Si Si1 0.766690 0.182003 0.327660
Si Si2 0.260502 0.481925 0.055385
Si Si3 0.519938 0.399172 0.659474
Si Si4 0.084355 0.061984 0.050499
Si Si5 0.160083 0.435575 0.657979
Si Si6 0.665475 0.919569 0.380698
Si Si7 0.974459 0.777362 0.740847
Si Si8 0.999330 0.283052 0.809718
O O1 0.777338 0.113039 0.152944
O O2 0.732502 0.124867 0.512150
O O3 0.892424 0.232399 0.319588
O O4 0.648661 0.238866 0.310410
O O5 0.364700 0.549425 0.100038
O O6 0.163250 0.526221 0.187056
O O7 0.228632 0.474266 0.837656
O O8 0.424582 0.458933 0.566831
O O9 0.546676 0.382337 0.229714
O O10 0.498741 0.414569 0.881560
O O11 0.208531 0.088149 0.974763
O O12 0.107001 0.516897 0.537314
O O13 0.069400 0.368592 0.748389
O O14 0.628498 0.821460 0.330638
O O15 0.972299 0.744684 0.523039
O O16 0.980221 0.794651 0.159780
#
# Coordination Sequence:
#
# PCOD9345865 Si02
#       8
#     4   4   4   4   4   4   4   4
#     4  11  24  48  78 121 167 227 286 364 431 528
#     4  10  22  51  77 106 170 216 281 354 436 521
#     4  10  23  44  76 113 154 225 277 351 430 513
#     4  10  22  43  72 112 158 221 276 354 426 503
#     4  11  26  47  79 115 161 226 284 347 450 531
#     4  10  25  46  77 115 159 214 284 348 446 516
#     4  11  23  47  80 114 177 216 285 364 434 510
#     4  11  25  48  77 124 166 225 283 366 435 530
#
# _framework density 25.531490999999999
#
# number of rings (size 3 to 8) (size 9 to 14) (size 15 to 20)
#    0.000    1.500    2.500    0.750    3.500    1.000 
#   11.250    0.000    0.000    0.000    0.000    0.000 
#    0.000    0.000    0.000    0.000    0.000    0.000 
#
# Total GULP energy -178592.361118 kJ/mol
# GULP energy per Si atom -5581.011285 kJ/mol
# Density = 2.547338 g / cm^3
# Si number density = 25.531491 Si / 1000 Ang^3
#
#
#
# Elastic Constant Matrix: (Units=GPa)
#
#
# Indices 1 2 3 4 5 6 
#
# 1 120.4278 50.2476 40.4160 0.0000 0.0000 0.0000
# 2 50.2476 121.6749 34.9212 0.0000 0.0000 0.0000
# 3 40.4160 34.9212 123.3959 0.0000 0.0000 0.0000
# 4 0.0000 0.0000 0.0000 41.8343 0.0000 0.0000
# 5 0.0000 0.0000 0.0000 0.0000 27.6988 0.0000
# 6 0.0000 0.0000 0.0000 0.0000 0.0000 51.5825
#
#
#
# Elastic Compliance Matrix: (Units=1/GPa)
#
#
# Indices 1 2 3 4 5 6 
#
# 1 0.010670 -0.003704 -0.002447 0.000000 0.000000 0.000000
# 2 -0.003704 0.010231 -0.001682 0.000000 0.000000 0.000000
# 3 -0.002447 -0.001682 0.009381 0.000000 0.000000 0.000000
# 4 0.000000 0.000000 0.000000 0.023904 0.000000 0.000000
# 5 0.000000 0.000000 0.000000 0.000000 0.036103 0.000000
# 6 0.000000 0.000000 0.000000 0.000000 0.000000 0.019386
#
#
# Mechanical properties :
#
#
# Convention : Reuss Voigt Hill
#
# Bulk Modulus (GPa) = 68.41415 68.51868 68.46641
# Shear Modulus (GPa) = 38.39826 40.21738 39.30782
#
# Velocity S-wave (km/s) = 3.88230 3.97319 3.92801
# Velocity P-wave (km/s) = 6.85204 6.92413 6.88818
#
# Compressibility (1/GPa) = 0.01461686
#
# Stress axis : x y z
#
# Youngs Moduli (GPa) = 93.71710 97.74045 106.59424
#
# Poissons Ratio (x) = 0.36206 0.26079
# Poissons Ratio (y) = 0.34716 0.17931
# Poissons Ratio (z) = 0.22928 0.16441
#
# Static dielectric constant tensor:
#      x y z
#    x 2.160240 0.000000 0.000000 
#    y 0.000000 2.042180 0.000000 
#    z 0.000000 0.000000 2.054080 
# 
# From -- ./inp_files/1084.got.cif
#   From: 2010.05.17/outbox.cif.g08.bks.cpg/sg33_1_cif.got.tgz:1084.got - 2010.06.03 17:15:25.
