data_PCOD9345422
_publ_section_title
;
Structure prediction by ZEFSAII (Michael W. Deem and Ramdas Pophale) SiO2 
 PCOD9345422
Probable space group: P N A 21
;
_chemical_formula_sum "Si O2"
_cell_formula_units_Z 32
_cell_length_a 11.673994
_cell_length_b 11.083745
_cell_length_c 10.202891
_cell_angle_alpha 90.000000
_cell_angle_beta 90.000000
_cell_angle_gamma 90.000000
_cell_volume 1320.168112
_symmetry_space_group_name_H-M "P N A 21"
_symmetry_group_IT_number 33
_symmetry_cell_setting 'orthorhombic'
loop_
_space_group_symop_operation_xyz
x,y,z
-x,-y,1/2+z
1/2-x,1/2+y,1/2+z
1/2+x,1/2-y,z
loop_
_atom_site_type_symbol
_atom_site_label
_atom_site_fract_x
_atom_site_fract_y
_atom_site_fract_z
Si Si1 0.316276 0.577960 0.509010
Si Si2 0.204339 0.131829 0.416364
Si Si3 0.248571 0.577808 0.212468
Si Si4 0.940241 0.083492 0.902271
Si Si5 0.578857 0.029531 0.900548
Si Si6 0.505707 0.791529 0.202190
Si Si7 0.234080 0.334879 0.090227
Si Si8 0.636023 0.120289 0.469193
O O1 0.289264 0.613390 0.356618
O O2 0.452601 0.561885 0.499134
O O3 0.282777 0.691741 0.599380
O O4 0.238191 0.459556 0.533102
O O5 0.193498 0.116414 0.575547
O O6 0.327827 0.075082 0.382842
O O7 0.189451 0.270910 0.386778
O O8 0.109276 0.044375 0.355510
O O9 0.125346 0.638572 0.197284
O O10 0.258307 0.432718 0.203152
O O11 0.973283 0.167637 0.779331
O O12 0.836842 0.145398 0.984136
O O13 0.580938 0.127347 0.787115
O O14 0.451620 0.975779 0.906917
O O15 0.618204 0.106172 0.027406
O O16 0.451932 0.805069 0.060560
#
# Coordination Sequence:
#
# PCOD9345422 Si02
#       8
#     4   4   4   4   4   4   4   4
#     4  12  23  41  71 103 139 189 233 300 365 431
#     4  10  25  43  63  99 139 182 236 300 353 435
#     4  10  21  40  70  99 135 180 236 295 356 429
#     4  10  22  39  69  97 138 183 238 295 356 430
#     4  10  21  42  64  93 136 175 228 295 350 418
#     4  12  20  42  74 101 130 189 240 283 372 445
#     4  10  21  42  69 102 140 181 240 299 354 442
#     4  12  25  41  70 100 141 185 235 295 364 434
#
# _framework density 24.239336999999999
#
# number of rings (size 3 to 8) (size 9 to 14) (size 15 to 20)
#    0.000    1.500    6.250    0.750    1.750    0.000 
#    2.250    5.000    0.000    0.000    0.000    0.000 
#    0.000    0.000    0.000    0.000    0.000    0.000 
#
# Total GULP energy -178689.402121 kJ/mol
# GULP energy per Si atom -5584.043816 kJ/mol
# Density = 2.418417 g / cm^3
# Si number density = 24.239337 Si / 1000 Ang^3
#
#
#
# Elastic Constant Matrix: (Units=GPa)
#
#
# Indices 1 2 3 4 5 6 
#
# 1 79.6850 72.5492 0.7935 0.0000 0.0000 0.0000
# 2 72.5492 148.5283 9.5213 0.0000 0.0000 0.0000
# 3 0.7935 9.5213 46.8286 0.0000 0.0000 0.0000
# 4 0.0000 0.0000 0.0000 41.0166 0.0000 0.0000
# 5 0.0000 0.0000 0.0000 0.0000 21.2030 0.0000
# 6 0.0000 0.0000 0.0000 0.0000 0.0000 30.4613
#
#
#
# Elastic Compliance Matrix: (Units=1/GPa)
#
#
# Indices 1 2 3 4 5 6 
#
# 1 0.022765 -0.011242 0.001900 0.000000 0.000000 0.000000
# 2 -0.011242 0.012373 -0.002325 0.000000 0.000000 0.000000
# 3 0.001900 -0.002325 0.021795 0.000000 0.000000 0.000000
# 4 0.000000 0.000000 0.000000 0.024380 0.000000 0.000000
# 5 0.000000 0.000000 0.000000 0.000000 0.047163 0.000000
# 6 0.000000 0.000000 0.000000 0.000000 0.000000 0.032828
#
#
# Mechanical properties :
#
#
# Convention : Reuss Voigt Hill
#
# Bulk Modulus (GPa) = 29.76239 48.97443 39.36841
# Shear Modulus (GPa) = 25.53119 31.34806 28.43962
#
# Velocity S-wave (km/s) = 3.24897 3.60011 3.42904
# Velocity P-wave (km/s) = 5.13611 6.12613 5.65283
#
# Compressibility (1/GPa) = 0.03359946
#
# Stress axis : x y z
#
# Youngs Moduli (GPa) = 43.92617 80.82240 45.88205
#
# Poissons Ratio (x) = 0.90858 -0.08717
# Poissons Ratio (y) = 0.49380 0.10668
# Poissons Ratio (z) = -0.08346 0.18793
#
# Static dielectric constant tensor:
#      x y z
#    x 1.917380 0.000000 0.000000 
#    y 0.000000 1.964770 0.000000 
#    z 0.000000 0.000000 2.017240 
# 
# From -- ./inp_files/6498.got.cif
#   From: 2010.05.17/outbox.cif.g08.bks.cpg/sg33_4_cif.got.tgz:6498.got - 2010.06.03 17:15:25.
