data_PCOD9345656
_publ_section_title
;
Structure prediction by ZEFSAII (Michael W. Deem and Ramdas Pophale) SiO2 
 PCOD9345656
Probable space group: P N A 21
;
_chemical_formula_sum "Si O2"
_cell_formula_units_Z 24
_cell_length_a 7.958293
_cell_length_b 21.322858
_cell_length_c 5.035253
_cell_angle_alpha 90.000000
_cell_angle_beta 90.000000
_cell_angle_gamma 90.000000
_cell_volume 854.449965
_symmetry_space_group_name_H-M "P N A 21"
_symmetry_group_IT_number 33
_symmetry_cell_setting 'orthorhombic'
loop_
_space_group_symop_operation_xyz
x,y,z
-x,-y,1/2+z
1/2-x,1/2+y,1/2+z
1/2+x,1/2-y,z
loop_
_atom_site_type_symbol
_atom_site_label
_atom_site_fract_x
_atom_site_fract_y
_atom_site_fract_z
Si Si1 0.657218 0.830528 0.445330
Si Si2 0.211403 0.467560 0.831353
Si Si3 0.032475 0.089260 0.941114
Si Si4 0.933391 0.160343 0.446618
Si Si5 0.636774 0.228777 0.623165
Si Si6 0.017296 0.412094 0.327158
O O1 0.495342 0.816156 0.266454
O O2 0.767112 0.769734 0.353201
O O3 0.773313 0.892538 0.379353
O O4 0.584606 0.848874 0.735768
O O5 0.414714 0.469294 0.860662
O O6 0.139076 0.433722 0.569150
O O7 0.132069 0.536216 0.843126
O O8 0.132734 0.429492 0.074793
O O9 0.940517 0.139300 0.751152
O O10 0.994523 0.109502 0.240551
O O11 0.749933 0.188043 0.425710
O O12 0.055864 0.218960 0.436128
#
# Coordination Sequence:
#
# PCOD9345656 Si02
#       6
#     4   4   4   4   4   4
#     4  10  22  42  72 105 142 185 232 286 348 413
#     4  10  22  43  70 100 135 178 235 290 347 417
#     4  11  23  41  66 100 136 180 229 287 346 406
#     4  10  22  39  63  93 136 183 227 280 343 406
#     4   9  21  42  67 103 143 183 233 283 340 417
#     4  10  22  43  72 101 134 183 232 286 352 415
#
# _framework density 28.088242999999999
#
# number of rings (size 3 to 8) (size 9 to 14) (size 15 to 20)
#    0.000    2.000    0.000    2.000    0.000    8.000 
#    0.000   18.333    0.000    8.000    0.000    0.000 
#    0.000    0.000    0.000    0.000    0.000    0.000 
#
# Total GULP energy -134159.946105 kJ/mol
# GULP energy per Si atom -5589.997754 kJ/mol
# Density = 2.802431 g / cm^3
# Si number density = 28.088243 Si / 1000 Ang^3
#
#
#
# Elastic Constant Matrix: (Units=GPa)
#
#
# Indices 1 2 3 4 5 6 
#
# 1 150.4646 56.2895 60.7859 0.0000 0.0000 0.0000
# 2 56.2895 93.1916 55.0284 0.0000 0.0000 0.0000
# 3 60.7859 55.0284 160.6854 0.0000 0.0000 0.0000
# 4 0.0000 0.0000 0.0000 32.1687 0.0000 0.0000
# 5 0.0000 0.0000 0.0000 0.0000 41.5071 0.0000
# 6 0.0000 0.0000 0.0000 0.0000 0.0000 51.2676
#
#
#
# Elastic Compliance Matrix: (Units=1/GPa)
#
#
# Indices 1 2 3 4 5 6 
#
# 1 0.009046 -0.004316 -0.001944 0.000000 0.000000 0.000000
# 2 -0.004316 0.015510 -0.003679 0.000000 0.000000 0.000000
# 3 -0.001944 -0.003679 0.008219 0.000000 0.000000 0.000000
# 4 0.000000 0.000000 0.000000 0.031086 0.000000 0.000000
# 5 0.000000 0.000000 0.000000 0.000000 0.024092 0.000000
# 6 0.000000 0.000000 0.000000 0.000000 0.000000 0.019505
#
#
# Mechanical properties :
#
#
# Convention : Reuss Voigt Hill
#
# Bulk Modulus (GPa) = 77.53851 83.17214 80.35532
# Shear Modulus (GPa) = 37.98380 40.47119 39.22750
#
# Velocity S-wave (km/s) = 3.68136 3.79998 3.74114
# Velocity P-wave (km/s) = 6.76277 6.99489 6.87981
#
# Compressibility (1/GPa) = 0.01289682
#
# Stress axis : x y z
#
# Youngs Moduli (GPa) = 110.54491 64.47510 121.67593
#
# Poissons Ratio (x) = 0.27828 0.23653
# Poissons Ratio (y) = 0.47713 0.44762
# Poissons Ratio (z) = 0.21489 0.23719
#
# Static dielectric constant tensor:
#      x y z
#    x 2.308810 0.000000 0.000000 
#    y 0.000000 2.280100 0.000000 
#    z 0.000000 0.000000 2.136100 
# 
# From -- ./inp_files/6045.got.cif
#   From: 2010.05.17/outbox.cif.g08.bks.cpg/sg33_4_cif.got.tgz:6045.got - 2010.06.03 17:15:25.
