data_PCOD9345291
_publ_section_title
;
Structure prediction by ZEFSAII (Michael W. Deem and Ramdas Pophale) SiO2 
 PCOD9345291
Probable space group: P N A 21
;
_chemical_formula_sum "Si O2"
_cell_formula_units_Z 24
_cell_length_a 9.283425
_cell_length_b 20.007879
_cell_length_c 5.343528
_cell_angle_alpha 90.000000
_cell_angle_beta 90.000000
_cell_angle_gamma 90.000000
_cell_volume 992.515676
_symmetry_space_group_name_H-M "P N A 21"
_symmetry_group_IT_number 33
_symmetry_cell_setting 'orthorhombic'
loop_
_space_group_symop_operation_xyz
x,y,z
-x,-y,1/2+z
1/2-x,1/2+y,1/2+z
1/2+x,1/2-y,z
loop_
_atom_site_type_symbol
_atom_site_label
_atom_site_fract_x
_atom_site_fract_y
_atom_site_fract_z
Si Si1 0.960064 0.847283 0.933940
Si Si2 0.681616 0.842103 0.258978
Si Si3 0.248723 0.300698 0.933155
Si Si4 0.603401 0.566847 0.289259
Si Si5 0.444887 0.799878 0.928271
Si Si6 0.310213 0.559151 0.564387
O O1 0.016475 0.773489 0.900848
O O2 0.867816 0.876449 0.711984
O O3 0.576248 0.845274 0.021204
O O4 0.077637 0.899763 0.018766
O O5 0.667682 0.771009 0.406873
O O6 0.675438 0.910577 0.416539
O O7 0.845121 0.841370 0.159241
O O8 0.343384 0.368350 0.941348
O O9 0.159423 0.303634 0.671693
O O10 0.144819 0.306139 0.173696
O O11 0.449532 0.541105 0.392262
O O12 0.706563 0.503454 0.250189
#
# Coordination Sequence:
#
# PCOD9345291 Si02
#       6
#     4   4   4   4   4   4
#     4  10  21  38  64  99 132 176 226 295 355 405
#     4  10  23  40  65  97 137 181 234 286 354 431
#     4  11  25  40  68 102 138 181 231 297 349 421
#     4  11  23  39  66 104 134 176 238 299 364 427
#     4  11  24  42  67  99 139 187 232 284 356 424
#     4  11  22  39  68  99 136 179 229 303 364 424
#
# _framework density 24.180976999999999
#
# number of rings (size 3 to 8) (size 9 to 14) (size 15 to 20)
#    0.000    1.333    5.000    0.000    4.667    0.000 
#    0.000    0.000    3.667    0.000    0.000    0.000 
#    0.000    0.000    0.000    0.000    0.000    0.000 
#
# Total GULP energy -133969.039643 kJ/mol
# GULP energy per Si atom -5582.043318 kJ/mol
# Density = 2.412594 g / cm^3
# Si number density = 24.180977 Si / 1000 Ang^3
#
#
#
# Elastic Constant Matrix: (Units=GPa)
#
#
# Indices 1 2 3 4 5 6 
#
# 1 50.9266 26.4042 25.7067 0.0000 0.0000 0.0000
# 2 26.4042 96.4666 24.5065 0.0000 0.0000 0.0000
# 3 25.7067 24.5065 123.1676 0.0000 0.0000 0.0000
# 4 0.0000 0.0000 0.0000 33.3630 0.0000 0.0000
# 5 0.0000 0.0000 0.0000 0.0000 43.2481 0.0000
# 6 0.0000 0.0000 0.0000 0.0000 0.0000 22.0573
#
#
#
# Elastic Compliance Matrix: (Units=1/GPa)
#
#
# Indices 1 2 3 4 5 6 
#
# 1 0.024623 -0.005723 -0.004000 0.000000 0.000000 0.000000
# 2 -0.005723 0.012248 -0.001243 0.000000 0.000000 0.000000
# 3 -0.004000 -0.001243 0.009201 0.000000 0.000000 0.000000
# 4 0.000000 0.000000 0.000000 0.029973 0.000000 0.000000
# 5 0.000000 0.000000 0.000000 0.000000 0.023122 0.000000
# 6 0.000000 0.000000 0.000000 0.000000 0.000000 0.045337
#
#
# Mechanical properties :
#
#
# Convention : Reuss Voigt Hill
#
# Bulk Modulus (GPa) = 41.42495 47.08841 44.25668
# Shear Modulus (GPa) = 28.65595 32.66324 30.65959
#
# Velocity S-wave (km/s) = 3.44621 3.67929 3.56465
# Velocity P-wave (km/s) = 5.74487 6.12904 5.94006
#
# Compressibility (1/GPa) = 0.02414004
#
# Stress axis : x y z
#
# Youngs Moduli (GPa) = 40.61272 81.64273 108.68192
#
# Poissons Ratio (x) = 0.46727 0.43476
# Poissons Ratio (y) = 0.23244 0.13504
# Poissons Ratio (z) = 0.16246 0.10144
#
# Static dielectric constant tensor:
#      x y z
#    x 1.965650 0.000000 0.000000 
#    y 0.000000 1.985340 0.000000 
#    z 0.000000 0.000000 2.028480 
# 
# From -- ./inp_files/1442.got.cif
#   From: 2010.05.17/outbox.cif.g08.bks.cpg/sg33_1_cif.got.tgz:1442.got - 2010.06.03 17:15:25.
