data_PCOD9345246
_publ_section_title
;
Structure prediction by ZEFSAII (Michael W. Deem and Ramdas Pophale) SiO2 
 PCOD9345246
Probable space group: P N A 21
;
_chemical_formula_sum "Si O2"
_cell_formula_units_Z 32
_cell_length_a 13.830363
_cell_length_b 17.134733
_cell_length_c 5.399884
_cell_angle_alpha 90.000000
_cell_angle_beta 90.000000
_cell_angle_gamma 90.000000
_cell_volume 1279.662228
_symmetry_space_group_name_H-M "P N A 21"
_symmetry_group_IT_number 33
_symmetry_cell_setting 'orthorhombic'
loop_
_space_group_symop_operation_xyz
x,y,z
-x,-y,1/2+z
1/2-x,1/2+y,1/2+z
1/2+x,1/2-y,z
loop_
_atom_site_type_symbol
_atom_site_label
_atom_site_fract_x
_atom_site_fract_y
_atom_site_fract_z
Si Si1 0.081748 0.472753 0.492610
Si Si2 0.736192 0.468606 0.872575
Si Si3 0.103785 0.950729 0.250960
Si Si4 0.721213 0.255027 0.500536
Si Si5 0.481614 0.868709 0.627363
Si Si6 0.318404 0.191074 0.012695
Si Si7 0.581785 0.392854 0.524421
Si Si8 0.797518 0.613074 0.347092
O O1 0.165126 0.490434 0.288532
O O2 0.017322 0.548835 0.510065
O O3 0.147948 0.461428 0.731865
O O4 0.024168 0.395699 0.413662
O O5 0.665706 0.528285 0.008557
O O6 0.772324 0.395926 0.042528
O O7 0.673489 0.429524 0.662976
O O8 0.187574 0.909585 0.417921
O O9 0.013899 0.894771 0.193668
O O10 0.063783 0.036817 0.328028
O O11 0.775736 0.259780 0.239807
O O12 0.622885 0.306911 0.464920
O O13 0.704856 0.169411 0.606532
O O14 0.786102 0.286612 0.734751
O O15 0.566632 0.811183 0.552456
O O16 0.375731 0.847540 0.529185
#
# Coordination Sequence:
#
# PCOD9345246 Si02
#       8
#     4   4   4   4   4   4   4   4
#     4  10  21  37  65 100 133 170 229 286 354 422
#     4   9  19  37  61  97 123 172 219 294 334 407
#     4  11  21  39  64  99 128 179 241 294 343 418
#     4  11  26  47  67 101 141 191 228 298 362 433
#     4  11  22  40  69 103 135 182 233 294 357 435
#     4  10  24  43  71  94 137 184 236 273 360 435
#     4  11  21  39  70  92 138 177 246 288 360 409
#     4  11  26  42  65  98 145 177 236 295 366 425
#
# _framework density 25.006598
#
# number of rings (size 3 to 8) (size 9 to 14) (size 15 to 20)
#    0.000    1.500    3.750    0.750    3.500    2.000 
#    0.000    0.000    0.000    0.000    0.000    0.000 
#    0.000    0.000    0.000    0.000    0.000    0.000 
#
# Total GULP energy -178519.042802 kJ/mol
# GULP energy per Si atom -5578.720088 kJ/mol
# Density = 2.494968 g / cm^3
# Si number density = 25.006598 Si / 1000 Ang^3
#
#
#
# Elastic Constant Matrix: (Units=GPa)
#
#
# Indices 1 2 3 4 5 6 
#
# 1 144.1987 25.1194 28.5671 0.0000 0.0000 0.0000
# 2 25.1194 62.7943 1.8051 0.0000 0.0000 0.0000
# 3 28.5671 1.8051 59.1729 0.0000 0.0000 0.0000
# 4 0.0000 0.0000 0.0000 37.1394 0.0000 0.0000
# 5 0.0000 0.0000 0.0000 0.0000 35.1263 0.0000
# 6 0.0000 0.0000 0.0000 0.0000 0.0000 27.2230
#
#
#
# Elastic Compliance Matrix: (Units=1/GPa)
#
#
# Indices 1 2 3 4 5 6 
#
# 1 0.008262 -0.003193 -0.003891 0.000000 0.000000 0.000000
# 2 -0.003193 0.017173 0.001018 0.000000 0.000000 0.000000
# 3 -0.003891 0.001018 0.018747 0.000000 0.000000 0.000000
# 4 0.000000 0.000000 0.000000 0.026926 0.000000 0.000000
# 5 0.000000 0.000000 0.000000 0.000000 0.028469 0.000000
# 6 0.000000 0.000000 0.000000 0.000000 0.000000 0.036734
#
#
# Mechanical properties :
#
#
# Convention : Reuss Voigt Hill
#
# Bulk Modulus (GPa) = 31.20239 41.90544 36.55391
# Shear Modulus (GPa) = 31.42151 33.94269 32.68210
#
# Velocity S-wave (km/s) = 3.54860 3.68822 3.61908
# Velocity P-wave (km/s) = 5.41247 5.91028 5.66684
#
# Compressibility (1/GPa) = 0.03204883
#
# Stress axis : x y z
#
# Youngs Moduli (GPa) = 121.03579 58.23057 53.34132
#
# Poissons Ratio (x) = 0.18594 0.20757
# Poissons Ratio (y) = 0.38649 -0.05428
# Poissons Ratio (z) = 0.47098 -0.05926
#
# Static dielectric constant tensor:
#      x y z
#    x 1.996940 0.000000 0.000000 
#    y 0.000000 2.084280 0.000000 
#    z 0.000000 0.000000 2.186790 
# 
# From -- ./inp_files/1529.got.cif
#   From: 2010.05.17/outbox.cif.g08.bks.cpg/sg33_1_cif.got.tgz:1529.got - 2010.06.03 17:15:25.
