data_PCOD9345208
_publ_section_title
;
Structure prediction by ZEFSAII (Michael W. Deem and Ramdas Pophale) SiO2 
 PCOD9345208
Probable space group: P N A 21
;
_chemical_formula_sum "Si O2"
_cell_formula_units_Z 28
_cell_length_a 10.726318
_cell_length_b 20.893267
_cell_length_c 4.886970
_cell_angle_alpha 90.000000
_cell_angle_beta 90.000000
_cell_angle_gamma 90.000000
_cell_volume 1095.208222
_symmetry_space_group_name_H-M "P N A 21"
_symmetry_group_IT_number 33
_symmetry_cell_setting 'orthorhombic'
loop_
_space_group_symop_operation_xyz
x,y,z
-x,-y,1/2+z
1/2-x,1/2+y,1/2+z
1/2+x,1/2-y,z
loop_
_atom_site_type_symbol
_atom_site_label
_atom_site_fract_x
_atom_site_fract_y
_atom_site_fract_z
Si Si1 0.987038 0.648025 0.014760
Si Si2 0.924597 0.480799 0.340398
Si Si3 0.005852 0.043429 0.916382
Si Si4 0.444380 0.281315 0.655416
Si Si5 0.751857 0.590731 0.342383
Si Si6 0.403556 0.670761 0.647478
Si Si7 0.774056 0.707982 0.737235
O O1 0.867960 0.614150 0.156873
O O2 0.918427 0.689406 0.784674
O O3 0.078185 0.593488 0.913013
O O4 0.048404 0.704427 0.179633
O O5 0.805197 0.521304 0.423826
O O6 0.035932 0.511285 0.525172
O O7 0.889445 0.077182 0.756962
O O8 0.100512 0.096819 0.043435
O O9 0.048458 0.993528 0.683944
O O10 0.487902 0.302273 0.952340
O O11 0.311203 0.292226 0.509084
O O12 0.545117 0.317146 0.455038
O O13 0.737692 0.645918 0.564956
O O14 0.285761 0.719662 0.620331
#
# Coordination Sequence:
#
# PCOD9345208 Si02
#       7
#     4   4   4   4   4   4   4
#     4  10  22  40  66 100 137 179 234 286 355 427
#     4  10  21  36  63  96 132 170 227 279 331 422
#     4  12  28  46  70  98 139 188 236 288 351 440
#     4  11  23  39  69 102 135 180 234 290 354 435
#     4  11  22  43  69  95 137 191 228 286 372 411
#     4  11  24  44  66 102 139 176 240 293 353 432
#     4  11  22  40  71  99 137 190 229 298 364 427
#
# _framework density 25.565912999999998
#
# number of rings (size 3 to 8) (size 9 to 14) (size 15 to 20)
#    0.000    1.143    4.286    1.714    2.000    1.143 
#    0.000    1.429    0.000    0.000    0.000    0.000 
#    0.000    0.000    0.000    0.000    0.000    0.000 
#
# Total GULP energy -156134.102855 kJ/mol
# GULP energy per Si atom -5576.217959 kJ/mol
# Density = 2.550772 g / cm^3
# Si number density = 25.565913 Si / 1000 Ang^3
#
#
#
# Elastic Constant Matrix: (Units=GPa)
#
#
# Indices 1 2 3 4 5 6 
#
# 1 48.2282 -7.1046 3.1524 0.0000 0.0000 0.0000
# 2 -7.1046 86.6205 6.0723 0.0000 0.0000 0.0000
# 3 3.1524 6.0723 66.3667 0.0000 0.0000 0.0000
# 4 0.0000 0.0000 0.0000 34.1561 0.0000 0.0000
# 5 0.0000 0.0000 0.0000 0.0000 22.0238 0.0000
# 6 0.0000 0.0000 0.0000 0.0000 0.0000 27.6557
#
#
#
# Elastic Compliance Matrix: (Units=1/GPa)
#
#
# Indices 1 2 3 4 5 6 
#
# 1 0.021078 0.001811 -0.001167 0.000000 0.000000 0.000000
# 2 0.001811 0.011775 -0.001163 0.000000 0.000000 0.000000
# 3 -0.001167 -0.001163 0.015230 0.000000 0.000000 0.000000
# 4 0.000000 0.000000 0.000000 0.029277 0.000000 0.000000
# 5 0.000000 0.000000 0.000000 0.000000 0.045405 0.000000
# 6 0.000000 0.000000 0.000000 0.000000 0.000000 0.036159
#
#
# Mechanical properties :
#
#
# Convention : Reuss Voigt Hill
#
# Bulk Modulus (GPa) = 21.25722 22.82842 22.04282
# Shear Modulus (GPa) = 28.46668 30.04013 29.25341
#
# Velocity S-wave (km/s) = 3.34048 3.43156 3.38632
# Velocity P-wave (km/s) = 4.81779 4.96482 4.89186
#
# Compressibility (1/GPa) = 0.04704285
#
# Stress axis : x y z
#
# Youngs Moduli (GPa) = 47.44340 84.92812 65.66132
#
# Poissons Ratio (x) = -0.15377 0.07662
# Poissons Ratio (y) = -0.08590 0.07639
# Poissons Ratio (z) = 0.05536 0.09880
#
# Static dielectric constant tensor:
#      x y z
#    x 2.024900 0.000000 0.000000 
#    y 0.000000 2.184010 0.000000 
#    z 0.000000 0.000000 2.054110 
# 
# From -- ./inp_files/928.got.cif
#   From: 2010.05.17/outbox.cif.g08.bks.cpg/sg33_1_cif.got.tgz:928.got - 2010.06.03 17:15:25.
