data_PCOD9345987
_publ_section_title
;
Structure prediction by ZEFSAII (Michael W. Deem and Ramdas Pophale) SiO2 
 PCOD9345987
Probable space group: P N A 21
;
_chemical_formula_sum "Si O2"
_cell_formula_units_Z 24
_cell_length_a 9.753661
_cell_length_b 9.859310
_cell_length_c 9.311135
_cell_angle_alpha 90.000000
_cell_angle_beta 90.000000
_cell_angle_gamma 90.000000
_cell_volume 895.399407
_symmetry_space_group_name_H-M "P N A 21"
_symmetry_group_IT_number 33
_symmetry_cell_setting 'orthorhombic'
loop_
_space_group_symop_operation_xyz
x,y,z
-x,-y,1/2+z
1/2-x,1/2+y,1/2+z
1/2+x,1/2-y,z
loop_
_atom_site_type_symbol
_atom_site_label
_atom_site_fract_x
_atom_site_fract_y
_atom_site_fract_z
Si Si1 0.986895 0.102920 0.209200
Si Si2 0.112928 0.814009 0.190986
Si Si3 0.253704 0.519384 0.385644
Si Si4 0.753524 0.490376 0.558360
Si Si5 0.081957 0.266156 0.443137
Si Si6 0.369358 0.790503 0.376887
O O1 0.896368 0.053896 0.346379
O O2 0.872390 0.097950 0.085642
O O3 0.049828 0.239169 0.273418
O O4 0.083671 0.975467 0.179582
O O5 0.014484 0.756987 0.317612
O O6 0.269167 0.808333 0.240686
O O7 0.048061 0.743829 0.049630
O O8 0.200136 0.543958 0.220660
O O9 0.155949 0.410471 0.456421
O O10 0.298532 0.661100 0.455347
O O11 0.681321 0.360780 0.485258
O O12 0.862691 0.571981 0.465733
#
# Coordination Sequence:
#
# PCOD9345987 Si02
#       6
#     4   4   4   4   4   4
#     4   8  19  40  61  86 120 170 207 246 320 380
#     4  10  23  38  68  89 124 172 205 257 322 376
#     4   9  23  41  58  97 123 161 213 268 315 364
#     4   9  21  41  64  90 124 169 217 252 311 399
#     4  11  19  42  64  87 126 169 213 260 310 388
#     4  11  21  46  61  95 129 163 213 263 318 375
#
# _framework density 26.803681999999998
#
# number of rings (size 3 to 8) (size 9 to 14) (size 15 to 20)
#    1.000    1.333    3.333    0.000    2.333    1.333 
#   15.000    0.000    0.000    0.000    0.000    0.000 
#    0.000    0.000    0.000    0.000    0.000    0.000 
#
# Total GULP energy -134117.219805 kJ/mol
# GULP energy per Si atom -5588.217492 kJ/mol
# Density = 2.674268 g / cm^3
# Si number density = 26.803682 Si / 1000 Ang^3
#
#
#
# Elastic Constant Matrix: (Units=GPa)
#
#
# Indices 1 2 3 4 5 6 
#
# 1 80.0994 30.4242 26.1099 0.0000 0.0000 0.0000
# 2 30.4242 76.5424 27.1416 0.0000 0.0000 0.0000
# 3 26.1099 27.1416 74.8930 0.0000 0.0000 0.0000
# 4 0.0000 0.0000 0.0000 53.9121 0.0000 0.0000
# 5 0.0000 0.0000 0.0000 0.0000 38.9741 0.0000
# 6 0.0000 0.0000 0.0000 0.0000 0.0000 38.9427
#
#
#
# Elastic Compliance Matrix: (Units=1/GPa)
#
#
# Indices 1 2 3 4 5 6 
#
# 1 0.015526 -0.004879 -0.003645 0.000000 0.000000 0.000000
# 2 -0.004879 0.016524 -0.004288 0.000000 0.000000 0.000000
# 3 -0.003645 -0.004288 0.016177 0.000000 0.000000 0.000000
# 4 0.000000 0.000000 0.000000 0.018549 0.000000 0.000000
# 5 0.000000 0.000000 0.000000 0.000000 0.025658 0.000000
# 6 0.000000 0.000000 0.000000 0.000000 0.000000 0.025679
#
#
# Mechanical properties :
#
#
# Convention : Reuss Voigt Hill
#
# Bulk Modulus (GPa) = 44.23843 44.32068 44.27955
# Shear Modulus (GPa) = 33.05368 36.22305 34.63836
#
# Velocity S-wave (km/s) = 3.51547 3.68016 3.59876
# Velocity P-wave (km/s) = 5.74617 5.88466 5.81583
#
# Compressibility (1/GPa) = 0.02260478
#
# Stress axis : x y z
#
# Youngs Moduli (GPa) = 64.40965 60.51715 61.81674
#
# Poissons Ratio (x) = 0.29525 0.22530
# Poissons Ratio (y) = 0.31424 0.26504
# Poissons Ratio (z) = 0.23475 0.25947
#
# Static dielectric constant tensor:
#      x y z
#    x 2.096620 0.000000 0.000000 
#    y 0.000000 2.159620 0.000000 
#    z 0.000000 0.000000 2.169080 
# 
# From -- ./inp_files/6382.got.cif
#   From: 2010.05.17/outbox.cif.g08.bks.cpg/sg33_4_cif.got.tgz:6382.got - 2010.06.03 17:15:25.
