data_PCOD9345723
_publ_section_title
;
Structure prediction by ZEFSAII (Michael W. Deem and Ramdas Pophale) SiO2 
 PCOD9345723
Probable space group: P N A 21
;
_chemical_formula_sum "Si O2"
_cell_formula_units_Z 28
_cell_length_a 16.855617
_cell_length_b 6.587287
_cell_length_c 12.635384
_cell_angle_alpha 90.000000
_cell_angle_beta 90.000000
_cell_angle_gamma 90.000000
_cell_volume 1402.941897
_symmetry_space_group_name_H-M "P N A 21"
_symmetry_group_IT_number 33
_symmetry_cell_setting 'orthorhombic'
loop_
_space_group_symop_operation_xyz
x,y,z
-x,-y,1/2+z
1/2-x,1/2+y,1/2+z
1/2+x,1/2-y,z
loop_
_atom_site_type_symbol
_atom_site_label
_atom_site_fract_x
_atom_site_fract_y
_atom_site_fract_z
Si Si1 0.633359 0.139800 0.327830
Si Si2 0.508260 0.151731 0.883171
Si Si3 0.566959 0.721892 0.592613
Si Si4 0.143576 0.424593 0.728259
Si Si5 0.558519 0.522907 0.227504
Si Si6 0.700278 0.789537 0.192069
Si Si7 0.831728 0.860091 0.042391
O O1 0.615241 0.338740 0.260878
O O2 0.662730 0.218354 0.440914
O O3 0.549709 0.024241 0.341128
O O4 0.690211 0.976705 0.272327
O O5 0.595088 0.107712 0.836083
O O6 0.479702 0.361468 0.827853
O O7 0.488824 0.165249 0.007203
O O8 0.508992 0.577008 0.657590
O O9 0.629496 0.579880 0.529972
O O10 0.615660 0.868660 0.671414
O O11 0.237352 0.377620 0.738573
O O12 0.122971 0.253609 0.639526
O O13 0.615324 0.688665 0.172934
O O14 0.742442 0.868868 0.086176
#
# Coordination Sequence:
#
# PCOD9345723 Si02
#       7
#     4   4   4   4   4   4   4
#     4  11  21  40  65  89 125 171 210 269 326 378
#     4  11  21  39  64  95 121 168 218 265 318 383
#     4  12  22  38  70  93 127 176 218 269 319 380
#     4  10  22  41  61  92 132 166 216 264 315 387
#     4  11  22  38  64  94 127 163 216 264 325 382
#     4   9  24  39  60  90 132 166 207 269 326 385
#     4  10  22  41  64  89 126 170 213 260 327 387
#
# _framework density 19.95806
#
# number of rings (size 3 to 8) (size 9 to 14) (size 15 to 20)
#    0.857    0.571    5.714    0.000    2.000    1.143 
#    0.000    1.429    0.000    0.000    0.000    0.000 
#    0.000    0.000    0.000    0.000    0.000    0.000 
#
# Total GULP energy -156014.131115 kJ/mol
# GULP energy per Si atom -5571.933254 kJ/mol
# Density = 1.991263 g / cm^3
# Si number density = 19.958060 Si / 1000 Ang^3
#
#
#
# Elastic Constant Matrix: (Units=GPa)
#
#
# Indices 1 2 3 4 5 6 
#
# 1 50.7021 19.7877 0.4005 0.0000 0.0000 0.0000
# 2 19.7877 73.8168 14.3346 0.0000 0.0000 0.0000
# 3 0.4005 14.3346 19.3138 0.0000 0.0000 0.0000
# 4 0.0000 0.0000 0.0000 34.9840 0.0000 0.0000
# 5 0.0000 0.0000 0.0000 0.0000 23.0101 0.0000
# 6 0.0000 0.0000 0.0000 0.0000 0.0000 25.5773
#
#
#
# Elastic Compliance Matrix: (Units=1/GPa)
#
#
# Indices 1 2 3 4 5 6 
#
# 1 0.022381 -0.006905 0.004660 0.000000 0.000000 0.000000
# 2 -0.006905 0.017958 -0.013185 0.000000 0.000000 0.000000
# 3 0.004660 -0.013185 0.061466 0.000000 0.000000 0.000000
# 4 0.000000 0.000000 0.000000 0.028585 0.000000 0.000000
# 5 0.000000 0.000000 0.000000 0.000000 0.043459 0.000000
# 6 0.000000 0.000000 0.000000 0.000000 0.000000 0.039097
#
#
# Mechanical properties :
#
#
# Convention : Reuss Voigt Hill
#
# Bulk Modulus (GPa) = 14.09521 23.65315 18.87418
# Shear Modulus (GPa) = 18.69480 24.00160 21.34820
#
# Velocity S-wave (km/s) = 3.06388 3.47162 3.27410
# Velocity P-wave (km/s) = 4.42654 5.28646 4.87550
#
# Compressibility (1/GPa) = 0.07094607
#
# Stress axis : x y z
#
# Youngs Moduli (GPa) = 44.68096 55.68413 16.26918
#
# Poissons Ratio (x) = 0.38447 -0.07582
# Poissons Ratio (y) = 0.30850 0.21452
# Poissons Ratio (z) = -0.20823 0.73422
#
# Static dielectric constant tensor:
#      x y z
#    x 1.724870 0.000000 0.000000 
#    y 0.000000 1.708440 0.000000 
#    z 0.000000 0.000000 1.705870 
# 
# From -- ./inp_files/7127.got.cif
#   From: 2010.05.17/outbox.cif.g08.bks.cpg/sg33_4_cif.got.tgz:7127.got - 2010.06.03 17:15:25.
