data_PCOD9345974
_publ_section_title
;
Structure prediction by ZEFSAII (Michael W. Deem and Ramdas Pophale) SiO2 
 PCOD9345974
Probable space group: P N A 21
;
_chemical_formula_sum "Si O2"
_cell_formula_units_Z 28
_cell_length_a 12.133991
_cell_length_b 18.147100
_cell_length_c 5.390229
_cell_angle_alpha 90.000000
_cell_angle_beta 90.000000
_cell_angle_gamma 90.000000
_cell_volume 1186.910897
_symmetry_space_group_name_H-M "P N A 21"
_symmetry_group_IT_number 33
_symmetry_cell_setting 'orthorhombic'
loop_
_space_group_symop_operation_xyz
x,y,z
-x,-y,1/2+z
1/2-x,1/2+y,1/2+z
1/2+x,1/2-y,z
loop_
_atom_site_type_symbol
_atom_site_label
_atom_site_fract_x
_atom_site_fract_y
_atom_site_fract_z
Si Si1 0.701549 0.203794 0.534290
Si Si2 0.930041 0.842436 0.993462
Si Si3 0.603803 0.982526 0.578332
Si Si4 0.402820 0.261861 0.821704
Si Si5 0.647062 0.619102 0.705569
Si Si6 0.250566 0.032406 0.574378
Si Si7 0.041346 0.378228 0.844462
O O1 0.621041 0.263131 0.402934
O O2 0.811993 0.245592 0.609917
O O3 0.751639 0.134011 0.392352
O O4 0.645575 0.173205 0.786653
O O5 0.024913 0.880687 0.826812
O O6 0.833647 0.898915 0.060400
O O7 0.999018 0.815029 0.230674
O O8 0.677468 0.968382 0.330268
O O9 0.494235 0.931631 0.564916
O O10 0.555227 0.064227 0.619745
O O11 0.676951 0.967026 0.823048
O O12 0.445872 0.181243 0.862084
O O13 0.353549 0.305981 0.048538
O O14 0.678298 0.543328 0.571575
#
# Coordination Sequence:
#
# PCOD9345974 Si02
#       7
#     4   4   4   4   4   4   4
#     4  10  22  49  72 109 152 196 255 324 384 464
#     4  10  26  43  74 109 150 205 260 316 387 468
#     4  12  27  48  75 113 147 211 244 331 388 454
#     4  10  24  45  74 108 146 205 251 321 389 467
#     4  11  25  44  78 109 152 210 254 323 401 449
#     4  12  28  47  76 110 161 197 266 316 388 466
#     4  11  24  48  73 108 154 190 266 307 391 464
#
# _framework density 23.590648999999999
#
# number of rings (size 3 to 8) (size 9 to 14) (size 15 to 20)
#    0.000    1.143    1.429    2.571    8.000    3.429 
#   10.286    0.000    0.000    0.000    0.000    0.000 
#    0.000    0.000    0.000    0.000    0.000    0.000 
#
# Total GULP energy -156151.107308 kJ/mol
# GULP energy per Si atom -5576.825261 kJ/mol
# Density = 2.353696 g / cm^3
# Si number density = 23.590649 Si / 1000 Ang^3
#
#
#
# Elastic Constant Matrix: (Units=GPa)
#
#
# Indices 1 2 3 4 5 6 
#
# 1 109.8128 69.7107 53.8897 0.0000 0.0000 0.0000
# 2 69.7107 110.1090 26.3869 0.0000 0.0000 0.0000
# 3 53.8897 26.3869 107.4702 0.0000 0.0000 0.0000
# 4 0.0000 0.0000 0.0000 26.0380 0.0000 0.0000
# 5 0.0000 0.0000 0.0000 0.0000 34.3533 0.0000
# 6 0.0000 0.0000 0.0000 0.0000 0.0000 286.5451
#
#
#
# Elastic Compliance Matrix: (Units=1/GPa)
#
#
# Indices 1 2 3 4 5 6 
#
# 1 0.019228 -0.010479 -0.007069 0.000000 0.000000 0.000000
# 2 -0.010479 0.015361 0.001483 0.000000 0.000000 0.000000
# 3 -0.007069 0.001483 0.012485 0.000000 0.000000 0.000000
# 4 0.000000 0.000000 0.000000 0.038405 0.000000 0.000000
# 5 0.000000 0.000000 0.000000 0.000000 0.029109 0.000000
# 6 0.000000 0.000000 0.000000 0.000000 0.000000 0.003490
#
#
# Mechanical properties :
#
#
# Convention : Reuss Voigt Hill
#
# Bulk Modulus (GPa) = 66.91399 69.70738 68.31068
# Shear Modulus (GPa) = 32.21887 81.21428 56.71657
#
# Velocity S-wave (km/s) = 3.69961 5.87377 4.90858
# Velocity P-wave (km/s) = 6.83196 8.69566 7.81953
#
# Compressibility (1/GPa) = 0.01494456
#
# Stress axis : x y z
#
# Youngs Moduli (GPa) = 52.00883 65.10038 80.09495
#
# Poissons Ratio (x) = 0.68220 0.56615
# Poissons Ratio (y) = 0.54501 -0.11879
# Poissons Ratio (z) = 0.36762 -0.09655
#
# Static dielectric constant tensor:
#      x y z
#    x 1.912850 0.000000 0.000000 
#    y 0.000000 1.964370 0.000000 
#    z 0.000000 0.000000 1.957990 
# 
# From -- ./inp_files/939.got.cif
#   From: 2010.05.17/outbox.cif.g08.bks.cpg/sg33_1_cif.got.tgz:939.got - 2010.06.03 17:15:25.
