data_PCOD9345912
_publ_section_title
;
Structure prediction by ZEFSAII (Michael W. Deem and Ramdas Pophale) SiO2 
 PCOD9345912
Probable space group: P N A 21
;
_chemical_formula_sum "Si O2"
_cell_formula_units_Z 20
_cell_length_a 5.617530
_cell_length_b 26.919977
_cell_length_c 5.025114
_cell_angle_alpha 90.000000
_cell_angle_beta 90.000000
_cell_angle_gamma 90.000000
_cell_volume 759.916726
_symmetry_space_group_name_H-M "P N A 21"
_symmetry_group_IT_number 33
_symmetry_cell_setting 'orthorhombic'
loop_
_space_group_symop_operation_xyz
x,y,z
-x,-y,1/2+z
1/2-x,1/2+y,1/2+z
1/2+x,1/2-y,z
loop_
_atom_site_type_symbol
_atom_site_label
_atom_site_fract_x
_atom_site_fract_y
_atom_site_fract_z
Si Si1 0.145239 0.992748 0.323680
Si Si2 0.369720 0.886128 0.239079
Si Si3 0.556640 0.670258 0.903044
Si Si4 0.333155 0.755859 0.593925
Si Si5 0.323314 0.096755 0.218097
O O1 0.251087 0.938194 0.316303
O O2 0.301116 0.037290 0.201917
O O3 0.079780 0.007393 0.623826
O O4 0.578241 0.879086 0.450516
O O5 0.497244 0.892940 0.957260
O O6 0.165411 0.844821 0.187867
O O7 0.370460 0.714471 0.830417
O O8 0.776518 0.692842 0.738768
O O9 0.430826 0.620887 0.792360
O O10 0.586120 0.757236 0.447483
#
# Coordination Sequence:
#
# PCOD9345912 Si02
#       5
#     4   4   4   4   4
#     4  12  24  46  70 106 150 198 252 314 388 472
#     4  12  26  45  74 107 148 200 253 319 392 471
#     4  10  22  44  74 108 154 190 266 314 400 452
#     4   8  18  40  72 104 150 198 252 322 386 454
#     4  12  26  45  74 107 148 200 253 319 392 471
#
# _framework density 26.318676
#
# number of rings (size 3 to 8) (size 9 to 14) (size 15 to 20)
#    1.200    0.000    2.000    4.800    0.000    0.000 
#    0.000    2.000    0.000    0.000    0.000    0.000 
#    0.000    0.000    0.000    0.000    0.000    0.000 
#
# Total GULP energy -111859.369031 kJ/mol
# GULP energy per Si atom -5592.968452 kJ/mol
# Density = 2.625877 g / cm^3
# Si number density = 26.318676 Si / 1000 Ang^3
#
#
#
# Elastic Constant Matrix: (Units=GPa)
#
#
# Indices 1 2 3 4 5 6 
#
# 1 138.6934 26.5240 23.7870 0.0000 0.0000 0.0000
# 2 26.5240 97.5027 3.9137 0.0000 0.0000 0.0000
# 3 23.7870 3.9137 81.9952 0.0000 0.0000 0.0000
# 4 0.0000 0.0000 0.0000 31.2204 0.0000 0.0000
# 5 0.0000 0.0000 0.0000 0.0000 41.9787 0.0000
# 6 0.0000 0.0000 0.0000 0.0000 0.0000 52.6359
#
#
#
# Elastic Compliance Matrix: (Units=1/GPa)
#
#
# Indices 1 2 3 4 5 6 
#
# 1 0.007989 -0.002084 -0.002218 0.000000 0.000000 0.000000
# 2 -0.002084 0.010820 0.000088 0.000000 0.000000 0.000000
# 3 -0.002218 0.000088 0.012835 0.000000 0.000000 0.000000
# 4 0.000000 0.000000 0.000000 0.032030 0.000000 0.000000
# 5 0.000000 0.000000 0.000000 0.000000 0.023822 0.000000
# 6 0.000000 0.000000 0.000000 0.000000 0.000000 0.018998
#
#
# Mechanical properties :
#
#
# Convention : Reuss Voigt Hill
#
# Bulk Modulus (GPa) = 43.07490 47.40454 45.23972
# Shear Modulus (GPa) = 40.76268 42.76479 41.76374
#
# Velocity S-wave (km/s) = 3.93976 4.03536 3.98785
# Velocity P-wave (km/s) = 6.09080 6.30579 6.19923
#
# Compressibility (1/GPa) = 0.02321538
#
# Stress axis : x y z
#
# Youngs Moduli (GPa) = 125.16915 92.42506 77.91115
#
# Poissons Ratio (x) = 0.19264 0.17282
# Poissons Ratio (y) = 0.26089 -0.00687
# Poissons Ratio (z) = 0.27765 -0.00815
#
# Static dielectric constant tensor:
#      x y z
#    x 2.140590 0.000000 0.000000 
#    y 0.000000 2.039390 0.000000 
#    z 0.000000 0.000000 1.997480 
# 
# From -- ./inp_files/204.got.cif
#   From: 2010.05.17/outbox.cif.g08.bks.cpg/sg33_1_cif.got.tgz:204.got - 2010.06.03 17:15:25.
