data_PCOD9345259
_publ_section_title
;
Structure prediction by ZEFSAII (Michael W. Deem and Ramdas Pophale) SiO2 
 PCOD9345259
Probable space group: P N A 21
;
_chemical_formula_sum "Si O2"
_cell_formula_units_Z 32
_cell_length_a 13.724944
_cell_length_b 11.490807
_cell_length_c 8.586445
_cell_angle_alpha 90.000000
_cell_angle_beta 90.000000
_cell_angle_gamma 90.000000
_cell_volume 1354.174102
_symmetry_space_group_name_H-M "P N A 21"
_symmetry_group_IT_number 33
_symmetry_cell_setting 'orthorhombic'
loop_
_space_group_symop_operation_xyz
x,y,z
-x,-y,1/2+z
1/2-x,1/2+y,1/2+z
1/2+x,1/2-y,z
loop_
_atom_site_type_symbol
_atom_site_label
_atom_site_fract_x
_atom_site_fract_y
_atom_site_fract_z
Si Si1 0.796842 0.726158 0.096130
Si Si2 0.438426 0.940625 0.580602
Si Si3 0.640344 0.826344 0.669350
Si Si4 0.989053 0.639024 0.248563
Si Si5 0.830393 0.758327 0.754160
Si Si6 0.634682 0.677323 0.356889
Si Si7 0.963616 0.133312 0.343229
Si Si8 0.405699 0.537728 0.075050
O O1 0.896663 0.663626 0.144118
O O2 0.712812 0.690798 0.217597
O O3 0.791156 0.699475 0.912759
O O4 0.824661 0.863574 0.100002
O O5 0.548092 0.906240 0.636793
O O6 0.449563 0.932321 0.396893
O O7 0.359089 0.846692 0.637350
O O8 0.427963 0.066757 0.657399
O O9 0.750774 0.855984 0.710131
O O10 0.658481 0.755073 0.509583
O O11 0.603293 0.744044 0.809938
O O12 0.033811 0.761290 0.305016
O O13 0.931842 0.822650 0.781027
O O14 0.622244 0.551044 0.435024
O O15 0.922589 0.033107 0.232570
O O16 0.991238 0.091905 0.515163
#
# Coordination Sequence:
#
# PCOD9345259 Si02
#       8
#     4   4   4   4   4   4   4   4
#     4  11  24  38  61  92 122 163 211 262 321 386
#     4  10  22  40  62  90 127 168 212 267 322 379
#     4   9  20  39  59  84 119 160 207 255 310 373
#     4  11  23  41  64  91 128 170 216 266 327 389
#     4  10  21  38  59  88 122 162 210 259 312 376
#     4  10  23  40  60  89 122 162 207 261 321 383
#     4   9  20  36  59  84 116 158 200 253 312 371
#     4  10  21  40  60  88 122 159 207 261 319 379
#
# _framework density 23.630638999999999
#
# number of rings (size 3 to 8) (size 9 to 14) (size 15 to 20)
#    0.000    2.000    0.000    3.000    0.000   11.000 
#    0.000    1.250    0.000    0.000    0.000    0.000 
#    0.000    0.000    0.000    0.000    0.000    0.000 
#
# Total GULP energy -178615.018992 kJ/mol
# GULP energy per Si atom -5581.719344 kJ/mol
# Density = 2.357685 g / cm^3
# Si number density = 23.630639 Si / 1000 Ang^3
#
#
#
# Elastic Constant Matrix: (Units=GPa)
#
#
# Indices 1 2 3 4 5 6 
#
# 1 91.0976 -15.8756 -1.0190 0.0000 0.0000 0.0000
# 2 -15.8756 49.0658 17.8802 0.0000 0.0000 0.0000
# 3 -1.0190 17.8802 66.2268 0.0000 0.0000 0.0000
# 4 0.0000 0.0000 0.0000 32.8715 0.0000 0.0000
# 5 0.0000 0.0000 0.0000 0.0000 38.5577 0.0000
# 6 0.0000 0.0000 0.0000 0.0000 0.0000 9.7363
#
#
#
# Elastic Compliance Matrix: (Units=1/GPa)
#
#
# Indices 1 2 3 4 5 6 
#
# 1 0.011685 0.004121 -0.000933 0.000000 0.000000 0.000000
# 2 0.004121 0.024058 -0.006432 0.000000 0.000000 0.000000
# 3 -0.000933 -0.006432 0.016822 0.000000 0.000000 0.000000
# 4 0.000000 0.000000 0.000000 0.030422 0.000000 0.000000
# 5 0.000000 0.000000 0.000000 0.000000 0.025935 0.000000
# 6 0.000000 0.000000 0.000000 0.000000 0.000000 0.102709
#
#
# Mechanical properties :
#
#
# Convention : Reuss Voigt Hill
#
# Bulk Modulus (GPa) = 21.70294 23.15127 22.42711
# Shear Modulus (GPa) = 21.41539 29.92672 25.67106
#
# Velocity S-wave (km/s) = 3.01367 3.56256 3.29955
# Velocity P-wave (km/s) = 4.61669 5.17116 4.90177
#
# Compressibility (1/GPa) = 0.04607671
#
# Stress axis : x y z
#
# Youngs Moduli (GPa) = 85.58048 41.56633 59.44668
#
# Poissons Ratio (x) = -0.17128 0.05545
# Poissons Ratio (y) = -0.35265 0.38235
# Poissons Ratio (z) = 0.07982 0.26735
#
# Static dielectric constant tensor:
#      x y z
#    x 1.900600 0.000000 0.000000 
#    y 0.000000 1.949980 0.000000 
#    z 0.000000 0.000000 1.913990 
# 
# From -- ./inp_files/4395.got.cif
#   From: 2010.05.17/outbox.cif.g08.bks.cpg/sg33_3_cif.got.tgz:4395.got - 2010.06.03 17:15:25.
