data_PCOD9345069
_publ_section_title
;
Structure prediction by ZEFSAII (Michael W. Deem and Ramdas Pophale) SiO2 
 PCOD9345069
Probable space group: P N A 21
;
_chemical_formula_sum "Si O2"
_cell_formula_units_Z 32
_cell_length_a 22.944565
_cell_length_b 5.095999
_cell_length_c 10.280453
_cell_angle_alpha 90.000000
_cell_angle_beta 90.000000
_cell_angle_gamma 90.000000
_cell_volume 1202.046905
_symmetry_space_group_name_H-M "P N A 21"
_symmetry_group_IT_number 33
_symmetry_cell_setting 'orthorhombic'
loop_
_space_group_symop_operation_xyz
x,y,z
-x,-y,1/2+z
1/2-x,1/2+y,1/2+z
1/2+x,1/2-y,z
loop_
_atom_site_type_symbol
_atom_site_label
_atom_site_fract_x
_atom_site_fract_y
_atom_site_fract_z
Si Si1 0.348181 0.763799 0.411990
Si Si2 0.755058 0.955514 0.004132
Si Si3 0.752708 0.782101 0.742128
Si Si4 0.845323 0.686484 0.135477
Si Si5 0.568238 0.822682 0.985705
Si Si6 0.467123 0.036974 0.133013
Si Si7 0.001725 0.024386 0.791411
Si Si8 0.877231 0.000464 0.685848
O O1 0.279919 0.810311 0.437089
O O2 0.355690 0.649549 0.268928
O O3 0.372636 0.650685 0.546002
O O4 0.384193 0.037577 0.396270
O O5 0.737685 0.021607 0.154734
O O6 0.821523 0.885398 0.028637
O O7 0.736955 0.741049 0.894239
O O8 0.813873 0.943893 0.743430
O O9 0.704724 0.967814 0.669797
O O10 0.903062 0.543365 0.091074
O O11 0.535285 0.575867 0.919501
O O12 0.514236 0.005302 0.020911
O O13 0.604255 0.775696 0.119616
O O14 0.486448 0.819463 0.241925
O O15 0.470654 0.329031 0.184682
O O16 0.932496 0.954585 0.780299
#
# Coordination Sequence:
#
# PCOD9345069 Si02
#       8
#     4   4   4   4   4   4   4   4
#     4  10  20  40  66  89 129 180 230 287 349 433
#     4  10  24  40  67  98 136 177 235 295 359 423
#     4  10  24  45  68 101 135 188 234 297 358 435
#     4  11  23  40  65  99 134 180 231 290 357 425
#     4  11  22  39  66  94 134 182 232 287 358 421
#     4  11  25  40  66 100 140 179 235 291 354 424
#     4  11  24  42  68 103 135 187 237 290 354 430
#     4  10  22  42  66  96 135 177 240 289 355 429
#
# _framework density 26.621257
#
# number of rings (size 3 to 8) (size 9 to 14) (size 15 to 20)
#    0.000    1.500    2.500    1.500    3.500    5.000 
#    0.000    2.500    0.000    0.000    0.000    0.000 
#    0.000    0.000    0.000    0.000    0.000    0.000 
#
# Total GULP energy -178370.147486 kJ/mol
# GULP energy per Si atom -5574.067109 kJ/mol
# Density = 2.656067 g / cm^3
# Si number density = 26.621257 Si / 1000 Ang^3
#
#
#
# Elastic Constant Matrix: (Units=GPa)
#
#
# Indices 1 2 3 4 5 6 
#
# 1 199.9473 24.7651 23.5033 0.0000 0.0000 0.0000
# 2 24.7651 66.4165 42.3855 0.0000 0.0000 0.0000
# 3 23.5033 42.3855 118.5213 0.0000 0.0000 0.0000
# 4 0.0000 0.0000 0.0000 34.6870 0.0000 0.0000
# 5 0.0000 0.0000 0.0000 0.0000 42.2016 0.0000
# 6 0.0000 0.0000 0.0000 0.0000 0.0000 29.6989
#
#
#
# Elastic Compliance Matrix: (Units=1/GPa)
#
#
# Indices 1 2 3 4 5 6 
#
# 1 0.005261 -0.001679 -0.000443 0.000000 0.000000 0.000000
# 2 -0.001679 0.020045 -0.006835 0.000000 0.000000 0.000000
# 3 -0.000443 -0.006835 0.010970 0.000000 0.000000 0.000000
# 4 0.000000 0.000000 0.000000 0.028829 0.000000 0.000000
# 5 0.000000 0.000000 0.000000 0.000000 0.023696 0.000000
# 6 0.000000 0.000000 0.000000 0.000000 0.000000 0.033671
#
#
# Mechanical properties :
#
#
# Convention : Reuss Voigt Hill
#
# Bulk Modulus (GPa) = 54.46370 62.91030 58.68700
# Shear Modulus (GPa) = 34.12796 40.93291 37.53044
#
# Velocity S-wave (km/s) = 3.58436 3.92548 3.75879
# Velocity P-wave (km/s) = 6.13460 6.65047 6.39774
#
# Compressibility (1/GPa) = 0.01836085
#
# Stress axis : x y z
#
# Youngs Moduli (GPa) = 190.06503 49.88809 91.16109
#
# Poissons Ratio (x) = 0.08377 0.04037
# Poissons Ratio (y) = 0.31916 0.62312
# Poissons Ratio (z) = 0.08417 0.34101
#
# Static dielectric constant tensor:
#      x y z
#    x 2.111030 0.000000 0.000000 
#    y 0.000000 2.221320 0.000000 
#    z 0.000000 0.000000 2.157850 
# 
# From -- ./inp_files/7340.got.cif
#   From: 2010.05.17/outbox.cif.g08.bks.cpg/sg33_4_cif.got.tgz:7340.got - 2010.06.03 17:15:25.
