data_PCOD9345743
_publ_section_title
;
Structure prediction by ZEFSAII (Michael W. Deem and Ramdas Pophale) SiO2 
 PCOD9345743
Probable space group: P N A 21
;
_chemical_formula_sum "Si O2"
_cell_formula_units_Z 28
_cell_length_a 22.715969
_cell_length_b 4.858225
_cell_length_c 11.192145
_cell_angle_alpha 90.000000
_cell_angle_beta 90.000000
_cell_angle_gamma 90.000000
_cell_volume 1235.157159
_symmetry_space_group_name_H-M "P N A 21"
_symmetry_group_IT_number 33
_symmetry_cell_setting 'orthorhombic'
loop_
_space_group_symop_operation_xyz
x,y,z
-x,-y,1/2+z
1/2-x,1/2+y,1/2+z
1/2+x,1/2-y,z
loop_
_atom_site_type_symbol
_atom_site_label
_atom_site_fract_x
_atom_site_fract_y
_atom_site_fract_z
Si Si1 0.998722 0.015119 0.432960
Si Si2 0.993170 0.511058 0.273730
Si Si3 0.824243 0.232713 0.054017
Si Si4 0.823520 0.003506 0.789349
Si Si5 0.908565 0.253999 0.611720
Si Si6 0.791593 0.495594 0.658653
Si Si7 0.398177 0.737583 0.106521
O O1 0.992240 0.198359 0.314392
O O2 0.940627 0.080885 0.510296
O O3 0.053702 0.130843 0.509472
O O4 0.005224 0.701315 0.390620
O O5 0.933880 0.621052 0.213239
O O6 0.043444 0.556601 0.175664
O O7 0.757365 0.163341 0.088827
O O8 0.851441 0.536275 0.059278
O O9 0.862681 0.035955 0.140201
O O10 0.830893 0.108648 0.921760
O O11 0.883048 0.058864 0.715735
O O12 0.777123 0.200750 0.718223
O O13 0.808558 0.687975 0.770713
O O14 0.850040 0.429688 0.580347
#
# Coordination Sequence:
#
# PCOD9345743 Si02
#       7
#     4   4   4   4   4   4   4
#     4  11  23  40  66  96 129 172 215 269 332 397
#     4  11  24  40  64  98 131 170 212 273 337 385
#     4  12  23  45  65  93 130 171 224 261 341 389
#     4  10  22  41  66  91 120 174 210 267 320 384
#     4   9  24  41  65  93 131 163 228 260 326 401
#     4  10  24  42  63  96 121 170 219 271 309 394
#     4  11  24  41  65  97 132 170 214 277 321 406
#
# _framework density 22.669177999999999
#
# number of rings (size 3 to 8) (size 9 to 14) (size 15 to 20)
#    0.857    0.571    0.000    5.143    6.000    2.286 
#    7.714    0.000    0.000    0.000    0.000    0.000 
#    0.000    0.000    0.000    0.000    0.000    0.000 
#
# Total GULP energy -156407.387573 kJ/mol
# GULP energy per Si atom -5585.978128 kJ/mol
# Density = 2.261758 g / cm^3
# Si number density = 22.669178 Si / 1000 Ang^3
#
#
#
# Elastic Constant Matrix: (Units=GPa)
#
#
# Indices 1 2 3 4 5 6 
#
# 1 105.3294 21.9648 21.9414 0.0000 0.0000 0.0000
# 2 21.9648 95.4198 -5.5779 0.0000 0.0000 0.0000
# 3 21.9414 -5.5779 32.9924 0.0000 0.0000 0.0000
# 4 0.0000 0.0000 0.0000 25.5908 0.0000 0.0000
# 5 0.0000 0.0000 0.0000 0.0000 22.2682 0.0000
# 6 0.0000 0.0000 0.0000 0.0000 0.0000 32.0813
#
#
#
# Elastic Compliance Matrix: (Units=1/GPa)
#
#
# Indices 1 2 3 4 5 6 
#
# 1 0.011939 -0.003244 -0.008488 0.000000 0.000000 0.000000
# 2 -0.003244 0.011466 0.004096 0.000000 0.000000 0.000000
# 3 -0.008488 0.004096 0.036648 0.000000 0.000000 0.000000
# 4 0.000000 0.000000 0.000000 0.039077 0.000000 0.000000
# 5 0.000000 0.000000 0.000000 0.000000 0.044907 0.000000
# 6 0.000000 0.000000 0.000000 0.000000 0.000000 0.031171
#
#
# Mechanical properties :
#
#
# Convention : Reuss Voigt Hill
#
# Bulk Modulus (GPa) = 22.33155 34.48871 28.41013
# Shear Modulus (GPa) = 24.34192 29.01561 26.67877
#
# Velocity S-wave (km/s) = 3.28043 3.58153 3.43428
# Velocity P-wave (km/s) = 4.92146 5.68772 5.31840
#
# Compressibility (1/GPa) = 0.04477970
#
# Stress axis : x y z
#
# Youngs Moduli (GPa) = 83.76028 87.21217 27.28686
#
# Poissons Ratio (x) = 0.28295 0.23162
# Poissons Ratio (y) = 0.27175 -0.11177
# Poissons Ratio (z) = 0.71099 -0.35724
#
# Static dielectric constant tensor:
#      x y z
#    x 1.910020 0.000000 0.000000 
#    y 0.000000 1.820910 0.000000 
#    z 0.000000 0.000000 1.833100 
# 
# From -- ./inp_files/7151.got.cif
#   From: 2010.05.17/outbox.cif.g08.bks.cpg/sg33_4_cif.got.tgz:7151.got - 2010.06.03 17:15:25.
