data_PCOD9345724
_publ_section_title
;
Structure prediction by ZEFSAII (Michael W. Deem and Ramdas Pophale) SiO2 
 PCOD9345724
Probable space group: P N A 21
;
_chemical_formula_sum "Si O2"
_cell_formula_units_Z 28
_cell_length_a 17.462912
_cell_length_b 8.065356
_cell_length_c 9.016204
_cell_angle_alpha 90.000000
_cell_angle_beta 90.000000
_cell_angle_gamma 90.000000
_cell_volume 1269.883665
_symmetry_space_group_name_H-M "P N A 21"
_symmetry_group_IT_number 33
_symmetry_cell_setting 'orthorhombic'
loop_
_space_group_symop_operation_xyz
x,y,z
-x,-y,1/2+z
1/2-x,1/2+y,1/2+z
1/2+x,1/2-y,z
loop_
_atom_site_type_symbol
_atom_site_label
_atom_site_fract_x
_atom_site_fract_y
_atom_site_fract_z
Si Si1 0.369722 0.777925 0.019020
Si Si2 0.226575 0.711320 0.212445
Si Si3 0.519870 0.370208 0.762678
Si Si4 0.527544 0.999602 0.333318
Si Si5 0.140460 0.019980 0.265469
Si Si6 0.390815 0.992747 0.528037
Si Si7 0.836095 0.868537 0.444700
O O1 0.297548 0.795211 0.126209
O O2 0.435523 0.683125 0.113719
O O3 0.407610 0.939633 0.947161
O O4 0.345152 0.658885 0.885608
O O5 0.178554 0.845409 0.303802
O O6 0.170281 0.618730 0.098650
O O7 0.268113 0.593340 0.331196
O O8 0.450368 0.495136 0.744807
O O9 0.584884 0.433652 0.874107
O O10 0.485038 0.197623 0.824613
O O11 0.554313 0.054689 0.168891
O O12 0.446739 0.063821 0.400269
O O13 0.175145 0.064245 0.107160
O O14 0.349446 0.829862 0.464047
#
# Coordination Sequence:
#
# PCOD9345724 Si02
#       7
#     4   4   4   4   4   4   4
#     4  11  23  40  60  91 124 163 202 258 312 370
#     4  11  25  42  58  90 133 162 202 255 317 374
#     4  10  22  41  62  91 123 156 206 261 309 363
#     4  11  20  40  67  88 119 165 210 258 297 381
#     4  12  22  38  64  88 118 162 203 256 308 366
#     4  11  22  43  66  90 123 168 212 251 312 373
#     4  10  24  40  63  90 126 162 203 257 311 371
#
# _framework density 22.049264999999998
#
# number of rings (size 3 to 8) (size 9 to 14) (size 15 to 20)
#    0.000    1.143    4.286    1.714    2.000    0.000 
#    0.000    0.000    0.000    0.000    0.000    0.000 
#    0.000    0.000    0.000    0.000    0.000    0.000 
#
# Total GULP energy -156485.387643 kJ/mol
# GULP energy per Si atom -5588.763844 kJ/mol
# Density = 2.199908 g / cm^3
# Si number density = 22.049265 Si / 1000 Ang^3
#
#
#
# Elastic Constant Matrix: (Units=GPa)
#
#
# Indices 1 2 3 4 5 6 
#
# 1 98.1166 12.7373 25.5475 0.0000 0.0000 0.0000
# 2 12.7373 16.7180 -4.9360 0.0000 0.0000 0.0000
# 3 25.5475 -4.9360 92.6516 0.0000 0.0000 0.0000
# 4 0.0000 0.0000 0.0000 10.2413 0.0000 0.0000
# 5 0.0000 0.0000 0.0000 0.0000 38.9050 0.0000
# 6 0.0000 0.0000 0.0000 0.0000 0.0000 18.1278
#
#
#
# Elastic Compliance Matrix: (Units=1/GPa)
#
#
# Indices 1 2 3 4 5 6 
#
# 1 0.012659 -0.010846 -0.004069 0.000000 0.000000 0.000000
# 2 -0.010846 0.070065 0.006723 0.000000 0.000000 0.000000
# 3 -0.004069 0.006723 0.012273 0.000000 0.000000 0.000000
# 4 0.000000 0.000000 0.000000 0.097644 0.000000 0.000000
# 5 0.000000 0.000000 0.000000 0.000000 0.025704 0.000000
# 6 0.000000 0.000000 0.000000 0.000000 0.000000 0.055164
#
#
# Mechanical properties :
#
#
# Convention : Reuss Voigt Hill
#
# Bulk Modulus (GPa) = 12.72030 30.46488 21.59259
# Shear Modulus (GPa) = 15.81795 25.06398 20.44097
#
# Velocity S-wave (km/s) = 2.68132 3.37520 3.04807
# Velocity P-wave (km/s) = 3.92015 5.38850 4.71187
#
# Compressibility (1/GPa) = 0.07861452
#
# Stress axis : x y z
#
# Youngs Moduli (GPa) = 78.99292 14.27251 81.47868
#
# Poissons Ratio (x) = 0.15480 0.33150
# Poissons Ratio (y) = 0.85678 -0.54782
# Poissons Ratio (z) = 0.32138 -0.09596
#
# Static dielectric constant tensor:
#      x y z
#    x 1.819510 0.000000 0.000000 
#    y 0.000000 1.798120 0.000000 
#    z 0.000000 0.000000 1.803850 
# 
# From -- ./inp_files/4774.got.cif
#   From: 2010.05.17/outbox.cif.g08.bks.cpg/sg33_3_cif.got.tgz:4774.got - 2010.06.03 17:15:25.
