data_PCOD9345750
_publ_section_title
;
Structure prediction by ZEFSAII (Michael W. Deem and Ramdas Pophale) SiO2 
 PCOD9345750
Probable space group: P N A 21
;
_chemical_formula_sum "Si O2"
_cell_formula_units_Z 24
_cell_length_a 20.297408
_cell_length_b 8.891395
_cell_length_c 5.048273
_cell_angle_alpha 90.000000
_cell_angle_beta 90.000000
_cell_angle_gamma 90.000000
_cell_volume 911.073298
_symmetry_space_group_name_H-M "P N A 21"
_symmetry_group_IT_number 33
_symmetry_cell_setting 'orthorhombic'
loop_
_space_group_symop_operation_xyz
x,y,z
-x,-y,1/2+z
1/2-x,1/2+y,1/2+z
1/2+x,1/2-y,z
loop_
_atom_site_type_symbol
_atom_site_label
_atom_site_fract_x
_atom_site_fract_y
_atom_site_fract_z
Si Si1 0.564801 0.362279 0.791700
Si Si2 0.588880 0.532407 0.290488
Si Si3 0.877361 0.292042 0.149751
Si Si4 0.217775 0.471763 0.487800
Si Si5 0.009225 0.406189 0.040327
Si Si6 0.757120 0.353002 0.473690
O O1 0.589116 0.392151 0.495764
O O2 0.486665 0.403964 0.787840
O O3 0.567339 0.199080 0.929826
O O4 0.599501 0.478430 0.992236
O O5 0.631434 0.659672 0.438200
O O6 0.852746 0.450390 0.030023
O O7 0.954705 0.305353 0.194672
O O8 0.830026 0.285940 0.402374
O O9 0.240634 0.524172 0.200918
O O10 0.217004 0.295876 0.535735
O O11 0.261256 0.561302 0.704453
O O12 0.978223 0.471126 0.766678
#
# Coordination Sequence:
#
# PCOD9345750 Si02
#       6
#     4   4   4   4   4   4
#     4   9  18  32  52  77 113 148 194 238 287 357
#     4   9  17  32  54  81 106 149 193 242 291 356
#     4   9  24  36  68  84 127 162 216 256 339 379
#     4  10  22  41  68  94 127 168 214 270 334 394
#     4  11  23  38  58  86 127 169 207 260 319 389
#     4  10  22  41  68  94 128 166 214 270 332 395
#
# _framework density 26.342559999999999
#
# number of rings (size 3 to 8) (size 9 to 14) (size 15 to 20)
#    1.000    1.333    0.000    2.000    4.667    2.667 
#    0.000    5.000    0.000    0.000    0.000    0.000 
#    0.000    0.000    0.000    0.000    0.000    0.000 
#
# Total GULP energy -134128.658831 kJ/mol
# GULP energy per Si atom -5588.694118 kJ/mol
# Density = 2.628260 g / cm^3
# Si number density = 26.342560 Si / 1000 Ang^3
#
#
#
# Elastic Constant Matrix: (Units=GPa)
#
#
# Indices 1 2 3 4 5 6 
#
# 1 41.4444 9.7913 -1.0071 0.0000 0.0000 0.0000
# 2 9.7913 58.9895 -7.5551 0.0000 0.0000 0.0000
# 3 -1.0071 -7.5551 125.3660 0.0000 0.0000 0.0000
# 4 0.0000 0.0000 0.0000 42.7586 0.0000 0.0000
# 5 0.0000 0.0000 0.0000 0.0000 15.3332 0.0000
# 6 0.0000 0.0000 0.0000 0.0000 0.0000 33.8771
#
#
#
# Elastic Compliance Matrix: (Units=1/GPa)
#
#
# Indices 1 2 3 4 5 6 
#
# 1 0.025114 -0.004175 -0.000050 0.000000 0.000000 0.000000
# 2 -0.004175 0.017778 0.001038 0.000000 0.000000 0.000000
# 3 -0.000050 0.001038 0.008039 0.000000 0.000000 0.000000
# 4 0.000000 0.000000 0.000000 0.023387 0.000000 0.000000
# 5 0.000000 0.000000 0.000000 0.000000 0.065218 0.000000
# 6 0.000000 0.000000 0.000000 0.000000 0.000000 0.029518
#
#
# Mechanical properties :
#
#
# Convention : Reuss Voigt Hill
#
# Bulk Modulus (GPa) = 22.44320 25.36201 23.90260
# Shear Modulus (GPa) = 26.27705 33.36518 29.82112
#
# Velocity S-wave (km/s) = 3.16177 3.56278 3.36825
# Velocity P-wave (km/s) = 4.67625 5.15492 4.92141
#
# Compressibility (1/GPa) = 0.04455693
#
# Stress axis : x y z
#
# Youngs Moduli (GPa) = 39.81871 56.24914 124.39684
#
# Poissons Ratio (x) = 0.23483 0.00620
# Poissons Ratio (y) = 0.16624 -0.12910
# Poissons Ratio (z) = 0.00198 -0.05838
#
# Static dielectric constant tensor:
#      x y z
#    x 2.156080 0.000000 0.000000 
#    y 0.000000 2.071020 0.000000 
#    z 0.000000 0.000000 2.006160 
# 
# From -- ./inp_files/2184.got.cif
#   From: 2010.05.17/outbox.cif.g08.bks.cpg/sg33_2_cif.got.tgz:2184.got - 2010.06.03 17:15:25.
