data_PCOD9345623
_publ_section_title
;
Structure prediction by ZEFSAII (Michael W. Deem and Ramdas Pophale) SiO2 
 PCOD9345623
Probable space group: P N A 21
;
_chemical_formula_sum "Si O2"
_cell_formula_units_Z 28
_cell_length_a 30.869602
_cell_length_b 5.398777
_cell_length_c 7.438942
_cell_angle_alpha 90.000000
_cell_angle_beta 90.000000
_cell_angle_gamma 90.000000
_cell_volume 1239.759919
_symmetry_space_group_name_H-M "P N A 21"
_symmetry_group_IT_number 33
_symmetry_cell_setting 'orthorhombic'
loop_
_space_group_symop_operation_xyz
x,y,z
-x,-y,1/2+z
1/2-x,1/2+y,1/2+z
1/2+x,1/2-y,z
loop_
_atom_site_type_symbol
_atom_site_label
_atom_site_fract_x
_atom_site_fract_y
_atom_site_fract_z
Si Si1 0.558028 0.514173 0.380080
Si Si2 0.171434 0.519011 0.649498
Si Si3 0.106286 0.485810 0.352249
Si Si4 0.241655 0.784581 0.252377
Si Si5 0.266254 0.281846 0.376792
Si Si6 0.457610 0.482413 0.457470
Si Si7 0.908809 0.518567 0.419038
O O1 0.577814 0.782144 0.422766
O O2 0.509370 0.481476 0.448497
O O3 0.554712 0.514120 0.165411
O O4 0.587333 0.275737 0.422500
O O5 0.151977 0.526204 0.450885
O O6 0.208549 0.316082 0.683825
O O7 0.197309 0.759191 0.723840
O O8 0.132466 0.477132 0.789660
O O9 0.104720 0.483236 0.133121
O O10 0.234151 0.051607 0.338744
O O11 0.244018 0.547146 0.375569
O O12 0.213996 0.740984 0.074081
O O13 0.436458 0.231049 0.381871
O O14 0.437612 0.736782 0.381666
#
# Coordination Sequence:
#
# PCOD9345623 Si02
#       7
#     4   4   4   4   4   4   4
#     4  10  22  38  60  87 121 164 212 262 317 373
#     4  10  26  38  72  90 132 168 214 256 340 374
#     4  10  23  40  57  91 126 161 212 264 315 376
#     4  10  23  43  66  99 131 166 220 261 330 398
#     4  10  23  43  66  99 131 166 220 261 330 398
#     4  10  22  38  60  87 121 164 212 262 317 373
#     4  10  23  40  57  91 126 161 212 264 315 376
#
# _framework density 22.585017000000001
#
# number of rings (size 3 to 8) (size 9 to 14) (size 15 to 20)
#    0.857    1.143    0.000    1.714    8.000    1.143 
#    0.000    0.000    0.000    0.000    0.000    0.000 
#    0.000    0.000    0.000    0.000    0.000    0.000 
#
# Total GULP energy -156227.535787 kJ/mol
# GULP energy per Si atom -5579.554850 kJ/mol
# Density = 2.253361 g / cm^3
# Si number density = 22.585017 Si / 1000 Ang^3
#
#
#
# Elastic Constant Matrix: (Units=GPa)
#
#
# Indices 1 2 3 4 5 6 
#
# 1 76.5027 6.4867 -0.6056 0.0000 0.0000 0.0000
# 2 6.4867 123.0901 8.9848 0.0000 0.0000 0.0000
# 3 -0.6056 8.9848 57.8430 0.0000 0.0000 0.0000
# 4 0.0000 0.0000 0.0000 9.3388 0.0000 0.0000
# 5 0.0000 0.0000 0.0000 0.0000 40.5616 0.0000
# 6 0.0000 0.0000 0.0000 0.0000 0.0000 8.9768
#
#
#
# Elastic Compliance Matrix: (Units=1/GPa)
#
#
# Indices 1 2 3 4 5 6 
#
# 1 0.013134 -0.000710 0.000248 0.000000 0.000000 0.000000
# 2 -0.000710 0.008256 -0.001290 0.000000 0.000000 0.000000
# 3 0.000248 -0.001290 0.017491 0.000000 0.000000 0.000000
# 4 0.000000 0.000000 0.000000 0.107080 0.000000 0.000000
# 5 0.000000 0.000000 0.000000 0.000000 0.024654 0.000000
# 6 0.000000 0.000000 0.000000 0.000000 0.000000 0.111398
#
#
# Mechanical properties :
#
#
# Convention : Reuss Voigt Hill
#
# Bulk Modulus (GPa) = 28.26772 31.90752 30.08762
# Shear Modulus (GPa) = 16.81753 27.94678 22.38216
#
# Velocity S-wave (km/s) = 2.73176 3.52149 3.15146
# Velocity P-wave (km/s) = 4.74271 5.54012 5.15685
#
# Compressibility (1/GPa) = 0.03537603
#
# Stress axis : x y z
#
# Youngs Moduli (GPa) = 76.14054 121.12836 57.17189
#
# Poissons Ratio (x) = 0.08603 -0.01417
# Poissons Ratio (y) = 0.05408 0.07374
# Poissons Ratio (z) = -0.01887 0.15623
#
# Static dielectric constant tensor:
#      x y z
#    x 1.890410 0.000000 0.000000 
#    y 0.000000 1.845460 0.000000 
#    z 0.000000 0.000000 1.899880 
# 
# From -- ./inp_files/5292.got.cif
#   From: 2010.05.17/outbox.cif.g08.bks.cpg/sg33_3_cif.got.tgz:5292.got - 2010.06.03 17:15:25.
