data_PCOD9345344
_publ_section_title
;
Structure prediction by ZEFSAII (Michael W. Deem and Ramdas Pophale) SiO2 
 PCOD9345344
Probable space group: P N A 21
;
_chemical_formula_sum "Si O2"
_cell_formula_units_Z 16
_cell_length_a 7.385998
_cell_length_b 12.847666
_cell_length_c 5.339368
_cell_angle_alpha 90.000000
_cell_angle_beta 90.000000
_cell_angle_gamma 90.000000
_cell_volume 506.667769
_symmetry_space_group_name_H-M "P N A 21"
_symmetry_group_IT_number 33
_symmetry_cell_setting 'orthorhombic'
loop_
_space_group_symop_operation_xyz
x,y,z
-x,-y,1/2+z
1/2-x,1/2+y,1/2+z
1/2+x,1/2-y,z
loop_
_atom_site_type_symbol
_atom_site_label
_atom_site_fract_x
_atom_site_fract_y
_atom_site_fract_z
Si Si1 0.158862 0.637935 0.339520
Si Si2 0.684602 0.776842 0.837218
Si Si3 0.303870 0.441933 0.567575
Si Si4 0.971605 0.139987 0.034326
O O1 0.520589 0.485049 0.075654
O O2 0.152067 0.525522 0.470635
O O3 0.371441 0.663037 0.313553
O O4 0.091202 0.663590 0.063083
O O5 0.593600 0.779455 0.555077
O O6 0.207467 0.885082 0.336302
O O7 0.874146 0.825181 0.768491
O O8 0.303788 0.348293 0.361436
#
# Coordination Sequence:
#
# PCOD9345344 Si02
#       4
#     4   4   4   4
#     4  10  26  34  64 102 128 165 220 279 336 382
#     4  12  22  38  62 102 129 163 221 281 330 389
#     4  10  21  39  65  94 127 167 226 275 319 390
#     4  10  21  39  65  94 130 173 227 279 325 385
#
# _framework density 31.578880999999999
#
# number of rings (size 3 to 8) (size 9 to 14) (size 15 to 20)
#    1.500    0.000    5.000    0.000   10.500    0.000 
#    0.000    0.000    0.000    6.000    0.000    0.000 
#    0.000    0.000    0.000    0.000    0.000    0.000 
#
# Total GULP energy -89085.690692 kJ/mol
# GULP energy per Si atom -5567.855668 kJ/mol
# Density = 3.150701 g / cm^3
# Si number density = 31.578881 Si / 1000 Ang^3
#
#
#
# Elastic Constant Matrix: (Units=GPa)
#
#
# Indices 1 2 3 4 5 6 
#
# 1 71.7762 63.6673 37.7825 0.0000 0.0000 0.0000
# 2 63.6673 313.4305 149.3424 0.0000 0.0000 0.0000
# 3 37.7825 149.3424 284.0839 0.0000 0.0000 0.0000
# 4 0.0000 0.0000 0.0000 80.9912 0.0000 0.0000
# 5 0.0000 0.0000 0.0000 0.0000 51.2054 0.0000
# 6 0.0000 0.0000 0.0000 0.0000 0.0000 78.2786
#
#
#
# Elastic Compliance Matrix: (Units=1/GPa)
#
#
# Indices 1 2 3 4 5 6 
#
# 1 0.017070 -0.003183 -0.000597 0.000000 0.000000 0.000000
# 2 -0.003183 0.004850 -0.002126 0.000000 0.000000 0.000000
# 3 -0.000597 -0.002126 0.004717 0.000000 0.000000 0.000000
# 4 0.000000 0.000000 0.000000 0.012347 0.000000 0.000000
# 5 0.000000 0.000000 0.000000 0.000000 0.019529 0.000000
# 6 0.000000 0.000000 0.000000 0.000000 0.000000 0.012775
#
#
# Mechanical properties :
#
#
# Convention : Reuss Voigt Hill
#
# Bulk Modulus (GPa) = 67.45516 130.09723 98.77620
# Shear Modulus (GPa) = 56.79058 69.99494 63.39276
#
# Velocity S-wave (km/s) = 4.24532 4.71309 4.48531
# Velocity P-wave (km/s) = 6.74074 8.42049 7.62700
#
# Compressibility (1/GPa) = 0.01482466
#
# Stress axis : x y z
#
# Youngs Moduli (GPa) = 58.58302 206.17468 211.98331
#
# Poissons Ratio (x) = 0.65624 0.12655
# Poissons Ratio (y) = 0.18647 0.45077
# Poissons Ratio (z) = 0.03497 0.43842
#
# Static dielectric constant tensor:
#      x y z
#    x 2.547080 0.000000 0.000000 
#    y 0.000000 2.544220 0.000000 
#    z 0.000000 0.000000 3.014310 
# 
# From -- ./inp_files/2927.got.cif
#   From: 2010.05.17/outbox.cif.g08.bks.cpg/sg33_2_cif.got.tgz:2927.got - 2010.06.03 17:15:25.
