data_PCOD9345604
_publ_section_title
;
Structure prediction by ZEFSAII (Michael W. Deem and Ramdas Pophale) SiO2 
 PCOD9345604
Probable space group: P N A 21
;
_chemical_formula_sum "Si O2"
_cell_formula_units_Z 32
_cell_length_a 8.116475
_cell_length_b 13.352738
_cell_length_c 13.737224
_cell_angle_alpha 90.000000
_cell_angle_beta 90.000000
_cell_angle_gamma 90.000000
_cell_volume 1488.801381
_symmetry_space_group_name_H-M "P N A 21"
_symmetry_group_IT_number 33
_symmetry_cell_setting 'orthorhombic'
loop_
_space_group_symop_operation_xyz
x,y,z
-x,-y,1/2+z
1/2-x,1/2+y,1/2+z
1/2+x,1/2-y,z
loop_
_atom_site_type_symbol
_atom_site_label
_atom_site_fract_x
_atom_site_fract_y
_atom_site_fract_z
Si Si1 0.818896 0.107026 0.453400
Si Si2 0.494970 0.063172 0.534126
Si Si3 0.071124 0.100713 0.710365
Si Si4 0.844403 0.693965 0.766077
Si Si5 0.421625 0.459376 0.896980
Si Si6 0.649391 0.757651 0.121089
Si Si7 0.314333 0.110698 0.330863
Si Si8 0.784941 0.084218 0.095113
O O1 0.679350 0.038010 0.502792
O O2 0.758677 0.130778 0.345305
O O3 0.816386 0.208645 0.515602
O O4 0.995235 0.055613 0.449620
O O5 0.493252 0.159146 0.604616
O O6 0.395352 0.100828 0.438358
O O7 0.386275 0.975348 0.577958
O O8 0.212540 0.175241 0.671857
O O9 0.908244 0.161572 0.680826
O O10 0.101936 0.994875 0.656044
O O11 0.058418 0.085991 0.825977
O O12 0.824825 0.806573 0.805847
O O13 0.758150 0.677650 0.662636
O O14 0.028245 0.648048 0.768573
O O15 0.277948 0.503699 0.827171
O O16 0.357074 0.395380 0.987814
#
# Coordination Sequence:
#
# PCOD9345604 Si02
#       8
#     4   4   4   4   4   4   4   4
#     4  11  19  33  63  92 123 156 210 264 332 372
#     4   9  20  34  56  90 122 156 204 270 321 381
#     4  11  23  39  63  93 126 168 218 264 328 385
#     4  11  21  37  60  94 125 168 208 270 330 388
#     4  11  23  42  62  95 131 171 213 275 325 394
#     4  11  20  36  59  92 123 163 208 269 317 386
#     4  10  22  36  62  89 127 160 213 268 326 382
#     4  10  22  39  59  91 131 162 214 270 325 390
#
# _framework density 21.4938
#
# number of rings (size 3 to 8) (size 9 to 14) (size 15 to 20)
#    0.000    1.500    5.000    0.750    1.750    1.000 
#    0.000    1.250    0.000    0.000    0.000    0.000 
#    0.000    0.000    0.000    0.000    0.000    0.000 
#
# Total GULP energy -178348.670236 kJ/mol
# GULP energy per Si atom -5573.395945 kJ/mol
# Density = 2.144488 g / cm^3
# Si number density = 21.493800 Si / 1000 Ang^3
#
#
#
# Elastic Constant Matrix: (Units=GPa)
#
#
# Indices 1 2 3 4 5 6 
#
# 1 54.7023 6.4290 18.4482 0.0000 0.0000 0.0000
# 2 6.4290 33.5092 25.7670 0.0000 0.0000 0.0000
# 3 18.4482 25.7670 88.0352 0.0000 0.0000 0.0000
# 4 0.0000 0.0000 0.0000 34.3125 0.0000 0.0000
# 5 0.0000 0.0000 0.0000 0.0000 27.3625 0.0000
# 6 0.0000 0.0000 0.0000 0.0000 0.0000 8.1582
#
#
#
# Elastic Compliance Matrix: (Units=1/GPa)
#
#
# Indices 1 2 3 4 5 6 
#
# 1 0.019687 -0.000780 -0.003897 0.000000 0.000000 0.000000
# 2 -0.000780 0.038541 -0.011117 0.000000 0.000000 0.000000
# 3 -0.003897 -0.011117 0.015430 0.000000 0.000000 0.000000
# 4 0.000000 0.000000 0.000000 0.029144 0.000000 0.000000
# 5 0.000000 0.000000 0.000000 0.000000 0.036546 0.000000
# 6 0.000000 0.000000 0.000000 0.000000 0.000000 0.122577
#
#
# Mechanical properties :
#
#
# Convention : Reuss Voigt Hill
#
# Bulk Modulus (GPa) = 23.77092 30.83724 27.30408
# Shear Modulus (GPa) = 16.25830 22.34014 19.29922
#
# Velocity S-wave (km/s) = 2.75329 3.22743 2.99974
# Velocity P-wave (km/s) = 4.60336 5.31664 4.97280
#
# Compressibility (1/GPa) = 0.04206821
#
# Stress axis : x y z
#
# Youngs Moduli (GPa) = 50.79555 25.94662 64.81078
#
# Poissons Ratio (x) = 0.02025 0.25257
# Poissons Ratio (y) = 0.03964 0.72050
# Poissons Ratio (z) = 0.19795 0.28845
#
# Static dielectric constant tensor:
#      x y z
#    x 1.853070 0.000000 0.000000 
#    y 0.000000 1.769820 0.000000 
#    z 0.000000 0.000000 1.806060 
# 
# From -- ./inp_files/5949.got.cif
#   From: 2010.05.17/outbox.cif.g08.bks.cpg/sg33_3_cif.got.tgz:5949.got - 2010.06.03 17:15:25.
