data_PCOD9345789
_publ_section_title
;
Structure prediction by ZEFSAII (Michael W. Deem and Ramdas Pophale) SiO2 
 PCOD9345789
Probable space group: P N A 21
;
_chemical_formula_sum "Si O2"
_cell_formula_units_Z 28
_cell_length_a 22.994947
_cell_length_b 8.873609
_cell_length_c 5.134313
_cell_angle_alpha 90.000000
_cell_angle_beta 90.000000
_cell_angle_gamma 90.000000
_cell_volume 1047.647165
_symmetry_space_group_name_H-M "P N A 21"
_symmetry_group_IT_number 33
_symmetry_cell_setting 'orthorhombic'
loop_
_space_group_symop_operation_xyz
x,y,z
-x,-y,1/2+z
1/2-x,1/2+y,1/2+z
1/2+x,1/2-y,z
loop_
_atom_site_type_symbol
_atom_site_label
_atom_site_fract_x
_atom_site_fract_y
_atom_site_fract_z
Si Si1 0.966053 0.563962 0.884110
Si Si2 0.583125 0.628561 0.558512
Si Si3 0.640503 0.210672 0.971703
Si Si4 0.805544 0.981063 0.142518
Si Si5 0.752666 0.277346 0.265747
Si Si6 0.469926 0.668965 0.262386
Si Si7 0.640969 0.926737 0.598048
O O1 0.899985 0.497737 0.873119
O O2 0.001908 0.519778 0.629119
O O3 0.962515 0.732823 0.001149
O O4 0.642832 0.550329 0.463179
O O5 0.536766 0.671556 0.341838
O O6 0.550682 0.502681 0.728478
O O7 0.604476 0.780986 0.696169
O O8 0.665356 0.345977 0.794092
O O9 0.687071 0.225546 0.201071
O O10 0.572597 0.254712 0.977503
O O11 0.644930 0.057022 0.811068
O O12 0.754668 0.905947 0.978565
O O13 0.784530 0.119581 0.320423
O O14 0.794732 0.357368 0.050531
#
# Coordination Sequence:
#
# PCOD9345789 Si02
#       7
#     4   4   4   4   4   4   4
#     4  11  24  47  72 109 149 197 251 312 382 452
#     4  10  22  42  66  99 142 182 245 306 377 458
#     4  10  23  44  64  98 133 181 241 305 363 459
#     4  10  24  41  67  97 136 182 241 305 374 451
#     4  11  22  44  66  99 135 184 243 300 381 447
#     4  10  23  41  67 100 141 188 243 308 375 454
#     4  10  22  45  66 104 140 180 248 304 378 455
#
# _framework density 26.726558000000001
#
# number of rings (size 3 to 8) (size 9 to 14) (size 15 to 20)
#    0.000    1.714    2.857    0.000    6.000    0.000 
#   15.429    0.000    0.000    0.000    0.000    0.000 
#    0.000    0.000    0.000    0.000    0.000    0.000 
#
# Total GULP energy -156601.451817 kJ/mol
# GULP energy per Si atom -5592.908993 kJ/mol
# Density = 2.666573 g / cm^3
# Si number density = 26.726558 Si / 1000 Ang^3
#
#
#
# Elastic Constant Matrix: (Units=GPa)
#
#
# Indices 1 2 3 4 5 6 
#
# 1 124.5573 59.6848 44.2744 0.0000 0.0000 0.0000
# 2 59.6848 179.8951 10.5517 0.0000 0.0000 0.0000
# 3 44.2744 10.5517 55.0286 0.0000 0.0000 0.0000
# 4 0.0000 0.0000 0.0000 19.6037 0.0000 0.0000
# 5 0.0000 0.0000 0.0000 0.0000 33.1921 0.0000
# 6 0.0000 0.0000 0.0000 0.0000 0.0000 70.0831
#
#
#
# Elastic Compliance Matrix: (Units=1/GPa)
#
#
# Indices 1 2 3 4 5 6 
#
# 1 0.013477 -0.003879 -0.010099 0.000000 0.000000 0.000000
# 2 -0.003879 0.006738 0.001829 0.000000 0.000000 0.000000
# 3 -0.010099 0.001829 0.025947 0.000000 0.000000 0.000000
# 4 0.000000 0.000000 0.000000 0.051011 0.000000 0.000000
# 5 0.000000 0.000000 0.000000 0.000000 0.030128 0.000000
# 6 0.000000 0.000000 0.000000 0.000000 0.000000 0.014269
#
#
# Mechanical properties :
#
#
# Convention : Reuss Voigt Hill
#
# Bulk Modulus (GPa) = 45.73786 65.38918 55.56352
# Shear Modulus (GPa) = 28.87550 40.90713 34.89131
#
# Velocity S-wave (km/s) = 3.29052 3.91651 3.61708
# Velocity P-wave (km/s) = 5.62024 6.70605 6.18701
#
# Compressibility (1/GPa) = 0.02186373
#
# Stress axis : x y z
#
# Youngs Moduli (GPa) = 74.20032 148.40156 38.53947
#
# Poissons Ratio (x) = 0.57565 0.38923
# Poissons Ratio (y) = 0.28782 -0.07048
# Poissons Ratio (z) = 0.74938 -0.27140
#
# Static dielectric constant tensor:
#      x y z
#    x 2.150590 0.000000 0.000000 
#    y 0.000000 2.093940 0.000000 
#    z 0.000000 0.000000 2.128400 
# 
# From -- ./inp_files/2211.got.cif
#   From: 2010.05.17/outbox.cif.g08.bks.cpg/sg33_2_cif.got.tgz:2211.got - 2010.06.03 17:15:25.
