data_PCOD9345006
_publ_section_title
;
Structure prediction by ZEFSAII (Michael W. Deem and Ramdas Pophale) SiO2 
 PCOD9345006
Probable space group: P N A 21
;
_chemical_formula_sum "Si O2"
_cell_formula_units_Z 32
_cell_length_a 9.206037
_cell_length_b 13.137602
_cell_length_c 10.650512
_cell_angle_alpha 90.000000
_cell_angle_beta 90.000000
_cell_angle_gamma 90.000000
_cell_volume 1288.128838
_symmetry_space_group_name_H-M "P N A 21"
_symmetry_group_IT_number 33
_symmetry_cell_setting 'orthorhombic'
loop_
_space_group_symop_operation_xyz
x,y,z
-x,-y,1/2+z
1/2-x,1/2+y,1/2+z
1/2+x,1/2-y,z
loop_
_atom_site_type_symbol
_atom_site_label
_atom_site_fract_x
_atom_site_fract_y
_atom_site_fract_z
Si Si1 0.514000 0.417578 0.093960
Si Si2 0.239792 0.940001 0.161670
Si Si3 0.239675 0.421790 0.942672
Si Si4 0.390226 0.720366 0.103488
Si Si5 0.956672 0.409722 0.027927
Si Si6 0.654924 0.774843 0.928428
Si Si7 0.699087 0.315798 0.878670
Si Si8 0.409006 0.776771 0.747039
O O1 0.587249 0.527717 0.100732
O O2 0.559249 0.341416 0.207310
O O3 0.345993 0.426006 0.060578
O O4 0.584658 0.366107 0.971485
O O5 0.206296 0.956609 0.307813
O O6 0.319949 0.834804 0.124760
O O7 0.348762 0.026001 0.112038
O O8 0.210138 0.303008 0.909395
O O9 0.085317 0.473609 0.967306
O O10 0.360812 0.670764 0.238468
O O11 0.549420 0.733117 0.042504
O O12 0.284324 0.669090 0.000993
O O13 0.047664 0.335353 0.119798
O O14 0.857317 0.359324 0.919108
O O15 0.529661 0.817876 0.841843
O O16 0.755615 0.714439 0.821925
#
# Coordination Sequence:
#
# PCOD9345006 Si02
#       8
#     4   4   4   4   4   4   4   4
#     4  11  22  41  69  99 129 178 226 294 337 412
#     4  10  26  40  60  97 148 164 219 287 358 400
#     4  11  21  39  67  97 128 175 220 286 337 409
#     4  10  24  42  63  98 135 183 224 279 347 419
#     4  11  22  41  70 101 130 179 224 299 340 414
#     4  10  23  38  64  90 136 181 219 278 333 425
#     4  10  20  38  69 100 126 164 243 281 337 406
#     4  11  20  39  66  98 124 172 245 272 337 411
#
# _framework density 24.842237999999998
#
# number of rings (size 3 to 8) (size 9 to 14) (size 15 to 20)
#    0.000    1.500    2.500    2.250    7.000    4.000 
#    0.000    3.750    0.000    0.000    0.000    0.000 
#    0.000    0.000    0.000    0.000    0.000    0.000 
#
# Total GULP energy -178479.512352 kJ/mol
# GULP energy per Si atom -5577.484761 kJ/mol
# Density = 2.478570 g / cm^3
# Si number density = 24.842238 Si / 1000 Ang^3
#
#
#
# Elastic Constant Matrix: (Units=GPa)
#
#
# Indices 1 2 3 4 5 6 
#
# 1 181.3664 13.7941 54.1001 0.0000 0.0000 0.0000
# 2 13.7941 58.7104 29.1740 0.0000 0.0000 0.0000
# 3 54.1001 29.1740 146.7932 0.0000 0.0000 0.0000
# 4 0.0000 0.0000 0.0000 24.7871 0.0000 0.0000
# 5 0.0000 0.0000 0.0000 0.0000 51.8500 0.0000
# 6 0.0000 0.0000 0.0000 0.0000 0.0000 14.1613
#
#
#
# Elastic Compliance Matrix: (Units=1/GPa)
#
#
# Indices 1 2 3 4 5 6 
#
# 1 0.006201 -0.000357 -0.002215 0.000000 0.000000 0.000000
# 2 -0.000357 0.018920 -0.003629 0.000000 0.000000 0.000000
# 3 -0.002215 -0.003629 0.008350 0.000000 0.000000 0.000000
# 4 0.000000 0.000000 0.000000 0.040344 0.000000 0.000000
# 5 0.000000 0.000000 0.000000 0.000000 0.019286 0.000000
# 6 0.000000 0.000000 0.000000 0.000000 0.000000 0.070615
#
#
# Mechanical properties :
#
#
# Convention : Reuss Voigt Hill
#
# Bulk Modulus (GPa) = 47.45871 64.55626 56.00749
# Shear Modulus (GPa) = 27.30166 37.47981 32.39074
#
# Velocity S-wave (km/s) = 3.31872 3.88843 3.61481
# Velocity P-wave (km/s) = 5.81641 6.79726 6.32588
#
# Compressibility (1/GPa) = 0.02107095
#
# Stress axis : x y z
#
# Youngs Moduli (GPa) = 161.25316 52.85495 119.76486
#
# Poissons Ratio (x) = 0.01884 0.26524
# Poissons Ratio (y) = 0.05749 0.43460
# Poissons Ratio (z) = 0.35712 0.19180
#
# Static dielectric constant tensor:
#      x y z
#    x 1.985340 0.000000 0.000000 
#    y 0.000000 2.075450 0.000000 
#    z 0.000000 0.000000 2.024450 
# 
# From -- ./inp_files/5950.got.cif
#   From: 2010.05.17/outbox.cif.g08.bks.cpg/sg33_3_cif.got.tgz:5950.got - 2010.06.03 17:15:25.
