data_PCOD9345474
_publ_section_title
;
Structure prediction by ZEFSAII (Michael W. Deem and Ramdas Pophale) SiO2 
 PCOD9345474
Probable space group: P N A 21
;
_chemical_formula_sum "Si O2"
_cell_formula_units_Z 32
_cell_length_a 9.517615
_cell_length_b 10.911796
_cell_length_c 13.526916
_cell_angle_alpha 90.000000
_cell_angle_beta 90.000000
_cell_angle_gamma 90.000000
_cell_volume 1404.828031
_symmetry_space_group_name_H-M "P N A 21"
_symmetry_group_IT_number 33
_symmetry_cell_setting 'orthorhombic'
loop_
_space_group_symop_operation_xyz
x,y,z
-x,-y,1/2+z
1/2-x,1/2+y,1/2+z
1/2+x,1/2-y,z
loop_
_atom_site_type_symbol
_atom_site_label
_atom_site_fract_x
_atom_site_fract_y
_atom_site_fract_z
Si Si1 0.853871 0.771248 0.827540
Si Si2 0.859690 0.884200 0.465021
Si Si3 0.874575 0.163992 0.446800
Si Si4 0.520841 0.644285 0.167452
Si Si5 0.609241 0.604307 0.599564
Si Si6 0.116758 0.469892 0.191528
Si Si7 0.171820 0.633098 0.660486
Si Si8 0.250995 0.221667 0.769556
O O1 0.002390 0.809358 0.869700
O O2 0.754743 0.749950 0.921859
O O3 0.864258 0.641701 0.769391
O O4 0.772066 0.863647 0.755267
O O5 0.768529 0.869554 0.563880
O O6 0.807398 0.793492 0.380288
O O7 0.023348 0.878103 0.497853
O O8 0.834483 0.022728 0.430961
O O9 0.925142 0.179675 0.558901
O O10 0.469126 0.504612 0.157627
O O11 0.645283 0.667782 0.244714
O O12 0.386000 0.721259 0.200540
O O13 0.772755 0.563932 0.603490
O O14 0.598128 0.733371 0.654679
O O15 0.162925 0.598319 0.238910
O O16 0.953909 0.464145 0.160493
#
# Coordination Sequence:
#
# PCOD9345474 Si02
#       8
#     4   4   4   4   4   4   4   4
#     4  11  21  40  70 102 139 176 236 294 352 423
#     4  11  25  41  68 101 143 184 235 297 360 426
#     4  11  23  42  69 102 137 186 242 287 354 427
#     4  10  24  44  67  94 140 189 231 289 349 424
#     4   9  21  42  69  99 133 182 229 288 350 421
#     4  10  21  41  67  98 138 177 227 292 347 422
#     4  11  23  41  70 106 137 179 232 296 363 417
#     4  11  24  45  64  96 141 187 232 285 359 420
#
# _framework density 22.778589
#
# number of rings (size 3 to 8) (size 9 to 14) (size 15 to 20)
#    0.000    1.500    2.500    2.250    3.500    4.000 
#    0.000    2.500    0.000    0.000    0.000    0.000 
#    0.000    0.000    0.000    0.000    0.000    0.000 
#
# Total GULP energy -179015.674814 kJ/mol
# GULP energy per Si atom -5594.239838 kJ/mol
# Density = 2.272674 g / cm^3
# Si number density = 22.778589 Si / 1000 Ang^3
#
#
#
# Elastic Constant Matrix: (Units=GPa)
#
#
# Indices 1 2 3 4 5 6 
#
# 1 51.5055 18.9497 14.2179 0.0000 0.0000 0.0000
# 2 18.9497 57.0830 10.7077 0.0000 0.0000 0.0000
# 3 14.2179 10.7077 73.1966 0.0000 0.0000 0.0000
# 4 0.0000 0.0000 0.0000 16.4313 0.0000 0.0000
# 5 0.0000 0.0000 0.0000 0.0000 42.0499 0.0000
# 6 0.0000 0.0000 0.0000 0.0000 0.0000 33.4208
#
#
#
# Elastic Compliance Matrix: (Units=1/GPa)
#
#
# Indices 1 2 3 4 5 6 
#
# 1 0.022927 -0.006967 -0.003434 0.000000 0.000000 0.000000
# 2 -0.006967 0.020130 -0.001591 0.000000 0.000000 0.000000
# 3 -0.003434 -0.001591 0.014562 0.000000 0.000000 0.000000
# 4 0.000000 0.000000 0.000000 0.060859 0.000000 0.000000
# 5 0.000000 0.000000 0.000000 0.000000 0.023781 0.000000
# 6 0.000000 0.000000 0.000000 0.000000 0.000000 0.029922
#
#
# Mechanical properties :
#
#
# Convention : Reuss Voigt Hill
#
# Bulk Modulus (GPa) = 29.73254 29.94842 29.84048
# Shear Modulus (GPa) = 24.11081 27.57439 25.84260
#
# Velocity S-wave (km/s) = 3.25697 3.48306 3.37191
# Velocity P-wave (km/s) = 5.21775 5.41772 5.31868
#
# Compressibility (1/GPa) = 0.03363319
#
# Stress axis : x y z
#
# Youngs Moduli (GPa) = 43.61753 49.67813 68.67331
#
# Poissons Ratio (x) = 0.34609 0.23584
# Poissons Ratio (y) = 0.30387 0.10929
# Poissons Ratio (z) = 0.14979 0.07906
#
# Static dielectric constant tensor:
#      x y z
#    x 1.873370 0.000000 0.000000 
#    y 0.000000 1.851330 0.000000 
#    z 0.000000 0.000000 1.857140 
# 
# From -- ./inp_files/7653.got.cif
#   From: 2010.05.17/outbox.cif.g08.bks.cpg/sg33_4_cif.got.tgz:7653.got - 2010.06.03 17:15:25.
