data_PCOD9345305
_publ_section_title
;
Structure prediction by ZEFSAII (Michael W. Deem and Ramdas Pophale) SiO2 
 PCOD9345305
Probable space group: P N A 21
;
_chemical_formula_sum "Si O2"
_cell_formula_units_Z 32
_cell_length_a 12.669560
_cell_length_b 7.919430
_cell_length_c 12.606089
_cell_angle_alpha 90.000000
_cell_angle_beta 90.000000
_cell_angle_gamma 90.000000
_cell_volume 1264.840683
_symmetry_space_group_name_H-M "P N A 21"
_symmetry_group_IT_number 33
_symmetry_cell_setting 'orthorhombic'
loop_
_space_group_symop_operation_xyz
x,y,z
-x,-y,1/2+z
1/2-x,1/2+y,1/2+z
1/2+x,1/2-y,z
loop_
_atom_site_type_symbol
_atom_site_label
_atom_site_fract_x
_atom_site_fract_y
_atom_site_fract_z
Si Si1 0.145424 0.910244 0.429090
Si Si2 0.307374 0.443263 0.293149
Si Si3 0.314981 0.492990 0.710386
Si Si4 0.951270 0.743310 0.304149
Si Si5 0.295993 0.037101 0.994285
Si Si6 0.032823 0.468077 0.995166
Si Si7 0.464203 0.353209 0.135316
Si Si8 0.866809 0.386030 0.674221
O O1 0.196486 0.026882 0.337070
O O2 0.203005 0.730196 0.450061
O O3 0.104670 0.958436 0.547008
O O4 0.038011 0.852160 0.369350
O O5 0.366961 0.621047 0.271019
O O6 0.284917 0.437768 0.418249
O O7 0.386886 0.317702 0.234470
O O8 0.195236 0.464836 0.233750
O O9 0.236531 0.548291 0.616736
O O10 0.430993 0.553122 0.673582
O O11 0.313432 0.290733 0.699782
O O12 0.918139 0.605920 0.389237
O O13 0.013779 0.642519 0.214693
O O14 0.414111 0.964196 0.976300
O O15 0.005954 0.313307 0.075739
O O16 0.119672 0.580420 0.051279
#
# Coordination Sequence:
#
# PCOD9345305 Si02
#       8
#     4   4   4   4   4   4   4   4
#     4   9  19  42  62  98 131 176 222 283 356 401
#     4  12  20  40  71  96 129 182 236 277 343 423
#     4  11  21  40  71 100 127 187 234 281 356 420
#     4   9  19  41  66  87 127 177 212 274 338 414
#     4  10  21  38  68  94 133 180 231 280 350 432
#     4  10  23  44  63  95 136 180 218 289 357 406
#     4  10  22  38  69  96 131 179 232 290 331 425
#     4  11  23  41  66 100 132 175 225 290 349 409
#
# _framework density 25.299627999999998
#
# number of rings (size 3 to 8) (size 9 to 14) (size 15 to 20)
#    0.000    2.000    6.250    1.500    1.750    4.000 
#    2.250    0.000   11.000    0.000    0.000    0.000 
#    0.000    0.000    0.000    0.000    0.000    0.000 
#
# Total GULP energy -178665.812371 kJ/mol
# GULP energy per Si atom -5583.306637 kJ/mol
# Density = 2.524204 g / cm^3
# Si number density = 25.299628 Si / 1000 Ang^3
#
#
#
# Elastic Constant Matrix: (Units=GPa)
#
#
# Indices 1 2 3 4 5 6 
#
# 1 68.0567 4.5122 17.1856 0.0000 0.0000 0.0000
# 2 4.5122 21.7181 16.0973 0.0000 0.0000 0.0000
# 3 17.1856 16.0973 106.5520 0.0000 0.0000 0.0000
# 4 0.0000 0.0000 0.0000 47.4790 0.0000 0.0000
# 5 0.0000 0.0000 0.0000 0.0000 50.3917 0.0000
# 6 0.0000 0.0000 0.0000 0.0000 0.0000 -0.3181
#
#
#
# Elastic Compliance Matrix: (Units=1/GPa)
#
#
# Indices 1 2 3 4 5 6 
#
# 1 0.015362 -0.001526 -0.002247 0.000000 0.000000 0.000000
# 2 -0.001526 0.052002 -0.007610 0.000000 0.000000 0.000000
# 3 -0.002247 -0.007610 0.010897 0.000000 0.000000 0.000000
# 4 0.000000 0.000000 0.000000 0.021062 0.000000 0.000000
# 5 0.000000 0.000000 0.000000 0.000000 0.019845 0.000000
# 6 0.000000 0.000000 0.000000 0.000000 0.000000 -3.143591
#
#
# Mechanical properties :
#
#
# Convention : Reuss Voigt Hill
#
# Bulk Modulus (GPa) = 18.01965 30.21300 24.11633
# Shear Modulus (GPa) = -1.67608 30.07930 14.20161
#
# Velocity S-wave (km/s) = -0.81482 3.45182 2.37183
# Velocity P-wave (km/s) = 2.50054 5.27776 4.12961
#
# Compressibility (1/GPa) = 0.05549498
#
# Stress axis : x y z
#
# Youngs Moduli (GPa) = 65.09449 19.22995 91.76649
#
# Poissons Ratio (x) = 0.02935 0.20622
# Poissons Ratio (y) = 0.09934 0.69835
# Poissons Ratio (z) = 0.14628 0.14634
#
# Static dielectric constant tensor:
#      x y z
#    x 2.074480 0.000000 0.000000 
#    y 0.000000 2.016100 0.000000 
#    z 0.000000 0.000000 2.071190 
# 
# From -- ./inp_files/6766.got.cif
#   From: 2010.05.17/outbox.cif.g08.bks.cpg/sg33_4_cif.got.tgz:6766.got - 2010.06.03 17:15:25.
