data_PCOD9345012
_publ_section_title
;
Structure prediction by ZEFSAII (Michael W. Deem and Ramdas Pophale) SiO2 
 PCOD9345012
Probable space group: P N A 21
;
_chemical_formula_sum "Si O2"
_cell_formula_units_Z 28
_cell_length_a 7.580629
_cell_length_b 12.182872
_cell_length_c 13.654542
_cell_angle_alpha 90.000000
_cell_angle_beta 90.000000
_cell_angle_gamma 90.000000
_cell_volume 1261.049289
_symmetry_space_group_name_H-M "P N A 21"
_symmetry_group_IT_number 33
_symmetry_cell_setting 'orthorhombic'
loop_
_space_group_symop_operation_xyz
x,y,z
-x,-y,1/2+z
1/2-x,1/2+y,1/2+z
1/2+x,1/2-y,z
loop_
_atom_site_type_symbol
_atom_site_label
_atom_site_fract_x
_atom_site_fract_y
_atom_site_fract_z
Si Si1 0.214300 0.277441 0.433110
Si Si2 0.766737 0.387327 0.167121
Si Si3 0.384691 0.329205 0.225795
Si Si4 0.376038 0.068870 0.458167
Si Si5 0.583143 0.073860 0.785072
Si Si6 0.859714 0.112996 0.625726
Si Si7 0.242541 0.564813 0.173300
O O1 0.320546 0.301065 0.334181
O O2 0.204582 0.144883 0.436947
O O3 0.312743 0.310975 0.534497
O O4 0.043292 0.354721 0.432478
O O5 0.590090 0.354503 0.223784
O O6 0.851356 0.269351 0.147971
O O7 0.898765 0.450957 0.238887
O O8 0.697502 0.486210 0.097242
O O9 0.289638 0.440538 0.198339
O O10 0.371004 0.057261 0.574349
O O11 0.382952 0.955100 0.398282
O O12 0.735918 0.133583 0.721651
O O13 0.388767 0.113840 0.755372
O O14 0.065393 0.119038 0.654918
#
# Coordination Sequence:
#
# PCOD9345012 Si02
#       7
#     4   4   4   4   4   4   4
#     4  12  21  35  58  93 120 152 201 252 294 352
#     4   9  19  33  53  85 113 152 187 243 288 346
#     4  11  19  33  58  85 118 150 195 248 292 347
#     4  12  23  35  62  92 124 157 203 254 294 366
#     4  10  20  39  53  85 121 153 197 239 306 342
#     4   9  22  36  55  85 123 157 195 244 301 359
#     4  11  22  37  55  85 119 163 192 248 307 350
#
# _framework density 22.203731999999999
#
# number of rings (size 3 to 8) (size 9 to 14) (size 15 to 20)
#    0.857    0.571    4.286    2.571    2.000    0.000 
#    0.000    0.000    0.000    1.714    3.714    0.000 
#    0.000    0.000    0.000    0.000    0.000    0.000 
#
# Total GULP energy -156016.502213 kJ/mol
# GULP energy per Si atom -5572.017936 kJ/mol
# Density = 2.215320 g / cm^3
# Si number density = 22.203732 Si / 1000 Ang^3
#
#
#
# Elastic Constant Matrix: (Units=GPa)
#
#
# Indices 1 2 3 4 5 6 
#
# 1 116.3171 19.8776 6.3095 0.0000 0.0000 0.0000
# 2 19.8776 59.0552 34.1699 0.0000 0.0000 0.0000
# 3 6.3095 34.1699 60.7915 0.0000 0.0000 0.0000
# 4 0.0000 0.0000 0.0000 25.9375 0.0000 0.0000
# 5 0.0000 0.0000 0.0000 0.0000 26.2040 0.0000
# 6 0.0000 0.0000 0.0000 0.0000 0.0000 26.8790
#
#
#
# Elastic Compliance Matrix: (Units=1/GPa)
#
#
# Indices 1 2 3 4 5 6 
#
# 1 0.009177 -0.003761 0.001162 0.000000 0.000000 0.000000
# 2 -0.003761 0.026636 -0.014581 0.000000 0.000000 0.000000
# 3 0.001162 -0.014581 0.024525 0.000000 0.000000 0.000000
# 4 0.000000 0.000000 0.000000 0.038554 0.000000 0.000000
# 5 0.000000 0.000000 0.000000 0.000000 0.038162 0.000000
# 6 0.000000 0.000000 0.000000 0.000000 0.000000 0.037204
#
#
# Mechanical properties :
#
#
# Convention : Reuss Voigt Hill
#
# Bulk Modulus (GPa) = 38.49639 39.65307 39.07473
# Shear Modulus (GPa) = 23.01192 27.52456 25.26824
#
# Velocity S-wave (km/s) = 3.22281 3.52467 3.37711
# Velocity P-wave (km/s) = 5.58785 5.87042 5.73088
#
# Compressibility (1/GPa) = 0.02597646
#
# Stress axis : x y z
#
# Youngs Moduli (GPa) = 108.96929 37.54296 40.77458
#
# Poissons Ratio (x) = 0.14120 -0.04736
# Poissons Ratio (y) = 0.40983 0.59455
# Poissons Ratio (z) = -0.12657 0.54743
#
# Static dielectric constant tensor:
#      x y z
#    x 1.894440 0.000000 0.000000 
#    y 0.000000 1.904400 0.000000 
#    z 0.000000 0.000000 1.844240 
# 
# From -- ./inp_files/5936.got.cif
#   From: 2010.05.17/outbox.cif.g08.bks.cpg/sg33_3_cif.got.tgz:5936.got - 2010.06.03 17:15:25.
