data_PCOD9345430
_publ_section_title
;
Structure prediction by ZEFSAII (Michael W. Deem and Ramdas Pophale) SiO2 
 PCOD9345430
Probable space group: P N A 21
;
_chemical_formula_sum "Si O2"
_cell_formula_units_Z 32
_cell_length_a 13.100423
_cell_length_b 9.283237
_cell_length_c 13.344916
_cell_angle_alpha 90.000000
_cell_angle_beta 90.000000
_cell_angle_gamma 90.000000
_cell_volume 1622.933038
_symmetry_space_group_name_H-M "P N A 21"
_symmetry_group_IT_number 33
_symmetry_cell_setting 'orthorhombic'
loop_
_space_group_symop_operation_xyz
x,y,z
-x,-y,1/2+z
1/2-x,1/2+y,1/2+z
1/2+x,1/2-y,z
loop_
_atom_site_type_symbol
_atom_site_label
_atom_site_fract_x
_atom_site_fract_y
_atom_site_fract_z
Si Si1 0.044412 0.367435 0.458420
Si Si2 0.166703 0.257338 0.068461
Si Si3 0.837935 0.339062 0.933998
Si Si4 0.701157 0.263855 0.302553
Si Si5 0.369596 0.645992 0.086315
Si Si6 0.336068 0.520409 0.304948
Si Si7 0.188138 0.569429 0.959294
Si Si8 0.489063 0.410424 0.955728
O O1 0.085902 0.528578 0.447885
O O2 0.106665 0.279626 0.373962
O O3 0.074909 0.296645 0.564864
O O4 0.924016 0.367566 0.445989
O O5 0.164682 0.244671 0.188088
O O6 0.271172 0.180787 0.033965
O O7 0.176274 0.412699 0.012066
O O8 0.066776 0.180417 0.024968
O O9 0.752163 0.378070 0.852385
O O10 0.903967 0.197790 0.913024
O O11 0.751682 0.406214 0.353650
O O12 0.786594 0.137762 0.307328
O O13 0.361410 0.583051 0.196480
O O14 0.256900 0.657289 0.038446
O O15 0.431895 0.529758 0.020670
O O16 0.437841 0.524701 0.371184
#
# Coordination Sequence:
#
# PCOD9345430 Si02
#       8
#     4   4   4   4   4   4   4   4
#     4  10  23  41  64  95 127 170 215 271 328 394
#     4  11  22  42  65  95 128 176 215 272 333 393
#     4  10  21  41  60  91 132 163 213 271 324 391
#     4  10  22  41  64  94 128 170 221 268 326 404
#     4  11  23  42  65  92 128 170 215 268 328 394
#     4  10  22  40  62  90 132 167 212 271 328 387
#     4  11  21  40  66  91 130 167 217 273 325 392
#     4  11  22  39  66  90 127 167 212 268 330 387
#
# _framework density 19.717390000000002
#
# number of rings (size 3 to 8) (size 9 to 14) (size 15 to 20)
#    0.000    1.500    3.750    0.750    0.000    6.000 
#    4.500    0.000    0.000    0.000    0.000    0.000 
#    0.000    0.000    0.000    0.000    0.000    0.000 
#
# Total GULP energy -178555.102248 kJ/mol
# GULP energy per Si atom -5579.846945 kJ/mol
# Density = 1.967251 g / cm^3
# Si number density = 19.717390 Si / 1000 Ang^3
#
#
#
# Elastic Constant Matrix: (Units=GPa)
#
#
# Indices 1 2 3 4 5 6 
#
# 1 116.7111 20.7102 38.0808 0.0000 0.0000 0.0000
# 2 20.7102 43.4806 36.9041 0.0000 0.0000 0.0000
# 3 38.0808 36.9041 126.9186 0.0000 0.0000 0.0000
# 4 0.0000 0.0000 0.0000 19.1231 0.0000 0.0000
# 5 0.0000 0.0000 0.0000 0.0000 1.0837 0.0000
# 6 0.0000 0.0000 0.0000 0.0000 0.0000 15.1298
#
#
#
# Elastic Compliance Matrix: (Units=1/GPa)
#
#
# Indices 1 2 3 4 5 6 
#
# 1 0.009761 -0.002872 -0.002093 0.000000 0.000000 0.000000
# 2 -0.002872 0.031380 -0.008262 0.000000 0.000000 0.000000
# 3 -0.002093 -0.008262 0.010910 0.000000 0.000000 0.000000
# 4 0.000000 0.000000 0.000000 0.052293 0.000000 0.000000
# 5 0.000000 0.000000 0.000000 0.000000 0.922794 0.000000
# 6 0.000000 0.000000 0.000000 0.000000 0.000000 0.066095
#
#
# Mechanical properties :
#
#
# Convention : Reuss Voigt Hill
#
# Bulk Modulus (GPa) = 39.07219 53.16671 46.11945
# Shear Modulus (GPa) = 4.43176 19.82833 12.13005
#
# Velocity S-wave (km/s) = 1.50084 3.17460 2.48300
# Velocity P-wave (km/s) = 4.78147 6.36085 5.62685
#
# Compressibility (1/GPa) = 0.02559365
#
# Stress axis : x y z
#
# Youngs Moduli (GPa) = 102.44925 31.86786 91.66201
#
# Poissons Ratio (x) = 0.09154 0.19189
# Poissons Ratio (y) = 0.29427 0.75735
# Poissons Ratio (z) = 0.21448 0.26330
#
# Static dielectric constant tensor:
#      x y z
#    x 1.671010 0.000000 0.000000 
#    y 0.000000 1.731590 0.000000 
#    z 0.000000 0.000000 1.693240 
# 
# From -- ./inp_files/6451.got.cif
#   From: 2010.05.17/outbox.cif.g08.bks.cpg/sg33_4_cif.got.tgz:6451.got - 2010.06.03 17:15:25.
