data_PCOD9345345
_publ_section_title
;
Structure prediction by ZEFSAII (Michael W. Deem and Ramdas Pophale) SiO2 
 PCOD9345345
Probable space group: P N A 21
;
_chemical_formula_sum "Si O2"
_cell_formula_units_Z 24
_cell_length_a 5.369525
_cell_length_b 6.661458
_cell_length_c 28.092710
_cell_angle_alpha 90.000000
_cell_angle_beta 90.000000
_cell_angle_gamma 90.000000
_cell_volume 1004.844359
_symmetry_space_group_name_H-M "P N A 21"
_symmetry_group_IT_number 33
_symmetry_cell_setting 'orthorhombic'
loop_
_space_group_symop_operation_xyz
x,y,z
-x,-y,1/2+z
1/2-x,1/2+y,1/2+z
1/2+x,1/2-y,z
loop_
_atom_site_type_symbol
_atom_site_label
_atom_site_fract_x
_atom_site_fract_y
_atom_site_fract_z
Si Si1 0.823809 0.860781 0.224770
Si Si2 0.716168 0.616596 0.925025
Si Si3 0.214629 0.125105 0.020500
Si Si4 0.172648 0.880822 0.818366
Si Si5 0.193560 0.881691 0.113668
Si Si6 0.691918 0.243918 0.187388
O O1 0.616315 0.688744 0.220748
O O2 0.790791 0.957830 0.276628
O O3 0.750551 0.009863 0.181527
O O4 0.477839 0.764645 0.929763
O O5 0.701576 0.456659 0.967028
O O6 0.700092 0.529526 0.871575
O O7 0.482179 0.227071 0.028746
O O8 0.186162 0.949629 0.058924
O O9 0.397221 0.717934 0.815643
O O10 0.451355 0.759961 0.120945
O O11 0.200854 0.098193 0.144007
O O12 0.440974 0.219213 0.216390
#
# Coordination Sequence:
#
# PCOD9345345 Si02
#       6
#     4   4   4   4   4   4
#     4  12  26  43  68  99 136 180 225 275 340 409
#     4  10  21  39  65  95 129 175 225 272 330 397
#     4  12  24  41  65  97 137 174 214 278 342 403
#     4  10  21  41  66  93 132 176 222 282 337 387
#     4  12  26  46  72  98 130 177 229 283 344 404
#     4  12  26  46  68  96 134 170 223 282 333 400
#
# _framework density 23.884297
#
# number of rings (size 3 to 8) (size 9 to 14) (size 15 to 20)
#    0.000    0.667    0.000    8.000    0.000    5.333 
#    0.000    0.000    0.000    0.000    0.000    0.000 
#    0.000    0.000    0.000    0.000    0.000    0.000 
#
# Total GULP energy -133877.347029 kJ/mol
# GULP energy per Si atom -5578.222793 kJ/mol
# Density = 2.382994 g / cm^3
# Si number density = 23.884297 Si / 1000 Ang^3
#
#
#
# Elastic Constant Matrix: (Units=GPa)
#
#
# Indices 1 2 3 4 5 6 
#
# 1 151.2112 17.8092 19.9609 0.0000 0.0000 0.0000
# 2 17.8092 72.0312 53.6511 0.0000 0.0000 0.0000
# 3 19.9609 53.6511 120.9612 0.0000 0.0000 0.0000
# 4 0.0000 0.0000 0.0000 62.2940 0.0000 0.0000
# 5 0.0000 0.0000 0.0000 0.0000 28.0668 0.0000
# 6 0.0000 0.0000 0.0000 0.0000 0.0000 46.3127
#
#
#
# Elastic Compliance Matrix: (Units=1/GPa)
#
#
# Indices 1 2 3 4 5 6 
#
# 1 0.006837 -0.001269 -0.000565 0.000000 0.000000 0.000000
# 2 -0.001269 0.020968 -0.009090 0.000000 0.000000 0.000000
# 3 -0.000565 -0.009090 0.012392 0.000000 0.000000 0.000000
# 4 0.000000 0.000000 0.000000 0.016053 0.000000 0.000000
# 5 0.000000 0.000000 0.000000 0.000000 0.035629 0.000000
# 6 0.000000 0.000000 0.000000 0.000000 0.000000 0.021592
#
#
# Mechanical properties :
#
#
# Convention : Reuss Voigt Hill
#
# Bulk Modulus (GPa) = 54.50487 58.56064 56.53276
# Shear Modulus (GPa) = 35.35118 44.18686 39.76902
#
# Velocity S-wave (km/s) = 3.85138 4.30587 4.08495
# Velocity P-wave (km/s) = 6.53050 7.02086 6.78011
#
# Compressibility (1/GPa) = 0.01834698
#
# Stress axis : x y z
#
# Youngs Moduli (GPa) = 146.25443 47.69263 80.69480
#
# Poissons Ratio (x) = 0.06055 0.04561
# Poissons Ratio (y) = 0.18567 0.73355
# Poissons Ratio (z) = 0.08267 0.43355
#
# Static dielectric constant tensor:
#      x y z
#    x 2.211300 0.000000 0.000000 
#    y 0.000000 2.063320 0.000000 
#    z 0.000000 0.000000 1.915750 
# 
# From -- ./inp_files/9349.got.cif
#   From: 2010.05.17/outbox.cif.g08.bks.cpg/sg33_5_cif.got.tgz:9349.got - 2010.06.03 17:15:25.
