data_PCOD9345745
_publ_section_title
;
Structure prediction by ZEFSAII (Michael W. Deem and Ramdas Pophale) SiO2 
 PCOD9345745
Probable space group: P N A 21
;
_chemical_formula_sum "Si O2"
_cell_formula_units_Z 28
_cell_length_a 5.334831
_cell_length_b 23.580179
_cell_length_c 8.948205
_cell_angle_alpha 90.000000
_cell_angle_beta 90.000000
_cell_angle_gamma 90.000000
_cell_volume 1125.650811
_symmetry_space_group_name_H-M "P N A 21"
_symmetry_group_IT_number 33
_symmetry_cell_setting 'orthorhombic'
loop_
_space_group_symop_operation_xyz
x,y,z
-x,-y,1/2+z
1/2-x,1/2+y,1/2+z
1/2+x,1/2-y,z
loop_
_atom_site_type_symbol
_atom_site_label
_atom_site_fract_x
_atom_site_fract_y
_atom_site_fract_z
Si Si1 0.321466 0.895967 0.519880
Si Si2 0.014931 0.610631 0.197209
Si Si3 0.003083 0.999461 0.896174
Si Si4 0.503863 0.374727 0.527829
Si Si5 0.210335 0.224452 0.350673
Si Si6 0.213924 0.769344 0.519088
Si Si7 0.362900 0.013175 0.129006
O O1 0.476641 0.880572 0.371842
O O2 0.134002 0.945094 0.463344
O O3 0.204986 0.835705 0.561476
O O4 0.488776 0.927860 0.644528
O O5 0.767812 0.630389 0.104915
O O6 0.019429 0.542823 0.164334
O O7 0.276910 0.636187 0.146927
O O8 0.286047 0.009547 0.953992
O O9 0.958878 0.938285 0.968806
O O10 0.885024 0.992497 0.731819
O O11 0.574458 0.333588 0.392356
O O12 0.495086 0.231762 0.408521
O O13 0.252446 0.234105 0.174039
O O14 0.468453 0.752124 0.436390
#
# Coordination Sequence:
#
# PCOD9345745 Si02
#       7
#     4   4   4   4   4   4   4
#     4  11  24  43  70  99 149 181 244 294 363 436
#     4  10  24  42  67 104 138 183 221 286 369 428
#     4  10  24  39  68 106 139 195 230 303 371 424
#     4  11  22  45  66 100 144 178 239 288 357 434
#     4  10  22  41  66  97 133 175 234 290 343 411
#     4  10  25  44  66 100 133 182 240 292 349 410
#     4  10  23  40  67 106 146 186 232 291 366 441
#
# _framework density 24.874499
#
# number of rings (size 3 to 8) (size 9 to 14) (size 15 to 20)
#    0.000    1.714    1.429    0.857   12.000    1.143 
#    0.000    4.286    0.000    0.000    0.000    0.000 
#    0.000    0.000    0.000    0.000    0.000    0.000 
#
# Total GULP energy -156334.900203 kJ/mol
# GULP energy per Si atom -5583.389293 kJ/mol
# Density = 2.481788 g / cm^3
# Si number density = 24.874499 Si / 1000 Ang^3
#
#
#
# Elastic Constant Matrix: (Units=GPa)
#
#
# Indices 1 2 3 4 5 6 
#
# 1 102.5807 12.4873 8.4142 0.0000 0.0000 0.0000
# 2 12.4873 58.5964 10.5941 0.0000 0.0000 0.0000
# 3 8.4142 10.5941 52.3632 0.0000 0.0000 0.0000
# 4 0.0000 0.0000 0.0000 29.9786 0.0000 0.0000
# 5 0.0000 0.0000 0.0000 0.0000 22.0678 0.0000
# 6 0.0000 0.0000 0.0000 0.0000 0.0000 26.9843
#
#
#
# Elastic Compliance Matrix: (Units=1/GPa)
#
#
# Indices 1 2 3 4 5 6 
#
# 1 0.010084 -0.001926 -0.001231 0.000000 0.000000 0.000000
# 2 -0.001926 0.018082 -0.003349 0.000000 0.000000 0.000000
# 3 -0.001231 -0.003349 0.019973 0.000000 0.000000 0.000000
# 4 0.000000 0.000000 0.000000 0.033357 0.000000 0.000000
# 5 0.000000 0.000000 0.000000 0.000000 0.045315 0.000000
# 6 0.000000 0.000000 0.000000 0.000000 0.000000 0.037059
#
#
# Mechanical properties :
#
#
# Convention : Reuss Voigt Hill
#
# Bulk Modulus (GPa) = 28.46832 30.72571 29.59702
# Shear Modulus (GPa) = 26.51262 27.94247 27.22754
#
# Velocity S-wave (km/s) = 3.26829 3.35526 3.31206
# Velocity P-wave (km/s) = 5.07069 5.23349 5.15273
#
# Compressibility (1/GPa) = 0.03512676
#
# Stress axis : x y z
#
# Youngs Moduli (GPa) = 99.16820 55.30400 50.06852
#
# Poissons Ratio (x) = 0.10654 0.06161
# Poissons Ratio (y) = 0.19104 0.16767
# Poissons Ratio (z) = 0.12204 0.18520
#
# Static dielectric constant tensor:
#      x y z
#    x 2.114410 0.000000 0.000000 
#    y 0.000000 1.978370 0.000000 
#    z 0.000000 0.000000 1.999670 
# 
# From -- ./inp_files/2727.got.cif
#   From: 2010.05.17/outbox.cif.g08.bks.cpg/sg33_2_cif.got.tgz:2727.got - 2010.06.03 17:15:25.
