data_PCOD9345936
_publ_section_title
;
Structure prediction by ZEFSAII (Michael W. Deem and Ramdas Pophale) SiO2 
 PCOD9345936
Probable space group: P N A 21
;
_chemical_formula_sum "Si O2"
_cell_formula_units_Z 20
_cell_length_a 11.820836
_cell_length_b 11.965594
_cell_length_c 5.780688
_cell_angle_alpha 90.000000
_cell_angle_beta 90.000000
_cell_angle_gamma 90.000000
_cell_volume 817.639728
_symmetry_space_group_name_H-M "P N A 21"
_symmetry_group_IT_number 33
_symmetry_cell_setting 'orthorhombic'
loop_
_space_group_symop_operation_xyz
x,y,z
-x,-y,1/2+z
1/2-x,1/2+y,1/2+z
1/2+x,1/2-y,z
loop_
_atom_site_type_symbol
_atom_site_label
_atom_site_fract_x
_atom_site_fract_y
_atom_site_fract_z
Si Si1 0.756459 0.879280 0.630320
Si Si2 0.634012 0.023176 0.253312
Si Si3 0.359861 0.459115 0.008607
Si Si4 0.449454 0.656403 0.291298
Si Si5 0.946695 0.323634 0.429617
O O1 0.838371 0.817262 0.445149
O O2 0.681099 0.971045 0.491705
O O3 0.833981 0.954765 0.799126
O O4 0.670232 0.806903 0.788288
O O5 0.539131 0.116060 0.272222
O O6 0.586455 0.916675 0.118417
O O7 0.738925 0.070369 0.110798
O O8 0.437814 0.356120 0.941760
O O9 0.422427 0.531967 0.202193
O O10 0.487262 0.728574 0.071147
#
# Coordination Sequence:
#
# PCOD9345936 Si02
#       5
#     4   4   4   4   4
#     4  10  22  46  68 102 144 186 244 298 366 438
#     4  10  22  45  70 103 142 182 237 305 365 428
#     4  10  22  45  70 103 142 182 237 305 365 428
#     4  11  23  45  73 106 142 190 244 300 370 437
#     4  11  23  45  73 106 142 190 244 300 370 437
#
# _framework density 24.460650000000001
#
# number of rings (size 3 to 8) (size 9 to 14) (size 15 to 20)
#    0.000    1.600    4.000    0.000    0.000    1.600 
#   14.400    0.000    0.000    0.000    0.000    0.000 
#    0.000    0.000    0.000    0.000    0.000    0.000 
#
# Total GULP energy -111903.094290 kJ/mol
# GULP energy per Si atom -5595.154715 kJ/mol
# Density = 2.440498 g / cm^3
# Si number density = 24.460650 Si / 1000 Ang^3
#
#
#
# Elastic Constant Matrix: (Units=GPa)
#
#
# Indices 1 2 3 4 5 6 
#
# 1 158.4592 28.7233 48.2645 0.0000 0.0000 0.0000
# 2 28.7233 50.5653 19.1281 0.0000 0.0000 0.0000
# 3 48.2645 19.1281 78.2796 0.0000 0.0000 0.0000
# 4 0.0000 0.0000 0.0000 43.1605 0.0000 0.0000
# 5 0.0000 0.0000 0.0000 0.0000 60.6742 0.0000
# 6 0.0000 0.0000 0.0000 0.0000 0.0000 14.7206
#
#
#
# Elastic Compliance Matrix: (Units=1/GPa)
#
#
# Indices 1 2 3 4 5 6 
#
# 1 0.008166 -0.003013 -0.004299 0.000000 0.000000 0.000000
# 2 -0.003013 0.022902 -0.003739 0.000000 0.000000 0.000000
# 3 -0.004299 -0.003739 0.016339 0.000000 0.000000 0.000000
# 4 0.000000 0.000000 0.000000 0.023169 0.000000 0.000000
# 5 0.000000 0.000000 0.000000 0.000000 0.016481 0.000000
# 6 0.000000 0.000000 0.000000 0.000000 0.000000 0.067932
#
#
# Mechanical properties :
#
#
# Convention : Reuss Voigt Hill
#
# Bulk Modulus (GPa) = 39.51537 53.28176 46.39857
# Shear Modulus (GPa) = 26.95040 36.45694 31.70367
#
# Velocity S-wave (km/s) = 3.32292 3.86480 3.60406
# Velocity P-wave (km/s) = 5.55987 6.46108 6.02734
#
# Compressibility (1/GPa) = 0.02530661
#
# Stress axis : x y z
#
# Youngs Moduli (GPa) = 122.45555 43.66426 61.20381
#
# Poissons Ratio (x) = 0.13154 0.26311
# Poissons Ratio (y) = 0.36891 0.22883
# Poissons Ratio (z) = 0.52642 0.16325
#
# Static dielectric constant tensor:
#      x y z
#    x 1.976360 0.000000 0.000000 
#    y 0.000000 1.909810 0.000000 
#    z 0.000000 0.000000 2.023680 
# 
# From -- ./inp_files/718.got.cif
#   From: 2010.05.17/outbox.cif.g08.bks.cpg/sg33_1_cif.got.tgz:718.got - 2010.06.03 17:15:25.
