data_PCOD9345441
_publ_section_title
;
Structure prediction by ZEFSAII (Michael W. Deem and Ramdas Pophale) SiO2 
 PCOD9345441
Probable space group: P N A 21
;
_chemical_formula_sum "Si O2"
_cell_formula_units_Z 24
_cell_length_a 8.161229
_cell_length_b 14.547726
_cell_length_c 8.148158
_cell_angle_alpha 90.000000
_cell_angle_beta 90.000000
_cell_angle_gamma 90.000000
_cell_volume 967.408989
_symmetry_space_group_name_H-M "P N A 21"
_symmetry_group_IT_number 33
_symmetry_cell_setting 'orthorhombic'
loop_
_space_group_symop_operation_xyz
x,y,z
-x,-y,1/2+z
1/2-x,1/2+y,1/2+z
1/2+x,1/2-y,z
loop_
_atom_site_type_symbol
_atom_site_label
_atom_site_fract_x
_atom_site_fract_y
_atom_site_fract_z
Si Si1 0.569819 0.952171 0.810690
Si Si2 0.745135 0.122778 0.893845
Si Si3 0.232017 0.548355 0.449817
Si Si4 0.061632 0.214574 0.007912
Si Si5 0.100942 0.267011 0.379105
Si Si6 0.396840 0.371992 0.532424
O O1 0.693730 0.017049 0.912281
O O2 0.638991 0.948965 0.626151
O O3 0.530844 0.851106 0.877876
O O4 0.396700 0.006736 0.821634
O O5 0.822625 0.131971 0.713602
O O6 0.585530 0.186806 0.921984
O O7 0.884359 0.167693 0.005354
O O8 0.311672 0.646261 0.419335
O O9 0.383063 0.476634 0.472415
O O10 0.106147 0.225926 0.197745
O O11 0.060223 0.185701 0.505652
O O12 0.268458 0.316877 0.420732
#
# Coordination Sequence:
#
# PCOD9345441 Si02
#       6
#     4   4   4   4   4   4
#     4  10  21  41  63  88 124 167 210 262 324 382
#     4  11  23  40  62  91 125 163 211 264 320 382
#     4  10  23  40  62  90 124 164 211 260 322 381
#     4  12  24  41  66  96 127 168 217 268 320 385
#     4  11  22  40  64  89 124 165 210 262 322 385
#     4  10  23  40  59  88 122 163 205 258 320 381
#
# _framework density 24.808536
#
# number of rings (size 3 to 8) (size 9 to 14) (size 15 to 20)
#    0.000    1.333    0.000    6.000    0.000    8.000 
#    0.000    1.667    0.000    0.000    0.000    0.000 
#    0.000    0.000    0.000    0.000    0.000    0.000 
#
# Total GULP energy -134362.031929 kJ/mol
# GULP energy per Si atom -5598.417997 kJ/mol
# Density = 2.475207 g / cm^3
# Si number density = 24.808536 Si / 1000 Ang^3
#
#
#
# Elastic Constant Matrix: (Units=GPa)
#
#
# Indices 1 2 3 4 5 6 
#
# 1 59.8171 20.7525 -5.0260 0.0000 0.0000 0.0000
# 2 20.7525 121.5704 8.4220 0.0000 0.0000 0.0000
# 3 -5.0260 8.4220 53.4981 0.0000 0.0000 0.0000
# 4 0.0000 0.0000 0.0000 23.7063 0.0000 0.0000
# 5 0.0000 0.0000 0.0000 0.0000 31.9405 0.0000
# 6 0.0000 0.0000 0.0000 0.0000 0.0000 45.1946
#
#
#
# Elastic Compliance Matrix: (Units=1/GPa)
#
#
# Indices 1 2 3 4 5 6 
#
# 1 0.018023 -0.003229 0.002202 0.000000 0.000000 0.000000
# 2 -0.003229 0.008895 -0.001704 0.000000 0.000000 0.000000
# 3 0.002202 -0.001704 0.019167 0.000000 0.000000 0.000000
# 4 0.000000 0.000000 0.000000 0.042183 0.000000 0.000000
# 5 0.000000 0.000000 0.000000 0.000000 0.031308 0.000000
# 6 0.000000 0.000000 0.000000 0.000000 0.000000 0.022127
#
#
# Mechanical properties :
#
#
# Convention : Reuss Voigt Hill
#
# Bulk Modulus (GPa) = 24.61680 31.46473 28.04077
# Shear Modulus (GPa) = 31.11274 34.21744 32.66509
#
# Velocity S-wave (km/s) = 3.54519 3.71787 3.63256
# Velocity P-wave (km/s) = 5.16741 5.58038 5.37786
#
# Compressibility (1/GPa) = 0.04062267
#
# Stress axis : x y z
#
# Youngs Moduli (GPa) = 55.48506 112.42362 52.17222
#
# Poissons Ratio (x) = 0.36303 -0.11486
# Poissons Ratio (y) = 0.17917 0.08888
# Poissons Ratio (z) = -0.12215 0.19153
#
# Static dielectric constant tensor:
#      x y z
#    x 2.050450 0.000000 0.000000 
#    y 0.000000 1.935700 0.000000 
#    z 0.000000 0.000000 1.909340 
# 
# From -- ./inp_files/3142.got.cif
#   From: 2010.05.17/outbox.cif.g08.bks.cpg/sg33_2_cif.got.tgz:3142.got - 2010.06.03 17:15:25.
