data_PCOD9345949
_publ_section_title
;
Structure prediction by ZEFSAII (Michael W. Deem and Ramdas Pophale) SiO2 
 PCOD9345949
Probable space group: P N A 21
;
_chemical_formula_sum "Si O2"
_cell_formula_units_Z 28
_cell_length_a 13.342501
_cell_length_b 8.513284
_cell_length_c 10.295364
_cell_angle_alpha 90.000000
_cell_angle_beta 90.000000
_cell_angle_gamma 90.000000
_cell_volume 1169.434957
_symmetry_space_group_name_H-M "P N A 21"
_symmetry_group_IT_number 33
_symmetry_cell_setting 'orthorhombic'
loop_
_space_group_symop_operation_xyz
x,y,z
-x,-y,1/2+z
1/2-x,1/2+y,1/2+z
1/2+x,1/2-y,z
loop_
_atom_site_type_symbol
_atom_site_label
_atom_site_fract_x
_atom_site_fract_y
_atom_site_fract_z
Si Si1 0.893173 0.085161 0.255530
Si Si2 0.254765 0.432257 0.886784
Si Si3 0.043112 0.810030 0.279315
Si Si4 0.709506 0.204047 0.139630
Si Si5 0.692118 0.031119 0.631924
Si Si6 0.985502 0.329058 0.055817
Si Si7 0.847193 0.257132 0.509897
O O1 0.774018 0.085020 0.226664
O O2 0.908642 0.181263 0.389726
O O3 0.937048 0.185043 0.135784
O O4 0.948664 0.921222 0.253451
O O5 0.368705 0.424909 0.835990
O O6 0.184372 0.382262 0.768270
O O7 0.205993 0.583023 0.959844
O O8 0.250253 0.297317 0.993373
O O9 0.089118 0.738735 0.144874
O O10 0.016560 0.700138 0.401765
O O11 0.742327 0.378918 0.180148
O O12 0.594357 0.162711 0.121858
O O13 0.585827 0.976372 0.582145
O O14 0.757722 0.134141 0.537080
#
# Coordination Sequence:
#
# PCOD9345949 Si02
#       7
#     4   4   4   4   4   4   4
#     4  11  22  43  72 100 134 190 232 291 360 420
#     4  11  22  47  66 106 143 178 236 300 348 421
#     4  11  23  44  73 106 139 189 245 286 354 454
#     4  11  23  44  72  97 142 184 232 297 349 426
#     4  10  22  46  67  97 140 189 225 294 357 420
#     4  11  22  46  70  97 144 191 235 292 370 424
#     4  11  24  42  72 107 140 181 243 294 360 423
#
# _framework density 23.943186000000001
#
# number of rings (size 3 to 8) (size 9 to 14) (size 15 to 20)
#    0.000    1.143    5.714    3.429    0.000    1.143 
#   12.857    0.000    0.000    0.000    0.000    0.000 
#    0.000    0.000    0.000    0.000    0.000    0.000 
#
# Total GULP energy -156396.458833 kJ/mol
# GULP energy per Si atom -5585.587815 kJ/mol
# Density = 2.388869 g / cm^3
# Si number density = 23.943186 Si / 1000 Ang^3
#
#
#
# Elastic Constant Matrix: (Units=GPa)
#
#
# Indices 1 2 3 4 5 6 
#
# 1 134.8003 25.3956 28.1442 0.0000 0.0000 0.0000
# 2 25.3956 24.2699 -7.2589 0.0000 0.0000 0.0000
# 3 28.1442 -7.2589 135.9971 0.0000 0.0000 0.0000
# 4 0.0000 0.0000 0.0000 25.7411 0.0000 0.0000
# 5 0.0000 0.0000 0.0000 0.0000 21.9198 0.0000
# 6 0.0000 0.0000 0.0000 0.0000 0.0000 29.5676
#
#
#
# Elastic Compliance Matrix: (Units=1/GPa)
#
#
# Indices 1 2 3 4 5 6 
#
# 1 0.010134 -0.011413 -0.002706 0.000000 0.000000 0.000000
# 2 -0.011413 0.054726 0.005283 0.000000 0.000000 0.000000
# 3 -0.002706 0.005283 0.008195 0.000000 0.000000 0.000000
# 4 0.000000 0.000000 0.000000 0.038848 0.000000 0.000000
# 5 0.000000 0.000000 0.000000 0.000000 0.045621 0.000000
# 6 0.000000 0.000000 0.000000 0.000000 0.000000 0.033821
#
#
# Mechanical properties :
#
#
# Convention : Reuss Voigt Hill
#
# Bulk Modulus (GPa) = 18.05651 43.06990 30.56320
# Shear Modulus (GPa) = 21.98015 32.03145 27.00580
#
# Velocity S-wave (km/s) = 3.03316 3.66158 3.36208
# Velocity P-wave (km/s) = 4.45247 5.99196 5.27864
#
# Compressibility (1/GPa) = 0.05538170
#
# Stress axis : x y z
#
# Youngs Moduli (GPa) = 98.68201 18.27292 122.02365
#
# Poissons Ratio (x) = 0.20855 0.33023
# Poissons Ratio (y) = 1.12626 -0.64464
# Poissons Ratio (z) = 0.26706 -0.09653
#
# Static dielectric constant tensor:
#      x y z
#    x 2.100030 0.000000 0.000000 
#    y 0.000000 1.906690 0.000000 
#    z 0.000000 0.000000 1.908470 
# 
# From -- ./inp_files/7012.got.cif
#   From: 2010.05.17/outbox.cif.g08.bks.cpg/sg33_4_cif.got.tgz:7012.got - 2010.06.03 17:15:25.
