data_PCOD9345047
_publ_section_title
;
Structure prediction by ZEFSAII (Michael W. Deem and Ramdas Pophale) SiO2 
 PCOD9345047
Probable space group: P N A 21
;
_chemical_formula_sum "Si O2"
_cell_formula_units_Z 32
_cell_length_a 17.905579
_cell_length_b 8.014240
_cell_length_c 9.328103
_cell_angle_alpha 90.000000
_cell_angle_beta 90.000000
_cell_angle_gamma 90.000000
_cell_volume 1338.579119
_symmetry_space_group_name_H-M "P N A 21"
_symmetry_group_IT_number 33
_symmetry_cell_setting 'orthorhombic'
loop_
_space_group_symop_operation_xyz
x,y,z
-x,-y,1/2+z
1/2-x,1/2+y,1/2+z
1/2+x,1/2-y,z
loop_
_atom_site_type_symbol
_atom_site_label
_atom_site_fract_x
_atom_site_fract_y
_atom_site_fract_z
Si Si1 0.456548 0.824256 0.994040
Si Si2 0.706247 0.771932 0.061090
Si Si3 0.370067 0.307559 0.854968
Si Si4 0.539665 0.710124 0.739560
Si Si5 0.641284 0.004831 0.815553
Si Si6 0.026334 0.319997 0.969116
Si Si7 0.304456 0.998444 0.002080
Si Si8 0.861728 0.940764 0.103911
O O1 0.499232 0.698705 0.889305
O O2 0.377929 0.903631 0.939638
O O3 0.423645 0.705039 0.114718
O O4 0.508341 0.986034 0.013376
O O5 0.652949 0.713058 0.190042
O O6 0.733165 0.611937 0.969174
O O7 0.779823 0.865167 0.125762
O O8 0.672995 0.899541 0.946816
O O9 0.454966 0.242965 0.878192
O O10 0.362067 0.480946 0.941496
O O11 0.314876 0.183152 0.944196
O O12 0.574912 0.895234 0.744804
O O13 0.479392 0.710169 0.612080
O O14 0.606423 0.586458 0.703375
O O15 0.693800 0.015046 0.676770
O O16 0.604521 0.167019 0.888293
#
# Coordination Sequence:
#
# PCOD9345047 Si02
#       8
#     4   4   4   4   4   4   4   4
#     4   9  19  37  62  85 120 157 196 249 309 352
#     4  11  25  36  64  90 122 162 212 246 315 366
#     4  10  21  40  64  86 123 163 202 255 307 371
#     4  10  20  40  61  92 122 161 202 256 312 361
#     4  11  21  38  66  90 118 159 212 253 302 372
#     4   9  20  37  67  89 119 157 208 253 303 368
#     4  10  21  41  60  86 122 163 201 255 303 371
#     4  10  21  43  58  88 130 158 197 265 303 365
#
# _framework density 23.905946
#
# number of rings (size 3 to 8) (size 9 to 14) (size 15 to 20)
#    0.000    2.000    3.750    0.750    7.000    0.000 
#   13.500    0.000    2.750    0.000    0.000    0.000 
#    0.000    0.000    0.000    0.000    0.000    0.000 
#
# Total GULP energy -178475.441810 kJ/mol
# GULP energy per Si atom -5577.357557 kJ/mol
# Density = 2.385153 g / cm^3
# Si number density = 23.905946 Si / 1000 Ang^3
#
#
#
# Elastic Constant Matrix: (Units=GPa)
#
#
# Indices 1 2 3 4 5 6 
#
# 1 29.5898 -8.3969 21.3468 0.0000 0.0000 0.0000
# 2 -8.3969 39.1126 -4.1951 0.0000 0.0000 0.0000
# 3 21.3468 -4.1951 73.6010 0.0000 0.0000 0.0000
# 4 0.0000 0.0000 0.0000 19.8803 0.0000 0.0000
# 5 0.0000 0.0000 0.0000 0.0000 34.0301 0.0000
# 6 0.0000 0.0000 0.0000 0.0000 0.0000 24.3480
#
#
#
# Elastic Compliance Matrix: (Units=1/GPa)
#
#
# Indices 1 2 3 4 5 6 
#
# 1 0.045306 0.008368 -0.012663 0.000000 0.000000 0.000000
# 2 0.008368 0.027270 -0.000873 0.000000 0.000000 0.000000
# 3 -0.012663 -0.000873 0.017210 0.000000 0.000000 0.000000
# 4 0.000000 0.000000 0.000000 0.050301 0.000000 0.000000
# 5 0.000000 0.000000 0.000000 0.000000 0.029386 0.000000
# 6 0.000000 0.000000 0.000000 0.000000 0.000000 0.041071
#
#
# Mechanical properties :
#
#
# Convention : Reuss Voigt Hill
#
# Bulk Modulus (GPa) = 12.58653 17.75701 15.17177
# Shear Modulus (GPa) = 20.21330 24.55495 22.38412
#
# Velocity S-wave (km/s) = 2.91096 3.20839 3.06329
# Velocity P-wave (km/s) = 4.07121 4.60098 4.34418
#
# Compressibility (1/GPa) = 0.07945004
#
# Stress axis : x y z
#
# Youngs Moduli (GPa) = 22.07235 36.67017 58.10649
#
# Poissons Ratio (x) = -0.30686 0.73581
# Poissons Ratio (y) = -0.18471 0.05071
# Poissons Ratio (z) = 0.27951 0.03200
#
# Static dielectric constant tensor:
#      x y z
#    x 1.955690 0.000000 0.000000 
#    y 0.000000 1.961950 0.000000 
#    z 0.000000 0.000000 1.991890 
# 
# From -- ./inp_files/5036.got.cif
#   From: 2010.05.17/outbox.cif.g08.bks.cpg/sg33_3_cif.got.tgz:5036.got - 2010.06.03 17:15:25.
