data_PCOD9345819
_publ_section_title
;
Structure prediction by ZEFSAII (Michael W. Deem and Ramdas Pophale) SiO2 
 PCOD9345819
Probable space group: P N A 21
;
_chemical_formula_sum "Si O2"
_cell_formula_units_Z 32
_cell_length_a 10.291191
_cell_length_b 7.073239
_cell_length_c 16.676655
_cell_angle_alpha 90.000000
_cell_angle_beta 90.000000
_cell_angle_gamma 90.000000
_cell_volume 1213.927964
_symmetry_space_group_name_H-M "P N A 21"
_symmetry_group_IT_number 33
_symmetry_cell_setting 'orthorhombic'
loop_
_space_group_symop_operation_xyz
x,y,z
-x,-y,1/2+z
1/2-x,1/2+y,1/2+z
1/2+x,1/2-y,z
loop_
_atom_site_type_symbol
_atom_site_label
_atom_site_fract_x
_atom_site_fract_y
_atom_site_fract_z
Si Si1 0.515398 0.970152 0.982710
Si Si2 0.748800 0.219705 0.705446
Si Si3 0.757331 0.314027 0.368135
Si Si4 0.088961 0.079940 0.123837
Si Si5 0.146984 0.573411 0.345201
Si Si6 0.934698 0.397316 0.221875
Si Si7 0.935805 0.936271 0.981545
Si Si8 0.772769 0.580634 0.597466
O O1 0.632178 0.883183 0.929181
O O2 0.440930 0.114381 0.923604
O O3 0.431494 0.786594 0.004781
O O4 0.583201 0.050838 0.060691
O O5 0.774804 0.265263 0.799075
O O6 0.741449 0.421211 0.661516
O O7 0.622155 0.094557 0.687395
O O8 0.873486 0.108398 0.671154
O O9 0.742900 0.089264 0.375347
O O10 0.816596 0.345598 0.281505
O O11 0.618256 0.412282 0.390358
O O12 0.986198 0.212706 0.172875
O O13 0.219565 0.205310 0.123947
O O14 0.056607 0.021009 0.031697
O O15 0.054084 0.468106 0.279643
O O16 0.824367 0.051840 0.025672
#
# Coordination Sequence:
#
# PCOD9345819 Si02
#       8
#     4   4   4   4   4   4   4   4
#     4   9  20  45  73 101 139 182 230 292 351 413
#     4  12  26  41  68 106 137 184 237 289 350 422
#     4   9  21  44  70 102 137 181 235 286 348 423
#     4  12  25  43  67 107 143 188 233 297 356 427
#     4  10  22  43  69 100 138 186 230 294 344 419
#     4  11  24  41  68 101 144 181 235 292 352 416
#     4  10  22  42  72  97 140 186 225 295 351 406
#     4  11  24  43  67 104 140 182 237 283 348 428
#
# _framework density 26.360709
#
# number of rings (size 3 to 8) (size 9 to 14) (size 15 to 20)
#    0.000    1.500    2.500    1.500    5.250    1.000 
#    0.000    3.750    0.000    0.000    0.000    0.000 
#    0.000    0.000    0.000    0.000    0.000    0.000 
#
# Total GULP energy -178761.795913 kJ/mol
# GULP energy per Si atom -5586.306122 kJ/mol
# Density = 2.630071 g / cm^3
# Si number density = 26.360709 Si / 1000 Ang^3
#
#
#
# Elastic Constant Matrix: (Units=GPa)
#
#
# Indices 1 2 3 4 5 6 
#
# 1 52.0190 21.2661 17.6553 0.0000 0.0000 0.0000
# 2 21.2661 103.3960 35.3262 0.0000 0.0000 0.0000
# 3 17.6553 35.3262 77.3565 0.0000 0.0000 0.0000
# 4 0.0000 0.0000 0.0000 56.9722 0.0000 0.0000
# 5 0.0000 0.0000 0.0000 0.0000 42.4702 0.0000
# 6 0.0000 0.0000 0.0000 0.0000 0.0000 41.1781
#
#
#
# Elastic Compliance Matrix: (Units=1/GPa)
#
#
# Indices 1 2 3 4 5 6 
#
# 1 0.021743 -0.003290 -0.003460 0.000000 0.000000 0.000000
# 2 -0.003290 0.011957 -0.004710 0.000000 0.000000 0.000000
# 3 -0.003460 -0.004710 0.015868 0.000000 0.000000 0.000000
# 4 0.000000 0.000000 0.000000 0.017552 0.000000 0.000000
# 5 0.000000 0.000000 0.000000 0.000000 0.023546 0.000000
# 6 0.000000 0.000000 0.000000 0.000000 0.000000 0.024285
#
#
# Mechanical properties :
#
#
# Convention : Reuss Voigt Hill
#
# Bulk Modulus (GPa) = 37.52527 42.36300 39.94413
# Shear Modulus (GPa) = 34.07080 38.69236 36.38158
#
# Velocity S-wave (km/s) = 3.59901 3.83535 3.71906
# Velocity P-wave (km/s) = 5.61576 5.97650 5.79894
#
# Compressibility (1/GPa) = 0.02664871
#
# Stress axis : x y z
#
# Youngs Moduli (GPa) = 45.99171 83.63089 63.02144
#
# Poissons Ratio (x) = 0.27513 0.21806
# Poissons Ratio (y) = 0.15131 0.29681
# Poissons Ratio (z) = 0.15914 0.39387
#
# Static dielectric constant tensor:
#      x y z
#    x 2.192990 0.000000 0.000000 
#    y 0.000000 2.085430 0.000000 
#    z 0.000000 0.000000 2.148560 
# 
# From -- ./inp_files/9111.got.cif
#   From: 2010.05.17/outbox.cif.g08.bks.cpg/sg33_5_cif.got.tgz:9111.got - 2010.06.03 17:15:25.
