data_PCOD9345419
_publ_section_title
;
Structure prediction by ZEFSAII (Michael W. Deem and Ramdas Pophale) SiO2 
 PCOD9345419
Probable space group: P N A 21
;
_chemical_formula_sum "Si O2"
_cell_formula_units_Z 32
_cell_length_a 9.516232
_cell_length_b 13.303108
_cell_length_c 10.039780
_cell_angle_alpha 90.000000
_cell_angle_beta 90.000000
_cell_angle_gamma 90.000000
_cell_volume 1270.990588
_symmetry_space_group_name_H-M "P N A 21"
_symmetry_group_IT_number 33
_symmetry_cell_setting 'orthorhombic'
loop_
_space_group_symop_operation_xyz
x,y,z
-x,-y,1/2+z
1/2-x,1/2+y,1/2+z
1/2+x,1/2-y,z
loop_
_atom_site_type_symbol
_atom_site_label
_atom_site_fract_x
_atom_site_fract_y
_atom_site_fract_z
Si Si1 0.963040 0.525689 0.011970
Si Si2 0.456856 0.578842 0.978627
Si Si3 0.821072 0.994344 0.634837
Si Si4 0.623828 0.175931 0.087041
Si Si5 0.790223 0.189564 0.812147
Si Si6 0.824780 0.386069 0.349774
Si Si7 0.094966 0.816579 0.745836
Si Si8 0.975772 0.731159 0.164303
O O1 0.030878 0.423036 0.062138
O O2 0.005509 0.623505 0.099324
O O3 0.794962 0.524080 0.023434
O O4 0.035714 0.548475 0.870434
O O5 0.290453 0.580825 0.958272
O O6 0.522554 0.596218 0.832561
O O7 0.531223 0.488882 0.058503
O O8 0.498611 0.674975 0.067648
O O9 0.817920 0.076726 0.755834
O O10 0.748932 0.901081 0.707230
O O11 0.755707 0.154491 0.184170
O O12 0.517049 0.260327 0.147332
O O13 0.708624 0.197834 0.949956
O O14 0.933286 0.250586 0.797138
O O15 0.686547 0.234246 0.701970
O O16 0.865268 0.270858 0.351600
#
# Coordination Sequence:
#
# PCOD9345419 Si02
#       8
#     4   4   4   4   4   4   4   4
#     4  11  23  40  73  98 132 170 232 282 337 403
#     4  11  25  43  70  99 138 184 227 282 345 415
#     4  10  24  42  68 102 135 176 231 284 338 409
#     4  12  25  44  67 100 137 183 223 285 347 404
#     4  10  21  41  64  94 134 170 219 272 337 403
#     4  12  23  45  65 102 140 174 225 292 338 410
#     4  12  26  43  68  98 138 181 232 277 351 417
#     4  10  21  40  69  99 126 176 225 274 333 407
#
# _framework density 25.177213999999999
#
# number of rings (size 3 to 8) (size 9 to 14) (size 15 to 20)
#    0.000    1.000    5.000    1.500    5.250    1.000 
#    0.000    0.000    0.000    0.000    0.000    0.000 
#    0.000    0.000    0.000    0.000    0.000    0.000 
#
# Total GULP energy -178940.890723 kJ/mol
# GULP energy per Si atom -5591.902835 kJ/mol
# Density = 2.511991 g / cm^3
# Si number density = 25.177214 Si / 1000 Ang^3
#
#
#
# Elastic Constant Matrix: (Units=GPa)
#
#
# Indices 1 2 3 4 5 6 
#
# 1 100.3396 -2.1954 14.4797 0.0000 0.0000 0.0000
# 2 -2.1954 44.5864 -2.2263 0.0000 0.0000 0.0000
# 3 14.4797 -2.2263 69.2726 0.0000 0.0000 0.0000
# 4 0.0000 0.0000 0.0000 27.8214 0.0000 0.0000
# 5 0.0000 0.0000 0.0000 0.0000 53.1616 0.0000
# 6 0.0000 0.0000 0.0000 0.0000 0.0000 33.6001
#
#
#
# Elastic Compliance Matrix: (Units=1/GPa)
#
#
# Indices 1 2 3 4 5 6 
#
# 1 0.010283 0.000400 -0.002137 0.000000 0.000000 0.000000
# 2 0.000400 0.022480 0.000639 0.000000 0.000000 0.000000
# 3 -0.002137 0.000639 0.014903 0.000000 0.000000 0.000000
# 4 0.000000 0.000000 0.000000 0.035944 0.000000 0.000000
# 5 0.000000 0.000000 0.000000 0.000000 0.018811 0.000000
# 6 0.000000 0.000000 0.000000 0.000000 0.000000 0.029762
#
#
# Mechanical properties :
#
#
# Convention : Reuss Voigt Hill
#
# Bulk Modulus (GPa) = 21.99255 26.03497 24.01376
# Shear Modulus (GPa) = 33.43706 36.52599 34.98153
#
# Velocity S-wave (km/s) = 3.64822 3.81301 3.73153
# Velocity P-wave (km/s) = 5.14782 5.45422 5.30324
#
# Compressibility (1/GPa) = 0.04546995
#
# Stress axis : x y z
#
# Youngs Moduli (GPa) = 97.24572 44.48413 67.10124
#
# Poissons Ratio (x) = -0.01778 0.14337
# Poissons Ratio (y) = -0.03886 -0.04287
# Poissons Ratio (z) = 0.20778 -0.02842
#
# Static dielectric constant tensor:
#      x y z
#    x 1.967200 0.000000 0.000000 
#    y 0.000000 1.971060 0.000000 
#    z 0.000000 0.000000 2.064570 
# 
# From -- ./inp_files/5980.got.cif
#   From: 2010.05.17/outbox.cif.g08.bks.cpg/sg33_3_cif.got.tgz:5980.got - 2010.06.03 17:15:25.
