data_PCOD9345994
_publ_section_title
;
Structure prediction by ZEFSAII (Michael W. Deem and Ramdas Pophale) SiO2 
 PCOD9345994
Probable space group: P N A 21
;
_chemical_formula_sum "Si O2"
_cell_formula_units_Z 16
_cell_length_a 5.522273
_cell_length_b 22.130988
_cell_length_c 4.743467
_cell_angle_alpha 90.000000
_cell_angle_beta 90.000000
_cell_angle_gamma 90.000000
_cell_volume 579.715028
_symmetry_space_group_name_H-M "P N A 21"
_symmetry_group_IT_number 33
_symmetry_cell_setting 'orthorhombic'
loop_
_space_group_symop_operation_xyz
x,y,z
-x,-y,1/2+z
1/2-x,1/2+y,1/2+z
1/2+x,1/2-y,z
loop_
_atom_site_type_symbol
_atom_site_label
_atom_site_fract_x
_atom_site_fract_y
_atom_site_fract_z
Si Si1 0.742288 0.073328 0.850640
Si Si2 0.609633 0.361410 0.563573
Si Si3 0.746546 0.283942 0.065754
Si Si4 0.247566 0.045562 0.984258
O O1 0.503797 0.078532 0.034784
O O2 0.833714 0.131260 0.673760
O O3 0.964919 0.056518 0.058144
O O4 0.706262 0.018944 0.628180
O O5 0.666589 0.341083 0.253855
O O6 0.715207 0.426730 0.660253
O O7 0.727253 0.308480 0.749098
O O8 0.518965 0.238789 0.118474
#
# Coordination Sequence:
#
# PCOD9345994 Si02
#       4
#     4   4   4   4
#     4  10  23  39  66 100 141 173 223 264 338 408
#     4  10  28  45  74 100 138 181 228 278 352 398
#     4  12  28  47  74  98 136 175 240 292 340 392
#     4  10  23  39  66 100 141 173 223 264 338 408
#
# _framework density 27.599767
#
# number of rings (size 3 to 8) (size 9 to 14) (size 15 to 20)
#    1.500    0.000    0.000    3.000   10.500    0.000 
#    0.000    0.000    0.000    0.000    0.000    0.000 
#    0.000    0.000    0.000    0.000    0.000    0.000 
#
# Total GULP energy -89171.338538 kJ/mol
# GULP energy per Si atom -5573.208659 kJ/mol
# Density = 2.753695 g / cm^3
# Si number density = 27.599767 Si / 1000 Ang^3
#
#
#
# Elastic Constant Matrix: (Units=GPa)
#
#
# Indices 1 2 3 4 5 6 
#
# 1 196.2115 30.5585 21.9724 0.0000 0.0000 0.0000
# 2 30.5585 85.8498 21.3927 0.0000 0.0000 0.0000
# 3 21.9724 21.3927 46.3365 0.0000 0.0000 0.0000
# 4 0.0000 0.0000 0.0000 63.2946 0.0000 0.0000
# 5 0.0000 0.0000 0.0000 0.0000 31.1216 0.0000
# 6 0.0000 0.0000 0.0000 0.0000 0.0000 54.7489
#
#
#
# Elastic Compliance Matrix: (Units=1/GPa)
#
#
# Indices 1 2 3 4 5 6 
#
# 1 0.005546 -0.001490 -0.001942 0.000000 0.000000 0.000000
# 2 -0.001490 0.013563 -0.005555 0.000000 0.000000 0.000000
# 3 -0.001942 -0.005555 0.025067 0.000000 0.000000 0.000000
# 4 0.000000 0.000000 0.000000 0.015799 0.000000 0.000000
# 5 0.000000 0.000000 0.000000 0.000000 0.032132 0.000000
# 6 0.000000 0.000000 0.000000 0.000000 0.000000 0.018265
#
#
# Mechanical properties :
#
#
# Convention : Reuss Voigt Hill
#
# Bulk Modulus (GPa) = 38.16600 52.91612 45.54106
# Shear Modulus (GPa) = 36.47491 46.79797 41.63644
#
# Velocity S-wave (km/s) = 3.63928 4.12222 3.88826
# Velocity P-wave (km/s) = 5.61405 6.47080 6.05759
#
# Compressibility (1/GPa) = 0.02620133
#
# Stress axis : x y z
#
# Youngs Moduli (GPa) = 180.30701 73.73012 39.89343
#
# Poissons Ratio (x) = 0.10988 0.07747
# Poissons Ratio (y) = 0.26870 0.22161
# Poissons Ratio (z) = 0.35014 0.40958
#
# Static dielectric constant tensor:
#      x y z
#    x 2.194860 0.000000 0.000000 
#    y 0.000000 2.310680 0.000000 
#    z 0.000000 0.000000 2.156300 
# 
# From -- ./inp_files/117.got.cif
#   From: 2010.05.17/outbox.cif.g08.bks.cpg/sg33_1_cif.got.tgz:117.got - 2010.06.03 17:15:25.
