data_PCOD9345485
_publ_section_title
;
Structure prediction by ZEFSAII (Michael W. Deem and Ramdas Pophale) SiO2 
 PCOD9345485
Probable space group: P N A 21
;
_chemical_formula_sum "Si O2"
_cell_formula_units_Z 28
_cell_length_a 8.594350
_cell_length_b 16.854151
_cell_length_c 7.953675
_cell_angle_alpha 90.000000
_cell_angle_beta 90.000000
_cell_angle_gamma 90.000000
_cell_volume 1152.093583
_symmetry_space_group_name_H-M "P N A 21"
_symmetry_group_IT_number 33
_symmetry_cell_setting 'orthorhombic'
loop_
_space_group_symop_operation_xyz
x,y,z
-x,-y,1/2+z
1/2-x,1/2+y,1/2+z
1/2+x,1/2-y,z
loop_
_atom_site_type_symbol
_atom_site_label
_atom_site_fract_x
_atom_site_fract_y
_atom_site_fract_z
Si Si1 0.990698 0.527659 0.601540
Si Si2 0.112992 0.167809 0.984193
Si Si3 0.465482 0.488646 0.013924
Si Si4 0.461240 0.847349 0.997806
Si Si5 0.716161 0.567851 0.834428
Si Si6 0.252208 0.111402 0.318334
Si Si7 0.967266 0.326443 0.870676
O O1 0.140089 0.557343 0.700641
O O2 0.961084 0.595273 0.460864
O O3 0.018768 0.441202 0.534058
O O4 0.853394 0.522911 0.736128
O O5 0.008376 0.093880 0.918396
O O6 0.150180 0.157335 0.182170
O O7 0.279487 0.166905 0.886725
O O8 0.021794 0.249031 0.968025
O O9 0.413780 0.451947 0.192360
O O10 0.629158 0.535479 0.999658
O O11 0.339983 0.552030 0.943310
O O12 0.466929 0.812276 0.183196
O O13 0.303712 0.849863 0.885936
O O14 0.623381 0.829495 0.905017
#
# Coordination Sequence:
#
# PCOD9345485 Si02
#       7
#     4   4   4   4   4   4   4
#     4  10  21  41  70 104 138 188 241 295 359 436
#     4  11  26  46  69 103 145 195 236 305 363 447
#     4  12  23  42  69 112 143 189 240 303 355 434
#     4  11  22  42  71 110 136 187 242 303 359 445
#     4  11  24  37  70 104 143 182 238 294 360 409
#     4  10  22  41  69 103 144 185 244 300 357 434
#     4  11  26  45  74 100 145 190 247 294 379 433
#
# _framework density 24.303581000000001
#
# number of rings (size 3 to 8) (size 9 to 14) (size 15 to 20)
#    0.000    1.143    2.857    4.286    2.000    0.000 
#    0.000    4.286    3.143    0.000    0.000    0.000 
#    0.000    0.000    0.000    0.000    0.000    0.000 
#
# Total GULP energy -156099.120595 kJ/mol
# GULP energy per Si atom -5574.968593 kJ/mol
# Density = 2.424827 g / cm^3
# Si number density = 24.303581 Si / 1000 Ang^3
#
#
#
# Elastic Constant Matrix: (Units=GPa)
#
#
# Indices 1 2 3 4 5 6 
#
# 1 102.3596 22.8683 51.5420 0.0000 0.0000 0.0000
# 2 22.8683 71.7329 4.2110 0.0000 0.0000 0.0000
# 3 51.5420 4.2110 110.6611 0.0000 0.0000 0.0000
# 4 0.0000 0.0000 0.0000 25.0151 0.0000 0.0000
# 5 0.0000 0.0000 0.0000 0.0000 50.8720 0.0000
# 6 0.0000 0.0000 0.0000 0.0000 0.0000 8.7960
#
#
#
# Elastic Compliance Matrix: (Units=1/GPa)
#
#
# Indices 1 2 3 4 5 6 
#
# 1 0.013842 -0.004043 -0.006293 0.000000 0.000000 0.000000
# 2 -0.004043 0.015153 0.001307 0.000000 0.000000 0.000000
# 3 -0.006293 0.001307 0.011918 0.000000 0.000000 0.000000
# 4 0.000000 0.000000 0.000000 0.039976 0.000000 0.000000
# 5 0.000000 0.000000 0.000000 0.000000 0.019657 0.000000
# 6 0.000000 0.000000 0.000000 0.000000 0.000000 0.113688
#
#
# Mechanical properties :
#
#
# Convention : Reuss Voigt Hill
#
# Bulk Modulus (GPa) = 43.75793 49.11069 46.43431
# Shear Modulus (GPa) = 20.84113 30.67877 25.75995
#
# Velocity S-wave (km/s) = 2.93154 3.55676 3.25918
# Velocity P-wave (km/s) = 5.43161 6.09249 5.77152
#
# Compressibility (1/GPa) = 0.02285300
#
# Stress axis : x y z
#
# Youngs Moduli (GPa) = 72.24602 65.99399 83.90698
#
# Poissons Ratio (x) = 0.26683 0.52803
# Poissons Ratio (y) = 0.29211 -0.10963
# Poissons Ratio (z) = 0.45465 -0.08623
#
# Static dielectric constant tensor:
#      x y z
#    x 2.080950 0.000000 0.000000 
#    y 0.000000 1.908610 0.000000 
#    z 0.000000 0.000000 2.095320 
# 
# From -- ./inp_files/3374.got.cif
#   From: 2010.05.17/outbox.cif.g08.bks.cpg/sg33_2_cif.got.tgz:3374.got - 2010.06.03 17:15:25.
