data_PCOD9345359
_publ_section_title
;
Structure prediction by ZEFSAII (Michael W. Deem and Ramdas Pophale) SiO2 
 PCOD9345359
Probable space group: P N A 21
;
_chemical_formula_sum "Si O2"
_cell_formula_units_Z 24
_cell_length_a 5.526895
_cell_length_b 16.107683
_cell_length_c 10.080443
_cell_angle_alpha 90.000000
_cell_angle_beta 90.000000
_cell_angle_gamma 90.000000
_cell_volume 897.416202
_symmetry_space_group_name_H-M "P N A 21"
_symmetry_group_IT_number 33
_symmetry_cell_setting 'orthorhombic'
loop_
_space_group_symop_operation_xyz
x,y,z
-x,-y,1/2+z
1/2-x,1/2+y,1/2+z
1/2+x,1/2-y,z
loop_
_atom_site_type_symbol
_atom_site_label
_atom_site_fract_x
_atom_site_fract_y
_atom_site_fract_z
Si Si1 0.723527 0.963464 0.263390
Si Si2 0.896993 0.910184 0.666928
Si Si3 0.118893 0.448548 0.539590
Si Si4 0.003145 0.770825 0.805916
Si Si5 0.874177 0.220344 0.595564
Si Si6 0.604124 0.302049 0.910832
O O1 0.584757 0.917684 0.142771
O O2 0.882281 0.891349 0.334331
O O3 0.879462 0.029906 0.183778
O O4 0.600635 0.015305 0.388511
O O5 0.879473 0.861463 0.804028
O O6 0.915027 0.836654 0.561950
O O7 0.684342 0.968175 0.620954
O O8 0.318282 0.375722 0.558695
O O9 0.277842 0.782655 0.750809
O O10 0.065695 0.739103 0.952447
O O11 0.632428 0.258367 0.661676
O O12 0.357891 0.248142 0.897983
#
# Coordination Sequence:
#
# PCOD9345359 Si02
#       6
#     4   4   4   4   4   4
#     4  11  28  49  82 119 166 219 283 349 427 500
#     4  11  25  44  76 112 159 212 273 339 407 494
#     4  11  27  47  76 117 160 218 270 348 414 508
#     4  10  21  39  68 102 142 190 251 321 389 465
#     4  10  23  43  69 106 150 200 255 324 398 475
#     4  11  28  52  81 118 169 225 280 343 425 516
#
# _framework density 26.743445999999999
#
# number of rings (size 3 to 8) (size 9 to 14) (size 15 to 20)
#    0.000    1.333    1.667    1.000   11.667    4.000 
#    0.000    0.000    0.000    0.000    0.000    0.000 
#    0.000    0.000    0.000    0.000    0.000    0.000 
#
# Total GULP energy -133726.587629 kJ/mol
# GULP energy per Si atom -5571.941151 kJ/mol
# Density = 2.668258 g / cm^3
# Si number density = 26.743446 Si / 1000 Ang^3
#
#
#
# Elastic Constant Matrix: (Units=GPa)
#
#
# Indices 1 2 3 4 5 6 
#
# 1 160.4514 71.6769 65.1145 0.0000 0.0000 0.0000
# 2 71.6769 129.3538 36.2735 0.0000 0.0000 0.0000
# 3 65.1145 36.2735 107.9169 0.0000 0.0000 0.0000
# 4 0.0000 0.0000 0.0000 39.6768 0.0000 0.0000
# 5 0.0000 0.0000 0.0000 0.0000 45.2006 0.0000
# 6 0.0000 0.0000 0.0000 0.0000 0.0000 57.4034
#
#
#
# Elastic Compliance Matrix: (Units=1/GPa)
#
#
# Indices 1 2 3 4 5 6 
#
# 1 0.010000 -0.004250 -0.004605 0.000000 0.000000 0.000000
# 2 -0.004250 0.010341 -0.000912 0.000000 0.000000 0.000000
# 3 -0.004605 -0.000912 0.012352 0.000000 0.000000 0.000000
# 4 0.000000 0.000000 0.000000 0.025204 0.000000 0.000000
# 5 0.000000 0.000000 0.000000 0.000000 0.022124 0.000000
# 6 0.000000 0.000000 0.000000 0.000000 0.000000 0.017421
#
#
# Mechanical properties :
#
#
# Convention : Reuss Voigt Hill
#
# Bulk Modulus (GPa) = 75.99235 82.65021 79.32128
# Shear Modulus (GPa) = 41.19981 43.43331 42.31656
#
# Velocity S-wave (km/s) = 3.92925 4.03435 3.98215
# Velocity P-wave (km/s) = 7.00445 7.25763 7.13217
#
# Compressibility (1/GPa) = 0.01315922
#
# Stress axis : x y z
#
# Youngs Moduli (GPa) = 100.00336 96.70077 80.96158
#
# Poissons Ratio (x) = 0.41094 0.37284
# Poissons Ratio (y) = 0.42497 0.07382
# Poissons Ratio (z) = 0.46053 0.08817
#
# Static dielectric constant tensor:
#      x y z
#    x 2.387120 0.000000 0.000000 
#    y 0.000000 2.134420 0.000000 
#    z 0.000000 0.000000 2.247570 
# 
# From -- ./inp_files/5445.got.cif
#   From: 2010.05.17/outbox.cif.g08.bks.cpg/sg33_3_cif.got.tgz:5445.got - 2010.06.03 17:15:25.
