data_PCOD9345342
_publ_section_title
;
Structure prediction by ZEFSAII (Michael W. Deem and Ramdas Pophale) SiO2 
 PCOD9345342
Probable space group: P N A 21
;
_chemical_formula_sum "Si O2"
_cell_formula_units_Z 32
_cell_length_a 9.305235
_cell_length_b 29.239653
_cell_length_c 5.014606
_cell_angle_alpha 90.000000
_cell_angle_beta 90.000000
_cell_angle_gamma 90.000000
_cell_volume 1364.383240
_symmetry_space_group_name_H-M "P N A 21"
_symmetry_group_IT_number 33
_symmetry_cell_setting 'orthorhombic'
loop_
_space_group_symop_operation_xyz
x,y,z
-x,-y,1/2+z
1/2-x,1/2+y,1/2+z
1/2+x,1/2-y,z
loop_
_atom_site_type_symbol
_atom_site_label
_atom_site_fract_x
_atom_site_fract_y
_atom_site_fract_z
Si Si1 0.010835 0.437796 0.432070
Si Si2 0.933993 0.803174 0.353449
Si Si3 0.970945 0.970879 0.646667
Si Si4 0.798544 0.642735 0.160591
Si Si5 0.617103 0.624596 0.659505
Si Si6 0.083192 0.269855 0.462057
Si Si7 0.669326 0.763239 0.617647
Si Si8 0.656151 0.964262 0.431565
O O1 0.880573 0.448269 0.634982
O O2 0.091434 0.392704 0.528246
O O3 0.116116 0.481845 0.455171
O O4 0.949122 0.437860 0.134864
O O5 0.770305 0.796388 0.450053
O O6 0.994735 0.848477 0.490991
O O7 0.053827 0.766446 0.456732
O O8 0.926782 0.783351 0.052461
O O9 0.817996 0.957597 0.522924
O O10 0.064720 0.926565 0.705388
O O11 0.952842 0.999107 0.918070
O O12 0.665894 0.643428 0.948150
O O13 0.865804 0.693353 0.177868
O O14 0.748011 0.626378 0.449237
O O15 0.212996 0.269484 0.252626
O O16 0.932027 0.285186 0.341551
#
# Coordination Sequence:
#
# PCOD9345342 Si02
#       8
#     4   4   4   4   4   4   4   4
#     4  10  21  39  65  91 130 167 217 271 334 398
#     4  11  23  43  66  98 136 186 230 287 352 410
#     4  12  25  45  70  99 138 177 226 281 353 418
#     4  12  25  44  68 101 133 179 235 279 346 413
#     4  12  26  44  70  99 136 178 233 286 339 428
#     4  11  23  42  66  97 136 180 231 285 343 420
#     4  10  22  41  66  93 133 180 225 280 351 403
#     4  10  21  40  63  94 128 171 213 273 334 400
#
# _framework density 23.45382
#
# number of rings (size 3 to 8) (size 9 to 14) (size 15 to 20)
#    0.000    1.000    1.250    6.000    3.500    3.000 
#    4.500    0.000    0.000    0.000    0.000    0.000 
#    0.000    0.000    0.000    0.000    0.000    0.000 
#
# Total GULP energy -178906.956805 kJ/mol
# GULP energy per Si atom -5590.842400 kJ/mol
# Density = 2.340044 g / cm^3
# Si number density = 23.453820 Si / 1000 Ang^3
#
#
#
# Elastic Constant Matrix: (Units=GPa)
#
#
# Indices 1 2 3 4 5 6 
#
# 1 108.4467 8.2604 11.1083 0.0000 0.0000 0.0000
# 2 8.2604 63.3950 0.2678 0.0000 0.0000 0.0000
# 3 11.1083 0.2678 73.3467 0.0000 0.0000 0.0000
# 4 0.0000 0.0000 0.0000 18.4025 0.0000 0.0000
# 5 0.0000 0.0000 0.0000 0.0000 30.7887 0.0000
# 6 0.0000 0.0000 0.0000 0.0000 0.0000 37.4827
#
#
#
# Elastic Compliance Matrix: (Units=1/GPa)
#
#
# Indices 1 2 3 4 5 6 
#
# 1 0.009461 -0.001227 -0.001428 0.000000 0.000000 0.000000
# 2 -0.001227 0.015933 0.000128 0.000000 0.000000 0.000000
# 3 -0.001428 0.000128 0.013850 0.000000 0.000000 0.000000
# 4 0.000000 0.000000 0.000000 0.054340 0.000000 0.000000
# 5 0.000000 0.000000 0.000000 0.000000 0.032479 0.000000
# 6 0.000000 0.000000 0.000000 0.000000 0.000000 0.026679
#
#
# Mechanical properties :
#
#
# Convention : Reuss Voigt Hill
#
# Bulk Modulus (GPa) = 29.24911 31.60683 30.42797
# Shear Modulus (GPa) = 29.55183 32.37156 30.96170
#
# Velocity S-wave (km/s) = 3.55350 3.71917 3.63728
# Velocity P-wave (km/s) = 5.41613 5.65229 5.53547
#
# Compressibility (1/GPa) = 0.03418907
#
# Stress axis : x y z
#
# Youngs Moduli (GPa) = 105.69859 62.76120 72.20355
#
# Poissons Ratio (x) = 0.07699 0.10313
# Poissons Ratio (y) = 0.12966 -0.00921
# Poissons Ratio (z) = 0.15098 -0.00801
#
# Static dielectric constant tensor:
#      x y z
#    x 1.870670 0.000000 0.000000 
#    y 0.000000 1.892330 0.000000 
#    z 0.000000 0.000000 1.917010 
# 
# From -- ./inp_files/585.got.cif
#   From: 2010.05.17/outbox.cif.g08.bks.cpg/sg33_1_cif.got.tgz:585.got - 2010.06.03 17:15:25.
