data_PCOD9345235
_publ_section_title
;
Structure prediction by ZEFSAII (Michael W. Deem and Ramdas Pophale) SiO2 
 PCOD9345235
Probable space group: P N A 21
;
_chemical_formula_sum "Si O2"
_cell_formula_units_Z 28
_cell_length_a 24.578962
_cell_length_b 5.240998
_cell_length_c 8.175561
_cell_angle_alpha 90.000000
_cell_angle_beta 90.000000
_cell_angle_gamma 90.000000
_cell_volume 1053.161793
_symmetry_space_group_name_H-M "P N A 21"
_symmetry_group_IT_number 33
_symmetry_cell_setting 'orthorhombic'
loop_
_space_group_symop_operation_xyz
x,y,z
-x,-y,1/2+z
1/2-x,1/2+y,1/2+z
1/2+x,1/2-y,z
loop_
_atom_site_type_symbol
_atom_site_label
_atom_site_fract_x
_atom_site_fract_y
_atom_site_fract_z
Si Si1 0.849365 0.224939 0.205910
Si Si2 0.782309 0.990364 0.931054
Si Si3 0.435751 0.081449 0.767646
Si Si4 0.450794 0.588759 0.954739
Si Si5 0.440308 0.867914 0.269428
Si Si6 0.256822 0.527635 0.592612
Si Si7 0.918987 0.047029 0.477926
O O1 0.833564 0.051848 0.050018
O O2 0.898401 0.423715 0.212281
O O3 0.795992 0.402148 0.204920
O O4 0.863955 0.073272 0.370036
O O5 0.743171 0.233321 0.970067
O O6 0.756414 0.730101 0.998245
O O7 0.799439 0.984926 0.740834
O O8 0.437930 0.302398 0.904899
O O9 0.499387 0.039973 0.732487
O O10 0.409513 0.251290 0.623700
O O11 0.420563 0.806946 0.845291
O O12 0.517025 0.618826 0.936258
O O13 0.437055 0.631322 0.144085
O O14 0.428420 0.760298 0.452141
#
# Coordination Sequence:
#
# PCOD9345235 Si02
#       7
#     4   4   4   4   4   4   4
#     4  10  22  36  70  86 132 152 214 244 322 368
#     4  10  22  42  71  95 121 159 204 252 318 383
#     4  10  22  37  59  86 122 168 213 255 295 353
#     4  10  22  37  59  86 122 168 213 255 295 353
#     4  10  21  37  61  86 123 169 211 247 308 366
#     4  10  22  42  71  95 121 159 204 252 318 383
#     4  10  21  37  61  86 123 169 211 247 308 366
#
# _framework density 26.586604999999999
#
# number of rings (size 3 to 8) (size 9 to 14) (size 15 to 20)
#    0.857    1.143    1.429    1.714    4.000    2.286 
#    0.000    1.429    0.000    0.000    0.000    0.000 
#    0.000    0.000    0.000    0.000    0.000    0.000 
#
# Total GULP energy -156009.791168 kJ/mol
# GULP energy per Si atom -5571.778256 kJ/mol
# Density = 2.652609 g / cm^3
# Si number density = 26.586605 Si / 1000 Ang^3
#
#
#
# Elastic Constant Matrix: (Units=GPa)
#
#
# Indices 1 2 3 4 5 6 
#
# 1 49.8167 27.2139 -3.1631 0.0000 0.0000 0.0000
# 2 27.2139 125.0883 9.8979 0.0000 0.0000 0.0000
# 3 -3.1631 9.8979 51.1521 0.0000 0.0000 0.0000
# 4 0.0000 0.0000 0.0000 47.8414 0.0000 0.0000
# 5 0.0000 0.0000 0.0000 0.0000 21.8460 0.0000
# 6 0.0000 0.0000 0.0000 0.0000 0.0000 25.9416
#
#
#
# Elastic Compliance Matrix: (Units=1/GPa)
#
#
# Indices 1 2 3 4 5 6 
#
# 1 0.023076 -0.005213 0.002436 0.000000 0.000000 0.000000
# 2 -0.005213 0.009296 -0.002121 0.000000 0.000000 0.000000
# 3 0.002436 -0.002121 0.020111 0.000000 0.000000 0.000000
# 4 0.000000 0.000000 0.000000 0.020902 0.000000 0.000000
# 5 0.000000 0.000000 0.000000 0.000000 0.045775 0.000000
# 6 0.000000 0.000000 0.000000 0.000000 0.000000 0.038548
#
#
# Mechanical properties :
#
#
# Convention : Reuss Voigt Hill
#
# Bulk Modulus (GPa) = 23.42699 32.66159 28.04429
# Shear Modulus (GPa) = 27.51271 31.93303 29.72287
#
# Velocity S-wave (km/s) = 3.22037 3.46944 3.34722
# Velocity P-wave (km/s) = 4.76009 5.32551 5.05072
#
# Compressibility (1/GPa) = 0.04268580
#
# Stress axis : x y z
#
# Youngs Moduli (GPa) = 43.33496 107.56921 49.72499
#
# Poissons Ratio (x) = 0.56077 -0.12111
# Poissons Ratio (y) = 0.22591 0.10548
# Poissons Ratio (z) = -0.10555 0.22818
#
# Static dielectric constant tensor:
#      x y z
#    x 2.274980 0.000000 0.000000 
#    y 0.000000 2.132460 0.000000 
#    z 0.000000 0.000000 2.287260 
# 
# From -- ./inp_files/5233.got.cif
#   From: 2010.05.17/outbox.cif.g08.bks.cpg/sg33_3_cif.got.tgz:5233.got - 2010.06.03 17:15:25.
