data_PCOD9345851
_publ_section_title
;
Structure prediction by ZEFSAII (Michael W. Deem and Ramdas Pophale) SiO2 
 PCOD9345851
Probable space group: P N A 21
;
_chemical_formula_sum "Si O2"
_cell_formula_units_Z 32
_cell_length_a 9.280249
_cell_length_b 27.408371
_cell_length_c 5.124989
_cell_angle_alpha 90.000000
_cell_angle_beta 90.000000
_cell_angle_gamma 90.000000
_cell_volume 1303.574303
_symmetry_space_group_name_H-M "P N A 21"
_symmetry_group_IT_number 33
_symmetry_cell_setting 'orthorhombic'
loop_
_space_group_symop_operation_xyz
x,y,z
-x,-y,1/2+z
1/2-x,1/2+y,1/2+z
1/2+x,1/2-y,z
loop_
_atom_site_type_symbol
_atom_site_label
_atom_site_fract_x
_atom_site_fract_y
_atom_site_fract_z
Si Si1 0.340951 0.644535 0.143050
Si Si2 0.172148 0.474210 0.628571
Si Si3 0.011862 0.438788 0.134612
Si Si4 0.642926 0.845161 0.631378
Si Si5 0.561696 0.675107 0.535190
Si Si6 0.720338 0.195665 0.661541
Si Si7 0.389445 0.399861 0.442236
Si Si8 0.044283 0.742168 0.896048
O O1 0.233895 0.639794 0.382866
O O2 0.458326 0.681008 0.284717
O O3 0.239731 0.649983 0.891704
O O4 0.454153 0.602329 0.073888
O O5 0.138378 0.531600 0.598469
O O6 0.317350 0.450708 0.517819
O O7 0.057851 0.451459 0.426461
O O8 0.126784 0.456858 0.918643
O O9 0.990425 0.381709 0.124437
O O10 0.586318 0.790664 0.648000
O O11 0.722154 0.692699 0.458016
O O12 0.580017 0.620447 0.649477
O O13 0.491046 0.707730 0.761253
O O14 0.781091 0.143510 0.550100
O O15 0.812851 0.240465 0.543353
O O16 0.560785 0.209491 0.573335
#
# Coordination Sequence:
#
# PCOD9345851 Si02
#       8
#     4   4   4   4   4   4   4   4
#     4  11  24  44  66  96 135 185 220 285 339 413
#     4  10  22  43  72  98 138 172 221 291 350 406
#     4  10  23  43  67 105 135 173 222 284 353 416
#     4  12  25  43  69  97 142 178 231 276 354 408
#     4  10  23  43  66  95 141 178 240 278 348 405
#     4  10  24  39  64  94 134 176 236 277 340 405
#     4  10  22  43  68  98 130 180 232 274 344 411
#     4  11  25  42  62  99 137 184 232 293 338 412
#
# _framework density 24.547892999999998
#
# number of rings (size 3 to 8) (size 9 to 14) (size 15 to 20)
#    0.000    1.500    1.250    2.250    8.750    2.000 
#    0.000    1.250    0.000    0.000    0.000    0.000 
#    0.000    0.000    0.000    0.000    0.000    0.000 
#
# Total GULP energy -178567.187023 kJ/mol
# GULP energy per Si atom -5580.224594 kJ/mol
# Density = 2.449202 g / cm^3
# Si number density = 24.547893 Si / 1000 Ang^3
#
#
#
# Elastic Constant Matrix: (Units=GPa)
#
#
# Indices 1 2 3 4 5 6 
#
# 1 49.9831 -15.4023 11.6766 0.0000 0.0000 0.0000
# 2 -15.4023 23.1624 -15.9058 0.0000 0.0000 0.0000
# 3 11.6766 -15.9058 106.5335 0.0000 0.0000 0.0000
# 4 0.0000 0.0000 0.0000 17.9457 0.0000 0.0000
# 5 0.0000 0.0000 0.0000 0.0000 35.7657 0.0000
# 6 0.0000 0.0000 0.0000 0.0000 0.0000 21.5135
#
#
#
# Elastic Compliance Matrix: (Units=1/GPa)
#
#
# Indices 1 2 3 4 5 6 
#
# 1 0.025171 0.016539 -0.000289 0.000000 0.000000 0.000000
# 2 0.016539 0.058973 0.006992 0.000000 0.000000 0.000000
# 3 -0.000289 0.006992 0.010462 0.000000 0.000000 0.000000
# 4 0.000000 0.000000 0.000000 0.055724 0.000000 0.000000
# 5 0.000000 0.000000 0.000000 0.000000 0.027960 0.000000
# 6 0.000000 0.000000 0.000000 0.000000 0.000000 0.046482
#
#
# Mechanical properties :
#
#
# Convention : Reuss Voigt Hill
#
# Bulk Modulus (GPa) = 7.08767 15.60175 11.34471
# Shear Modulus (GPa) = 22.19079 28.33235 25.26157
#
# Velocity S-wave (km/s) = 3.00989 3.40099 3.21140
# Velocity P-wave (km/s) = 3.86947 4.66816 4.28745
#
# Compressibility (1/GPa) = 0.14109003
#
# Stress axis : x y z
#
# Youngs Moduli (GPa) = 39.72829 16.95690 95.58039
#
# Poissons Ratio (x) = -0.28045 0.02767
# Poissons Ratio (y) = -0.65707 -0.66831
# Poissons Ratio (z) = 0.01150 -0.11856
#
# Static dielectric constant tensor:
#      x y z
#    x 2.032200 0.000000 0.000000 
#    y 0.000000 2.004700 0.000000 
#    z 0.000000 0.000000 2.047560 
# 
# From -- ./inp_files/584.got.cif
#   From: 2010.05.17/outbox.cif.g08.bks.cpg/sg33_1_cif.got.tgz:584.got - 2010.06.03 17:15:25.
