data_PCOD9345089
_publ_section_title
;
Structure prediction by ZEFSAII (Michael W. Deem and Ramdas Pophale) SiO2 
 PCOD9345089
Probable space group: P N A 21
;
_chemical_formula_sum "Si O2"
_cell_formula_units_Z 32
_cell_length_a 15.065533
_cell_length_b 9.083049
_cell_length_c 11.480904
_cell_angle_alpha 90.000000
_cell_angle_beta 90.000000
_cell_angle_gamma 90.000000
_cell_volume 1571.058091
_symmetry_space_group_name_H-M "P N A 21"
_symmetry_group_IT_number 33
_symmetry_cell_setting 'orthorhombic'
loop_
_space_group_symop_operation_xyz
x,y,z
-x,-y,1/2+z
1/2-x,1/2+y,1/2+z
1/2+x,1/2-y,z
loop_
_atom_site_type_symbol
_atom_site_label
_atom_site_fract_x
_atom_site_fract_y
_atom_site_fract_z
Si Si1 0.707776 0.157681 0.136200
Si Si2 0.554661 0.672565 0.245212
Si Si3 0.060800 0.620247 0.575266
Si Si4 0.794890 0.301691 0.911224
Si Si5 0.443971 0.622531 0.609813
Si Si6 0.362330 0.230625 0.300250
Si Si7 0.885917 0.938848 0.356146
Si Si8 0.601977 0.902636 0.051219
O O1 0.616702 0.245230 0.154115
O O2 0.771609 0.222195 0.235276
O O3 0.679053 0.988744 0.121909
O O4 0.748747 0.200499 0.010055
O O5 0.635891 0.716576 0.329034
O O6 0.559237 0.505827 0.202038
O O7 0.457240 0.676187 0.304109
O O8 0.563313 0.775357 0.132770
O O9 0.143108 0.591368 0.489642
O O10 0.089407 0.617488 0.710994
O O11 0.033513 0.794365 0.569330
O O12 0.979361 0.518283 0.536899
O O13 0.715131 0.382472 0.843267
O O14 0.401202 0.557787 0.493729
O O15 0.403250 0.395078 0.312522
O O16 0.362891 0.158546 0.427969
#
# Coordination Sequence:
#
# PCOD9345089 Si02
#       8
#     4   4   4   4   4   4   4   4
#     4   9  23  43  65  95 136 181 222 277 343 401
#     4  12  23  40  70  99 133 174 227 279 336 404
#     4  10  22  42  66  92 132 178 219 277 346 397
#     4  10  23  41  68  94 133 179 224 277 339 399
#     4  10  20  41  63  95 130 175 225 269 337 410
#     4  11  22  42  66  94 140 176 219 287 343 401
#     4  11  22  42  65  95 136 175 224 276 334 408
#     4  11  25  41  67 104 132 174 238 276 334 410
#
# _framework density 20.368438999999999
#
# number of rings (size 3 to 8) (size 9 to 14) (size 15 to 20)
#    0.000    1.500    3.750    0.750    3.500    0.000 
#    4.500    0.000    0.000    0.000    0.000    0.000 
#    0.000    0.000    0.000    0.000    0.000    0.000 
#
# Total GULP energy -178257.932057 kJ/mol
# GULP energy per Si atom -5570.560377 kJ/mol
# Density = 2.032208 g / cm^3
# Si number density = 20.368439 Si / 1000 Ang^3
#
#
#
# Elastic Constant Matrix: (Units=GPa)
#
#
# Indices 1 2 3 4 5 6 
#
# 1 94.9303 33.1904 56.9888 0.0000 0.0000 0.0000
# 2 33.1904 83.9289 42.7698 0.0000 0.0000 0.0000
# 3 56.9888 42.7698 110.6265 0.0000 0.0000 0.0000
# 4 0.0000 0.0000 0.0000 20.7543 0.0000 0.0000
# 5 0.0000 0.0000 0.0000 0.0000 23.1489 0.0000
# 6 0.0000 0.0000 0.0000 0.0000 0.0000 21.4343
#
#
#
# Elastic Compliance Matrix: (Units=1/GPa)
#
#
# Indices 1 2 3 4 5 6 
#
# 1 0.015692 -0.002598 -0.007079 0.000000 0.000000 0.000000
# 2 -0.002598 0.015268 -0.004565 0.000000 0.000000 0.000000
# 3 -0.007079 -0.004565 0.014451 0.000000 0.000000 0.000000
# 4 0.000000 0.000000 0.000000 0.048183 0.000000 0.000000
# 5 0.000000 0.000000 0.000000 0.000000 0.043199 0.000000
# 6 0.000000 0.000000 0.000000 0.000000 0.000000 0.046654
#
#
# Mechanical properties :
#
#
# Convention : Reuss Voigt Hill
#
# Bulk Modulus (GPa) = 59.07477 61.70931 60.39204
# Shear Modulus (GPa) = 22.98067 23.50326 23.24197
#
# Velocity S-wave (km/s) = 3.36259 3.40060 3.38165
# Velocity P-wave (km/s) = 6.64395 6.76617 6.70534
#
# Compressibility (1/GPa) = 0.01692770
#
# Stress axis : x y z
#
# Youngs Moduli (GPa) = 63.72542 65.49497 69.19891
#
# Poissons Ratio (x) = 0.17016 0.48989
# Poissons Ratio (y) = 0.16556 0.31587
# Poissons Ratio (z) = 0.45114 0.29896
#
# Static dielectric constant tensor:
#      x y z
#    x 1.782630 0.000000 0.000000 
#    y 0.000000 1.716850 0.000000 
#    z 0.000000 0.000000 1.754060 
# 
# From -- ./inp_files/6787.got.cif
#   From: 2010.05.17/outbox.cif.g08.bks.cpg/sg33_4_cif.got.tgz:6787.got - 2010.06.03 17:15:25.
