data_PCOD9345717
_publ_section_title
;
Structure prediction by ZEFSAII (Michael W. Deem and Ramdas Pophale) SiO2 
 PCOD9345717
Probable space group: P N A 21
;
_chemical_formula_sum "Si O2"
_cell_formula_units_Z 28
_cell_length_a 10.809313
_cell_length_b 5.590903
_cell_length_c 17.486908
_cell_angle_alpha 90.000000
_cell_angle_beta 90.000000
_cell_angle_gamma 90.000000
_cell_volume 1056.800659
_symmetry_space_group_name_H-M "P N A 21"
_symmetry_group_IT_number 33
_symmetry_cell_setting 'orthorhombic'
loop_
_space_group_symop_operation_xyz
x,y,z
-x,-y,1/2+z
1/2-x,1/2+y,1/2+z
1/2+x,1/2-y,z
loop_
_atom_site_type_symbol
_atom_site_label
_atom_site_fract_x
_atom_site_fract_y
_atom_site_fract_z
Si Si1 0.424900 0.801486 0.444150
Si Si2 0.208520 0.117035 0.280029
Si Si3 0.152639 0.801517 0.916236
Si Si4 0.817133 0.714230 0.163390
Si Si5 0.107119 0.657492 0.559349
Si Si6 0.652864 0.104666 0.136477
Si Si7 0.470715 0.599647 0.294359
O O1 0.351180 0.553559 0.461579
O O2 0.566208 0.784223 0.473243
O O3 0.420317 0.800611 0.351961
O O4 0.377859 0.066362 0.465016
O O5 0.233548 0.232501 0.361962
O O6 0.145812 0.306714 0.223547
O O7 0.310615 0.010859 0.221284
O O8 0.116480 0.894523 0.288961
O O9 0.056691 0.866701 0.847156
O O10 0.870599 0.617532 0.083933
O O11 0.899934 0.894284 0.214101
O O12 0.684338 0.825169 0.143505
O O13 0.971503 0.698153 0.597674
O O14 0.224747 0.799290 0.591479
#
# Coordination Sequence:
#
# PCOD9345717 Si02
#       7
#     4   4   4   4   4   4   4
#     4  10  24  47  67 101 144 194 242 303 369 453
#     4  11  21  39  68 108 132 191 240 312 372 435
#     4  10  22  45  66 101 142 179 244 297 371 433
#     4  11  22  42  69 106 144 190 249 308 373 450
#     4  11  27  45  71 105 149 199 254 303 385 458
#     4  11  24  44  71 104 148 195 248 317 373 456
#     4  10  22  40  70 101 145 184 243 308 369 441
#
# _framework density 26.495062000000001
#
# number of rings (size 3 to 8) (size 9 to 14) (size 15 to 20)
#    0.857    0.571    2.857    1.714    4.000    3.429 
#    2.571    0.000    0.000    0.000    0.000    0.000 
#    0.000    0.000    0.000    0.000    0.000    0.000 
#
# Total GULP energy -156031.994543 kJ/mol
# GULP energy per Si atom -5572.571234 kJ/mol
# Density = 2.643476 g / cm^3
# Si number density = 26.495062 Si / 1000 Ang^3
#
#
#
# Elastic Constant Matrix: (Units=GPa)
#
#
# Indices 1 2 3 4 5 6 
#
# 1 78.3745 17.7559 11.4286 0.0000 0.0000 0.0000
# 2 17.7559 127.2081 36.5306 0.0000 0.0000 0.0000
# 3 11.4286 36.5306 55.6961 0.0000 0.0000 0.0000
# 4 0.0000 0.0000 0.0000 42.8768 0.0000 0.0000
# 5 0.0000 0.0000 0.0000 0.0000 42.0281 0.0000
# 6 0.0000 0.0000 0.0000 0.0000 0.0000 24.9377
#
#
#
# Elastic Compliance Matrix: (Units=1/GPa)
#
#
# Indices 1 2 3 4 5 6 
#
# 1 0.013332 -0.001325 -0.001867 0.000000 0.000000 0.000000
# 2 -0.001325 0.009817 -0.006167 0.000000 0.000000 0.000000
# 3 -0.001867 -0.006167 0.022383 0.000000 0.000000 0.000000
# 4 0.000000 0.000000 0.000000 0.023323 0.000000 0.000000
# 5 0.000000 0.000000 0.000000 0.000000 0.023794 0.000000
# 6 0.000000 0.000000 0.000000 0.000000 0.000000 0.040100
#
#
# Mechanical properties :
#
#
# Convention : Reuss Voigt Hill
#
# Bulk Modulus (GPa) = 37.29377 43.63431 40.46404
# Shear Modulus (GPa) = 31.17159 35.00610 33.08884
#
# Velocity S-wave (km/s) = 3.43374 3.63882 3.53777
# Velocity P-wave (km/s) = 5.46142 5.84459 5.65625
#
# Compressibility (1/GPa) = 0.02681413
#
# Stress axis : x y z
#
# Youngs Moduli (GPa) = 75.00982 101.86334 44.67761
#
# Poissons Ratio (x) = 0.13495 0.08340
# Poissons Ratio (y) = 0.09937 0.27553
# Poissons Ratio (z) = 0.14002 0.62820
#
# Static dielectric constant tensor:
#      x y z
#    x 2.188130 0.000000 0.000000 
#    y 0.000000 2.147600 0.000000 
#    z 0.000000 0.000000 2.092510 
# 
# From -- ./inp_files/9041.got.cif
#   From: 2010.05.17/outbox.cif.g08.bks.cpg/sg33_5_cif.got.tgz:9041.got - 2010.06.03 17:15:25.
