data_PCOD9345395
_publ_section_title
;
Structure prediction by ZEFSAII (Michael W. Deem and Ramdas Pophale) SiO2 
 PCOD9345395
Probable space group: P N A 21
;
_chemical_formula_sum "Si O2"
_cell_formula_units_Z 32
_cell_length_a 15.174117
_cell_length_b 16.449238
_cell_length_c 6.652978
_cell_angle_alpha 90.000000
_cell_angle_beta 90.000000
_cell_angle_gamma 90.000000
_cell_volume 1660.601019
_symmetry_space_group_name_H-M "P N A 21"
_symmetry_group_IT_number 33
_symmetry_cell_setting 'orthorhombic'
loop_
_space_group_symop_operation_xyz
x,y,z
-x,-y,1/2+z
1/2-x,1/2+y,1/2+z
1/2+x,1/2-y,z
loop_
_atom_site_type_symbol
_atom_site_label
_atom_site_fract_x
_atom_site_fract_y
_atom_site_fract_z
Si Si1 0.676755 0.003690 0.808360
Si Si2 0.379904 0.658064 0.310993
Si Si3 0.306788 0.117452 0.647923
Si Si4 0.945247 0.281168 0.408528
Si Si5 0.372034 0.542521 0.670991
Si Si6 0.513534 0.596662 0.000351
Si Si7 0.425451 0.115435 0.030298
Si Si8 0.078933 0.343224 0.740089
O O1 0.662065 0.097318 0.751737
O O2 0.774425 0.977032 0.745096
O O3 0.602067 0.957470 0.677167
O O4 0.671253 0.968006 0.035918
O O5 0.296106 0.635289 0.172503
O O6 0.367211 0.621069 0.529565
O O7 0.464415 0.616544 0.209073
O O8 0.394741 0.754100 0.314609
O O9 0.357221 0.185284 0.516570
O O10 0.347211 0.122391 0.869889
O O11 0.939938 0.309213 0.179200
O O12 0.954752 0.184734 0.424724
O O13 0.025726 0.325367 0.531694
O O14 0.409584 0.467470 0.540630
O O15 0.441683 0.560074 0.847549
O O16 0.511424 0.111903 0.891897
#
# Coordination Sequence:
#
# PCOD9345395 Si02
#       8
#     4   4   4   4   4   4   4   4
#     4  11  24  38  64  96 126 164 209 262 319 381
#     4  11  22  43  61  91 127 166 210 268 318 374
#     4  10  21  40  64  91 127 161 207 264 319 377
#     4   9  22  41  63  92 123 167 209 260 317 378
#     4  12  23  41  65  93 124 171 211 265 324 377
#     4  11  23  41  66  89 127 164 217 262 315 385
#     4  10  21  41  63  91 125 165 205 258 322 376
#     4  10  24  39  64  91 125 168 212 257 316 388
#
# _framework density 19.270132
#
# number of rings (size 3 to 8) (size 9 to 14) (size 15 to 20)
#    0.000    1.500    3.750    0.750    7.000    0.000 
#    0.000    1.250    0.000    0.000    0.000    0.000 
#    0.000    0.000    0.000    0.000    0.000    0.000 
#
# Total GULP energy -178526.671253 kJ/mol
# GULP energy per Si atom -5578.958477 kJ/mol
# Density = 1.922627 g / cm^3
# Si number density = 19.270132 Si / 1000 Ang^3
#
#
#
# Elastic Constant Matrix: (Units=GPa)
#
#
# Indices 1 2 3 4 5 6 
#
# 1 15.1289 15.4219 13.8965 0.0000 0.0000 0.0000
# 2 15.4219 94.8117 28.3437 0.0000 0.0000 0.0000
# 3 13.8965 28.3437 83.7986 0.0000 0.0000 0.0000
# 4 0.0000 0.0000 0.0000 21.7258 0.0000 0.0000
# 5 0.0000 0.0000 0.0000 0.0000 25.5659 0.0000
# 6 0.0000 0.0000 0.0000 0.0000 0.0000 19.0759
#
#
#
# Elastic Compliance Matrix: (Units=1/GPa)
#
#
# Indices 1 2 3 4 5 6 
#
# 1 0.087142 -0.010963 -0.010743 0.000000 0.000000 0.000000
# 2 -0.010963 0.013113 -0.002617 0.000000 0.000000 0.000000
# 3 -0.010743 -0.002617 0.014600 0.000000 0.000000 0.000000
# 4 0.000000 0.000000 0.000000 0.046028 0.000000 0.000000
# 5 0.000000 0.000000 0.000000 0.000000 0.039115 0.000000
# 6 0.000000 0.000000 0.000000 0.000000 0.000000 0.052422
#
#
# Mechanical properties :
#
#
# Convention : Reuss Voigt Hill
#
# Bulk Modulus (GPa) = 15.10372 34.34037 24.72204
# Shear Modulus (GPa) = 15.47341 22.34532 18.90936
#
# Velocity S-wave (km/s) = 2.83675 3.40896 3.13593
# Velocity P-wave (km/s) = 4.31097 5.77528 5.09600
#
# Compressibility (1/GPa) = 0.06620886
#
# Stress axis : x y z
#
# Youngs Moduli (GPa) = 11.47558 76.26124 68.49249
#
# Poissons Ratio (x) = 0.83603 0.73581
# Poissons Ratio (y) = 0.12580 0.17926
# Poissons Ratio (z) = 0.12328 0.19960
#
# Static dielectric constant tensor:
#      x y z
#    x 1.685730 0.000000 0.000000 
#    y 0.000000 1.673600 0.000000 
#    z 0.000000 0.000000 1.685780 
# 
# From -- ./inp_files/1838.got.cif
#   From: 2010.05.17/outbox.cif.g08.bks.cpg/sg33_1_cif.got.tgz:1838.got - 2010.06.03 17:15:25.
