data_PCOD9345354
_publ_section_title
;
Structure prediction by ZEFSAII (Michael W. Deem and Ramdas Pophale) SiO2 
 PCOD9345354
Probable space group: P N A 21
;
_chemical_formula_sum "Si O2"
_cell_formula_units_Z 32
_cell_length_a 10.443502
_cell_length_b 5.175751
_cell_length_c 22.623883
_cell_angle_alpha 90.000000
_cell_angle_beta 90.000000
_cell_angle_gamma 90.000000
_cell_volume 1222.887977
_symmetry_space_group_name_H-M "P N A 21"
_symmetry_group_IT_number 33
_symmetry_cell_setting 'orthorhombic'
loop_
_space_group_symop_operation_xyz
x,y,z
-x,-y,1/2+z
1/2-x,1/2+y,1/2+z
1/2+x,1/2-y,z
loop_
_atom_site_type_symbol
_atom_site_label
_atom_site_fract_x
_atom_site_fract_y
_atom_site_fract_z
Si Si1 0.949852 0.794636 0.801340
Si Si2 0.478782 0.009439 0.197983
Si Si3 0.805279 0.204084 0.534309
Si Si4 0.900645 0.393258 0.973307
Si Si5 0.580725 0.741240 0.912620
Si Si6 0.276603 0.070423 0.859882
Si Si7 0.231019 0.796453 0.242305
Si Si8 0.931765 0.731256 0.576512
O O1 0.048728 0.716367 0.750522
O O2 0.902920 0.516566 0.825323
O O3 0.994573 0.908707 0.864292
O O4 0.842983 0.950299 0.766286
O O5 0.351576 0.834959 0.199141
O O6 0.614979 0.867090 0.212145
O O7 0.501592 0.152106 0.136851
O O8 0.666381 0.136343 0.507470
O O9 0.891171 0.132035 0.476888
O O10 0.841783 0.491149 0.554633
O O11 0.847697 0.989367 0.581448
O O12 0.802701 0.291908 0.922749
O O13 0.016836 0.493022 0.932316
O O14 0.957019 0.236814 0.027391
O O15 0.714588 0.704556 0.879134
O O16 0.206220 0.199505 0.804938
#
# Coordination Sequence:
#
# PCOD9345354 Si02
#       8
#     4   4   4   4   4   4   4   4
#     4  10  21  39  66  98 139 190 235 309 373 457
#     4  11  27  44  69 106 140 202 253 316 388 458
#     4  10  24  45  68 103 137 190 242 305 371 450
#     4   9  21  42  68 101 139 187 238 307 380 445
#     4   9  18  40  66  99 141 175 240 296 378 449
#     4   9  19  39  63 102 136 184 233 303 378 456
#     4  11  24  44  70 104 146 191 256 320 389 464
#     4  11  26  45  70  99 142 193 249 306 371 455
#
# _framework density 26.167563999999999
#
# number of rings (size 3 to 8) (size 9 to 14) (size 15 to 20)
#    0.000    2.000    0.000    1.500    5.250    3.000 
#   27.000    0.000    0.000    0.000    0.000    0.000 
#    0.000    0.000    0.000    0.000    0.000    0.000 
#
# Total GULP energy -178222.170529 kJ/mol
# GULP energy per Si atom -5569.442829 kJ/mol
# Density = 2.610800 g / cm^3
# Si number density = 26.167564 Si / 1000 Ang^3
#
#
#
# Elastic Constant Matrix: (Units=GPa)
#
#
# Indices 1 2 3 4 5 6 
#
# 1 83.5707 12.4952 16.7784 0.0000 0.0000 0.0000
# 2 12.4952 56.1735 6.0956 0.0000 0.0000 0.0000
# 3 16.7784 6.0956 102.1388 0.0000 0.0000 0.0000
# 4 0.0000 0.0000 0.0000 31.5057 0.0000 0.0000
# 5 0.0000 0.0000 0.0000 0.0000 25.8507 0.0000
# 6 0.0000 0.0000 0.0000 0.0000 0.0000 12.2398
#
#
#
# Elastic Compliance Matrix: (Units=1/GPa)
#
#
# Indices 1 2 3 4 5 6 
#
# 1 0.012747 -0.002625 -0.001937 0.000000 0.000000 0.000000
# 2 -0.002625 0.018459 -0.000670 0.000000 0.000000 0.000000
# 3 -0.001937 -0.000670 0.010149 0.000000 0.000000 0.000000
# 4 0.000000 0.000000 0.000000 0.031740 0.000000 0.000000
# 5 0.000000 0.000000 0.000000 0.000000 0.038684 0.000000
# 6 0.000000 0.000000 0.000000 0.000000 0.000000 0.081701
#
#
# Mechanical properties :
#
#
# Convention : Reuss Voigt Hill
#
# Bulk Modulus (GPa) = 32.37399 34.73570 33.55485
# Shear Modulus (GPa) = 23.33809 27.68683 25.51246
#
# Velocity S-wave (km/s) = 2.98966 3.25631 3.12583
# Velocity P-wave (km/s) = 4.93113 5.23844 5.08711
#
# Compressibility (1/GPa) = 0.03088899
#
# Stress axis : x y z
#
# Youngs Moduli (GPa) = 78.44735 54.17497 98.53330
#
# Poissons Ratio (x) = 0.14223 0.19089
# Poissons Ratio (y) = 0.20595 0.06605
# Poissons Ratio (z) = 0.15198 0.03632
#
# Static dielectric constant tensor:
#      x y z
#    x 2.192400 0.000000 0.000000 
#    y 0.000000 2.158920 0.000000 
#    z 0.000000 0.000000 2.090670 
# 
# From -- ./inp_files/9282.got.cif
#   From: 2010.05.17/outbox.cif.g08.bks.cpg/sg33_5_cif.got.tgz:9282.got - 2010.06.03 17:15:25.
