data_PCOD9345363
_publ_section_title
;
Structure prediction by ZEFSAII (Michael W. Deem and Ramdas Pophale) SiO2 
 PCOD9345363
Probable space group: P N A 21
;
_chemical_formula_sum "Si O2"
_cell_formula_units_Z 28
_cell_length_a 21.010321
_cell_length_b 7.645695
_cell_length_c 6.806223
_cell_angle_alpha 90.000000
_cell_angle_beta 90.000000
_cell_angle_gamma 90.000000
_cell_volume 1093.341496
_symmetry_space_group_name_H-M "P N A 21"
_symmetry_group_IT_number 33
_symmetry_cell_setting 'orthorhombic'
loop_
_space_group_symop_operation_xyz
x,y,z
-x,-y,1/2+z
1/2-x,1/2+y,1/2+z
1/2+x,1/2-y,z
loop_
_atom_site_type_symbol
_atom_site_label
_atom_site_fract_x
_atom_site_fract_y
_atom_site_fract_z
Si Si1 0.118673 0.537274 0.556100
Si Si2 0.884312 0.079417 0.542209
Si Si3 0.707335 0.009473 0.215128
Si Si4 0.423938 0.533312 0.948064
Si Si5 0.337330 0.681468 0.262919
Si Si6 0.212746 0.691688 0.848506
Si Si7 0.018836 0.767084 0.732453
O O1 0.142137 0.529282 0.330995
O O2 0.138321 0.362824 0.674355
O O3 0.167309 0.671817 0.662376
O O4 0.047636 0.602542 0.613572
O O5 0.903828 0.081367 0.764816
O O6 0.875488 0.884214 0.454473
O O7 0.817237 0.171897 0.503927
O O8 0.931777 0.189844 0.406788
O O9 0.763970 0.875993 0.283499
O O10 0.724843 0.208597 0.276039
O O11 0.711291 0.983202 0.980187
O O12 0.452888 0.709763 0.849976
O O13 0.364790 0.557404 0.089626
O O14 0.475826 0.428894 0.078223
#
# Coordination Sequence:
#
# PCOD9345363 Si02
#       7
#     4   4   4   4   4   4   4
#     4  11  24  43  62  95 135 164 227 274 334 415
#     4   9  20  40  64  94 124 169 215 270 323 402
#     4  11  22  42  62  95 127 178 211 279 331 412
#     4  11  20  41  68  90 128 169 221 276 318 408
#     4  10  24  40  60  99 129 168 219 266 346 394
#     4  10  23  37  66  90 123 172 218 260 346 390
#     4  10  21  39  68  95 122 172 223 269 336 387
#
# _framework density 25.609563000000001
#
# number of rings (size 3 to 8) (size 9 to 14) (size 15 to 20)
#    0.000    1.714    2.857    1.714    2.000    3.429 
#    2.571    0.000    0.000    0.000    0.000    0.000 
#    0.000    0.000    0.000    0.000    0.000    0.000 
#
# Total GULP energy -156296.777546 kJ/mol
# GULP energy per Si atom -5582.027770 kJ/mol
# Density = 2.555127 g / cm^3
# Si number density = 25.609563 Si / 1000 Ang^3
#
#
#
# Elastic Constant Matrix: (Units=GPa)
#
#
# Indices 1 2 3 4 5 6 
#
# 1 47.1450 1.7173 18.2049 0.0000 0.0000 0.0000
# 2 1.7173 67.8345 8.7016 0.0000 0.0000 0.0000
# 3 18.2049 8.7016 120.9611 0.0000 0.0000 0.0000
# 4 0.0000 0.0000 0.0000 29.0524 0.0000 0.0000
# 5 0.0000 0.0000 0.0000 0.0000 43.5032 0.0000
# 6 0.0000 0.0000 0.0000 0.0000 0.0000 32.3453
#
#
#
# Elastic Compliance Matrix: (Units=1/GPa)
#
#
# Indices 1 2 3 4 5 6 
#
# 1 0.022521 -0.000137 -0.003380 0.000000 0.000000 0.000000
# 2 -0.000137 0.014880 -0.001050 0.000000 0.000000 0.000000
# 3 -0.003380 -0.001050 0.008851 0.000000 0.000000 0.000000
# 4 0.000000 0.000000 0.000000 0.034421 0.000000 0.000000
# 5 0.000000 0.000000 0.000000 0.000000 0.022987 0.000000
# 6 0.000000 0.000000 0.000000 0.000000 0.000000 0.030916
#
#
# Mechanical properties :
#
#
# Convention : Reuss Voigt Hill
#
# Bulk Modulus (GPa) = 26.93957 32.57647 29.75802
# Shear Modulus (GPa) = 32.03450 34.80131 33.41790
#
# Velocity S-wave (km/s) = 3.54062 3.69035 3.61626
# Velocity P-wave (km/s) = 5.22080 5.55934 5.39273
#
# Compressibility (1/GPa) = 0.03712011
#
# Stress axis : x y z
#
# Youngs Moduli (GPa) = 44.40262 67.20477 112.97787
#
# Poissons Ratio (x) = 0.00918 0.38183
# Poissons Ratio (y) = 0.00607 0.11861
# Poissons Ratio (z) = 0.15007 0.07056
#
# Static dielectric constant tensor:
#      x y z
#    x 2.056910 0.000000 0.000000 
#    y 0.000000 2.161160 0.000000 
#    z 0.000000 0.000000 2.011300 
# 
# From -- ./inp_files/2406.got.cif
#   From: 2010.05.17/outbox.cif.g08.bks.cpg/sg33_2_cif.got.tgz:2406.got - 2010.06.03 17:15:25.
