data_PCOD9345273
_publ_section_title
;
Structure prediction by ZEFSAII (Michael W. Deem and Ramdas Pophale) SiO2 
 PCOD9345273
Probable space group: P N A 21
;
_chemical_formula_sum "Si O2"
_cell_formula_units_Z 32
_cell_length_a 19.552280
_cell_length_b 5.517900
_cell_length_c 12.427676
_cell_angle_alpha 90.000000
_cell_angle_beta 90.000000
_cell_angle_gamma 90.000000
_cell_volume 1340.791215
_symmetry_space_group_name_H-M "P N A 21"
_symmetry_group_IT_number 33
_symmetry_cell_setting 'orthorhombic'
loop_
_space_group_symop_operation_xyz
x,y,z
-x,-y,1/2+z
1/2-x,1/2+y,1/2+z
1/2+x,1/2-y,z
loop_
_atom_site_type_symbol
_atom_site_label
_atom_site_fract_x
_atom_site_fract_y
_atom_site_fract_z
Si Si1 0.937547 0.801152 0.125000
Si Si2 0.202301 0.239052 0.556325
Si Si3 0.685532 0.096220 0.165134
Si Si4 0.653956 0.597201 0.366076
Si Si5 0.739234 0.483359 0.866606
Si Si6 0.610712 0.409339 0.987215
Si Si7 0.576748 0.708031 0.185669
Si Si8 0.035415 0.696151 0.499921
O O1 0.857885 0.741593 0.143797
O O2 0.957954 0.573543 0.047442
O O3 0.997174 0.782878 0.212963
O O4 0.946899 0.078895 0.082136
O O5 0.228748 0.459946 0.484907
O O6 0.265595 0.100104 0.606064
O O7 0.167036 0.084608 0.461622
O O8 0.660562 0.265272 0.068673
O O9 0.731398 0.157879 0.271619
O O10 0.617594 0.954757 0.202026
O O11 0.724948 0.728722 0.339476
O O12 0.617350 0.510283 0.257346
O O13 0.594584 0.775167 0.411519
O O14 0.658279 0.481972 0.886658
O O15 0.585798 0.633791 0.060823
O O16 0.542343 0.254922 0.965055
#
# Coordination Sequence:
#
# PCOD9345273 Si02
#       8
#     4   4   4   4   4   4   4   4
#     4  10  21  38  62  87 119 162 207 260 316 371
#     4  11  21  39  62  86 129 163 210 267 322 375
#     4  11  22  36  60  89 120 164 212 257 317 384
#     4  10  21  38  61  89 119 163 210 256 315 384
#     4  11  22  36  60  89 120 164 212 257 317 384
#     4  11  21  39  62  86 129 163 210 267 322 375
#     4  10  21  38  61  89 119 163 210 256 315 384
#     4  10  21  38  62  87 119 162 207 260 316 371
#
# _framework density 23.866505
#
# number of rings (size 3 to 8) (size 9 to 14) (size 15 to 20)
#    0.000    1.500    5.000    0.750    0.000    1.000 
#    0.000    0.000    0.000    1.500    0.000    0.000 
#    0.000    0.000    0.000    0.000    0.000    0.000 
#
# Total GULP energy -178330.167565 kJ/mol
# GULP energy per Si atom -5572.817736 kJ/mol
# Density = 2.381218 g / cm^3
# Si number density = 23.866505 Si / 1000 Ang^3
#
#
#
# Elastic Constant Matrix: (Units=GPa)
#
#
# Indices 1 2 3 4 5 6 
#
# 1 94.3396 17.8291 0.7030 0.0000 0.0000 0.0000
# 2 17.8291 69.1792 9.2504 0.0000 0.0000 0.0000
# 3 0.7030 9.2504 64.3551 0.0000 0.0000 0.0000
# 4 0.0000 0.0000 0.0000 28.2114 0.0000 0.0000
# 5 0.0000 0.0000 0.0000 0.0000 45.2229 0.0000
# 6 0.0000 0.0000 0.0000 0.0000 0.0000 36.3291
#
#
#
# Elastic Compliance Matrix: (Units=1/GPa)
#
#
# Indices 1 2 3 4 5 6 
#
# 1 0.011148 -0.002913 0.000297 0.000000 0.000000 0.000000
# 2 -0.002913 0.015500 -0.002196 0.000000 0.000000 0.000000
# 3 0.000297 -0.002196 0.015851 0.000000 0.000000 0.000000
# 4 0.000000 0.000000 0.000000 0.035447 0.000000 0.000000
# 5 0.000000 0.000000 0.000000 0.000000 0.022113 0.000000
# 6 0.000000 0.000000 0.000000 0.000000 0.000000 0.027526
#
#
# Mechanical properties :
#
#
# Convention : Reuss Voigt Hill
#
# Bulk Modulus (GPa) = 30.41826 31.49319 30.95573
# Shear Modulus (GPa) = 33.74568 35.29209 34.51889
#
# Velocity S-wave (km/s) = 3.76431 3.84960 3.80719
# Velocity P-wave (km/s) = 5.62728 5.74312 5.68549
#
# Compressibility (1/GPa) = 0.03287499
#
# Stress axis : x y z
#
# Youngs Moduli (GPa) = 89.69981 64.51783 63.08668
#
# Poissons Ratio (x) = 0.18793 -0.01873
# Poissons Ratio (y) = 0.26128 0.13854
# Poissons Ratio (z) = -0.02663 0.14169
#
# Static dielectric constant tensor:
#      x y z
#    x 1.945380 0.000000 0.000000 
#    y 0.000000 1.981100 0.000000 
#    z 0.000000 0.000000 2.020000 
# 
# From -- ./inp_files/7220.got.cif
#   From: 2010.05.17/outbox.cif.g08.bks.cpg/sg33_4_cif.got.tgz:7220.got - 2010.06.03 17:15:25.
