data_PCOD9345867
_publ_section_title
;
Structure prediction by ZEFSAII (Michael W. Deem and Ramdas Pophale) SiO2 
 PCOD9345867
Probable space group: P N A 21
;
_chemical_formula_sum "Si O2"
_cell_formula_units_Z 28
_cell_length_a 9.397772
_cell_length_b 14.107360
_cell_length_c 8.564095
_cell_angle_alpha 90.000000
_cell_angle_beta 90.000000
_cell_angle_gamma 90.000000
_cell_volume 1135.408470
_symmetry_space_group_name_H-M "P N A 21"
_symmetry_group_IT_number 33
_symmetry_cell_setting 'orthorhombic'
loop_
_space_group_symop_operation_xyz
x,y,z
-x,-y,1/2+z
1/2-x,1/2+y,1/2+z
1/2+x,1/2-y,z
loop_
_atom_site_type_symbol
_atom_site_label
_atom_site_fract_x
_atom_site_fract_y
_atom_site_fract_z
Si Si1 0.788881 0.698384 0.417480
Si Si2 0.261263 0.611739 0.612881
Si Si3 0.866703 0.247450 0.364118
Si Si4 0.860522 0.737369 0.070888
Si Si5 0.072584 0.904934 0.614688
Si Si6 0.302998 0.063786 0.628577
Si Si7 0.011532 0.550962 0.442278
O O1 0.775337 0.804179 0.482754
O O2 0.830347 0.693473 0.237767
O O3 0.644528 0.642559 0.461263
O O4 0.923076 0.644909 0.494411
O O5 0.208141 0.668877 0.764760
O O6 0.412101 0.559783 0.608442
O O7 0.139587 0.540490 0.562595
O O8 0.735897 0.190128 0.438821
O O9 0.939254 0.180298 0.237821
O O10 0.980952 0.263711 0.502771
O O11 0.788255 0.841971 0.091767
O O12 0.184029 0.984531 0.663202
O O13 0.412303 0.064576 0.775050
O O14 0.396332 0.029768 0.479106
#
# Coordination Sequence:
#
# PCOD9345867 Si02
#       7
#     4   4   4   4   4   4   4
#     4  10  22  43  73  98 130 188 236 292 343 431
#     4  11  22  45  71  98 132 192 238 280 354 442
#     4  11  25  42  71 100 135 182 236 301 341 424
#     4  12  25  43  69 107 141 172 246 298 355 408
#     4  10  24  45  70  99 139 190 239 282 369 436
#     4  11  27  45  68 106 144 189 232 303 365 431
#     4  11  25  45  72  98 145 185 237 286 371 432
#
# _framework density 24.660727000000001
#
# number of rings (size 3 to 8) (size 9 to 14) (size 15 to 20)
#    0.000    1.143    2.857    2.571    8.000    2.286 
#    0.000    0.000    0.000    0.000    0.000    0.000 
#    0.000    0.000    0.000    0.000    0.000    0.000 
#
# Total GULP energy -156497.963072 kJ/mol
# GULP energy per Si atom -5589.212967 kJ/mol
# Density = 2.460460 g / cm^3
# Si number density = 24.660727 Si / 1000 Ang^3
#
#
#
# Elastic Constant Matrix: (Units=GPa)
#
#
# Indices 1 2 3 4 5 6 
#
# 1 116.9315 15.5829 16.7891 0.0000 0.0000 0.0000
# 2 15.5829 53.3741 2.4096 0.0000 0.0000 0.0000
# 3 16.7891 2.4096 100.7928 0.0000 0.0000 0.0000
# 4 0.0000 0.0000 0.0000 19.2439 0.0000 0.0000
# 5 0.0000 0.0000 0.0000 0.0000 40.7857 0.0000
# 6 0.0000 0.0000 0.0000 0.0000 0.0000 37.0793
#
#
#
# Elastic Compliance Matrix: (Units=1/GPa)
#
#
# Indices 1 2 3 4 5 6 
#
# 1 0.009106 -0.002593 -0.001455 0.000000 0.000000 0.000000
# 2 -0.002593 0.019494 -0.000034 0.000000 0.000000 0.000000
# 3 -0.001455 -0.000034 0.010164 0.000000 0.000000 0.000000
# 4 0.000000 0.000000 0.000000 0.051965 0.000000 0.000000
# 5 0.000000 0.000000 0.000000 0.000000 0.024518 0.000000
# 6 0.000000 0.000000 0.000000 0.000000 0.000000 0.026969
#
#
# Mechanical properties :
#
#
# Convention : Reuss Voigt Hill
#
# Bulk Modulus (GPa) = 32.67846 37.85129 35.26488
# Shear Modulus (GPa) = 31.13678 35.17624 33.15651
#
# Velocity S-wave (km/s) = 3.55717 3.78088 3.67073
# Velocity P-wave (km/s) = 5.49102 5.86875 5.68302
#
# Compressibility (1/GPa) = 0.03060120
#
# Stress axis : x y z
#
# Youngs Moduli (GPa) = 109.81209 51.29720 98.38163
#
# Poissons Ratio (x) = 0.13301 0.14313
# Poissons Ratio (y) = 0.28474 0.00336
# Poissons Ratio (z) = 0.15976 0.00175
#
# Static dielectric constant tensor:
#      x y z
#    x 1.934610 0.000000 0.000000 
#    y 0.000000 1.981420 0.000000 
#    z 0.000000 0.000000 2.044330 
# 
# From -- ./inp_files/3341.got.cif
#   From: 2010.05.17/outbox.cif.g08.bks.cpg/sg33_2_cif.got.tgz:3341.got - 2010.06.03 17:15:25.
