data_PCOD9345943
_publ_section_title
;
Structure prediction by ZEFSAII (Michael W. Deem and Ramdas Pophale) SiO2 
 PCOD9345943
Probable space group: P N A 21
;
_chemical_formula_sum "Si O2"
_cell_formula_units_Z 16
_cell_length_a 11.967081
_cell_length_b 9.445761
_cell_length_c 5.184189
_cell_angle_alpha 90.000000
_cell_angle_beta 90.000000
_cell_angle_gamma 90.000000
_cell_volume 586.011326
_symmetry_space_group_name_H-M "P N A 21"
_symmetry_group_IT_number 33
_symmetry_cell_setting 'orthorhombic'
loop_
_space_group_symop_operation_xyz
x,y,z
-x,-y,1/2+z
1/2-x,1/2+y,1/2+z
1/2+x,1/2-y,z
loop_
_atom_site_type_symbol
_atom_site_label
_atom_site_fract_x
_atom_site_fract_y
_atom_site_fract_z
Si Si1 0.432654 0.033580 0.303070
Si Si2 0.507928 0.317014 0.453931
Si Si3 0.171583 0.041043 0.855830
Si Si4 0.190081 0.305932 0.067290
O O1 0.420425 0.185561 0.444158
O O2 0.524409 0.971414 0.510631
O O3 0.337721 0.915094 0.336570
O O4 0.430200 0.454739 0.483649
O O5 0.605834 0.357054 0.654051
O O6 0.581615 0.263125 0.208634
O O7 0.248453 0.157960 0.996868
O O8 0.243131 0.914002 0.742674
#
# Coordination Sequence:
#
# PCOD9345943 Si02
#       4
#     4   4   4   4
#     4  10  22  45  76 105 148 195 253 315 394 464
#     4  11  25  47  73 106 149 199 260 329 395 468
#     4  12  26  47  74 108 155 199 265 328 402 478
#     4  11  27  45  75 113 148 207 260 326 397 488
#
# _framework density 27.303227
#
# number of rings (size 3 to 8) (size 9 to 14) (size 15 to 20)
#    0.000    1.000    5.000    0.000    3.500   12.000 
#    0.000    0.000    0.000    0.000    0.000    0.000 
#    0.000    0.000    0.000    0.000    0.000    0.000 
#
# Total GULP energy -89084.441026 kJ/mol
# GULP energy per Si atom -5567.777564 kJ/mol
# Density = 2.724108 g / cm^3
# Si number density = 27.303227 Si / 1000 Ang^3
#
#
#
# Elastic Constant Matrix: (Units=GPa)
#
#
# Indices 1 2 3 4 5 6 
#
# 1 35.8076 49.7048 10.1266 0.0000 0.0000 0.0000
# 2 49.7048 283.8159 16.7982 0.0000 0.0000 0.0000
# 3 10.1266 16.7982 42.2814 0.0000 0.0000 0.0000
# 4 0.0000 0.0000 0.0000 32.9019 0.0000 0.0000
# 5 0.0000 0.0000 0.0000 0.0000 25.7622 0.0000
# 6 0.0000 0.0000 0.0000 0.0000 0.0000 44.0539
#
#
#
# Elastic Compliance Matrix: (Units=1/GPa)
#
#
# Indices 1 2 3 4 5 6 
#
# 1 0.038681 -0.006376 -0.006731 0.000000 0.000000 0.000000
# 2 -0.006376 0.004659 -0.000324 0.000000 0.000000 0.000000
# 3 -0.006731 -0.000324 0.025392 0.000000 0.000000 0.000000
# 4 0.000000 0.000000 0.000000 0.030393 0.000000 0.000000
# 5 0.000000 0.000000 0.000000 0.000000 0.038817 0.000000
# 6 0.000000 0.000000 0.000000 0.000000 0.000000 0.022699
#
#
# Mechanical properties :
#
#
# Convention : Reuss Voigt Hill
#
# Bulk Modulus (GPa) = 23.88343 57.24045 40.56194
# Shear Modulus (GPa) = 24.81878 39.56195 32.19037
#
# Velocity S-wave (km/s) = 3.01824 3.81068 3.43737
# Velocity P-wave (km/s) = 4.57306 6.35389 5.53556
#
# Compressibility (1/GPa) = 0.04187004
#
# Stress axis : x y z
#
# Youngs Moduli (GPa) = 25.85251 214.62960 39.38258
#
# Poissons Ratio (x) = 1.36844 0.26509
# Poissons Ratio (y) = 0.16483 0.01276
# Poissons Ratio (z) = 0.17402 0.06955
#
# Static dielectric constant tensor:
#      x y z
#    x 2.425490 0.000000 0.000000 
#    y 0.000000 2.290730 0.000000 
#    z 0.000000 0.000000 2.292440 
# 
# From -- ./inp_files/631.got.cif
#   From: 2010.05.17/outbox.cif.g08.bks.cpg/sg33_1_cif.got.tgz:631.got - 2010.06.03 17:15:25.
