data_PCOD9345757
_publ_section_title
;
Structure prediction by ZEFSAII (Michael W. Deem and Ramdas Pophale) SiO2 
 PCOD9345757
Probable space group: P N A 21
;
_chemical_formula_sum "Si O2"
_cell_formula_units_Z 28
_cell_length_a 17.267894
_cell_length_b 5.446734
_cell_length_c 12.018787
_cell_angle_alpha 90.000000
_cell_angle_beta 90.000000
_cell_angle_gamma 90.000000
_cell_volume 1130.410490
_symmetry_space_group_name_H-M "P N A 21"
_symmetry_group_IT_number 33
_symmetry_cell_setting 'orthorhombic'
loop_
_space_group_symop_operation_xyz
x,y,z
-x,-y,1/2+z
1/2-x,1/2+y,1/2+z
1/2+x,1/2-y,z
loop_
_atom_site_type_symbol
_atom_site_label
_atom_site_fract_x
_atom_site_fract_y
_atom_site_fract_z
Si Si1 0.873812 0.083275 0.026380
Si Si2 0.986646 0.479322 0.122355
Si Si3 0.890068 0.872088 0.253763
Si Si4 0.027694 0.843231 0.942923
Si Si5 0.241474 0.621721 0.395706
Si Si6 0.828799 0.103961 0.588530
Si Si7 0.648905 0.120930 0.206289
O O1 0.915027 0.316761 0.084311
O O2 0.850598 0.938765 0.136670
O O3 0.803223 0.154674 0.950450
O O4 0.942646 0.957463 0.956284
O O5 0.056872 0.357761 0.189647
O O6 0.955225 0.686020 0.208276
O O7 0.018354 0.577531 0.001519
O O8 0.932659 0.087886 0.325542
O O9 0.818474 0.790834 0.330735
O O10 0.087684 0.957763 0.032587
O O11 0.268581 0.438277 0.491358
O O12 0.180564 0.471934 0.322586
O O13 0.815229 0.884068 0.675604
O O14 0.831039 0.381080 0.631007
#
# Coordination Sequence:
#
# PCOD9345757 Si02
#       7
#     4   4   4   4   4   4   4
#     4  11  22  43  66  98 132 173 241 284 341 429
#     4  10  22  41  69  97 129 176 233 291 335 421
#     4  10  23  43  64  98 137 179 226 290 351 412
#     4   9  20  42  65  94 131 177 225 286 348 401
#     4  11  25  42  67 100 138 189 226 286 363 416
#     4  10  23  44  67  99 142 178 235 289 345 422
#     4  11  23  45  70 100 139 186 232 288 353 411
#
# _framework density 24.769763000000001
#
# number of rings (size 3 to 8) (size 9 to 14) (size 15 to 20)
#    0.000    1.714    1.429    1.714    2.000    3.429 
#   12.857    0.000    0.000    0.000    0.000    0.000 
#    0.000    0.000    0.000    0.000    0.000    0.000 
#
# Total GULP energy -156473.310890 kJ/mol
# GULP energy per Si atom -5588.332532 kJ/mol
# Density = 2.471339 g / cm^3
# Si number density = 24.769763 Si / 1000 Ang^3
#
#
#
# Elastic Constant Matrix: (Units=GPa)
#
#
# Indices 1 2 3 4 5 6 
#
# 1 114.0971 4.4841 52.6280 0.0000 0.0000 0.0000
# 2 4.4841 11.7493 -5.7981 0.0000 0.0000 0.0000
# 3 52.6280 -5.7981 85.9482 0.0000 0.0000 0.0000
# 4 0.0000 0.0000 0.0000 17.0222 0.0000 0.0000
# 5 0.0000 0.0000 0.0000 0.0000 39.3773 0.0000
# 6 0.0000 0.0000 0.0000 0.0000 0.0000 21.3324
#
#
#
# Elastic Compliance Matrix: (Units=1/GPa)
#
#
# Indices 1 2 3 4 5 6 
#
# 1 0.013125 -0.009285 -0.008663 0.000000 0.000000 0.000000
# 2 -0.009285 0.094610 0.012068 0.000000 0.000000 0.000000
# 3 -0.008663 0.012068 0.017754 0.000000 0.000000 0.000000
# 4 0.000000 0.000000 0.000000 0.058747 0.000000 0.000000
# 5 0.000000 0.000000 0.000000 0.000000 0.025395 0.000000
# 6 0.000000 0.000000 0.000000 0.000000 0.000000 0.046877
#
#
# Mechanical properties :
#
#
# Convention : Reuss Voigt Hill
#
# Bulk Modulus (GPa) = 8.79283 34.93584 21.86433
# Shear Modulus (GPa) = 16.33032 26.24508 21.28770
#
# Velocity S-wave (km/s) = 2.57044 3.25862 2.93477
# Velocity P-wave (km/s) = 3.51669 5.31912 4.50888
#
# Compressibility (1/GPa) = 0.11372902
#
# Stress axis : x y z
#
# Youngs Moduli (GPa) = 76.18844 10.56966 56.32622
#
# Poissons Ratio (x) = 0.09813 0.48797
# Poissons Ratio (y) = 0.70737 -0.67972
# Poissons Ratio (z) = 0.66004 -0.12755
#
# Static dielectric constant tensor:
#      x y z
#    x 1.962560 0.000000 0.000000 
#    y 0.000000 2.016840 0.000000 
#    z 0.000000 0.000000 1.960930 
# 
# From -- ./inp_files/6954.got.cif
#   From: 2010.05.17/outbox.cif.g08.bks.cpg/sg33_4_cif.got.tgz:6954.got - 2010.06.03 17:15:25.
