data_PCOD9345630
_publ_section_title
;
Structure prediction by ZEFSAII (Michael W. Deem and Ramdas Pophale) SiO2 
 PCOD9345630
Probable space group: P N A 21
;
_chemical_formula_sum "Si O2"
_cell_formula_units_Z 28
_cell_length_a 12.766768
_cell_length_b 18.951276
_cell_length_c 5.080445
_cell_angle_alpha 90.000000
_cell_angle_beta 90.000000
_cell_angle_gamma 90.000000
_cell_volume 1229.196110
_symmetry_space_group_name_H-M "P N A 21"
_symmetry_group_IT_number 33
_symmetry_cell_setting 'orthorhombic'
loop_
_space_group_symop_operation_xyz
x,y,z
-x,-y,1/2+z
1/2-x,1/2+y,1/2+z
1/2+x,1/2-y,z
loop_
_atom_site_type_symbol
_atom_site_label
_atom_site_fract_x
_atom_site_fract_y
_atom_site_fract_z
Si Si1 0.636202 0.360668 0.410420
Si Si2 0.266396 0.706795 0.397668
Si Si3 0.232209 0.011338 0.167861
Si Si4 0.287201 0.353521 0.151418
Si Si5 0.593089 0.611243 0.130701
Si Si6 0.895203 0.406160 0.842807
Si Si7 0.891067 0.545057 0.536212
O O1 0.684073 0.304877 0.613073
O O2 0.697006 0.435593 0.399282
O O3 0.522843 0.376787 0.527878
O O4 0.658209 0.331698 0.115825
O O5 0.257552 0.784773 0.510664
O O6 0.148804 0.673452 0.350100
O O7 0.323770 0.960171 0.269946
O O8 0.291731 0.057958 0.959944
O O9 0.132850 0.968230 0.070766
O O10 0.375460 0.379364 0.937795
O O11 0.194374 0.410392 0.199071
O O12 0.338150 0.340155 0.434843
O O13 0.917605 0.463415 0.610471
O O14 0.000646 0.413448 0.011292
#
# Coordination Sequence:
#
# PCOD9345630 Si02
#       7
#     4   4   4   4   4   4   4
#     4  11  24  42  68  96 136 178 228 281 351 420
#     4  11  25  45  66  98 138 183 230 291 347 425
#     4  10  22  38  62  96 130 168 218 288 342 404
#     4  11  25  45  66  98 138 183 230 291 347 425
#     4  11  24  42  68  96 136 178 228 281 351 420
#     4  11  21  38  65  94 131 173 230 285 352 405
#     4  11  21  38  65  94 131 173 230 285 352 405
#
# _framework density 22.779114
#
# number of rings (size 3 to 8) (size 9 to 14) (size 15 to 20)
#    0.000    1.143    4.286    1.714    0.000    6.857 
#    0.000    1.429    0.000    0.000    0.000    0.000 
#    0.000    0.000    0.000    0.000    0.000    0.000 
#
# Total GULP energy -155950.391821 kJ/mol
# GULP energy per Si atom -5569.656851 kJ/mol
# Density = 2.272727 g / cm^3
# Si number density = 22.779114 Si / 1000 Ang^3
#
#
#
# Elastic Constant Matrix: (Units=GPa)
#
#
# Indices 1 2 3 4 5 6 
#
# 1 75.1865 7.7386 7.4813 0.0000 0.0000 0.0000
# 2 7.7386 47.9026 -12.1532 0.0000 0.0000 0.0000
# 3 7.4813 -12.1532 57.2222 0.0000 0.0000 0.0000
# 4 0.0000 0.0000 0.0000 32.9011 0.0000 0.0000
# 5 0.0000 0.0000 0.0000 0.0000 20.3764 0.0000
# 6 0.0000 0.0000 0.0000 0.0000 0.0000 7.1173
#
#
#
# Elastic Compliance Matrix: (Units=1/GPa)
#
#
# Indices 1 2 3 4 5 6 
#
# 1 0.013833 -0.002847 -0.002413 0.000000 0.000000 0.000000
# 2 -0.002847 0.022651 0.005183 0.000000 0.000000 0.000000
# 3 -0.002413 0.005183 0.018892 0.000000 0.000000 0.000000
# 4 0.000000 0.000000 0.000000 0.030394 0.000000 0.000000
# 5 0.000000 0.000000 0.000000 0.000000 0.049076 0.000000
# 6 0.000000 0.000000 0.000000 0.000000 0.000000 0.140504
#
#
# Mechanical properties :
#
#
# Convention : Reuss Voigt Hill
#
# Bulk Modulus (GPa) = 18.10899 20.71607 19.41253
# Shear Modulus (GPa) = 17.01190 23.89525 20.45358
#
# Velocity S-wave (km/s) = 2.73577 3.24234 2.99976
# Velocity P-wave (km/s) = 4.23631 4.80948 4.53196
#
# Compressibility (1/GPa) = 0.05522119
#
# Stress axis : x y z
#
# Youngs Moduli (GPa) = 72.28874 44.14904 52.93237
#
# Poissons Ratio (x) = 0.12569 0.12774
# Poissons Ratio (y) = 0.20581 -0.27434
# Poissons Ratio (z) = 0.17445 -0.22882
#
# Static dielectric constant tensor:
#      x y z
#    x 1.859830 0.000000 0.000000 
#    y 0.000000 2.016700 0.000000 
#    z 0.000000 0.000000 1.926920 
# 
# From -- ./inp_files/1001.got.cif
#   From: 2010.05.17/outbox.cif.g08.bks.cpg/sg33_1_cif.got.tgz:1001.got - 2010.06.03 17:15:25.
