data_PCOD9345749
_publ_section_title
;
Structure prediction by ZEFSAII (Michael W. Deem and Ramdas Pophale) SiO2 
 PCOD9345749
Probable space group: P N A 21
;
_chemical_formula_sum "Si O2"
_cell_formula_units_Z 24
_cell_length_a 16.131773
_cell_length_b 7.719781
_cell_length_c 8.999084
_cell_angle_alpha 90.000000
_cell_angle_beta 90.000000
_cell_angle_gamma 90.000000
_cell_volume 1120.689719
_symmetry_space_group_name_H-M "P N A 21"
_symmetry_group_IT_number 33
_symmetry_cell_setting 'orthorhombic'
loop_
_space_group_symop_operation_xyz
x,y,z
-x,-y,1/2+z
1/2-x,1/2+y,1/2+z
1/2+x,1/2-y,z
loop_
_atom_site_type_symbol
_atom_site_label
_atom_site_fract_x
_atom_site_fract_y
_atom_site_fract_z
Si Si1 0.007756 0.117494 0.872310
Si Si2 0.688931 0.087560 0.080993
Si Si3 0.896143 0.932755 0.653589
Si Si4 0.286105 0.243252 0.731167
Si Si5 0.852100 0.271576 0.047008
Si Si6 0.375423 0.890998 0.245244
O O1 0.972599 0.975464 0.760589
O O2 0.041934 0.282528 0.779561
O O3 0.933765 0.182988 0.979494
O O4 0.077722 0.044032 0.981933
O O5 0.635888 0.237438 0.159107
O O6 0.784816 0.138608 0.115408
O O7 0.667227 0.899108 0.137123
O O8 0.666992 0.081219 0.906625
O O9 0.826915 0.069130 0.705853
O O10 0.192236 0.261254 0.674904
O O11 0.299167 0.175687 0.899527
O O12 0.876893 0.432816 0.150947
#
# Coordination Sequence:
#
# PCOD9345749 Si02
#       6
#     4   4   4   4   4   4
#     4  10  24  38  64  94 136 166 212 268 328 372
#     4  10  22  41  68  92 124 167 214 261 314 379
#     4  10  22  44  60  98 130 164 216 262 312 392
#     4  10  22  41  68  92 124 167 214 261 314 379
#     4  10  22  42  63  96 126 164 217 261 313 384
#     4  10  22  42  63  96 126 164 217 261 313 384
#
# _framework density 21.415384
#
# number of rings (size 3 to 8) (size 9 to 14) (size 15 to 20)
#    0.000    2.000    1.667    0.000    2.333    9.333 
#    0.000    1.667    0.000    0.000    0.000    0.000 
#    0.000    0.000    0.000    0.000    0.000    0.000 
#
# Total GULP energy -133824.046500 kJ/mol
# GULP energy per Si atom -5576.001938 kJ/mol
# Density = 2.136664 g / cm^3
# Si number density = 21.415384 Si / 1000 Ang^3
#
#
#
# Elastic Constant Matrix: (Units=GPa)
#
#
# Indices 1 2 3 4 5 6 
#
# 1 43.3859 -13.6909 -0.7294 0.0000 0.0000 0.0000
# 2 -13.6909 66.5693 29.1688 0.0000 0.0000 0.0000
# 3 -0.7294 29.1688 49.8893 0.0000 0.0000 0.0000
# 4 0.0000 0.0000 0.0000 43.7548 0.0000 0.0000
# 5 0.0000 0.0000 0.0000 0.0000 25.0485 0.0000
# 6 0.0000 0.0000 0.0000 0.0000 0.0000 -5.2784
#
#
#
# Elastic Compliance Matrix: (Units=1/GPa)
#
#
# Indices 1 2 3 4 5 6 
#
# 1 0.025112 0.006727 -0.003566 0.000000 0.000000 0.000000
# 2 0.006727 0.021998 -0.012763 0.000000 0.000000 0.000000
# 3 -0.003566 -0.012763 0.027455 0.000000 0.000000 0.000000
# 4 0.000000 0.000000 0.000000 0.022855 0.000000 0.000000
# 5 0.000000 0.000000 0.000000 0.000000 0.039923 0.000000
# 6 0.000000 0.000000 0.000000 0.000000 0.000000 -0.189451
#
#
# Mechanical properties :
#
#
# Convention : Reuss Voigt Hill
#
# Bulk Modulus (GPa) = 18.06354 21.03794 19.55074
# Shear Modulus (GPa) = -345.98230 22.37804 -161.80213
#
# Velocity S-wave (km/s) = -12.72433 3.23608 -8.70162
# Velocity P-wave (km/s) = 14.40225 4.87935 9.58167
#
# Compressibility (1/GPa) = 0.05536013
#
# Stress axis : x y z
#
# Youngs Moduli (GPa) = 39.82185 45.45882 36.42387
#
# Poissons Ratio (x) = -0.30581 0.12989
# Poissons Ratio (y) = -0.26789 0.46489
# Poissons Ratio (z) = 0.14200 0.58020
#
# Static dielectric constant tensor:
#      x y z
#    x 1.868540 0.000000 0.000000 
#    y 0.000000 1.750280 0.000000 
#    z 0.000000 0.000000 1.815150 
# 
# From -- ./inp_files/6902.got.cif
#   From: 2010.05.17/outbox.cif.g08.bks.cpg/sg33_4_cif.got.tgz:6902.got - 2010.06.03 17:15:25.
