data_PCOD9345234
_publ_section_title
;
Structure prediction by ZEFSAII (Michael W. Deem and Ramdas Pophale) SiO2 
 PCOD9345234
Probable space group: P N A 21
;
_chemical_formula_sum "Si O2"
_cell_formula_units_Z 28
_cell_length_a 7.487801
_cell_length_b 20.360754
_cell_length_c 8.715096
_cell_angle_alpha 90.000000
_cell_angle_beta 90.000000
_cell_angle_gamma 90.000000
_cell_volume 1328.679780
_symmetry_space_group_name_H-M "P N A 21"
_symmetry_group_IT_number 33
_symmetry_cell_setting 'orthorhombic'
loop_
_space_group_symop_operation_xyz
x,y,z
-x,-y,1/2+z
1/2-x,1/2+y,1/2+z
1/2+x,1/2-y,z
loop_
_atom_site_type_symbol
_atom_site_label
_atom_site_fract_x
_atom_site_fract_y
_atom_site_fract_z
Si Si1 0.089846 0.841755 0.786720
Si Si2 0.107258 0.260320 0.422298
Si Si3 0.433038 0.551470 0.006666
Si Si4 0.670201 0.174154 0.990812
Si Si5 0.059683 0.913538 0.345620
Si Si6 0.782706 0.322692 0.919384
Si Si7 0.814767 0.340269 0.578133
O O1 0.218397 0.803819 0.904403
O O2 0.208154 0.846530 0.636324
O O3 0.931101 0.787332 0.776435
O O4 0.021690 0.907538 0.866183
O O5 0.140711 0.206582 0.554967
O O6 0.955288 0.311851 0.459897
O O7 0.530159 0.563547 0.169748
O O8 0.242710 0.586526 0.037634
O O9 0.423006 0.477047 0.953710
O O10 0.763185 0.130584 0.858696
O O11 0.708261 0.250271 0.952216
O O12 0.459102 0.163074 0.021313
O O13 0.885827 0.872247 0.405995
O O14 0.871230 0.328076 0.750470
#
# Coordination Sequence:
#
# PCOD9345234 Si02
#       7
#     4   4   4   4   4   4   4
#     4  10  21  37  60  95 130 164 215 255 331 382
#     4   9  18  33  60  92 127 163 202 267 316 377
#     4  10  23  45  65  90 128 181 211 270 330 394
#     4  12  23  40  65  98 134 166 215 277 329 387
#     4  11  25  46  67  93 135 172 223 272 329 400
#     4  11  23  38  67  98 130 169 219 269 332 386
#     4   9  19  35  62  92 126 161 213 264 319 384
#
# _framework density 21.073551999999999
#
# number of rings (size 3 to 8) (size 9 to 14) (size 15 to 20)
#    0.000    1.714    1.429    2.571    8.000    0.000 
#   10.286    0.000    0.000    0.000    0.000    0.000 
#    0.000    0.000    0.000    0.000    0.000    0.000 
#
# Total GULP energy -156164.440549 kJ/mol
# GULP energy per Si atom -5577.301448 kJ/mol
# Density = 2.102559 g / cm^3
# Si number density = 21.073552 Si / 1000 Ang^3
#
#
#
# Elastic Constant Matrix: (Units=GPa)
#
#
# Indices 1 2 3 4 5 6 
#
# 1 80.6786 34.4397 1.9684 0.0000 0.0000 0.0000
# 2 34.4397 129.7937 30.0072 0.0000 0.0000 0.0000
# 3 1.9684 30.0072 59.3298 0.0000 0.0000 0.0000
# 4 0.0000 0.0000 0.0000 25.5870 0.0000 0.0000
# 5 0.0000 0.0000 0.0000 0.0000 25.1961 0.0000
# 6 0.0000 0.0000 0.0000 0.0000 0.0000 18.7827
#
#
#
# Elastic Compliance Matrix: (Units=1/GPa)
#
#
# Indices 1 2 3 4 5 6 
#
# 1 0.014113 -0.004118 0.001615 0.000000 0.000000 0.000000
# 2 -0.004118 0.009926 -0.004884 0.000000 0.000000 0.000000
# 3 0.001615 -0.004884 0.019271 0.000000 0.000000 0.000000
# 4 0.000000 0.000000 0.000000 0.039082 0.000000 0.000000
# 5 0.000000 0.000000 0.000000 0.000000 0.039689 0.000000
# 6 0.000000 0.000000 0.000000 0.000000 0.000000 0.053240
#
#
# Mechanical properties :
#
#
# Convention : Reuss Voigt Hill
#
# Bulk Modulus (GPa) = 35.04288 44.73697 39.88993
# Shear Modulus (GPa) = 25.04889 27.47227 26.26058
#
# Velocity S-wave (km/s) = 3.45141 3.61451 3.53390
# Velocity P-wave (km/s) = 5.70508 6.22050 5.96835
#
# Compressibility (1/GPa) = 0.02853647
#
# Stress axis : x y z
#
# Youngs Moduli (GPa) = 70.85458 100.74182 51.89015
#
# Poissons Ratio (x) = 0.41487 -0.08378
# Poissons Ratio (y) = 0.29179 0.25342
# Poissons Ratio (z) = -0.11440 0.49201
#
# Static dielectric constant tensor:
#      x y z
#    x 1.865570 0.000000 0.000000 
#    y 0.000000 1.730730 0.000000 
#    z 0.000000 0.000000 1.862390 
# 
# From -- ./inp_files/3370.got.cif
#   From: 2010.05.17/outbox.cif.g08.bks.cpg/sg33_2_cif.got.tgz:3370.got - 2010.06.03 17:15:25.
