data_PCOD9345210
_publ_section_title
;
Structure prediction by ZEFSAII (Michael W. Deem and Ramdas Pophale) SiO2 
 PCOD9345210
Probable space group: P N A 21
;
_chemical_formula_sum "Si O2"
_cell_formula_units_Z 32
_cell_length_a 11.482072
_cell_length_b 15.291784
_cell_length_c 8.666614
_cell_angle_alpha 90.000000
_cell_angle_beta 90.000000
_cell_angle_gamma 90.000000
_cell_volume 1521.695915
_symmetry_space_group_name_H-M "P N A 21"
_symmetry_group_IT_number 33
_symmetry_cell_setting 'orthorhombic'
loop_
_space_group_symop_operation_xyz
x,y,z
-x,-y,1/2+z
1/2-x,1/2+y,1/2+z
1/2+x,1/2-y,z
loop_
_atom_site_type_symbol
_atom_site_label
_atom_site_fract_x
_atom_site_fract_y
_atom_site_fract_z
Si Si1 0.080489 0.079017 0.801470
Si Si2 0.270017 0.173532 0.341038
Si Si3 0.798012 0.652632 0.021675
Si Si4 0.939953 0.388114 0.604124
Si Si5 0.431770 0.576272 0.671953
Si Si6 0.794099 0.531671 0.727180
Si Si7 0.101215 0.791115 0.251268
Si Si8 0.154903 0.814761 0.605890
O O1 0.030801 0.171470 0.743722
O O2 0.196852 0.044468 0.721620
O O3 0.092857 0.073801 0.987487
O O4 0.980948 0.012378 0.744250
O O5 0.208992 0.252457 0.437780
O O6 0.370027 0.127683 0.443291
O O7 0.175675 0.107439 0.273837
O O8 0.320252 0.225690 0.194334
O O9 0.784995 0.576077 0.894721
O O10 0.690634 0.657507 0.140303
O O11 0.923863 0.632009 0.090123
O O12 0.910309 0.482684 0.674892
O O13 0.892744 0.310155 0.710639
O O14 0.540037 0.643647 0.683914
O O15 0.756575 0.613219 0.622396
O O16 0.135179 0.802591 0.427236
#
# Coordination Sequence:
#
# PCOD9345210 Si02
#       8
#     4   4   4   4   4   4   4   4
#     4  10  22  39  63  96 122 158 214 272 322 373
#     4  10  22  39  65  88 127 172 214 257 323 387
#     4  10  23  45  61  92 132 174 211 267 331 383
#     4  11  25  40  64  93 129 178 216 265 324 403
#     4  10  21  36  64  91 122 160 205 269 317 378
#     4  10  23  43  62  88 131 169 214 266 325 396
#     4  10  23  39  68  96 127 163 216 277 316 385
#     4   9  21  41  59  94 128 158 212 269 322 379
#
# _framework density 21.029169
#
# number of rings (size 3 to 8) (size 9 to 14) (size 15 to 20)
#    0.000    2.000    0.000    1.500   10.500    4.000 
#    2.250    2.500    0.000    0.000    0.000    0.000 
#    0.000    0.000    0.000    0.000    0.000    0.000 
#
# Total GULP energy -178702.094552 kJ/mol
# GULP energy per Si atom -5584.440455 kJ/mol
# Density = 2.098131 g / cm^3
# Si number density = 21.029169 Si / 1000 Ang^3
#
#
#
# Elastic Constant Matrix: (Units=GPa)
#
#
# Indices 1 2 3 4 5 6 
#
# 1 32.4829 -1.1352 6.8367 0.0000 0.0000 0.0000
# 2 -1.1352 41.1071 13.6845 0.0000 0.0000 0.0000
# 3 6.8367 13.6845 65.8616 0.0000 0.0000 0.0000
# 4 0.0000 0.0000 0.0000 16.2261 0.0000 0.0000
# 5 0.0000 0.0000 0.0000 0.0000 18.3511 0.0000
# 6 0.0000 0.0000 0.0000 0.0000 0.0000 28.2541
#
#
#
# Elastic Compliance Matrix: (Units=1/GPa)
#
#
# Indices 1 2 3 4 5 6 
#
# 1 0.031643 0.002114 -0.003724 0.000000 0.000000 0.000000
# 2 0.002114 0.026276 -0.005679 0.000000 0.000000 0.000000
# 3 -0.003724 -0.005679 0.016750 0.000000 0.000000 0.000000
# 4 0.000000 0.000000 0.000000 0.061629 0.000000 0.000000
# 5 0.000000 0.000000 0.000000 0.000000 0.054493 0.000000
# 6 0.000000 0.000000 0.000000 0.000000 0.000000 0.035393
#
#
# Mechanical properties :
#
#
# Convention : Reuss Voigt Hill
#
# Bulk Modulus (GPa) = 16.64168 19.80264 18.22216
# Shear Modulus (GPa) = 19.17241 20.57065 19.87153
#
# Velocity S-wave (km/s) = 3.02272 3.13101 3.07734
# Velocity P-wave (km/s) = 4.48478 4.74427 4.61635
#
# Compressibility (1/GPa) = 0.06009008
#
# Stress axis : x y z
#
# Youngs Moduli (GPa) = 31.60256 38.05818 59.70211
#
# Poissons Ratio (x) = -0.08044 0.22232
# Poissons Ratio (y) = -0.06679 0.33904
# Poissons Ratio (z) = 0.11768 0.21613
#
# Static dielectric constant tensor:
#      x y z
#    x 1.776990 0.000000 0.000000 
#    y 0.000000 1.778540 0.000000 
#    z 0.000000 0.000000 1.750510 
# 
# From -- ./inp_files/3923.got.cif
#   From: 2010.05.17/outbox.cif.g08.bks.cpg/sg33_2_cif.got.tgz:3923.got - 2010.06.03 17:15:25.
