data_PCOD9345019
_publ_section_title
;
Structure prediction by ZEFSAII (Michael W. Deem and Ramdas Pophale) SiO2 
 PCOD9345019
Probable space group: P N A 21
;
_chemical_formula_sum "Si O2"
_cell_formula_units_Z 24
_cell_length_a 10.977484
_cell_length_b 14.087878
_cell_length_c 5.690210
_cell_angle_alpha 90.000000
_cell_angle_beta 90.000000
_cell_angle_gamma 90.000000
_cell_volume 879.987877
_symmetry_space_group_name_H-M "P N A 21"
_symmetry_group_IT_number 33
_symmetry_cell_setting 'orthorhombic'
loop_
_space_group_symop_operation_xyz
x,y,z
-x,-y,1/2+z
1/2-x,1/2+y,1/2+z
1/2+x,1/2-y,z
loop_
_atom_site_type_symbol
_atom_site_label
_atom_site_fract_x
_atom_site_fract_y
_atom_site_fract_z
Si Si1 0.387064 0.460390 0.271530
Si Si2 0.244756 0.625841 0.162321
Si Si3 0.882219 0.385393 0.181422
Si Si4 0.004717 0.797063 0.561328
Si Si5 0.698981 0.662064 0.162791
Si Si6 0.358430 0.880753 0.533441
O O1 0.369675 0.568434 0.201599
O O2 0.498989 0.402007 0.163675
O O3 0.367775 0.422111 0.528738
O O4 0.263032 0.411582 0.164195
O O5 0.088835 0.802403 0.332055
O O6 0.256208 0.736035 0.096592
O O7 0.179565 0.584369 0.926142
O O8 0.914575 0.273026 0.225025
O O9 0.819710 0.609366 0.264355
O O10 0.116277 0.265854 0.047849
O O11 0.818357 0.390448 0.921884
O O12 0.981401 0.574877 0.633527
#
# Coordination Sequence:
#
# PCOD9345019 Si02
#       6
#     4   4   4   4   4   4
#     4  11  22  35  67  91 124 174 217 268 334 395
#     4  11  23  39  64  94 132 160 215 272 322 387
#     4   9  21  40  58  87 128 165 199 273 315 376
#     4   8  19  40  57  83 127 170 207 263 323 390
#     4  10  20  39  61  93 123 178 206 267 330 399
#     4   9  21  37  65  88 126 169 216 255 334 393
#
# _framework density 27.273104
#
# number of rings (size 3 to 8) (size 9 to 14) (size 15 to 20)
#    1.000    1.333    1.667    0.000    7.000    2.667 
#    0.000    0.000    7.333    0.000    0.000    0.000 
#    0.000    0.000    0.000    0.000    0.000    0.000 
#
# Total GULP energy -133644.246522 kJ/mol
# GULP energy per Si atom -5568.510272 kJ/mol
# Density = 2.721103 g / cm^3
# Si number density = 27.273104 Si / 1000 Ang^3
#
#
#
# Elastic Constant Matrix: (Units=GPa)
#
#
# Indices 1 2 3 4 5 6 
#
# 1 92.8643 25.6756 46.4788 0.0000 0.0000 0.0000
# 2 25.6756 144.3166 21.2242 0.0000 0.0000 0.0000
# 3 46.4788 21.2242 99.5651 0.0000 0.0000 0.0000
# 4 0.0000 0.0000 0.0000 32.3242 0.0000 0.0000
# 5 0.0000 0.0000 0.0000 0.0000 35.8218 0.0000
# 6 0.0000 0.0000 0.0000 0.0000 0.0000 44.5847
#
#
#
# Elastic Compliance Matrix: (Units=1/GPa)
#
#
# Indices 1 2 3 4 5 6 
#
# 1 0.014412 -0.001626 -0.006381 0.000000 0.000000 0.000000
# 2 -0.001626 0.007337 -0.000805 0.000000 0.000000 0.000000
# 3 -0.006381 -0.000805 0.013194 0.000000 0.000000 0.000000
# 4 0.000000 0.000000 0.000000 0.030937 0.000000 0.000000
# 5 0.000000 0.000000 0.000000 0.000000 0.027916 0.000000
# 6 0.000000 0.000000 0.000000 0.000000 0.000000 0.022429
#
#
# Mechanical properties :
#
#
# Convention : Reuss Voigt Hill
#
# Bulk Modulus (GPa) = 57.74009 58.16701 57.95355
# Shear Modulus (GPa) = 35.81128 38.77064 37.29096
#
# Velocity S-wave (km/s) = 3.62755 3.77446 3.70174
# Velocity P-wave (km/s) = 6.22596 6.35369 6.29015
#
# Compressibility (1/GPa) = 0.01731899
#
# Stress axis : x y z
#
# Youngs Moduli (GPa) = 69.38872 136.29881 75.79142
#
# Poissons Ratio (x) = 0.22156 0.48363
# Poissons Ratio (y) = 0.11279 0.06102
# Poissons Ratio (z) = 0.44277 0.10974
#
# Static dielectric constant tensor:
#      x y z
#    x 2.084060 0.000000 0.000000 
#    y 0.000000 2.223890 0.000000 
#    z 0.000000 0.000000 2.353080 
# 
# From -- ./inp_files/4799.got.cif
#   From: 2010.05.17/outbox.cif.g08.bks.cpg/sg33_3_cif.got.tgz:4799.got - 2010.06.03 17:15:25.
