data_PCOD9345037
_publ_section_title
;
Structure prediction by ZEFSAII (Michael W. Deem and Ramdas Pophale) SiO2 
 PCOD9345037
Probable space group: P N A 21
;
_chemical_formula_sum "Si O2"
_cell_formula_units_Z 32
_cell_length_a 9.658719
_cell_length_b 7.686652
_cell_length_c 20.309090
_cell_angle_alpha 90.000000
_cell_angle_beta 90.000000
_cell_angle_gamma 90.000000
_cell_volume 1507.812069
_symmetry_space_group_name_H-M "P N A 21"
_symmetry_group_IT_number 33
_symmetry_cell_setting 'orthorhombic'
loop_
_space_group_symop_operation_xyz
x,y,z
-x,-y,1/2+z
1/2-x,1/2+y,1/2+z
1/2+x,1/2-y,z
loop_
_atom_site_type_symbol
_atom_site_label
_atom_site_fract_x
_atom_site_fract_y
_atom_site_fract_z
Si Si1 0.161280 0.777354 0.794680
Si Si2 0.961760 0.399023 0.880760
Si Si3 0.735498 0.615040 0.446575
Si Si4 0.539315 0.897756 0.666562
Si Si5 0.903530 0.805152 0.880391
Si Si6 0.665263 0.430783 0.700768
Si Si7 0.921404 0.270845 0.731169
Si Si8 0.737357 0.195529 0.098604
O O1 0.285845 0.668259 0.824811
O O2 0.076991 0.676389 0.738576
O O3 0.055624 0.841708 0.850947
O O4 0.225402 0.938525 0.755747
O O5 0.863603 0.265320 0.918799
O O6 0.908871 0.597079 0.892142
O O7 0.952811 0.337167 0.804760
O O8 0.119718 0.391487 0.906637
O O9 0.649624 0.434175 0.437088
O O10 0.769679 0.660576 0.521704
O O11 0.412563 0.797231 0.632179
O O12 0.671197 0.860497 0.620603
O O13 0.485268 0.091505 0.678907
O O14 0.759743 0.262542 0.713549
O O15 0.507158 0.402057 0.718452
O O16 0.688203 0.528085 0.632681
#
# Coordination Sequence:
#
# PCOD9345037 Si02
#       8
#     4   4   4   4   4   4   4   4
#     4  11  20  41  65  98 124 166 214 278 347 399
#     4  12  25  42  70 103 133 179 224 286 343 407
#     4  12  27  44  66  95 139 185 230 272 331 409
#     4  10  20  39  69  84 128 161 214 275 336 390
#     4  12  23  43  66 101 137 176 218 277 347 405
#     4  10  22  37  63  89 131 159 214 275 332 399
#     4  11  20  38  61 100 123 156 211 282 342 386
#     4  10  23  44  58  92 123 178 223 263 324 409
#
# _framework density 21.222805999999999
#
# number of rings (size 3 to 8) (size 9 to 14) (size 15 to 20)
#    0.000    1.000    3.750    3.750    1.750    3.000 
#    6.750    0.000    0.000    0.000    0.000    0.000 
#    0.000    0.000    0.000    0.000    0.000    0.000 
#
# Total GULP energy -178710.003396 kJ/mol
# GULP energy per Si atom -5584.687606 kJ/mol
# Density = 2.117450 g / cm^3
# Si number density = 21.222806 Si / 1000 Ang^3
#
#
#
# Elastic Constant Matrix: (Units=GPa)
#
#
# Indices 1 2 3 4 5 6 
#
# 1 77.3165 6.6879 11.4435 0.0000 0.0000 0.0000
# 2 6.6879 54.6381 11.4217 0.0000 0.0000 0.0000
# 3 11.4435 11.4217 50.1243 0.0000 0.0000 0.0000
# 4 0.0000 0.0000 0.0000 21.1071 0.0000 0.0000
# 5 0.0000 0.0000 0.0000 0.0000 9.6807 0.0000
# 6 0.0000 0.0000 0.0000 0.0000 0.0000 40.1800
#
#
#
# Elastic Compliance Matrix: (Units=1/GPa)
#
#
# Indices 1 2 3 4 5 6 
#
# 1 0.013444 -0.001054 -0.002829 0.000000 0.000000 0.000000
# 2 -0.001054 0.019300 -0.004157 0.000000 0.000000 0.000000
# 3 -0.002829 -0.004157 0.021544 0.000000 0.000000 0.000000
# 4 0.000000 0.000000 0.000000 0.047377 0.000000 0.000000
# 5 0.000000 0.000000 0.000000 0.000000 0.103298 0.000000
# 6 0.000000 0.000000 0.000000 0.000000 0.000000 0.024888
#
#
# Mechanical properties :
#
#
# Convention : Reuss Voigt Hill
#
# Bulk Modulus (GPa) = 26.17337 26.79833 26.48585
# Shear Modulus (GPa) = 19.32982 24.36194 21.84588
#
# Velocity S-wave (km/s) = 3.02123 3.39176 3.21184
# Velocity P-wave (km/s) = 4.95276 5.29087 5.12460
#
# Compressibility (1/GPa) = 0.03820677
#
# Stress axis : x y z
#
# Youngs Moduli (GPa) = 74.38392 51.81260 46.41757
#
# Poissons Ratio (x) = 0.05462 0.13132
# Poissons Ratio (y) = 0.07841 0.19297
# Poissons Ratio (z) = 0.21044 0.21540
#
# Static dielectric constant tensor:
#      x y z
#    x 1.790440 0.000000 0.000000 
#    y 0.000000 1.816310 0.000000 
#    z 0.000000 0.000000 1.728920 
# 
# From -- ./inp_files/8960.got.cif
#   From: 2010.05.17/outbox.cif.g08.bks.cpg/sg33_5_cif.got.tgz:8960.got - 2010.06.03 17:15:25.
