data_PCOD9345759
_publ_section_title
;
Structure prediction by ZEFSAII (Michael W. Deem and Ramdas Pophale) SiO2 
 PCOD9345759
Probable space group: P N A 21
;
_chemical_formula_sum "Si O2"
_cell_formula_units_Z 28
_cell_length_a 10.191799
_cell_length_b 5.209134
_cell_length_c 18.599995
_cell_angle_alpha 90.000000
_cell_angle_beta 90.000000
_cell_angle_gamma 90.000000
_cell_volume 987.482043
_symmetry_space_group_name_H-M "P N A 21"
_symmetry_group_IT_number 33
_symmetry_cell_setting 'orthorhombic'
loop_
_space_group_symop_operation_xyz
x,y,z
-x,-y,1/2+z
1/2-x,1/2+y,1/2+z
1/2+x,1/2-y,z
loop_
_atom_site_type_symbol
_atom_site_label
_atom_site_fract_x
_atom_site_fract_y
_atom_site_fract_z
Si Si1 0.187019 0.543375 0.475110
Si Si2 0.996175 0.981560 0.231523
Si Si3 0.893008 0.622520 0.112737
Si Si4 0.889321 0.061250 0.870124
Si Si5 0.870763 0.292128 0.402717
Si Si6 0.639646 0.057967 0.055619
Si Si7 0.738279 0.201949 0.195910
O O1 0.148852 0.313401 0.530457
O O2 0.274797 0.449566 0.409606
O O3 0.285234 0.700049 0.525530
O O4 0.090302 0.747177 0.437304
O O5 0.055840 0.817861 0.296641
O O6 0.098635 0.215961 0.225982
O O7 0.850322 0.088161 0.246385
O O8 0.978487 0.823381 0.157993
O O9 0.794993 0.470449 0.164553
O O10 0.995934 0.396498 0.088026
O O11 0.733922 0.989757 0.866352
O O12 0.986096 0.812087 0.880177
O O13 0.882152 0.382818 0.486108
O O14 0.721571 0.002060 0.129072
#
# Coordination Sequence:
#
# PCOD9345759 Si02
#       7
#     4   4   4   4   4   4   4
#     4  10  23  43  71 109 140 181 240 303 362 424
#     4  12  27  45  71 107 150 197 240 296 370 437
#     4  11  24  42  73 107 141 186 242 300 363 425
#     4  11  26  46  71 106 146 197 241 294 367 445
#     4  11  23  44  75  98 143 187 242 301 355 433
#     4  10  22  41  70 105 134 180 239 298 360 418
#     4  11  25  45  69 106 148 186 240 306 355 444
#
# _framework density 28.354944
#
# number of rings (size 3 to 8) (size 9 to 14) (size 15 to 20)
#    0.000    1.143    1.429    3.429    6.000    5.714 
#    0.000    0.000    0.000    0.000    0.000    0.000 
#    0.000    0.000    0.000    0.000    0.000    0.000 
#
# Total GULP energy -156390.638427 kJ/mol
# GULP energy per Si atom -5585.379944 kJ/mol
# Density = 2.829041 g / cm^3
# Si number density = 28.354944 Si / 1000 Ang^3
#
#
#
# Elastic Constant Matrix: (Units=GPa)
#
#
# Indices 1 2 3 4 5 6 
#
# 1 136.0785 13.1024 57.4672 0.0000 0.0000 0.0000
# 2 13.1024 83.3641 40.7009 0.0000 0.0000 0.0000
# 3 57.4672 40.7009 130.9623 0.0000 0.0000 0.0000
# 4 0.0000 0.0000 0.0000 40.5535 0.0000 0.0000
# 5 0.0000 0.0000 0.0000 0.0000 51.2922 0.0000
# 6 0.0000 0.0000 0.0000 0.0000 0.0000 35.6132
#
#
#
# Elastic Compliance Matrix: (Units=1/GPa)
#
#
# Indices 1 2 3 4 5 6 
#
# 1 0.009046 0.000609 -0.004159 0.000000 0.000000 0.000000
# 2 0.000609 0.014182 -0.004675 0.000000 0.000000 0.000000
# 3 -0.004159 -0.004675 0.010913 0.000000 0.000000 0.000000
# 4 0.000000 0.000000 0.000000 0.024659 0.000000 0.000000
# 5 0.000000 0.000000 0.000000 0.000000 0.019496 0.000000
# 6 0.000000 0.000000 0.000000 0.000000 0.000000 0.028079
#
#
# Mechanical properties :
#
#
# Convention : Reuss Voigt Hill
#
# Bulk Modulus (GPa) = 56.52123 63.66063 60.09093
# Shear Modulus (GPa) = 38.84292 41.43408 40.13850
#
# Velocity S-wave (km/s) = 3.70521 3.82680 3.76649
# Velocity P-wave (km/s) = 6.18720 6.48274 6.33669
#
# Compressibility (1/GPa) = 0.01769247
#
# Stress axis : x y z
#
# Youngs Moduli (GPa) = 110.54144 70.51081 91.62971
#
# Poissons Ratio (x) = -0.04291 0.38107
# Poissons Ratio (y) = -0.06728 0.42834
# Poissons Ratio (z) = 0.45972 0.32961
#
# Static dielectric constant tensor:
#      x y z
#    x 2.346950 0.000000 0.000000 
#    y 0.000000 2.231800 0.000000 
#    z 0.000000 0.000000 2.364550 
# 
# From -- ./inp_files/9042.got.cif
#   From: 2010.05.17/outbox.cif.g08.bks.cpg/sg33_5_cif.got.tgz:9042.got - 2010.06.03 17:15:25.
