data_PCOD9345933
_publ_section_title
;
Structure prediction by ZEFSAII (Michael W. Deem and Ramdas Pophale) SiO2 
 PCOD9345933
Probable space group: P N A 21
;
_chemical_formula_sum "Si O2"
_cell_formula_units_Z 28
_cell_length_a 17.906866
_cell_length_b 5.055736
_cell_length_c 14.539212
_cell_angle_alpha 90.000000
_cell_angle_beta 90.000000
_cell_angle_gamma 90.000000
_cell_volume 1316.269569
_symmetry_space_group_name_H-M "P N A 21"
_symmetry_group_IT_number 33
_symmetry_cell_setting 'orthorhombic'
loop_
_space_group_symop_operation_xyz
x,y,z
-x,-y,1/2+z
1/2-x,1/2+y,1/2+z
1/2+x,1/2-y,z
loop_
_atom_site_type_symbol
_atom_site_label
_atom_site_fract_x
_atom_site_fract_y
_atom_site_fract_z
Si Si1 0.634924 0.814799 0.403870
Si Si2 0.468511 0.523142 0.007085
Si Si3 0.756949 0.372598 0.222289
Si Si4 0.663104 0.187066 0.566452
Si Si5 0.340660 0.115284 0.706229
Si Si6 0.776789 0.469670 0.430773
Si Si7 0.069385 0.483146 0.028644
O O1 0.577399 0.575615 0.417670
O O2 0.719253 0.708751 0.414474
O O3 0.624960 0.001779 0.490289
O O4 0.627589 0.953558 0.306603
O O5 0.401207 0.592378 0.078825
O O6 0.520735 0.774451 0.990836
O O7 0.521752 0.282765 0.036138
O O8 0.815775 0.513461 0.154527
O O9 0.727974 0.087804 0.189013
O O10 0.781159 0.343776 0.328717
O O11 0.688691 0.584204 0.214934
O O12 0.735745 0.296803 0.510575
O O13 0.400153 0.074665 0.627414
O O14 0.857164 0.556060 0.466293
#
# Coordination Sequence:
#
# PCOD9345933 Si02
#       7
#     4   4   4   4   4   4   4
#     4  10  22  45  69  94 132 182 222 271 347 408
#     4  11  26  43  63  91 142 184 216 264 352 416
#     4  11  23  39  69 104 124 168 231 285 341 395
#     4  11  21  45  67  94 136 180 217 283 344 409
#     4  11  23  40  69 100 127 170 230 279 332 410
#     4  10  23  40  71  99 128 171 230 295 334 393
#     4  12  24  44  64 100 133 175 224 283 334 401
#
# _framework density 21.272238000000002
#
# number of rings (size 3 to 8) (size 9 to 14) (size 15 to 20)
#    0.000    1.143    4.286    1.714    4.000    0.000 
#    2.571    1.429    0.000    0.000    0.000    0.000 
#    0.000    0.000    0.000    0.000    0.000    0.000 
#
# Total GULP energy -156353.913100 kJ/mol
# GULP energy per Si atom -5584.068325 kJ/mol
# Density = 2.122382 g / cm^3
# Si number density = 21.272238 Si / 1000 Ang^3
#
#
#
# Elastic Constant Matrix: (Units=GPa)
#
#
# Indices 1 2 3 4 5 6 
#
# 1 123.1174 29.4263 52.2652 0.0000 0.0000 0.0000
# 2 29.4263 78.8262 28.6828 0.0000 0.0000 0.0000
# 3 52.2652 28.6828 109.5383 0.0000 0.0000 0.0000
# 4 0.0000 0.0000 0.0000 26.7912 0.0000 0.0000
# 5 0.0000 0.0000 0.0000 0.0000 7.7042 0.0000
# 6 0.0000 0.0000 0.0000 0.0000 0.0000 33.4056
#
#
#
# Elastic Compliance Matrix: (Units=1/GPa)
#
#
# Indices 1 2 3 4 5 6 
#
# 1 0.010559 -0.002331 -0.004428 0.000000 0.000000 0.000000
# 2 -0.002331 0.014537 -0.002694 0.000000 0.000000 0.000000
# 3 -0.004428 -0.002694 0.011947 0.000000 0.000000 0.000000
# 4 0.000000 0.000000 0.000000 0.037326 0.000000 0.000000
# 5 0.000000 0.000000 0.000000 0.000000 0.129798 0.000000
# 6 0.000000 0.000000 0.000000 0.000000 0.000000 0.029935
#
#
# Mechanical properties :
#
#
# Convention : Reuss Voigt Hill
#
# Bulk Modulus (GPa) = 55.13476 59.13671 57.13573
# Shear Modulus (GPa) = 19.30099 26.98738 23.14418
#
# Velocity S-wave (km/s) = 3.01546 3.56570 3.30206
# Velocity P-wave (km/s) = 6.17243 6.69422 6.43861
#
# Compressibility (1/GPa) = 0.01813738
#
# Stress axis : x y z
#
# Youngs Moduli (GPa) = 94.70533 68.79193 83.69958
#
# Poissons Ratio (x) = 0.16032 0.37061
# Poissons Ratio (y) = 0.22072 0.22552
# Poissons Ratio (z) = 0.41935 0.18535
#
# Static dielectric constant tensor:
#      x y z
#    x 1.776900 0.000000 0.000000 
#    y 0.000000 1.828730 0.000000 
#    z 0.000000 0.000000 1.781060 
# 
# From -- ./inp_files/8193.got.cif
#   From: 2010.05.17/outbox.cif.g08.bks.cpg/sg33_5_cif.got.tgz:8193.got - 2010.06.03 17:15:25.
