data_PCOD9345376
_publ_section_title
;
Structure prediction by ZEFSAII (Michael W. Deem and Ramdas Pophale) SiO2 
 PCOD9345376
Probable space group: P N A 21
;
_chemical_formula_sum "Si O2"
_cell_formula_units_Z 28
_cell_length_a 12.069982
_cell_length_b 17.999463
_cell_length_c 6.625627
_cell_angle_alpha 90.000000
_cell_angle_beta 90.000000
_cell_angle_gamma 90.000000
_cell_volume 1439.438631
_symmetry_space_group_name_H-M "P N A 21"
_symmetry_group_IT_number 33
_symmetry_cell_setting 'orthorhombic'
loop_
_space_group_symop_operation_xyz
x,y,z
-x,-y,1/2+z
1/2-x,1/2+y,1/2+z
1/2+x,1/2-y,z
loop_
_atom_site_type_symbol
_atom_site_label
_atom_site_fract_x
_atom_site_fract_y
_atom_site_fract_z
Si Si1 0.238128 0.870031 0.469130
Si Si2 0.018920 0.589595 0.881839
Si Si3 0.464667 0.273750 0.949521
Si Si4 0.117873 0.295742 0.634185
Si Si5 0.326332 0.007134 0.698542
Si Si6 0.322469 0.131421 0.017049
Si Si7 0.158967 0.236022 0.230806
O O1 0.112218 0.845305 0.431910
O O2 0.310177 0.854280 0.265927
O O3 0.290820 0.809192 0.622544
O O4 0.249105 0.949695 0.575767
O O5 0.084555 0.602722 0.673850
O O6 0.910340 0.542670 0.829273
O O7 0.100222 0.546770 0.029545
O O8 0.973797 0.660373 0.004082
O O9 0.560015 0.261305 0.786145
O O10 0.382667 0.203432 0.921133
O O11 0.530784 0.270099 0.161518
O O12 0.181660 0.248664 0.465926
O O13 0.285803 0.070703 0.853067
O O14 0.221610 0.164488 0.145280
#
# Coordination Sequence:
#
# PCOD9345376 Si02
#       7
#     4   4   4   4   4   4   4
#     4  10  23  36  60  91 122 158 207 258 314 379
#     4  12  21  34  59  90 122 157 197 255 321 365
#     4  10  21  40  59  88 120 161 208 257 310 370
#     4  11  20  36  60  92 122 158 206 262 310 375
#     4  12  22  37  58  91 128 157 201 258 315 376
#     4  11  23  36  61  92 120 164 203 254 316 375
#     4  10  22  39  61  88 124 157 210 260 306 374
#
# _framework density 19.452027000000001
#
# number of rings (size 3 to 8) (size 9 to 14) (size 15 to 20)
#    0.000    1.143    5.714    1.714    2.000    1.143 
#    0.000    0.000    3.143    0.000    0.000    0.000 
#    0.000    0.000    0.000    0.000    0.000    0.000 
#
# Total GULP energy -156207.859798 kJ/mol
# GULP energy per Si atom -5578.852136 kJ/mol
# Density = 1.940775 g / cm^3
# Si number density = 19.452027 Si / 1000 Ang^3
#
#
#
# Elastic Constant Matrix: (Units=GPa)
#
#
# Indices 1 2 3 4 5 6 
#
# 1 31.9791 20.2739 4.4499 0.0000 0.0000 0.0000
# 2 20.2739 79.7705 34.1375 0.0000 0.0000 0.0000
# 3 4.4499 34.1375 99.1945 0.0000 0.0000 0.0000
# 4 0.0000 0.0000 0.0000 32.3861 0.0000 0.0000
# 5 0.0000 0.0000 0.0000 0.0000 15.5352 0.0000
# 6 0.0000 0.0000 0.0000 0.0000 0.0000 25.8817
#
#
#
# Elastic Compliance Matrix: (Units=1/GPa)
#
#
# Indices 1 2 3 4 5 6 
#
# 1 0.037572 -0.010353 0.001877 0.000000 0.000000 0.000000
# 2 -0.010353 0.017554 -0.005577 0.000000 0.000000 0.000000
# 3 0.001877 -0.005577 0.011916 0.000000 0.000000 0.000000
# 4 0.000000 0.000000 0.000000 0.030877 0.000000 0.000000
# 5 0.000000 0.000000 0.000000 0.000000 0.064370 0.000000
# 6 0.000000 0.000000 0.000000 0.000000 0.000000 0.038637
#
#
# Mechanical properties :
#
#
# Convention : Reuss Voigt Hill
#
# Bulk Modulus (GPa) = 25.68154 36.51852 31.10003
# Shear Modulus (GPa) = 20.66032 24.89946 22.77989
#
# Velocity S-wave (km/s) = 3.26255 3.58165 3.42582
# Velocity P-wave (km/s) = 5.23674 5.99322 5.62771
#
# Compressibility (1/GPa) = 0.03893847
#
# Stress axis : x y z
#
# Youngs Moduli (GPa) = 26.61529 56.96843 83.91963
#
# Poissons Ratio (x) = 0.58977 -0.15754
# Poissons Ratio (y) = 0.27554 0.46799
# Poissons Ratio (z) = -0.04996 0.31769
#
# Static dielectric constant tensor:
#      x y z
#    x 1.704800 0.000000 0.000000 
#    y 0.000000 1.704900 0.000000 
#    z 0.000000 0.000000 1.741110 
# 
# From -- ./inp_files/903.got.cif
#   From: 2010.05.17/outbox.cif.g08.bks.cpg/sg33_1_cif.got.tgz:903.got - 2010.06.03 17:15:25.
