data_PCOD9345840
_publ_section_title
;
Structure prediction by ZEFSAII (Michael W. Deem and Ramdas Pophale) SiO2 
 PCOD9345840
Probable space group: P N A 21
;
_chemical_formula_sum "Si O2"
_cell_formula_units_Z 28
_cell_length_a 16.837560
_cell_length_b 7.323983
_cell_length_c 8.223821
_cell_angle_alpha 90.000000
_cell_angle_beta 90.000000
_cell_angle_gamma 90.000000
_cell_volume 1014.145184
_symmetry_space_group_name_H-M "P N A 21"
_symmetry_group_IT_number 33
_symmetry_cell_setting 'orthorhombic'
loop_
_space_group_symop_operation_xyz
x,y,z
-x,-y,1/2+z
1/2-x,1/2+y,1/2+z
1/2+x,1/2-y,z
loop_
_atom_site_type_symbol
_atom_site_label
_atom_site_fract_x
_atom_site_fract_y
_atom_site_fract_z
Si Si1 0.161394 0.613367 0.144210
Si Si2 0.610935 0.484003 0.174689
Si Si3 0.806446 0.846473 0.345631
Si Si4 0.059039 0.058536 0.600908
Si Si5 0.485046 0.087539 0.439355
Si Si6 0.895314 0.341920 0.097822
Si Si7 0.241719 0.572806 0.824950
O O1 0.128611 0.804760 0.204540
O O2 0.229726 0.547040 0.268916
O O3 0.084155 0.514990 0.065250
O O4 0.208923 0.673077 0.981062
O O5 0.517882 0.468647 0.188037
O O6 0.666634 0.379584 0.300571
O O7 0.647237 0.426261 0.000666
O O8 0.876361 0.843455 0.212052
O O9 0.776199 0.639453 0.366912
O O10 0.016175 0.215161 0.496812
O O11 0.100538 0.869814 0.550071
O O12 0.443618 0.105523 0.264439
O O13 0.560795 0.956162 0.457651
O O14 0.806372 0.386260 0.158680
#
# Coordination Sequence:
#
# PCOD9345840 Si02
#       7
#     4   4   4   4   4   4   4
#     4   9  22  42  63  93 133 168 222 276 327 398
#     4  10  24  42  65  96 133 175 223 271 334 398
#     4  11  22  41  67  95 133 174 222 277 328 402
#     4  11  23  42  66  96 137 174 220 276 335 399
#     4  10  23  44  65  99 133 172 228 273 339 407
#     4  11  24  42  70  97 135 178 219 283 335 398
#     4  10  22  43  66  98 132 171 222 276 332 396
#
# _framework density 27.609458
#
# number of rings (size 3 to 8) (size 9 to 14) (size 15 to 20)
#    0.000    1.714    1.429    2.571    4.000    6.857 
#    0.000    4.286    0.000    0.000    0.000    0.000 
#    0.000    0.000    0.000    0.000    0.000    0.000 
#
# Total GULP energy -156720.729282 kJ/mol
# GULP energy per Si atom -5597.168903 kJ/mol
# Density = 2.754662 g / cm^3
# Si number density = 27.609458 Si / 1000 Ang^3
#
#
#
# Elastic Constant Matrix: (Units=GPa)
#
#
# Indices 1 2 3 4 5 6 
#
# 1 156.4285 14.3832 34.1912 0.0000 0.0000 0.0000
# 2 14.3832 86.5253 13.1831 0.0000 0.0000 0.0000
# 3 34.1912 13.1831 101.8912 0.0000 0.0000 0.0000
# 4 0.0000 0.0000 0.0000 29.1374 0.0000 0.0000
# 5 0.0000 0.0000 0.0000 0.0000 25.9044 0.0000
# 6 0.0000 0.0000 0.0000 0.0000 0.0000 34.2317
#
#
#
# Elastic Compliance Matrix: (Units=1/GPa)
#
#
# Indices 1 2 3 4 5 6 
#
# 1 0.006955 -0.000817 -0.002228 0.000000 0.000000 0.000000
# 2 -0.000817 0.011886 -0.001264 0.000000 0.000000 0.000000
# 3 -0.002228 -0.001264 0.010726 0.000000 0.000000 0.000000
# 4 0.000000 0.000000 0.000000 0.034320 0.000000 0.000000
# 5 0.000000 0.000000 0.000000 0.000000 0.038603 0.000000
# 6 0.000000 0.000000 0.000000 0.000000 0.000000 0.029213
#
#
# Mechanical properties :
#
#
# Convention : Reuss Voigt Hill
#
# Bulk Modulus (GPa) = 47.73514 52.04000 49.88757
# Shear Modulus (GPa) = 33.94381 36.72721 35.33551
#
# Velocity S-wave (km/s) = 3.51012 3.65120 3.58136
# Velocity P-wave (km/s) = 5.80990 6.05513 5.93378
#
# Compressibility (1/GPa) = 0.02094893
#
# Stress axis : x y z
#
# Youngs Moduli (GPa) = 143.78567 84.13533 93.23504
#
# Poissons Ratio (x) = 0.06871 0.20774
# Poissons Ratio (y) = 0.11742 0.11783
# Poissons Ratio (z) = 0.32037 0.10633
#
# Static dielectric constant tensor:
#      x y z
#    x 2.236150 0.000000 0.000000 
#    y 0.000000 2.144810 0.000000 
#    z 0.000000 0.000000 2.257600 
# 
# From -- ./inp_files/4746.got.cif
#   From: 2010.05.17/outbox.cif.g08.bks.cpg/sg33_3_cif.got.tgz:4746.got - 2010.06.03 17:15:25.
