data_PCOD9345164
_publ_section_title
;
Structure prediction by ZEFSAII (Michael W. Deem and Ramdas Pophale) SiO2 
 PCOD9345164
Probable space group: P N A 21
;
_chemical_formula_sum "Si O2"
_cell_formula_units_Z 32
_cell_length_a 9.550176
_cell_length_b 9.581844
_cell_length_c 14.720540
_cell_angle_alpha 90.000000
_cell_angle_beta 90.000000
_cell_angle_gamma 90.000000
_cell_volume 1347.051540
_symmetry_space_group_name_H-M "P N A 21"
_symmetry_group_IT_number 33
_symmetry_cell_setting 'orthorhombic'
loop_
_space_group_symop_operation_xyz
x,y,z
-x,-y,1/2+z
1/2-x,1/2+y,1/2+z
1/2+x,1/2-y,z
loop_
_atom_site_type_symbol
_atom_site_label
_atom_site_fract_x
_atom_site_fract_y
_atom_site_fract_z
Si Si1 0.783010 0.128772 0.528100
Si Si2 0.662643 0.837491 0.563775
Si Si3 0.419283 0.780205 0.459522
Si Si4 0.037821 0.641469 0.263245
Si Si5 0.536826 0.821597 0.749065
Si Si6 0.570903 0.488669 0.506757
Si Si7 0.325177 0.654691 0.172456
Si Si8 0.699432 0.295529 0.367122
O O1 0.747951 0.246597 0.599058
O O2 0.698987 0.163529 0.435884
O O3 0.945920 0.124822 0.505825
O O4 0.745882 0.981175 0.572527
O O5 0.512164 0.879485 0.522437
O O6 0.762496 0.743299 0.497610
O O7 0.618958 0.773395 0.659442
O O8 0.462589 0.829452 0.359836
O O9 0.495477 0.631464 0.479077
O O10 0.208020 0.642866 0.252340
O O11 0.000329 0.484085 0.234284
O O12 0.963987 0.764310 0.205188
O O13 0.404814 0.732233 0.783220
O O14 0.646184 0.810404 0.829832
O O15 0.634907 0.476617 0.608233
O O16 0.669004 0.433259 0.426419
#
# Coordination Sequence:
#
# PCOD9345164 Si02
#       8
#     4   4   4   4   4   4   4   4
#     4  10  20  44  69  99 138 184 230 290 356 427
#     4  11  24  45  67  97 145 184 236 292 361 423
#     4  11  26  45  67 102 144 190 232 300 366 427
#     4  12  26  45  74 107 141 186 245 299 361 430
#     4  12  26  45  71 106 140 194 242 306 353 436
#     4  10  23  43  70 100 138 189 229 293 366 432
#     4  11  23  44  72 103 136 182 238 294 352 437
#     4  11  24  43  70 102 142 181 242 294 357 428
#
# _framework density 23.755586999999998
#
# number of rings (size 3 to 8) (size 9 to 14) (size 15 to 20)
#    0.000    1.000    3.750    2.250    3.500    3.000 
#    4.500    0.000    0.000    0.000    0.000    0.000 
#    0.000    0.000    0.000    0.000    0.000    0.000 
#
# Total GULP energy -178641.311134 kJ/mol
# GULP energy per Si atom -5582.540973 kJ/mol
# Density = 2.370152 g / cm^3
# Si number density = 23.755587 Si / 1000 Ang^3
#
#
#
# Elastic Constant Matrix: (Units=GPa)
#
#
# Indices 1 2 3 4 5 6 
#
# 1 94.7369 8.1536 6.2264 0.0000 0.0000 0.0000
# 2 8.1536 69.4858 15.0359 0.0000 0.0000 0.0000
# 3 6.2264 15.0359 89.1639 0.0000 0.0000 0.0000
# 4 0.0000 0.0000 0.0000 17.1682 0.0000 0.0000
# 5 0.0000 0.0000 0.0000 0.0000 29.5016 0.0000
# 6 0.0000 0.0000 0.0000 0.0000 0.0000 13.2820
#
#
#
# Elastic Compliance Matrix: (Units=1/GPa)
#
#
# Indices 1 2 3 4 5 6 
#
# 1 0.010690 -0.001134 -0.000555 0.000000 0.000000 0.000000
# 2 -0.001134 0.015057 -0.002460 0.000000 0.000000 0.000000
# 3 -0.000555 -0.002460 0.011669 0.000000 0.000000 0.000000
# 4 0.000000 0.000000 0.000000 0.058247 0.000000 0.000000
# 5 0.000000 0.000000 0.000000 0.000000 0.033896 0.000000
# 6 0.000000 0.000000 0.000000 0.000000 0.000000 0.075290
#
#
# Mechanical properties :
#
#
# Convention : Reuss Voigt Hill
#
# Bulk Modulus (GPa) = 34.34444 34.69094 34.51769
# Shear Modulus (GPa) = 22.43629 26.92173 24.67901
#
# Velocity S-wave (km/s) = 3.07655 3.37007 3.22665
# Velocity P-wave (km/s) = 5.20663 5.45694 5.33325
#
# Compressibility (1/GPa) = 0.02911680
#
# Stress axis : x y z
#
# Youngs Moduli (GPa) = 93.54839 66.41519 85.69798
#
# Poissons Ratio (x) = 0.07533 0.04758
# Poissons Ratio (y) = 0.10610 0.21081
# Poissons Ratio (z) = 0.05194 0.16337
#
# Static dielectric constant tensor:
#      x y z
#    x 1.922900 0.000000 0.000000 
#    y 0.000000 1.915990 0.000000 
#    z 0.000000 0.000000 1.989830 
# 
# From -- ./inp_files/7655.got.cif
#   From: 2010.05.17/outbox.cif.g08.bks.cpg/sg33_4_cif.got.tgz:7655.got - 2010.06.03 17:15:25.
