data_PCOD9345062
_publ_section_title
;
Structure prediction by ZEFSAII (Michael W. Deem and Ramdas Pophale) SiO2 
 PCOD9345062
Probable space group: P N A 21
;
_chemical_formula_sum "Si O2"
_cell_formula_units_Z 32
_cell_length_a 9.199933
_cell_length_b 11.829547
_cell_length_c 13.336399
_cell_angle_alpha 90.000000
_cell_angle_beta 90.000000
_cell_angle_gamma 90.000000
_cell_volume 1451.414171
_symmetry_space_group_name_H-M "P N A 21"
_symmetry_group_IT_number 33
_symmetry_cell_setting 'orthorhombic'
loop_
_space_group_symop_operation_xyz
x,y,z
-x,-y,1/2+z
1/2-x,1/2+y,1/2+z
1/2+x,1/2-y,z
loop_
_atom_site_type_symbol
_atom_site_label
_atom_site_fract_x
_atom_site_fract_y
_atom_site_fract_z
Si Si1 0.526278 0.567447 0.979440
Si Si2 0.781315 0.074104 0.223797
Si Si3 0.595924 0.762609 0.837571
Si Si4 0.398955 0.753558 0.639448
Si Si5 0.490271 0.793409 0.421761
Si Si6 0.729293 0.002264 0.892014
Si Si7 0.790462 0.885166 0.354329
Si Si8 0.884297 0.989982 0.685338
O O1 0.517177 0.687412 0.922451
O O2 0.365207 0.513753 0.968028
O O3 0.636176 0.483381 0.921089
O O4 0.592772 0.571116 0.090803
O O5 0.775125 0.176358 0.305036
O O6 0.703199 0.136509 0.133750
O O7 0.950529 0.045584 0.211514
O O8 0.722246 0.954825 0.261481
O O9 0.505579 0.775922 0.734024
O O10 0.652004 0.880934 0.877623
O O11 0.476487 0.742131 0.532970
O O12 0.318799 0.633180 0.655804
O O13 0.657310 0.820616 0.403806
O O14 0.419596 0.705241 0.342862
O O15 0.391513 0.905363 0.416466
O O16 0.802760 0.031425 0.783819
#
# Coordination Sequence:
#
# PCOD9345062 Si02
#       8
#     4   4   4   4   4   4   4   4
#     4  11  22  43  70  99 137 174 231 283 351 405
#     4  10  20  40  64  95 127 172 227 271 334 399
#     4  10  21  38  69  95 136 175 221 280 339 405
#     4  11  21  39  67 105 124 176 231 280 328 409
#     4  12  27  38  70  97 141 171 230 282 342 407
#     4  12  23  44  66 103 139 185 224 289 350 408
#     4  11  24  43  61  97 133 178 215 285 339 401
#     4  11  22  37  71  97 131 179 223 282 339 410
#
# _framework density 22.047461999999999
#
# number of rings (size 3 to 8) (size 9 to 14) (size 15 to 20)
#    0.000    1.000    6.250    2.250    5.250    1.000 
#    0.000    2.500    2.750    0.000    0.000    0.000 
#    0.000    0.000    0.000    0.000    0.000    0.000 
#
# Total GULP energy -178570.074375 kJ/mol
# GULP energy per Si atom -5580.314824 kJ/mol
# Density = 2.199728 g / cm^3
# Si number density = 22.047462 Si / 1000 Ang^3
#
#
#
# Elastic Constant Matrix: (Units=GPa)
#
#
# Indices 1 2 3 4 5 6 
#
# 1 67.6550 20.7880 10.6583 0.0000 0.0000 0.0000
# 2 20.7880 90.6220 26.3115 0.0000 0.0000 0.0000
# 3 10.6583 26.3115 56.6419 0.0000 0.0000 0.0000
# 4 0.0000 0.0000 0.0000 36.1157 0.0000 0.0000
# 5 0.0000 0.0000 0.0000 0.0000 18.1608 0.0000
# 6 0.0000 0.0000 0.0000 0.0000 0.0000 38.5150
#
#
#
# Elastic Compliance Matrix: (Units=1/GPa)
#
#
# Indices 1 2 3 4 5 6 
#
# 1 0.016013 -0.003235 -0.001511 0.000000 0.000000 0.000000
# 2 -0.003235 0.013409 -0.005620 0.000000 0.000000 0.000000
# 3 -0.001511 -0.005620 0.020550 0.000000 0.000000 0.000000
# 4 0.000000 0.000000 0.000000 0.027689 0.000000 0.000000
# 5 0.000000 0.000000 0.000000 0.000000 0.055064 0.000000
# 6 0.000000 0.000000 0.000000 0.000000 0.000000 0.025964
#
#
# Mechanical properties :
#
#
# Convention : Reuss Voigt Hill
#
# Bulk Modulus (GPa) = 34.19892 36.71493 35.45693
# Shear Modulus (GPa) = 26.43202 29.03569 27.73386
#
# Velocity S-wave (km/s) = 3.46623 3.63294 3.55056
# Velocity P-wave (km/s) = 5.61826 5.85546 5.73809
#
# Compressibility (1/GPa) = 0.02924069
#
# Stress axis : x y z
#
# Youngs Moduli (GPa) = 62.45029 74.57930 48.66278
#
# Poissons Ratio (x) = 0.24124 0.07351
# Poissons Ratio (y) = 0.20200 0.27348
# Poissons Ratio (z) = 0.09433 0.41913
#
# Static dielectric constant tensor:
#      x y z
#    x 1.860590 0.000000 0.000000 
#    y 0.000000 1.870590 0.000000 
#    z 0.000000 0.000000 1.905700 
# 
# From -- ./inp_files/7630.got.cif
#   From: 2010.05.17/outbox.cif.g08.bks.cpg/sg33_4_cif.got.tgz:7630.got - 2010.06.03 17:15:25.
