data_PCOD9345667
_publ_section_title
;
Structure prediction by ZEFSAII (Michael W. Deem and Ramdas Pophale) SiO2 
 PCOD9345667
Probable space group: P N A 21
;
_chemical_formula_sum "Si O2"
_cell_formula_units_Z 28
_cell_length_a 18.977553
_cell_length_b 5.147643
_cell_length_c 13.347519
_cell_angle_alpha 90.000000
_cell_angle_beta 90.000000
_cell_angle_gamma 90.000000
_cell_volume 1303.914698
_symmetry_space_group_name_H-M "P N A 21"
_symmetry_group_IT_number 33
_symmetry_cell_setting 'orthorhombic'
loop_
_space_group_symop_operation_xyz
x,y,z
-x,-y,1/2+z
1/2-x,1/2+y,1/2+z
1/2+x,1/2-y,z
loop_
_atom_site_type_symbol
_atom_site_label
_atom_site_fract_x
_atom_site_fract_y
_atom_site_fract_z
Si Si1 0.813732 0.140326 0.480590
Si Si2 0.764136 0.590689 0.779458
Si Si3 0.465575 0.918058 0.944565
Si Si4 0.463836 0.568997 0.529668
Si Si5 0.079496 0.162513 0.257885
Si Si6 0.850310 0.222975 0.894434
Si Si7 0.756155 0.116702 0.061547
O O1 0.804501 0.402457 0.544170
O O2 0.781407 0.196363 0.371382
O O3 0.893222 0.041446 0.478335
O O4 0.770870 0.903534 0.532273
O O5 0.840342 0.723276 0.756850
O O6 0.788005 0.308757 0.819952
O O7 0.722648 0.599160 0.676410
O O8 0.471038 0.839118 0.827012
O O9 0.385934 0.029205 0.947557
O O10 0.480290 0.661074 0.009173
O O11 0.512868 0.156660 0.982686
O O12 0.447512 0.610258 0.647142
O O13 0.091079 0.907228 0.325391
O O14 0.817819 0.054277 0.982941
#
# Coordination Sequence:
#
# PCOD9345667 Si02
#       7
#     4   4   4   4   4   4   4
#     4  11  23  40  65 101 135 164 226 280 333 410
#     4  10  22  39  69 101 130 178 217 279 345 405
#     4  11  26  44  66 100 136 182 238 284 331 405
#     4  12  25  43  71  99 136 186 232 284 341 417
#     4  11  22  46  74  91 135 188 232 272 352 409
#     4  10  22  44  68 100 138 176 230 278 338 412
#     4  11  22  40  67 100 132 170 219 277 340 400
#
# _framework density 21.473797999999999
#
# number of rings (size 3 to 8) (size 9 to 14) (size 15 to 20)
#    0.000    1.143    4.286    1.714    4.000    0.000 
#    2.571    1.429    0.000    0.000    0.000    0.000 
#    0.000    0.000    0.000    0.000    0.000    0.000 
#
# Total GULP energy -156282.859865 kJ/mol
# GULP energy per Si atom -5581.530709 kJ/mol
# Density = 2.142492 g / cm^3
# Si number density = 21.473798 Si / 1000 Ang^3
#
#
#
# Elastic Constant Matrix: (Units=GPa)
#
#
# Indices 1 2 3 4 5 6 
#
# 1 43.3231 21.7236 33.3807 0.0000 0.0000 0.0000
# 2 21.7236 105.7781 52.2965 0.0000 0.0000 0.0000
# 3 33.3807 52.2965 162.1197 0.0000 0.0000 0.0000
# 4 0.0000 0.0000 0.0000 25.5267 0.0000 0.0000
# 5 0.0000 0.0000 0.0000 0.0000 33.1010 0.0000
# 6 0.0000 0.0000 0.0000 0.0000 0.0000 35.9349
#
#
#
# Elastic Compliance Matrix: (Units=1/GPa)
#
#
# Indices 1 2 3 4 5 6 
#
# 1 0.028490 -0.003511 -0.004734 0.000000 0.000000 0.000000
# 2 -0.003511 0.011680 -0.003045 0.000000 0.000000 0.000000
# 3 -0.004734 -0.003045 0.008125 0.000000 0.000000 0.000000
# 4 0.000000 0.000000 0.000000 0.039175 0.000000 0.000000
# 5 0.000000 0.000000 0.000000 0.000000 0.030211 0.000000
# 6 0.000000 0.000000 0.000000 0.000000 0.000000 0.027828
#
#
# Mechanical properties :
#
#
# Convention : Reuss Voigt Hill
#
# Bulk Modulus (GPa) = 38.88504 58.44697 48.66601
# Shear Modulus (GPa) = 28.30303 32.50052 30.40178
#
# Velocity S-wave (km/s) = 3.63440 3.89459 3.76674
# Velocity P-wave (km/s) = 5.97991 6.89207 6.45213
#
# Compressibility (1/GPa) = 0.02571683
#
# Stress axis : x y z
#
# Youngs Moduli (GPa) = 35.09996 85.61535 123.07415
#
# Poissons Ratio (x) = 0.30057 0.58259
# Poissons Ratio (y) = 0.12322 0.37475
# Poissons Ratio (z) = 0.16615 0.26069
#
# Static dielectric constant tensor:
#      x y z
#    x 1.822290 0.000000 0.000000 
#    y 0.000000 1.856290 0.000000 
#    z 0.000000 0.000000 1.762400 
# 
# From -- ./inp_files/7125.got.cif
#   From: 2010.05.17/outbox.cif.g08.bks.cpg/sg33_4_cif.got.tgz:7125.got - 2010.06.03 17:15:25.
