data_PCOD9345123
_publ_section_title
;
Structure prediction by ZEFSAII (Michael W. Deem and Ramdas Pophale) SiO2 
 PCOD9345123
Probable space group: P N A 21
;
_chemical_formula_sum "Si O2"
_cell_formula_units_Z 20
_cell_length_a 10.591130
_cell_length_b 5.229999
_cell_length_c 13.203892
_cell_angle_alpha 90.000000
_cell_angle_beta 90.000000
_cell_angle_gamma 90.000000
_cell_volume 731.384695
_symmetry_space_group_name_H-M "P N A 21"
_symmetry_group_IT_number 33
_symmetry_cell_setting 'orthorhombic'
loop_
_space_group_symop_operation_xyz
x,y,z
-x,-y,1/2+z
1/2-x,1/2+y,1/2+z
1/2+x,1/2-y,z
loop_
_atom_site_type_symbol
_atom_site_label
_atom_site_fract_x
_atom_site_fract_y
_atom_site_fract_z
Si Si1 0.681865 0.909723 0.116490
Si Si2 0.488816 0.800626 0.770107
Si Si3 0.069399 0.697338 0.407853
Si Si4 0.085267 0.092920 0.075983
Si Si5 0.680980 0.165246 0.792646
O O1 0.635800 0.682190 0.044554
O O2 0.792798 0.800027 0.185551
O O3 0.570034 0.976565 0.196492
O O4 0.690251 0.184980 0.064820
O O5 0.443090 0.577173 0.696905
O O6 0.433036 0.892107 0.878683
O O7 0.636365 0.871177 0.775998
O O8 0.194900 0.810451 0.360226
O O9 0.035708 0.792994 0.519375
O O10 0.937675 0.786957 0.352661
#
# Coordination Sequence:
#
# PCOD9345123 Si02
#       5
#     4   4   4   4   4
#     4   9  20  41  63  90 123 170 206 264 310 387
#     4   7  19  39  61  88 127 163 207 256 322 365
#     4   9  19  39  63  98 128 172 212 276 309 400
#     4  10  20  42  65  92 129 165 220 252 330 372
#     4   9  18  43  62  96 129 168 213 264 329 368
#
# _framework density 27.345389000000001
#
# number of rings (size 3 to 8) (size 9 to 14) (size 15 to 20)
#    2.400    0.800    0.000    0.000    0.000    1.600 
#   14.400    2.000    0.000    0.000    0.000    0.000 
#    0.000    0.000    0.000    0.000    0.000    0.000 
#
# Total GULP energy -111393.054689 kJ/mol
# GULP energy per Si atom -5569.652734 kJ/mol
# Density = 2.728315 g / cm^3
# Si number density = 27.345389 Si / 1000 Ang^3
#
#
#
# Elastic Constant Matrix: (Units=GPa)
#
#
# Indices 1 2 3 4 5 6 
#
# 1 128.7898 -5.9845 17.7528 0.0000 0.0000 0.0000
# 2 -5.9845 88.7447 8.3919 0.0000 0.0000 0.0000
# 3 17.7528 8.3919 75.0457 0.0000 0.0000 0.0000
# 4 0.0000 0.0000 0.0000 26.7219 0.0000 0.0000
# 5 0.0000 0.0000 0.0000 0.0000 52.4306 0.0000
# 6 0.0000 0.0000 0.0000 0.0000 0.0000 19.6308
#
#
#
# Elastic Compliance Matrix: (Units=1/GPa)
#
#
# Indices 1 2 3 4 5 6 
#
# 1 0.008073 0.000733 -0.001992 0.000000 0.000000 0.000000
# 2 0.000733 0.011455 -0.001454 0.000000 0.000000 0.000000
# 3 -0.001992 -0.001454 0.013959 0.000000 0.000000 0.000000
# 4 0.000000 0.000000 0.000000 0.037423 0.000000 0.000000
# 5 0.000000 0.000000 0.000000 0.000000 0.019073 0.000000
# 6 0.000000 0.000000 0.000000 0.000000 0.000000 0.050940
#
#
# Mechanical properties :
#
#
# Convention : Reuss Voigt Hill
#
# Bulk Modulus (GPa) = 35.63686 36.98896 36.31291
# Shear Modulus (GPa) = 32.11236 37.91799 35.01518
#
# Velocity S-wave (km/s) = 3.43056 3.72779 3.58226
# Velocity P-wave (km/s) = 5.36210 5.66432 5.51528
#
# Compressibility (1/GPa) = 0.02806084
#
# Stress axis : x y z
#
# Youngs Moduli (GPa) = 123.86678 87.29644 71.63836
#
# Poissons Ratio (x) = -0.06397 0.14268
# Poissons Ratio (y) = -0.09076 0.10418
# Poissons Ratio (z) = 0.24671 0.12696
#
# Static dielectric constant tensor:
#      x y z
#    x 2.148950 0.000000 0.000000 
#    y 0.000000 2.345460 0.000000 
#    z 0.000000 0.000000 2.207060 
# 
# From -- ./inp_files/7809.got.cif
#   From: 2010.05.17/outbox.cif.g08.bks.cpg/sg33_4_cif.got.tgz:7809.got - 2010.06.03 17:15:25.
