data_PCOD9345541
_publ_section_title
;
Structure prediction by ZEFSAII (Michael W. Deem and Ramdas Pophale) SiO2 
 PCOD9345541
Probable space group: P N A 21
;
_chemical_formula_sum "Si O2"
_cell_formula_units_Z 24
_cell_length_a 10.366301
_cell_length_b 5.119470
_cell_length_c 17.494824
_cell_angle_alpha 90.000000
_cell_angle_beta 90.000000
_cell_angle_gamma 90.000000
_cell_volume 928.449732
_symmetry_space_group_name_H-M "P N A 21"
_symmetry_group_IT_number 33
_symmetry_cell_setting 'orthorhombic'
loop_
_space_group_symop_operation_xyz
x,y,z
-x,-y,1/2+z
1/2-x,1/2+y,1/2+z
1/2+x,1/2-y,z
loop_
_atom_site_type_symbol
_atom_site_label
_atom_site_fract_x
_atom_site_fract_y
_atom_site_fract_z
Si Si1 0.156310 0.818181 0.504370
Si Si2 0.717742 0.414298 0.233151
Si Si3 0.006764 0.580077 0.791760
Si Si4 0.799506 0.770736 0.356224
Si Si5 0.742183 0.698216 0.074658
Si Si6 0.062260 0.850351 0.940779
O O1 0.261854 0.861342 0.436933
O O2 0.185918 0.025049 0.571739
O O3 0.170156 0.524569 0.533820
O O4 0.023083 0.900881 0.465652
O O5 0.865456 0.317008 0.245752
O O6 0.616099 0.182052 0.245586
O O7 0.700660 0.640862 0.297690
O O8 0.705588 0.567990 0.154132
O O9 0.067310 0.296322 0.812022
O O10 0.986330 0.679586 0.879361
O O11 0.817394 0.061284 0.386817
O O12 0.617574 0.740462 0.021276
#
# Coordination Sequence:
#
# PCOD9345541 Si02
#       6
#     4   4   4   4   4   4
#     4  11  24  44  70  98 141 180 238 285 356 419
#     4  10  23  44  66 101 144 181 236 294 359 414
#     4  10  21  43  68  98 134 185 236 290 344 426
#     4   9  22  40  65 103 126 186 236 292 341 423
#     4  11  26  43  65 104 141 184 228 295 357 413
#     4  11  22  40  74  96 136 188 240 288 343 427
#
# _framework density 25.849543000000001
#
# number of rings (size 3 to 8) (size 9 to 14) (size 15 to 20)
#    1.000    0.667    3.333    0.000    4.667    2.667 
#    3.000    0.000    0.000    0.000    0.000    0.000 
#    0.000    0.000    0.000    0.000    0.000    0.000 
#
# Total GULP energy -133722.019597 kJ/mol
# GULP energy per Si atom -5571.750817 kJ/mol
# Density = 2.579071 g / cm^3
# Si number density = 25.849543 Si / 1000 Ang^3
#
#
#
# Elastic Constant Matrix: (Units=GPa)
#
#
# Indices 1 2 3 4 5 6 
#
# 1 128.0822 4.1329 5.2505 0.0000 0.0000 0.0000
# 2 4.1329 49.8188 5.3571 0.0000 0.0000 0.0000
# 3 5.2505 5.3571 109.9334 0.0000 0.0000 0.0000
# 4 0.0000 0.0000 0.0000 33.1420 0.0000 0.0000
# 5 0.0000 0.0000 0.0000 0.0000 24.8582 0.0000
# 6 0.0000 0.0000 0.0000 0.0000 0.0000 27.9530
#
#
#
# Elastic Compliance Matrix: (Units=1/GPa)
#
#
# Indices 1 2 3 4 5 6 
#
# 1 0.007841 -0.000613 -0.000345 0.000000 0.000000 0.000000
# 2 -0.000613 0.020226 -0.000956 0.000000 0.000000 0.000000
# 3 -0.000345 -0.000956 0.009159 0.000000 0.000000 0.000000
# 4 0.000000 0.000000 0.000000 0.030173 0.000000 0.000000
# 5 0.000000 0.000000 0.000000 0.000000 0.040228 0.000000
# 6 0.000000 0.000000 0.000000 0.000000 0.000000 0.035774
#
#
# Mechanical properties :
#
#
# Convention : Reuss Voigt Hill
#
# Bulk Modulus (GPa) = 29.94143 35.25725 32.59934
# Shear Modulus (GPa) = 31.57269 35.39690 33.48480
#
# Velocity S-wave (km/s) = 3.49865 3.70448 3.60303
# Velocity P-wave (km/s) = 5.28477 5.65390 5.47245
#
# Compressibility (1/GPa) = 0.03339853
#
# Stress axis : x y z
#
# Youngs Moduli (GPa) = 127.52810 49.44015 109.17652
#
# Poissons Ratio (x) = 0.03033 0.03762
# Poissons Ratio (y) = 0.07823 0.10441
# Poissons Ratio (z) = 0.04395 0.04728
#
# Static dielectric constant tensor:
#      x y z
#    x 2.154150 0.000000 0.000000 
#    y 0.000000 2.162760 0.000000 
#    z 0.000000 0.000000 1.997690 
# 
# From -- ./inp_files/8603.got.cif
#   From: 2010.05.17/outbox.cif.g08.bks.cpg/sg33_5_cif.got.tgz:8603.got - 2010.06.03 17:15:25.
