data_PCOD9345769
_publ_section_title
;
Structure prediction by ZEFSAII (Michael W. Deem and Ramdas Pophale) SiO2 
 PCOD9345769
Probable space group: P N A 21
;
_chemical_formula_sum "Si O2"
_cell_formula_units_Z 32
_cell_length_a 11.941526
_cell_length_b 13.525545
_cell_length_c 8.977144
_cell_angle_alpha 90.000000
_cell_angle_beta 90.000000
_cell_angle_gamma 90.000000
_cell_volume 1449.949224
_symmetry_space_group_name_H-M "P N A 21"
_symmetry_group_IT_number 33
_symmetry_cell_setting 'orthorhombic'
loop_
_space_group_symop_operation_xyz
x,y,z
-x,-y,1/2+z
1/2-x,1/2+y,1/2+z
1/2+x,1/2-y,z
loop_
_atom_site_type_symbol
_atom_site_label
_atom_site_fract_x
_atom_site_fract_y
_atom_site_fract_z
Si Si1 0.924014 0.447354 0.184130
Si Si2 0.758149 0.331615 0.670336
Si Si3 0.182042 0.052780 0.159016
Si Si4 0.640392 0.177866 0.255968
Si Si5 0.322969 0.360319 0.486210
Si Si6 0.583744 0.381085 0.431477
Si Si7 0.966954 0.390640 0.850204
Si Si8 0.116502 0.225861 0.952871
O O1 0.801706 0.399709 0.207194
O O2 0.027202 0.386813 0.256064
O O3 0.934566 0.553519 0.262608
O O4 0.943039 0.444580 0.006544
O O5 0.804239 0.244067 0.566601
O O6 0.666438 0.389278 0.571706
O O7 0.861181 0.391778 0.739992
O O8 0.695520 0.286043 0.812260
O O9 0.110040 0.038022 0.306354
O O10 0.217151 0.950548 0.086963
O O11 0.116906 0.120745 0.039230
O O12 0.749009 0.135256 0.336883
O O13 0.611201 0.278230 0.345417
O O14 0.661702 0.202326 0.083074
O O15 0.454334 0.377688 0.468418
O O16 0.003603 0.279032 0.894803
#
# Coordination Sequence:
#
# PCOD9345769 Si02
#       8
#     4   4   4   4   4   4   4   4
#     4  11  23  42  68 102 131 169 231 286 332 398
#     4  11  23  43  65  97 134 179 227 280 335 401
#     4  11  24  44  66  96 140 175 222 276 344 408
#     4   9  23  41  72  99 128 175 221 280 341 404
#     4  11  24  44  67 100 135 178 226 279 335 421
#     4  10  25  42  66  95 134 184 218 274 345 408
#     4  11  24  40  69  99 132 177 223 287 336 401
#     4  10  22  42  63 100 134 173 218 270 352 401
#
# _framework density 22.069738000000001
#
# number of rings (size 3 to 8) (size 9 to 14) (size 15 to 20)
#    0.000    1.500    1.250    2.250    7.000    5.000 
#    0.000    0.000    0.000    0.000    0.000    0.000 
#    0.000    0.000    0.000    0.000    0.000    0.000 
#
# Total GULP energy -178776.492711 kJ/mol
# GULP energy per Si atom -5586.765397 kJ/mol
# Density = 2.201951 g / cm^3
# Si number density = 22.069738 Si / 1000 Ang^3
#
#
#
# Elastic Constant Matrix: (Units=GPa)
#
#
# Indices 1 2 3 4 5 6 
#
# 1 93.4334 -5.3466 43.1042 0.0000 0.0000 0.0000
# 2 -5.3466 22.4067 -1.6167 0.0000 0.0000 0.0000
# 3 43.1042 -1.6167 94.5851 0.0000 0.0000 0.0000
# 4 0.0000 0.0000 0.0000 23.0737 0.0000 0.0000
# 5 0.0000 0.0000 0.0000 0.0000 40.6474 0.0000
# 6 0.0000 0.0000 0.0000 0.0000 0.0000 27.4202
#
#
#
# Elastic Compliance Matrix: (Units=1/GPa)
#
#
# Indices 1 2 3 4 5 6 
#
# 1 0.013729 0.002828 -0.006208 0.000000 0.000000 0.000000
# 2 0.002828 0.045267 -0.000515 0.000000 0.000000 0.000000
# 3 -0.006208 -0.000515 0.013393 0.000000 0.000000 0.000000
# 4 0.000000 0.000000 0.000000 0.043339 0.000000 0.000000
# 5 0.000000 0.000000 0.000000 0.000000 0.024602 0.000000
# 6 0.000000 0.000000 0.000000 0.000000 0.000000 0.036469
#
#
# Mechanical properties :
#
#
# Convention : Reuss Voigt Hill
#
# Bulk Modulus (GPa) = 15.48029 31.41190 23.44610
# Shear Modulus (GPa) = 24.25745 29.84721 27.05233
#
# Velocity S-wave (km/s) = 3.31891 3.68149 3.50489
# Velocity P-wave (km/s) = 4.66008 5.68640 5.19863
#
# Compressibility (1/GPa) = 0.06459826
#
# Stress axis : x y z
#
# Youngs Moduli (GPa) = 72.84038 22.09112 74.66687
#
# Poissons Ratio (x) = -0.06247 0.46354
# Poissons Ratio (y) = -0.20599 0.03845
# Poissons Ratio (z) = 0.45220 0.01138
#
# Static dielectric constant tensor:
#      x y z
#    x 1.809650 0.000000 0.000000 
#    y 0.000000 1.902910 0.000000 
#    z 0.000000 0.000000 1.798880 
# 
# From -- ./inp_files/3964.got.cif
#   From: 2010.05.17/outbox.cif.g08.bks.cpg/sg33_2_cif.got.tgz:3964.got - 2010.06.03 17:15:25.
