data_PCOD9345192
_publ_section_title
;
Structure prediction by ZEFSAII (Michael W. Deem and Ramdas Pophale) SiO2 
 PCOD9345192
Probable space group: P N A 21
;
_chemical_formula_sum "Si O2"
_cell_formula_units_Z 32
_cell_length_a 8.947898
_cell_length_b 11.083573
_cell_length_c 14.120628
_cell_angle_alpha 90.000000
_cell_angle_beta 90.000000
_cell_angle_gamma 90.000000
_cell_volume 1400.408773
_symmetry_space_group_name_H-M "P N A 21"
_symmetry_group_IT_number 33
_symmetry_cell_setting 'orthorhombic'
loop_
_space_group_symop_operation_xyz
x,y,z
-x,-y,1/2+z
1/2-x,1/2+y,1/2+z
1/2+x,1/2-y,z
loop_
_atom_site_type_symbol
_atom_site_label
_atom_site_fract_x
_atom_site_fract_y
_atom_site_fract_z
Si Si1 0.560228 0.383775 0.598800
Si Si2 0.661075 0.511295 0.247556
Si Si3 0.567975 0.682096 0.746424
Si Si4 0.903471 0.484651 0.926505
Si Si5 0.681511 0.712921 0.951225
Si Si6 0.419492 0.078385 0.128962
Si Si7 0.701849 0.961286 0.216433
Si Si8 0.760924 0.983853 0.954540
O O1 0.449712 0.410343 0.686457
O O2 0.445420 0.314525 0.529040
O O3 0.709653 0.354446 0.662176
O O4 0.621629 0.503944 0.540891
O O5 0.595541 0.375430 0.242163
O O6 0.815249 0.506164 0.192961
O O7 0.669881 0.536474 0.358554
O O8 0.597747 0.728766 0.851659
O O9 0.577675 0.790579 0.674480
O O10 0.684998 0.573400 0.733499
O O11 0.805196 0.606962 0.941229
O O12 0.864019 0.436001 0.821515
O O13 0.083320 0.494960 0.939734
O O14 0.862880 0.411760 0.021652
O O15 0.765527 0.838207 0.966580
O O16 0.578583 0.013778 0.144524
#
# Coordination Sequence:
#
# PCOD9345192 Si02
#       8
#     4   4   4   4   4   4   4   4
#     4  11  23  39  59  95 131 172 206 273 323 385
#     4  11  22  36  61  94 132 166 210 263 329 382
#     4  10  21  35  60  94 128 160 210 275 317 377
#     4  11  23  37  61  96 127 169 212 263 323 389
#     4  11  21  37  62  95 125 162 216 268 324 369
#     4  12  20  36  60  94 128 167 211 266 328 378
#     4  10  22  38  59  90 130 168 217 264 324 379
#     4  12  22  38  64  94 127 168 216 270 318 385
#
# _framework density 22.850470000000001
#
# number of rings (size 3 to 8) (size 9 to 14) (size 15 to 20)
#    0.000    1.000    6.250    1.500    1.750    0.000 
#    0.000    0.000    0.000    6.000    0.000    0.000 
#    0.000    0.000    0.000    0.000    0.000    0.000 
#
# Total GULP energy -178308.542946 kJ/mol
# GULP energy per Si atom -5572.141967 kJ/mol
# Density = 2.279846 g / cm^3
# Si number density = 22.850470 Si / 1000 Ang^3
#
#
#
# Elastic Constant Matrix: (Units=GPa)
#
#
# Indices 1 2 3 4 5 6 
#
# 1 73.2393 -5.5365 2.8347 0.0000 0.0000 0.0000
# 2 -5.5365 11.5126 10.6200 0.0000 0.0000 0.0000
# 3 2.8347 10.6200 183.7027 0.0000 0.0000 0.0000
# 4 0.0000 0.0000 0.0000 26.4265 0.0000 0.0000
# 5 0.0000 0.0000 0.0000 0.0000 39.2718 0.0000
# 6 0.0000 0.0000 0.0000 0.0000 0.0000 16.4560
#
#
#
# Elastic Compliance Matrix: (Units=1/GPa)
#
#
# Indices 1 2 3 4 5 6 
#
# 1 0.014242 0.007449 -0.000650 0.000000 0.000000 0.000000
# 2 0.007449 0.095651 -0.005645 0.000000 0.000000 0.000000
# 3 -0.000650 -0.005645 0.005780 0.000000 0.000000 0.000000
# 4 0.000000 0.000000 0.000000 0.037841 0.000000 0.000000
# 5 0.000000 0.000000 0.000000 0.000000 0.025464 0.000000
# 6 0.000000 0.000000 0.000000 0.000000 0.000000 0.060768
#
#
# Mechanical properties :
#
#
# Convention : Reuss Voigt Hill
#
# Bulk Modulus (GPa) = 8.47592 31.58788 20.03190
# Shear Modulus (GPa) = 18.06592 33.79996 25.93294
#
# Velocity S-wave (km/s) = 2.81484 3.85018 3.37248
# Velocity P-wave (km/s) = 3.77912 5.79819 4.89391
#
# Compressibility (1/GPa) = 0.11798130
#
# Stress axis : x y z
#
# Youngs Moduli (GPa) = 70.21400 10.45469 173.01245
#
# Poissons Ratio (x) = -0.07788 0.11253
# Poissons Ratio (y) = -0.52304 0.97658
# Poissons Ratio (z) = 0.04567 0.05901
#
# Static dielectric constant tensor:
#      x y z
#    x 2.084890 0.000000 0.000000 
#    y 0.000000 1.877320 0.000000 
#    z 0.000000 0.000000 2.040840 
# 
# From -- ./inp_files/5966.got.cif
#   From: 2010.05.17/outbox.cif.g08.bks.cpg/sg33_3_cif.got.tgz:5966.got - 2010.06.03 17:15:25.
