data_PCOD9345549
_publ_section_title
;
Structure prediction by ZEFSAII (Michael W. Deem and Ramdas Pophale) SiO2 
 PCOD9345549
Probable space group: P N A 21
;
_chemical_formula_sum "Si O2"
_cell_formula_units_Z 16
_cell_length_a 5.412481
_cell_length_b 6.387890
_cell_length_c 18.019771
_cell_angle_alpha 90.000000
_cell_angle_beta 90.000000
_cell_angle_gamma 90.000000
_cell_volume 623.021568
_symmetry_space_group_name_H-M "P N A 21"
_symmetry_group_IT_number 33
_symmetry_cell_setting 'orthorhombic'
loop_
_space_group_symop_operation_xyz
x,y,z
-x,-y,1/2+z
1/2-x,1/2+y,1/2+z
1/2+x,1/2-y,z
loop_
_atom_site_type_symbol
_atom_site_label
_atom_site_fract_x
_atom_site_fract_y
_atom_site_fract_z
Si Si1 0.794354 0.255142 0.309200
Si Si2 0.713044 0.392613 0.685033
Si Si3 0.333567 0.357255 0.870570
Si Si4 0.672174 0.383469 0.518029
O O1 0.544624 0.224702 0.354378
O O2 0.744776 0.501243 0.299800
O O3 0.783708 0.097397 0.240369
O O4 0.470022 0.240722 0.691328
O O5 0.699442 0.477585 0.600654
O O6 0.627059 0.322241 0.864516
O O7 0.291515 0.452253 0.951829
O O8 0.397545 0.283598 0.513471
#
# Coordination Sequence:
#
# PCOD9345549 Si02
#       4
#     4   4   4   4
#     4  12  26  43  66  97 138 180 226 278 336 404
#     4  10  23  43  71 102 136 175 222 282 350 411
#     4  12  26  43  67 100 139 185 230 276 334 403
#     4  10  21  43  70  99 133 174 226 286 344 410
#
# _framework density 25.681297000000001
#
# number of rings (size 3 to 8) (size 9 to 14) (size 15 to 20)
#    0.000    1.000    0.000    6.000    0.000    8.000 
#    0.000    0.000    0.000    0.000    0.000    0.000 
#    0.000    0.000    0.000    0.000    0.000    0.000 
#
# Total GULP energy -89077.634229 kJ/mol
# GULP energy per Si atom -5567.352139 kJ/mol
# Density = 2.562285 g / cm^3
# Si number density = 25.681297 Si / 1000 Ang^3
#
#
#
# Elastic Constant Matrix: (Units=GPa)
#
#
# Indices 1 2 3 4 5 6 
#
# 1 211.6299 23.9002 21.3349 0.0000 0.0000 0.0000
# 2 23.9002 72.3833 80.3949 0.0000 0.0000 0.0000
# 3 21.3349 80.3949 173.5210 0.0000 0.0000 0.0000
# 4 0.0000 0.0000 0.0000 61.6018 0.0000 0.0000
# 5 0.0000 0.0000 0.0000 0.0000 34.3243 0.0000
# 6 0.0000 0.0000 0.0000 0.0000 0.0000 53.4613
#
#
#
# Elastic Compliance Matrix: (Units=1/GPa)
#
#
# Indices 1 2 3 4 5 6 
#
# 1 0.004916 -0.001961 0.000304 0.000000 0.000000 0.000000
# 2 -0.001961 0.029244 -0.013308 0.000000 0.000000 0.000000
# 3 0.000304 -0.013308 0.011891 0.000000 0.000000 0.000000
# 4 0.000000 0.000000 0.000000 0.016233 0.000000 0.000000
# 5 0.000000 0.000000 0.000000 0.000000 0.029134 0.000000
# 6 0.000000 0.000000 0.000000 0.000000 0.000000 0.018705
#
#
# Mechanical properties :
#
#
# Convention : Reuss Voigt Hill
#
# Bulk Modulus (GPa) = 62.02901 78.75492 70.39197
# Shear Modulus (GPa) = 34.38147 52.00443 43.19295
#
# Velocity S-wave (km/s) = 3.66290 4.50487 4.10553
# Velocity P-wave (km/s) = 6.48806 7.60206 7.06704
#
# Compressibility (1/GPa) = 0.01612149
#
# Stress axis : x y z
#
# Youngs Moduli (GPa) = 203.41595 34.19523 84.09435
#
# Poissons Ratio (x) = 0.06706 -0.02558
# Poissons Ratio (y) = 0.39890 1.11913
# Poissons Ratio (z) = -0.06186 0.45507
#
# Static dielectric constant tensor:
#      x y z
#    x 2.354300 0.000000 0.000000 
#    y 0.000000 2.344500 0.000000 
#    z 0.000000 0.000000 1.982580 
# 
# From -- ./inp_files/8321.got.cif
#   From: 2010.05.17/outbox.cif.g08.bks.cpg/sg33_5_cif.got.tgz:8321.got - 2010.06.03 17:15:25.
