data_PCOD9345889
_publ_section_title
;
Structure prediction by ZEFSAII (Michael W. Deem and Ramdas Pophale) SiO2 
 PCOD9345889
Probable space group: P N A 21
;
_chemical_formula_sum "Si O2"
_cell_formula_units_Z 28
_cell_length_a 18.654426
_cell_length_b 5.126685
_cell_length_c 13.091819
_cell_angle_alpha 90.000000
_cell_angle_beta 90.000000
_cell_angle_gamma 90.000000
_cell_volume 1252.040901
_symmetry_space_group_name_H-M "P N A 21"
_symmetry_group_IT_number 33
_symmetry_cell_setting 'orthorhombic'
loop_
_space_group_symop_operation_xyz
x,y,z
-x,-y,1/2+z
1/2-x,1/2+y,1/2+z
1/2+x,1/2-y,z
loop_
_atom_site_type_symbol
_atom_site_label
_atom_site_fract_x
_atom_site_fract_y
_atom_site_fract_z
Si Si1 0.370635 0.931599 0.398060
Si Si2 0.279148 0.314962 0.497314
Si Si3 0.207660 0.718961 0.381517
Si Si4 0.100003 0.474891 0.670619
Si Si5 0.136927 0.928157 0.176777
Si Si6 0.329686 0.456104 0.082778
Si Si7 0.442783 0.904578 0.609156
O O1 0.292352 0.797246 0.384503
O O2 0.417534 0.838512 0.493757
O O3 0.344888 0.222981 0.428333
O O4 0.409828 0.924472 0.290611
O O5 0.217105 0.423291 0.423441
O O6 0.306692 0.499812 0.586830
O O7 0.249620 0.074970 0.565942
O O8 0.177054 0.813568 0.274893
O O9 0.158379 0.850655 0.468283
O O10 0.125366 0.204556 0.620032
O O11 0.027684 0.578858 0.620046
O O12 0.157569 0.708555 0.655118
O O13 0.088663 0.688380 0.136797
O O14 0.089122 0.186505 0.185635
#
# Coordination Sequence:
#
# PCOD9345889 Si02
#       7
#     4   4   4   4   4   4   4
#     4  10  25  41  71 101 137 183 230 285 359 396
#     4  10  22  44  68 108 137 168 229 301 342 411
#     4  11  23  42  73 103 142 174 229 297 354 406
#     4  12  26  45  72  99 140 193 233 276 338 428
#     4  11  25  42  71  97 141 180 228 282 362 395
#     4  11  25  42  67 106 134 172 236 285 337 408
#     4  11  26  48  64 102 145 184 231 288 328 430
#
# _framework density 22.363484
#
# number of rings (size 3 to 8) (size 9 to 14) (size 15 to 20)
#    0.000    1.143    2.857    1.714    8.000    2.286 
#    0.000    0.000    0.000    0.000    0.000    0.000 
#    0.000    0.000    0.000    0.000    0.000    0.000 
#
# Total GULP energy -156187.339647 kJ/mol
# GULP energy per Si atom -5578.119273 kJ/mol
# Density = 2.231258 g / cm^3
# Si number density = 22.363484 Si / 1000 Ang^3
#
#
#
# Elastic Constant Matrix: (Units=GPa)
#
#
# Indices 1 2 3 4 5 6 
#
# 1 58.9315 11.1149 21.1231 0.0000 0.0000 0.0000
# 2 11.1149 98.9360 6.1929 0.0000 0.0000 0.0000
# 3 21.1231 6.1929 121.9583 0.0000 0.0000 0.0000
# 4 0.0000 0.0000 0.0000 29.0431 0.0000 0.0000
# 5 0.0000 0.0000 0.0000 0.0000 26.9844 0.0000
# 6 0.0000 0.0000 0.0000 0.0000 0.0000 22.4249
#
#
#
# Elastic Compliance Matrix: (Units=1/GPa)
#
#
# Indices 1 2 3 4 5 6 
#
# 1 0.018433 -0.001877 -0.003097 0.000000 0.000000 0.000000
# 2 -0.001877 0.010331 -0.000200 0.000000 0.000000 0.000000
# 3 -0.003097 -0.000200 0.008746 0.000000 0.000000 0.000000
# 4 0.000000 0.000000 0.000000 0.034432 0.000000 0.000000
# 5 0.000000 0.000000 0.000000 0.000000 0.037058 0.000000
# 6 0.000000 0.000000 0.000000 0.000000 0.000000 0.044593
#
#
# Mechanical properties :
#
#
# Convention : Reuss Voigt Hill
#
# Bulk Modulus (GPa) = 36.81542 39.63195 38.22368
# Shear Modulus (GPa) = 28.90255 31.78347 30.34301
#
# Velocity S-wave (km/s) = 3.59890 3.77400 3.68749
# Velocity P-wave (km/s) = 5.81098 6.06226 5.93795
#
# Compressibility (1/GPa) = 0.02716253
#
# Stress axis : x y z
#
# Youngs Moduli (GPa) = 54.25044 96.79700 114.33665
#
# Poissons Ratio (x) = 0.18169 0.35413
# Poissons Ratio (y) = 0.10183 0.02281
# Poissons Ratio (z) = 0.16803 0.01931
#
# Static dielectric constant tensor:
#      x y z
#    x 1.846890 0.000000 0.000000 
#    y 0.000000 1.961520 0.000000 
#    z 0.000000 0.000000 1.827690 
# 
# From -- ./inp_files/6929.got.cif
#   From: 2010.05.17/outbox.cif.g08.bks.cpg/sg33_4_cif.got.tgz:6929.got - 2010.06.03 17:15:25.
