data_PCOD9345255
_publ_section_title
;
Structure prediction by ZEFSAII (Michael W. Deem and Ramdas Pophale) SiO2 
 PCOD9345255
Probable space group: P N A 21
;
_chemical_formula_sum "Si O2"
_cell_formula_units_Z 32
_cell_length_a 5.433945
_cell_length_b 17.209883
_cell_length_c 13.953082
_cell_angle_alpha 90.000000
_cell_angle_beta 90.000000
_cell_angle_gamma 90.000000
_cell_volume 1304.858151
_symmetry_space_group_name_H-M "P N A 21"
_symmetry_group_IT_number 33
_symmetry_cell_setting 'orthorhombic'
loop_
_space_group_symop_operation_xyz
x,y,z
-x,-y,1/2+z
1/2-x,1/2+y,1/2+z
1/2+x,1/2-y,z
loop_
_atom_site_type_symbol
_atom_site_label
_atom_site_fract_x
_atom_site_fract_y
_atom_site_fract_z
Si Si1 0.274880 0.276543 0.194970
Si Si2 0.614076 0.544450 0.962545
Si Si3 0.114803 0.460963 0.960736
Si Si4 0.817330 0.720645 0.476599
Si Si5 0.383591 0.452703 0.229568
Si Si6 0.884734 0.535902 0.229636
Si Si7 0.958876 0.224467 0.475106
Si Si8 0.992746 0.714087 0.189873
O O1 0.497758 0.225031 0.235912
O O2 0.227450 0.250409 0.085195
O O3 0.379986 0.363448 0.198726
O O4 0.373238 0.497044 0.993814
O O5 0.616630 0.545633 0.845988
O O6 0.871075 0.506245 0.994432
O O7 0.583564 0.633724 0.992044
O O8 0.115062 0.468491 0.845291
O O9 0.111237 0.369498 0.981285
O O10 0.547619 0.733772 0.431418
O O11 0.627203 0.498538 0.197628
O O12 0.128315 0.490897 0.196315
O O13 0.914789 0.625839 0.204423
O O14 0.219617 0.239661 0.425514
O O15 0.984945 0.268287 0.576539
O O16 0.766049 0.766522 0.227476
#
# Coordination Sequence:
#
# PCOD9345255 Si02
#       8
#     4   4   4   4   4   4   4   4
#     4  10  21  38  58  84 116 144 191 242 291 349
#     4  10  21  38  59  83 122 149 201 242 282 354
#     4  10  21  38  59  88 112 157 196 242 293 343
#     4  10  21  38  58  84 116 144 191 242 291 349
#     4  10  21  38  59  88 112 157 196 242 293 343
#     4  10  21  38  59  83 122 149 201 242 282 354
#     4  10  21  38  56  81 119 157 192 241 289 349
#     4  10  21  38  56  81 119 157 192 241 289 349
#
# _framework density 24.52374
#
# number of rings (size 3 to 8) (size 9 to 14) (size 15 to 20)
#    0.000    2.000    0.000    3.000    0.000    2.000 
#   13.500    0.000    0.000    0.000    0.000    0.000 
#    0.000    0.000    0.000    0.000    0.000    0.000 
#
# Total GULP energy -179120.921280 kJ/mol
# GULP energy per Si atom -5597.528790 kJ/mol
# Density = 2.446792 g / cm^3
# Si number density = 24.523740 Si / 1000 Ang^3
#
#
#
# Elastic Constant Matrix: (Units=GPa)
#
#
# Indices 1 2 3 4 5 6 
#
# 1 220.0539 55.2589 19.4051 0.0000 0.0000 0.0000
# 2 55.2589 129.3388 -31.8647 0.0000 0.0000 0.0000
# 3 19.4051 -31.8647 74.3674 0.0000 0.0000 0.0000
# 4 0.0000 0.0000 0.0000 32.5901 0.0000 0.0000
# 5 0.0000 0.0000 0.0000 0.0000 34.8747 0.0000
# 6 0.0000 0.0000 0.0000 0.0000 0.0000 54.6737
#
#
#
# Elastic Compliance Matrix: (Units=1/GPa)
#
#
# Indices 1 2 3 4 5 6 
#
# 1 0.005554 -0.003052 -0.002757 0.000000 0.000000 0.000000
# 2 -0.003052 0.010321 0.005219 0.000000 0.000000 0.000000
# 3 -0.002757 0.005219 0.016402 0.000000 0.000000 0.000000
# 4 0.000000 0.000000 0.000000 0.030684 0.000000 0.000000
# 5 0.000000 0.000000 0.000000 0.000000 0.028674 0.000000
# 6 0.000000 0.000000 0.000000 0.000000 0.000000 0.018290
#
#
# Mechanical properties :
#
#
# Convention : Reuss Voigt Hill
#
# Bulk Modulus (GPa) = 32.15724 56.59542 44.37633
# Shear Modulus (GPa) = 41.16170 49.82508 45.49339
#
# Velocity S-wave (km/s) = 4.10133 4.51234 4.31173
# Velocity P-wave (km/s) = 5.96397 7.09057 6.55153
#
# Compressibility (1/GPa) = 0.03109720
#
# Stress axis : x y z
#
# Youngs Moduli (GPa) = 180.05435 96.88654 60.96710
#
# Poissons Ratio (x) = 0.29570 0.16808
# Poissons Ratio (y) = 0.54954 -0.31818
# Poissons Ratio (z) = 0.49640 -0.50564
#
# Static dielectric constant tensor:
#      x y z
#    x 2.021180 0.000000 0.000000 
#    y 0.000000 1.842420 0.000000 
#    z 0.000000 0.000000 2.022480 
# 
# From -- ./inp_files/8357.got.cif
#   From: 2010.05.17/outbox.cif.g08.bks.cpg/sg33_5_cif.got.tgz:8357.got - 2010.06.03 17:15:25.
