data_PCOD9345581
_publ_section_title
;
Structure prediction by ZEFSAII (Michael W. Deem and Ramdas Pophale) SiO2 
 PCOD9345581
Probable space group: P N A 21
;
_chemical_formula_sum "Si O2"
_cell_formula_units_Z 28
_cell_length_a 27.919082
_cell_length_b 5.666275
_cell_length_c 6.986877
_cell_angle_alpha 90.000000
_cell_angle_beta 90.000000
_cell_angle_gamma 90.000000
_cell_volume 1105.304353
_symmetry_space_group_name_H-M "P N A 21"
_symmetry_group_IT_number 33
_symmetry_cell_setting 'orthorhombic'
loop_
_space_group_symop_operation_xyz
x,y,z
-x,-y,1/2+z
1/2-x,1/2+y,1/2+z
1/2+x,1/2-y,z
loop_
_atom_site_type_symbol
_atom_site_label
_atom_site_fract_x
_atom_site_fract_y
_atom_site_fract_z
Si Si1 0.504137 0.713413 0.460930
Si Si2 0.704668 0.427663 0.489869
Si Si3 0.161290 0.070728 0.073032
Si Si4 0.562376 0.641842 0.109850
Si Si5 0.657220 0.930810 0.499554
Si Si6 0.935610 0.474998 0.256452
Si Si7 0.684151 0.933515 0.055931
O O1 0.548834 0.727664 0.319715
O O2 0.488497 0.462157 0.539295
O O3 0.518677 0.867834 0.642994
O O4 0.456490 0.789952 0.348423
O O5 0.696081 0.422181 0.258763
O O6 0.688398 0.163928 0.548743
O O7 0.758727 0.457598 0.559394
O O8 0.676329 0.667211 0.548018
O O9 0.106105 0.039365 0.134585
O O10 0.175023 0.826221 0.970506
O O11 0.166320 0.319750 0.967546
O O12 0.576641 0.820289 0.943111
O O13 0.658731 0.927982 0.265842
O O14 0.607669 0.978192 0.608726
#
# Coordination Sequence:
#
# PCOD9345581 Si02
#       7
#     4   4   4   4   4   4   4
#     4  12  26  48  78 110 150 204 260 318 392 476
#     4  10  21  45  72 100 142 198 244 309 380 452
#     4  10  24  43  70 105 144 190 247 316 374 454
#     4  12  27  48  75 111 152 200 256 320 394 460
#     4  10  24  43  70 105 144 190 247 316 374 454
#     4  12  27  48  75 111 152 200 256 320 394 460
#     4  10  21  45  72 100 142 198 244 309 380 452
#
# _framework density 25.332388999999999
#
# number of rings (size 3 to 8) (size 9 to 14) (size 15 to 20)
#    0.000    1.143    2.857    2.571    4.000    4.571 
#   15.429    0.000    0.000    0.000    0.000    0.000 
#    0.000    0.000    0.000    0.000    0.000    0.000 
#
# Total GULP energy -156456.486149 kJ/mol
# GULP energy per Si atom -5587.731648 kJ/mol
# Density = 2.527473 g / cm^3
# Si number density = 25.332389 Si / 1000 Ang^3
#
#
#
# Elastic Constant Matrix: (Units=GPa)
#
#
# Indices 1 2 3 4 5 6 
#
# 1 91.0961 27.0961 11.3017 0.0000 0.0000 0.0000
# 2 27.0961 168.0700 18.6657 0.0000 0.0000 0.0000
# 3 11.3017 18.6657 128.0485 0.0000 0.0000 0.0000
# 4 0.0000 0.0000 0.0000 6.0214 0.0000 0.0000
# 5 0.0000 0.0000 0.0000 0.0000 33.9577 0.0000
# 6 0.0000 0.0000 0.0000 0.0000 0.0000 51.9554
#
#
#
# Elastic Compliance Matrix: (Units=1/GPa)
#
#
# Indices 1 2 3 4 5 6 
#
# 1 0.011603 -0.001786 -0.000764 0.000000 0.000000 0.000000
# 2 -0.001786 0.006323 -0.000764 0.000000 0.000000 0.000000
# 3 -0.000764 -0.000764 0.007988 0.000000 0.000000 0.000000
# 4 0.000000 0.000000 0.000000 0.166075 0.000000 0.000000
# 5 0.000000 0.000000 0.000000 0.000000 0.029448 0.000000
# 6 0.000000 0.000000 0.000000 0.000000 0.000000 0.019247
#
#
# Mechanical properties :
#
#
# Convention : Reuss Voigt Hill
#
# Bulk Modulus (GPa) = 51.84845 55.70461 53.77653
# Shear Modulus (GPa) = 19.70507 40.39697 30.05102
#
# Velocity S-wave (km/s) = 2.79204 3.99767 3.44796
# Velocity P-wave (km/s) = 5.55929 6.58375 6.09309
#
# Compressibility (1/GPa) = 0.01928698
#
# Stress axis : x y z
#
# Youngs Moduli (GPa) = 86.18189 158.16103 125.18259
#
# Poissons Ratio (x) = 0.28245 0.09561
# Poissons Ratio (y) = 0.15391 0.09564
# Poissons Ratio (z) = 0.06583 0.12084
#
# Static dielectric constant tensor:
#      x y z
#    x 1.976910 0.000000 0.000000 
#    y 0.000000 2.016290 0.000000 
#    z 0.000000 0.000000 2.009190 
# 
# From -- ./inp_files/5259.got.cif
#   From: 2010.05.17/outbox.cif.g08.bks.cpg/sg33_3_cif.got.tgz:5259.got - 2010.06.03 17:15:25.
