data_PCOD9345738
_publ_section_title
;
Structure prediction by ZEFSAII (Michael W. Deem and Ramdas Pophale) SiO2 
 PCOD9345738
Probable space group: P N A 21
;
_chemical_formula_sum "Si O2"
_cell_formula_units_Z 32
_cell_length_a 9.810267
_cell_length_b 5.314803
_cell_length_c 21.561035
_cell_angle_alpha 90.000000
_cell_angle_beta 90.000000
_cell_angle_gamma 90.000000
_cell_volume 1124.184527
_symmetry_space_group_name_H-M "P N A 21"
_symmetry_group_IT_number 33
_symmetry_cell_setting 'orthorhombic'
loop_
_space_group_symop_operation_xyz
x,y,z
-x,-y,1/2+z
1/2-x,1/2+y,1/2+z
1/2+x,1/2-y,z
loop_
_atom_site_type_symbol
_atom_site_label
_atom_site_fract_x
_atom_site_fract_y
_atom_site_fract_z
Si Si1 0.015005 0.797616 0.113060
Si Si2 0.748730 0.324840 0.527494
Si Si3 0.133140 0.246075 0.274092
Si Si4 0.207236 0.743538 0.303381
Si Si5 0.425278 0.735308 0.920075
Si Si6 0.948438 0.370262 0.166713
Si Si7 0.832160 0.783793 0.592459
Si Si8 0.546091 0.232880 0.893887
O O1 0.897515 0.792312 0.060506
O O2 0.934748 0.683739 0.173486
O O3 0.081662 0.496373 0.115635
O O4 0.033193 0.099353 0.131959
O O5 0.713607 0.250838 0.458043
O O6 0.784713 0.623026 0.531725
O O7 0.841958 0.111244 0.564163
O O8 0.226932 0.488548 0.266291
O O9 0.000028 0.292090 0.234469
O O10 0.105673 0.230725 0.347418
O O11 0.205254 0.985157 0.260369
O O12 0.308097 0.761996 0.361813
O O13 0.057622 0.728042 0.335174
O O14 0.505572 0.478213 0.932832
O O15 0.512775 0.983161 0.932359
O O16 0.802198 0.304085 0.135212
#
# Coordination Sequence:
#
# PCOD9345738 Si02
#       8
#     4   4   4   4   4   4   4   4
#     4  11  24  46  69 103 142 187 249 305 374 438
#     4  11  25  43  74 104 144 190 247 311 371 446
#     4  10  24  45  70 106 143 189 238 298 374 442
#     4  10  22  41  65  93 140 182 231 281 345 434
#     4  10  24  45  70 108 143 193 237 302 368 448
#     4  11  25  43  74 104 141 191 243 313 368 453
#     4  11  24  46  69 103 141 188 252 302 377 432
#     4  10  22  41  65  93 140 182 233 278 349 427
#
# _framework density 28.465077999999998
#
# number of rings (size 3 to 8) (size 9 to 14) (size 15 to 20)
#    0.000    1.500    2.500    0.750    3.500    8.000 
#    2.250    0.000    0.000    0.000    0.000    0.000 
#    0.000    0.000    0.000    0.000    0.000    0.000 
#
# Total GULP energy -178730.839555 kJ/mol
# GULP energy per Si atom -5585.338736 kJ/mol
# Density = 2.840029 g / cm^3
# Si number density = 28.465078 Si / 1000 Ang^3
#
#
#
# Elastic Constant Matrix: (Units=GPa)
#
#
# Indices 1 2 3 4 5 6 
#
# 1 155.0842 60.8221 40.6211 0.0000 0.0000 0.0000
# 2 60.8221 290.8254 32.5257 0.0000 0.0000 0.0000
# 3 40.6211 32.5257 84.6306 0.0000 0.0000 0.0000
# 4 0.0000 0.0000 0.0000 36.5953 0.0000 0.0000
# 5 0.0000 0.0000 0.0000 0.0000 44.1097 0.0000
# 6 0.0000 0.0000 0.0000 0.0000 0.0000 52.6059
#
#
#
# Elastic Compliance Matrix: (Units=1/GPa)
#
#
# Indices 1 2 3 4 5 6 
#
# 1 0.007798 -0.001267 -0.003256 0.000000 0.000000 0.000000
# 2 -0.001267 0.003799 -0.000852 0.000000 0.000000 0.000000
# 3 -0.003256 -0.000852 0.013706 0.000000 0.000000 0.000000
# 4 0.000000 0.000000 0.000000 0.027326 0.000000 0.000000
# 5 0.000000 0.000000 0.000000 0.000000 0.022671 0.000000
# 6 0.000000 0.000000 0.000000 0.000000 0.000000 0.019009
#
#
# Mechanical properties :
#
#
# Convention : Reuss Voigt Hill
#
# Bulk Modulus (GPa) = 68.71177 88.71980 78.71578
# Shear Modulus (GPa) = 45.49224 53.10027 49.29625
#
# Velocity S-wave (km/s) = 4.00206 4.32377 4.16602
# Velocity P-wave (km/s) = 6.74883 7.49415 7.13123
#
# Compressibility (1/GPa) = 0.01455355
#
# Stress axis : x y z
#
# Youngs Moduli (GPa) = 128.24297 263.24988 72.95929
#
# Poissons Ratio (x) = 0.33344 0.23755
# Poissons Ratio (y) = 0.16244 0.06216
# Poissons Ratio (z) = 0.41755 0.22428
#
# Static dielectric constant tensor:
#      x y z
#    x 2.437110 0.000000 0.000000 
#    y 0.000000 2.608780 0.000000 
#    z 0.000000 0.000000 2.389230 
# 
# From -- ./inp_files/9283.got.cif
#   From: 2010.05.17/outbox.cif.g08.bks.cpg/sg33_5_cif.got.tgz:9283.got - 2010.06.03 17:15:25.
