data_PCOD9345272
_publ_section_title
;
Structure prediction by ZEFSAII (Michael W. Deem and Ramdas Pophale) SiO2 
 PCOD9345272
Probable space group: P N A 21
;
_chemical_formula_sum "Si O2"
_cell_formula_units_Z 32
_cell_length_a 8.920212
_cell_length_b 18.172762
_cell_length_c 8.095594
_cell_angle_alpha 90.000000
_cell_angle_beta 90.000000
_cell_angle_gamma 90.000000
_cell_volume 1312.335372
_symmetry_space_group_name_H-M "P N A 21"
_symmetry_group_IT_number 33
_symmetry_cell_setting 'orthorhombic'
loop_
_space_group_symop_operation_xyz
x,y,z
-x,-y,1/2+z
1/2-x,1/2+y,1/2+z
1/2+x,1/2-y,z
loop_
_atom_site_type_symbol
_atom_site_label
_atom_site_fract_x
_atom_site_fract_y
_atom_site_fract_z
Si Si1 0.332788 0.721669 0.882790
Si Si2 0.853290 0.951878 0.180571
Si Si3 0.350852 0.534638 0.560411
Si Si4 0.846339 0.427514 0.363819
Si Si5 0.800063 0.789468 0.240983
Si Si6 0.370918 0.879448 0.716465
Si Si7 0.058221 0.840941 0.663740
Si Si8 0.521291 0.799473 0.450069
O O1 0.209470 0.658228 0.850170
O O2 0.343024 0.795164 0.775985
O O3 0.490403 0.680821 0.841930
O O4 0.300150 0.749204 0.065245
O O5 0.812266 0.976744 0.368227
O O6 0.886302 0.864696 0.204528
O O7 0.724597 0.955174 0.037225
O O8 0.008354 0.984718 0.112789
O O9 0.228119 0.530835 0.706835
O O10 0.420935 0.617022 0.575737
O O11 0.025795 0.423673 0.343938
O O12 0.639670 0.813939 0.307680
O O13 0.875788 0.735589 0.368827
O O14 0.199372 0.895752 0.669874
O O15 0.474543 0.869980 0.554897
O O16 0.086112 0.765809 0.565181
#
# Coordination Sequence:
#
# PCOD9345272 Si02
#       8
#     4   4   4   4   4   4   4   4
#     4   9  21  35  57  89 125 159 203 245 304 379
#     4  11  22  39  65  93 114 163 218 267 305 362
#     4  11  21  42  67  87 120 159 224 267 300 367
#     4  10  22  38  62  90 119 163 207 257 304 373
#     4  11  23  36  58  94 126 157 205 259 316 378
#     4  11  21  37  59  89 126 164 192 247 326 384
#     4  10  21  38  61  88 122 170 201 254 317 378
#     4  11  21  37  59  90 128 163 198 252 318 387
#
# _framework density 24.384011999999998
#
# number of rings (size 3 to 8) (size 9 to 14) (size 15 to 20)
#    0.000    1.500    3.750    2.250    7.000    0.000 
#    0.000    0.000    5.500    0.000    0.000    0.000 
#    0.000    0.000    0.000    0.000    0.000    0.000 
#
# Total GULP energy -178742.484424 kJ/mol
# GULP energy per Si atom -5585.702638 kJ/mol
# Density = 2.432851 g / cm^3
# Si number density = 24.384012 Si / 1000 Ang^3
#
#
#
# Elastic Constant Matrix: (Units=GPa)
#
#
# Indices 1 2 3 4 5 6 
#
# 1 102.3876 -4.1810 43.4408 0.0000 0.0000 0.0000
# 2 -4.1810 27.3967 -0.6308 0.0000 0.0000 0.0000
# 3 43.4408 -0.6308 162.6685 0.0000 0.0000 0.0000
# 4 0.0000 0.0000 0.0000 29.2130 0.0000 0.0000
# 5 0.0000 0.0000 0.0000 0.0000 30.1981 0.0000
# 6 0.0000 0.0000 0.0000 0.0000 0.0000 27.8541
#
#
#
# Elastic Compliance Matrix: (Units=1/GPa)
#
#
# Indices 1 2 3 4 5 6 
#
# 1 0.011087 0.001624 -0.002954 0.000000 0.000000 0.000000
# 2 0.001624 0.036742 -0.000291 0.000000 0.000000 0.000000
# 3 -0.002954 -0.000291 0.006935 0.000000 0.000000 0.000000
# 4 0.000000 0.000000 0.000000 0.034231 0.000000 0.000000
# 5 0.000000 0.000000 0.000000 0.000000 0.033115 0.000000
# 6 0.000000 0.000000 0.000000 0.000000 0.000000 0.035901
#
#
# Mechanical properties :
#
#
# Convention : Reuss Voigt Hill
#
# Bulk Modulus (GPa) = 19.40978 41.07899 30.24438
# Shear Modulus (GPa) = 28.02252 34.37464 31.19858
#
# Velocity S-wave (km/s) = 3.39369 3.75870 3.58085
# Velocity P-wave (km/s) = 4.83047 5.97665 5.43387
#
# Compressibility (1/GPa) = 0.05152043
#
# Stress axis : x y z
#
# Youngs Moduli (GPa) = 90.19891 27.21691 144.18950
#
# Poissons Ratio (x) = -0.04420 0.42599
# Poissons Ratio (y) = -0.14647 0.04199
# Poissons Ratio (z) = 0.26648 0.00793
#
# Static dielectric constant tensor:
#      x y z
#    x 1.970920 0.000000 0.000000 
#    y 0.000000 1.979130 0.000000 
#    z 0.000000 0.000000 1.976000 
# 
# From -- ./inp_files/3447.got.cif
#   From: 2010.05.17/outbox.cif.g08.bks.cpg/sg33_2_cif.got.tgz:3447.got - 2010.06.03 17:15:25.
