data_PCOD9345980
_publ_section_title
;
Structure prediction by ZEFSAII (Michael W. Deem and Ramdas Pophale) SiO2 
 PCOD9345980
Probable space group: P N A 21
;
_chemical_formula_sum "Si O2"
_cell_formula_units_Z 28
_cell_length_a 21.169004
_cell_length_b 12.927512
_cell_length_c 5.031698
_cell_angle_alpha 90.000000
_cell_angle_beta 90.000000
_cell_angle_gamma 90.000000
_cell_volume 1376.987322
_symmetry_space_group_name_H-M "P N A 21"
_symmetry_group_IT_number 33
_symmetry_cell_setting 'orthorhombic'
loop_
_space_group_symop_operation_xyz
x,y,z
-x,-y,1/2+z
1/2-x,1/2+y,1/2+z
1/2+x,1/2-y,z
loop_
_atom_site_type_symbol
_atom_site_label
_atom_site_fract_x
_atom_site_fract_y
_atom_site_fract_z
Si Si1 0.839305 0.722545 0.288440
Si Si2 0.740282 0.864983 0.552110
Si Si3 0.939858 0.311268 0.293393
Si Si4 0.827173 0.171759 0.331452
Si Si5 0.915163 0.676205 0.785556
Si Si6 0.727226 0.569259 0.343315
Si Si7 0.609575 0.931796 0.297114
O O1 0.793546 0.815961 0.365748
O O2 0.896860 0.714486 0.493534
O O3 0.796949 0.619839 0.339376
O O4 0.865452 0.723761 0.992587
O O5 0.712626 0.771736 0.732643
O O6 0.681968 0.910400 0.380966
O O7 0.767692 0.954467 0.735854
O O8 0.899255 0.206250 0.294817
O O9 0.906874 0.384442 0.512297
O O10 0.013087 0.297124 0.354006
O O11 0.931688 0.369416 0.013273
O O12 0.811370 0.138783 0.629927
O O13 0.804032 0.083103 0.130013
O O14 0.906577 0.552390 0.803430
#
# Coordination Sequence:
#
# PCOD9345980 Si02
#       7
#     4   4   4   4   4   4   4
#     4  11  23  38  56  93 120 161 200 245 313 362
#     4  10  23  38  64  89 127 153 201 256 305 365
#     4  11  22  39  59  87 121 163 202 250 296 369
#     4  10  23  38  60  90 117 158 206 240 307 363
#     4  12  23  38  59  87 128 158 201 248 305 367
#     4  11  22  40  61  88 125 157 198 255 303 364
#     4  11  22  37  61  88 120 160 202 246 315 366
#
# _framework density 20.334247999999999
#
# number of rings (size 3 to 8) (size 9 to 14) (size 15 to 20)
#    0.000    1.143    1.429    6.857    2.000    4.571 
#    0.000    0.000    0.000    3.429    0.000    0.000 
#    0.000    0.000    0.000    0.000    0.000    0.000 
#
# Total GULP energy -156785.541283 kJ/mol
# GULP energy per Si atom -5599.483617 kJ/mol
# Density = 2.028797 g / cm^3
# Si number density = 20.334248 Si / 1000 Ang^3
#
#
#
# Elastic Constant Matrix: (Units=GPa)
#
#
# Indices 1 2 3 4 5 6 
#
# 1 80.0123 10.9885 -5.7655 0.0000 0.0000 0.0000
# 2 10.9885 46.6526 -8.3303 0.0000 0.0000 0.0000
# 3 -5.7655 -8.3303 52.8243 0.0000 0.0000 0.0000
# 4 0.0000 0.0000 0.0000 32.8481 0.0000 0.0000
# 5 0.0000 0.0000 0.0000 0.0000 26.6146 0.0000
# 6 0.0000 0.0000 0.0000 0.0000 0.0000 11.1677
#
#
#
# Elastic Compliance Matrix: (Units=1/GPa)
#
#
# Indices 1 2 3 4 5 6 
#
# 1 0.012963 -0.002882 0.000960 0.000000 0.000000 0.000000
# 2 -0.002882 0.022697 0.003265 0.000000 0.000000 0.000000
# 3 0.000960 0.003265 0.019550 0.000000 0.000000 0.000000
# 4 0.000000 0.000000 0.000000 0.030443 0.000000 0.000000
# 5 0.000000 0.000000 0.000000 0.000000 0.037573 0.000000
# 6 0.000000 0.000000 0.000000 0.000000 0.000000 0.089544
#
#
# Mechanical properties :
#
#
# Convention : Reuss Voigt Hill
#
# Bulk Modulus (GPa) = 17.27213 19.25273 18.26243
# Shear Modulus (GPa) = 21.79756 26.29916 24.04836
#
# Velocity S-wave (km/s) = 3.27764 3.60021 3.44270
# Velocity P-wave (km/s) = 4.77875 5.17404 4.98032
#
# Compressibility (1/GPa) = 0.05789674
#
# Stress axis : x y z
#
# Youngs Moduli (GPa) = 77.14231 44.05911 51.15002
#
# Poissons Ratio (x) = 0.12697 -0.04912
# Poissons Ratio (y) = 0.22231 -0.16699
# Poissons Ratio (z) = -0.07409 -0.14384
#
# Static dielectric constant tensor:
#      x y z
#    x 1.712360 0.000000 0.000000 
#    y 0.000000 1.708140 0.000000 
#    z 0.000000 0.000000 1.716330 
# 
# From -- ./inp_files/1748.got.cif
#   From: 2010.05.17/outbox.cif.g08.bks.cpg/sg33_1_cif.got.tgz:1748.got - 2010.06.03 17:15:25.
