data_PCOD9345636
_publ_section_title
;
Structure prediction by ZEFSAII (Michael W. Deem and Ramdas Pophale) SiO2 
 PCOD9345636
Probable space group: P N A 21
;
_chemical_formula_sum "Si O2"
_cell_formula_units_Z 28
_cell_length_a 5.653016
_cell_length_b 24.555883
_cell_length_c 8.960507
_cell_angle_alpha 90.000000
_cell_angle_beta 90.000000
_cell_angle_gamma 90.000000
_cell_volume 1243.850983
_symmetry_space_group_name_H-M "P N A 21"
_symmetry_group_IT_number 33
_symmetry_cell_setting 'orthorhombic'
loop_
_space_group_symop_operation_xyz
x,y,z
-x,-y,1/2+z
1/2-x,1/2+y,1/2+z
1/2+x,1/2-y,z
loop_
_atom_site_type_symbol
_atom_site_label
_atom_site_fract_x
_atom_site_fract_y
_atom_site_fract_z
Si Si1 0.321672 0.500044 0.616980
Si Si2 0.964178 0.472579 0.849857
Si Si3 0.599753 0.132937 0.325025
Si Si4 0.327581 0.411730 0.038969
Si Si5 0.908145 0.893968 0.249248
Si Si6 0.590878 0.252023 0.225207
Si Si7 0.600487 0.357921 0.437163
O O1 0.083149 0.502934 0.713723
O O2 0.469670 0.555742 0.628053
O O3 0.467868 0.448156 0.675848
O O4 0.237552 0.498226 0.445136
O O5 0.849356 0.416056 0.795063
O O6 0.178550 0.458293 0.957856
O O7 0.656703 0.119456 0.152084
O O8 0.586849 0.198733 0.329903
O O9 0.348968 0.112812 0.391118
O O10 0.840642 0.116782 0.408697
O O11 0.452013 0.379764 0.901570
O O12 0.890921 0.850920 0.115958
O O13 0.340841 0.250350 0.140101
O O14 0.593812 0.305373 0.329060
#
# Coordination Sequence:
#
# PCOD9345636 Si02
#       7
#     4   4   4   4   4   4   4
#     4  10  22  40  56  82 118 166 210 256 314 362
#     4  10  22  40  58  78 122 168 206 266 306 370
#     4  10  22  38  65  95 119 160 210 262 318 380
#     4  10  23  40  57  87 124 166 213 262 319 379
#     4  10  23  40  57  87 124 166 213 262 319 379
#     4   8  16  36  60  88 120 148 194 262 314 370
#     4  10  22  38  65  95 119 160 210 262 318 380
#
# _framework density 22.510735
#
# number of rings (size 3 to 8) (size 9 to 14) (size 15 to 20)
#    0.000    2.286    0.000    0.857    8.000    5.714 
#    2.571    0.000    0.000   15.429    0.000    0.000 
#    0.000    0.000    0.000    0.000    0.000    0.000 
#
# Total GULP energy -156083.558536 kJ/mol
# GULP energy per Si atom -5574.412805 kJ/mol
# Density = 2.245950 g / cm^3
# Si number density = 22.510735 Si / 1000 Ang^3
#
#
#
# Elastic Constant Matrix: (Units=GPa)
#
#
# Indices 1 2 3 4 5 6 
#
# 1 142.4178 -9.7052 -0.6466 0.0000 0.0000 0.0000
# 2 -9.7052 27.8869 -12.3496 0.0000 0.0000 0.0000
# 3 -0.6466 -12.3496 53.4790 0.0000 0.0000 0.0000
# 4 0.0000 0.0000 0.0000 3.7247 0.0000 0.0000
# 5 0.0000 0.0000 0.0000 0.0000 39.9447 0.0000
# 6 0.0000 0.0000 0.0000 0.0000 0.0000 13.2998
#
#
#
# Elastic Compliance Matrix: (Units=1/GPa)
#
#
# Indices 1 2 3 4 5 6 
#
# 1 0.007219 0.002841 0.000743 0.000000 0.000000 0.000000
# 2 0.002841 0.041062 0.009517 0.000000 0.000000 0.000000
# 3 0.000743 0.009517 0.020906 0.000000 0.000000 0.000000
# 4 0.000000 0.000000 0.000000 0.268479 0.000000 0.000000
# 5 0.000000 0.000000 0.000000 0.000000 0.025035 0.000000
# 6 0.000000 0.000000 0.000000 0.000000 0.000000 0.075189
#
#
# Mechanical properties :
#
#
# Convention : Reuss Voigt Hill
#
# Bulk Modulus (GPa) = 10.48333 19.82012 15.15172
# Shear Modulus (GPa) = 11.27439 27.82617 19.55028
#
# Velocity S-wave (km/s) = 2.24038 3.51968 2.95021
# Velocity P-wave (km/s) = 3.37040 5.03402 4.28374
#
# Compressibility (1/GPa) = 0.09538956
#
# Stress axis : x y z
#
# Youngs Moduli (GPa) = 138.53102 24.35320 47.83417
#
# Poissons Ratio (x) = -0.06920 -0.03556
# Poissons Ratio (y) = -0.39363 -0.45522
# Poissons Ratio (z) = -0.10299 -0.23176
#
# Static dielectric constant tensor:
#      x y z
#    x 1.913090 0.000000 0.000000 
#    y 0.000000 1.840270 0.000000 
#    z 0.000000 0.000000 1.838870 
# 
# From -- ./inp_files/2781.got.cif
#   From: 2010.05.17/outbox.cif.g08.bks.cpg/sg33_2_cif.got.tgz:2781.got - 2010.06.03 17:15:25.
