data_PCOD9345661
_publ_section_title
;
Structure prediction by ZEFSAII (Michael W. Deem and Ramdas Pophale) SiO2 
 PCOD9345661
Probable space group: P N A 21
;
_chemical_formula_sum "Si O2"
_cell_formula_units_Z 28
_cell_length_a 9.489521
_cell_length_b 16.363718
_cell_length_c 8.632306
_cell_angle_alpha 90.000000
_cell_angle_beta 90.000000
_cell_angle_gamma 90.000000
_cell_volume 1340.457672
_symmetry_space_group_name_H-M "P N A 21"
_symmetry_group_IT_number 33
_symmetry_cell_setting 'orthorhombic'
loop_
_space_group_symop_operation_xyz
x,y,z
-x,-y,1/2+z
1/2-x,1/2+y,1/2+z
1/2+x,1/2-y,z
loop_
_atom_site_type_symbol
_atom_site_label
_atom_site_fract_x
_atom_site_fract_y
_atom_site_fract_z
Si Si1 0.034552 0.577759 0.944140
Si Si2 0.338553 0.931365 0.249803
Si Si3 0.893737 0.837182 0.417829
Si Si4 0.290407 0.303072 0.970642
Si Si5 0.208697 0.091660 0.611744
Si Si6 0.223222 0.418828 0.251664
Si Si7 0.594635 0.523548 0.031578
O O1 0.089170 0.491242 0.874787
O O2 0.929106 0.609937 0.812182
O O3 0.178110 0.623993 0.988893
O O4 0.938548 0.573723 0.099074
O O5 0.300532 0.847329 0.335613
O O6 0.188828 0.965974 0.186145
O O7 0.782126 0.782448 0.508568
O O8 0.831266 0.845795 0.245560
O O9 0.047877 0.797607 0.419889
O O10 0.906604 0.928821 0.483563
O O11 0.281297 0.362062 0.117986
O O12 0.062259 0.056943 0.548333
O O13 0.282718 0.012083 0.689639
O O14 0.327710 0.425737 0.397070
#
# Coordination Sequence:
#
# PCOD9345661 Si02
#       7
#     4   4   4   4   4   4   4
#     4  11  21  35  66 100 128 168 230 275 328 389
#     4  11  21  39  66  96 133 174 217 282 324 397
#     4  11  26  40  70  99 127 181 218 279 337 406
#     4  12  24  44  66  94 140 168 220 280 350 404
#     4  11  20  41  68 100 128 177 239 265 323 404
#     4  10  22  39  66  98 131 173 221 281 334 395
#     4  10  22  42  72  95 127 177 237 268 320 399
#
# _framework density 20.888387000000002
#
# number of rings (size 3 to 8) (size 9 to 14) (size 15 to 20)
#    0.000    1.143    5.714    0.000    4.000    1.143 
#    0.000    0.000   22.000    0.000    0.000    0.000 
#    0.000    0.000    0.000    0.000    0.000    0.000 
#
# Total GULP energy -156390.307259 kJ/mol
# GULP energy per Si atom -5585.368116 kJ/mol
# Density = 2.084084 g / cm^3
# Si number density = 20.888387 Si / 1000 Ang^3
#
#
#
# Elastic Constant Matrix: (Units=GPa)
#
#
# Indices 1 2 3 4 5 6 
#
# 1 145.8676 31.4361 31.3391 0.0000 0.0000 0.0000
# 2 31.4361 28.8231 20.0038 0.0000 0.0000 0.0000
# 3 31.3391 20.0038 66.2075 0.0000 0.0000 0.0000
# 4 0.0000 0.0000 0.0000 13.8511 0.0000 0.0000
# 5 0.0000 0.0000 0.0000 0.0000 35.0820 0.0000
# 6 0.0000 0.0000 0.0000 0.0000 0.0000 -9.4505
#
#
#
# Elastic Compliance Matrix: (Units=1/GPa)
#
#
# Indices 1 2 3 4 5 6 
#
# 1 0.009103 -0.008779 -0.001657 0.000000 0.000000 0.000000
# 2 -0.008779 0.052366 -0.011666 0.000000 0.000000 0.000000
# 3 -0.001657 -0.011666 0.019413 0.000000 0.000000 0.000000
# 4 0.000000 0.000000 0.000000 0.072196 0.000000 0.000000
# 5 0.000000 0.000000 0.000000 0.000000 0.028505 0.000000
# 6 0.000000 0.000000 0.000000 0.000000 0.000000 -0.105815
#
#
# Mechanical properties :
#
#
# Convention : Reuss Voigt Hill
#
# Bulk Modulus (GPa) = 27.26385 45.16181 36.21283
# Shear Modulus (GPa) = 37.82209 18.43781 28.12995
#
# Velocity S-wave (km/s) = 4.25982 2.97422 3.67369
# Velocity P-wave (km/s) = 6.10535 5.78464 5.94716
#
# Compressibility (1/GPa) = 0.03667860
#
# Stress axis : x y z
#
# Youngs Moduli (GPa) = 109.84886 19.09645 51.51189
#
# Poissons Ratio (x) = 0.16765 0.08534
# Poissons Ratio (y) = 0.96436 0.60095
# Poissons Ratio (z) = 0.18198 0.22278
#
# Static dielectric constant tensor:
#      x y z
#    x 1.772470 0.000000 0.000000 
#    y 0.000000 1.704630 0.000000 
#    z 0.000000 0.000000 1.774180 
# 
# From -- ./inp_files/3315.got.cif
#   From: 2010.05.17/outbox.cif.g08.bks.cpg/sg33_2_cif.got.tgz:3315.got - 2010.06.03 17:15:25.
