data_PCOD9345250
_publ_section_title
;
Structure prediction by ZEFSAII (Michael W. Deem and Ramdas Pophale) SiO2 
 PCOD9345250
Probable space group: P N A 21
;
_chemical_formula_sum "Si O2"
_cell_formula_units_Z 32
_cell_length_a 10.775637
_cell_length_b 5.977886
_cell_length_c 20.917657
_cell_angle_alpha 90.000000
_cell_angle_beta 90.000000
_cell_angle_gamma 90.000000
_cell_volume 1347.421953
_symmetry_space_group_name_H-M "P N A 21"
_symmetry_group_IT_number 33
_symmetry_cell_setting 'orthorhombic'
loop_
_space_group_symop_operation_xyz
x,y,z
-x,-y,1/2+z
1/2-x,1/2+y,1/2+z
1/2+x,1/2-y,z
loop_
_atom_site_type_symbol
_atom_site_label
_atom_site_fract_x
_atom_site_fract_y
_atom_site_fract_z
Si Si1 0.535322 0.901874 0.228480
Si Si2 0.276084 0.897132 0.025697
Si Si3 0.578158 0.833240 0.421990
Si Si4 0.114553 0.957460 0.304581
Si Si5 0.507129 0.473468 0.526516
Si Si6 0.411412 0.180400 0.128584
Si Si7 0.723770 0.670989 0.752724
Si Si8 0.554036 0.818451 0.847256
O O1 0.520930 0.651371 0.253276
O O2 0.492044 0.979532 0.159549
O O3 0.677330 0.976692 0.238930
O O4 0.462508 0.043157 0.281720
O O5 0.372745 0.689482 0.030591
O O6 0.128036 0.854322 0.023764
O O7 0.308110 0.063078 0.084547
O O8 0.321574 0.031551 0.962981
O O9 0.638202 0.733053 0.357195
O O10 0.524846 0.633067 0.464908
O O11 0.465011 0.002011 0.402486
O O12 0.208992 0.086917 0.259590
O O13 0.061468 0.154252 0.348446
O O14 0.512187 0.646770 0.585595
O O15 0.355992 0.311561 0.188670
O O16 0.665479 0.658902 0.824563
#
# Coordination Sequence:
#
# PCOD9345250 Si02
#       8
#     4   4   4   4   4   4   4   4
#     4   9  20  37  61  96 137 176 228 284 360 431
#     4  11  26  46  71 106 136 203 253 313 376 445
#     4  10  23  45  66  98 138 188 246 308 375 447
#     4  10  21  40  62  99 135 178 225 300 368 441
#     4  11  26  47  72 101 148 190 259 315 376 446
#     4  10  23  43  66  99 142 191 244 300 366 443
#     4  10  21  37  65  98 136 180 232 293 367 444
#     4   9  20  39  59  95 132 178 229 283 366 437
#
# _framework density 23.749056
#
# number of rings (size 3 to 8) (size 9 to 14) (size 15 to 20)
#    0.000    2.000    0.000    1.500    1.750   13.000 
#   13.500    0.000    0.000    0.000    0.000    0.000 
#    0.000    0.000    0.000    0.000    0.000    0.000 
#
# Total GULP energy -178399.297441 kJ/mol
# GULP energy per Si atom -5574.978045 kJ/mol
# Density = 2.369500 g / cm^3
# Si number density = 23.749056 Si / 1000 Ang^3
#
#
#
# Elastic Constant Matrix: (Units=GPa)
#
#
# Indices 1 2 3 4 5 6 
#
# 1 79.5449 37.3994 31.9922 0.0000 0.0000 0.0000
# 2 37.3994 80.0696 50.6567 0.0000 0.0000 0.0000
# 3 31.9922 50.6567 123.2331 0.0000 0.0000 0.0000
# 4 0.0000 0.0000 0.0000 27.1936 0.0000 0.0000
# 5 0.0000 0.0000 0.0000 0.0000 13.0651 0.0000
# 6 0.0000 0.0000 0.0000 0.0000 0.0000 100.2257
#
#
#
# Elastic Compliance Matrix: (Units=1/GPa)
#
#
# Indices 1 2 3 4 5 6 
#
# 1 0.016309 -0.006675 -0.001490 0.000000 0.000000 0.000000
# 2 -0.006675 0.019611 -0.006328 0.000000 0.000000 0.000000
# 3 -0.001490 -0.006328 0.011103 0.000000 0.000000 0.000000
# 4 0.000000 0.000000 0.000000 0.036773 0.000000 0.000000
# 5 0.000000 0.000000 0.000000 0.000000 0.076540 0.000000
# 6 0.000000 0.000000 0.000000 0.000000 0.000000 0.009977
#
#
# Mechanical properties :
#
#
# Convention : Reuss Voigt Hill
#
# Bulk Modulus (GPa) = 55.44552 58.10491 56.77522
# Shear Modulus (GPa) = 24.35312 38.95016 31.65164
#
# Velocity S-wave (km/s) = 3.20572 4.05417 3.65465
# Velocity P-wave (km/s) = 6.09091 6.81428 6.46273
#
# Compressibility (1/GPa) = 0.01803572
#
# Stress axis : x y z
#
# Youngs Moduli (GPa) = 61.31495 50.99265 90.06660
#
# Poissons Ratio (x) = 0.34038 0.13421
# Poissons Ratio (y) = 0.40928 0.56997
# Poissons Ratio (z) = 0.09137 0.32270
#
# Static dielectric constant tensor:
#      x y z
#    x 2.068650 0.000000 0.000000 
#    y 0.000000 1.841160 0.000000 
#    z 0.000000 0.000000 1.883730 
# 
# From -- ./inp_files/9144.got.cif
#   From: 2010.05.17/outbox.cif.g08.bks.cpg/sg33_5_cif.got.tgz:9144.got - 2010.06.03 17:15:25.
