data_PCOD9345726
_publ_section_title
;
Structure prediction by ZEFSAII (Michael W. Deem and Ramdas Pophale) SiO2 
 PCOD9345726
Probable space group: P N A 21
;
_chemical_formula_sum "Si O2"
_cell_formula_units_Z 32
_cell_length_a 11.365926
_cell_length_b 15.028742
_cell_length_c 8.666217
_cell_angle_alpha 90.000000
_cell_angle_beta 90.000000
_cell_angle_gamma 90.000000
_cell_volume 1480.324792
_symmetry_space_group_name_H-M "P N A 21"
_symmetry_group_IT_number 33
_symmetry_cell_setting 'orthorhombic'
loop_
_space_group_symop_operation_xyz
x,y,z
-x,-y,1/2+z
1/2-x,1/2+y,1/2+z
1/2+x,1/2-y,z
loop_
_atom_site_type_symbol
_atom_site_label
_atom_site_fract_x
_atom_site_fract_y
_atom_site_fract_z
Si Si1 0.135733 0.102940 0.140700
Si Si2 0.664498 0.393118 0.488868
Si Si3 0.634773 0.578506 0.628828
Si Si4 0.588421 0.910746 0.064192
Si Si5 0.997143 0.424409 0.903779
Si Si6 0.659061 0.209352 0.064489
Si Si7 0.595666 0.205098 0.427326
Si Si8 0.240160 0.463176 0.453467
O O1 0.197002 0.106078 0.307507
O O2 0.176657 0.185896 0.035357
O O3 0.995433 0.114294 0.164295
O O4 0.167376 0.009265 0.065020
O O5 0.614408 0.489323 0.529062
O O6 0.779309 0.383155 0.594051
O O7 0.593498 0.301926 0.502751
O O8 0.721962 0.650668 0.550271
O O9 0.700856 0.549004 0.785885
O O10 0.514279 0.919821 0.220135
O O11 0.528919 0.840024 0.953116
O O12 0.587932 0.003765 0.973776
O O13 0.871849 0.468980 0.950953
O O14 0.049816 0.333349 0.971456
O O15 0.624701 0.207216 0.246154
O O16 0.689851 0.134321 0.496210
#
# Coordination Sequence:
#
# PCOD9345726 Si02
#       8
#     4   4   4   4   4   4   4   4
#     4  11  26  38  69  95 130 183 216 268 339 400
#     4  11  23  42  64  96 131 176 216 269 336 394
#     4  11  22  45  62  92 138 169 220 277 331 396
#     4  11  22  39  65  94 123 172 214 275 328 386
#     4  11  21  40  67  92 127 164 222 280 325 387
#     4  10  23  42  64  98 126 170 220 277 324 400
#     4   9  23  39  65  94 128 168 220 269 325 395
#     4  10  22  41  62  95 129 166 220 271 328 390
#
# _framework density 21.616878
#
# number of rings (size 3 to 8) (size 9 to 14) (size 15 to 20)
#    0.000    1.500    2.500    2.250    7.000    7.000 
#    0.000    1.250    0.000    0.000    0.000    0.000 
#    0.000    0.000    0.000    0.000    0.000    0.000 
#
# Total GULP energy -178518.773228 kJ/mol
# GULP energy per Si atom -5578.711663 kJ/mol
# Density = 2.156768 g / cm^3
# Si number density = 21.616878 Si / 1000 Ang^3
#
#
#
# Elastic Constant Matrix: (Units=GPa)
#
#
# Indices 1 2 3 4 5 6 
#
# 1 62.9290 11.5494 4.2536 0.0000 0.0000 0.0000
# 2 11.5494 112.3212 19.8937 0.0000 0.0000 0.0000
# 3 4.2536 19.8937 40.4887 0.0000 0.0000 0.0000
# 4 0.0000 0.0000 0.0000 24.9959 0.0000 0.0000
# 5 0.0000 0.0000 0.0000 0.0000 18.6087 0.0000
# 6 0.0000 0.0000 0.0000 0.0000 0.0000 7.6999
#
#
#
# Elastic Compliance Matrix: (Units=1/GPa)
#
#
# Indices 1 2 3 4 5 6 
#
# 1 0.016231 -0.001497 -0.000970 0.000000 0.000000 0.000000
# 2 -0.001497 0.009890 -0.004702 0.000000 0.000000 0.000000
# 3 -0.000970 -0.004702 0.027110 0.000000 0.000000 0.000000
# 4 0.000000 0.000000 0.000000 0.040007 0.000000 0.000000
# 5 0.000000 0.000000 0.000000 0.000000 0.053738 0.000000
# 6 0.000000 0.000000 0.000000 0.000000 0.000000 0.129872
#
#
# Mechanical properties :
#
#
# Convention : Reuss Voigt Hill
#
# Bulk Modulus (GPa) = 25.71097 31.90360 28.80728
# Shear Modulus (GPa) = 16.43923 22.26370 19.35147
#
# Velocity S-wave (km/s) = 2.76067 3.21272 2.99524
# Velocity P-wave (km/s) = 4.69910 5.34348 5.03162
#
# Compressibility (1/GPa) = 0.03889391
#
# Stress axis : x y z
#
# Youngs Moduli (GPa) = 61.60953 101.11448 36.88625
#
# Poissons Ratio (x) = 0.15139 0.03576
# Poissons Ratio (y) = 0.09225 0.17344
# Poissons Ratio (z) = 0.05973 0.47544
#
# Static dielectric constant tensor:
#      x y z
#    x 1.795050 0.000000 0.000000 
#    y 0.000000 1.834430 0.000000 
#    z 0.000000 0.000000 1.776010 
# 
# From -- ./inp_files/4005.got.cif
#   From: 2010.05.17/outbox.cif.g08.bks.cpg/sg33_3_cif.got.tgz:4005.got - 2010.06.03 17:15:25.
