data_PCOD9345879
_publ_section_title
;
Structure prediction by ZEFSAII (Michael W. Deem and Ramdas Pophale) SiO2 
 PCOD9345879
Probable space group: P N A 21
;
_chemical_formula_sum "Si O2"
_cell_formula_units_Z 32
_cell_length_a 19.290949
_cell_length_b 11.485810
_cell_length_c 6.661682
_cell_angle_alpha 90.000000
_cell_angle_beta 90.000000
_cell_angle_gamma 90.000000
_cell_volume 1476.043369
_symmetry_space_group_name_H-M "P N A 21"
_symmetry_group_IT_number 33
_symmetry_cell_setting 'orthorhombic'
loop_
_space_group_symop_operation_xyz
x,y,z
-x,-y,1/2+z
1/2-x,1/2+y,1/2+z
1/2+x,1/2-y,z
loop_
_atom_site_type_symbol
_atom_site_label
_atom_site_fract_x
_atom_site_fract_y
_atom_site_fract_z
Si Si1 0.062312 0.375680 0.174170
Si Si2 0.435827 0.115678 0.469859
Si Si3 0.657049 0.297774 0.420245
Si Si4 0.196659 0.786150 0.892065
Si Si5 0.429503 0.547701 0.240573
Si Si6 0.509981 0.752463 0.327985
Si Si7 0.652740 0.503064 0.123263
Si Si8 0.869148 0.161859 0.008715
O O1 0.113125 0.310869 0.331316
O O2 0.987489 0.400846 0.280599
O O3 0.088712 0.494193 0.068516
O O4 0.046802 0.288580 0.989010
O O5 0.372230 0.207656 0.439166
O O6 0.487520 0.170720 0.632991
O O7 0.734428 0.266527 0.484406
O O8 0.617516 0.367536 0.598459
O O9 0.669967 0.383569 0.231790
O O10 0.192948 0.799197 0.650708
O O11 0.196835 0.919057 0.970246
O O12 0.500305 0.619544 0.254156
O O13 0.409241 0.529248 0.471913
O O14 0.420096 0.421423 0.141449
O O15 0.584105 0.766973 0.433489
O O16 0.649397 0.590085 0.312413
#
# Coordination Sequence:
#
# PCOD9345879 Si02
#       8
#     4   4   4   4   4   4   4   4
#     4  12  25  44  68 100 138 182 236 285 347 417
#     4  12  25  44  68 100 138 182 236 285 347 417
#     4  11  25  46  67  97 138 182 233 285 351 421
#     4  11  25  46  67  97 138 182 233 285 351 421
#     4  10  23  38  66  99 131 170 220 276 345 413
#     4  12  22  40  66  96 134 172 222 280 344 408
#     4  10  22  44  64  98 132 170 224 280 342 410
#     4  10  23  38  66  99 131 170 220 276 345 413
#
# _framework density 21.679577999999999
#
# number of rings (size 3 to 8) (size 9 to 14) (size 15 to 20)
#    0.000    1.000    6.250    0.000    1.750    4.000 
#    6.750    0.000    0.000    0.000    0.000    0.000 
#    0.000    0.000    0.000    0.000    0.000    0.000 
#
# Total GULP energy -178195.651342 kJ/mol
# GULP energy per Si atom -5568.614104 kJ/mol
# Density = 2.163023 g / cm^3
# Si number density = 21.679578 Si / 1000 Ang^3
#
#
#
# Elastic Constant Matrix: (Units=GPa)
#
#
# Indices 1 2 3 4 5 6 
#
# 1 65.3252 10.9473 9.5708 0.0000 0.0000 0.0000
# 2 10.9473 62.3693 15.4470 0.0000 0.0000 0.0000
# 3 9.5708 15.4470 85.8875 0.0000 0.0000 0.0000
# 4 0.0000 0.0000 0.0000 36.5717 0.0000 0.0000
# 5 0.0000 0.0000 0.0000 0.0000 17.9338 0.0000
# 6 0.0000 0.0000 0.0000 0.0000 0.0000 19.7554
#
#
#
# Elastic Compliance Matrix: (Units=1/GPa)
#
#
# Indices 1 2 3 4 5 6 
#
# 1 0.015916 -0.002464 -0.001330 0.000000 0.000000 0.000000
# 2 -0.002464 0.017163 -0.002812 0.000000 0.000000 0.000000
# 3 -0.001330 -0.002812 0.012297 0.000000 0.000000 0.000000
# 4 0.000000 0.000000 0.000000 0.027344 0.000000 0.000000
# 5 0.000000 0.000000 0.000000 0.000000 0.055761 0.000000
# 6 0.000000 0.000000 0.000000 0.000000 0.000000 0.050619
#
#
# Mechanical properties :
#
#
# Convention : Reuss Voigt Hill
#
# Bulk Modulus (GPa) = 31.09232 31.72358 31.40795
# Shear Modulus (GPa) = 24.62653 26.69329 25.65991
#
# Velocity S-wave (km/s) = 3.37402 3.51274 3.44408
# Velocity P-wave (km/s) = 5.43613 5.57828 5.50766
#
# Compressibility (1/GPa) = 0.03216229
#
# Stress axis : x y z
#
# Youngs Moduli (GPa) = 62.83032 58.26647 81.31966
#
# Poissons Ratio (x) = 0.14358 0.10819
# Poissons Ratio (y) = 0.15482 0.22868
# Poissons Ratio (z) = 0.08359 0.16385
#
# Static dielectric constant tensor:
#      x y z
#    x 1.811410 0.000000 0.000000 
#    y 0.000000 1.834310 0.000000 
#    z 0.000000 0.000000 1.804120 
# 
# From -- ./inp_files/2044.got.cif
#   From: 2010.05.17/outbox.cif.g08.bks.cpg/sg33_2_cif.got.tgz:2044.got - 2010.06.03 17:15:25.
