data_PCOD9345005
_publ_section_title
;
Structure prediction by ZEFSAII (Michael W. Deem and Ramdas Pophale) SiO2 
 PCOD9345005
Probable space group: P N A 21
;
_chemical_formula_sum "Si O2"
_cell_formula_units_Z 32
_cell_length_a 15.179288
_cell_length_b 5.146763
_cell_length_c 17.544261
_cell_angle_alpha 90.000000
_cell_angle_beta 90.000000
_cell_angle_gamma 90.000000
_cell_volume 1370.631317
_symmetry_space_group_name_H-M "P N A 21"
_symmetry_group_IT_number 33
_symmetry_cell_setting 'orthorhombic'
loop_
_space_group_symop_operation_xyz
x,y,z
-x,-y,1/2+z
1/2-x,1/2+y,1/2+z
1/2+x,1/2-y,z
loop_
_atom_site_type_symbol
_atom_site_label
_atom_site_fract_x
_atom_site_fract_y
_atom_site_fract_z
Si Si1 0.654115 0.000569 0.196480
Si Si2 0.991524 0.642344 0.933691
Si Si3 0.689519 0.467408 0.439440
Si Si4 0.004293 0.716463 0.102878
Si Si5 0.699391 0.283686 0.598902
Si Si6 0.407051 0.665793 0.395103
Si Si7 0.840849 0.889120 0.557889
Si Si8 0.732668 0.989415 0.355201
O O1 0.557937 0.892492 0.174902
O O2 0.735101 0.819223 0.169571
O O3 0.673248 0.063498 0.282950
O O4 0.664522 0.222135 0.133761
O O5 0.020770 0.390634 0.885800
O O6 0.897411 0.785041 0.930334
O O7 0.051979 0.883378 0.908548
O O8 0.999805 0.556197 0.023173
O O9 0.701167 0.495164 0.530449
O O10 0.686052 0.747483 0.399406
O O11 0.754739 0.260254 0.399063
O O12 0.902392 0.764250 0.121457
O O13 0.069832 0.944304 0.074315
O O14 0.750757 0.052428 0.555908
O O15 0.356349 0.733894 0.474893
O O16 0.328343 0.633828 0.335185
#
# Coordination Sequence:
#
# PCOD9345005 Si02
#       8
#     4   4   4   4   4   4   4   4
#     4  11  24  42  63  94 137 182 219 279 349 413
#     4  10  21  40  69  95 125 166 229 279 337 394
#     4  11  24  44  67 100 130 177 229 288 333 408
#     4   9  21  39  64  94 125 167 224 287 331 396
#     4  10  22  42  69  96 127 178 238 281 335 413
#     4  11  20  40  65  98 128 172 221 281 332 405
#     4  10  20  38  68  93 131 175 224 282 340 410
#     4  12  26  41  67  96 139 179 220 277 353 409
#
# _framework density 23.346903000000001
#
# number of rings (size 3 to 8) (size 9 to 14) (size 15 to 20)
#    0.000    1.500    2.500    2.250    5.250    1.000 
#    4.500    0.000    0.000    0.000    0.000    0.000 
#    0.000    0.000    0.000    0.000    0.000    0.000 
#
# Total GULP energy -178264.582058 kJ/mol
# GULP energy per Si atom -5570.768189 kJ/mol
# Density = 2.329376 g / cm^3
# Si number density = 23.346903 Si / 1000 Ang^3
#
#
#
# Elastic Constant Matrix: (Units=GPa)
#
#
# Indices 1 2 3 4 5 6 
#
# 1 130.7578 13.9690 -14.7141 0.0000 0.0000 0.0000
# 2 13.9690 56.5723 9.5926 0.0000 0.0000 0.0000
# 3 -14.7141 9.5926 54.4536 0.0000 0.0000 0.0000
# 4 0.0000 0.0000 0.0000 13.2003 0.0000 0.0000
# 5 0.0000 0.0000 0.0000 0.0000 16.5759 0.0000
# 6 0.0000 0.0000 0.0000 0.0000 0.0000 20.7195
#
#
#
# Elastic Compliance Matrix: (Units=1/GPa)
#
#
# Indices 1 2 3 4 5 6 
#
# 1 0.008211 -0.002478 0.002655 0.000000 0.000000 0.000000
# 2 -0.002478 0.018968 -0.004011 0.000000 0.000000 0.000000
# 3 0.002655 -0.004011 0.019788 0.000000 0.000000 0.000000
# 4 0.000000 0.000000 0.000000 0.075756 0.000000 0.000000
# 5 0.000000 0.000000 0.000000 0.000000 0.060328 0.000000
# 6 0.000000 0.000000 0.000000 0.000000 0.000000 0.048264
#
#
# Mechanical properties :
#
#
# Convention : Reuss Voigt Hill
#
# Bulk Modulus (GPa) = 25.44468 28.83097 27.13783
# Shear Modulus (GPa) = 19.83472 25.62823 22.73147
#
# Velocity S-wave (km/s) = 2.91789 3.31677 3.12371
# Velocity P-wave (km/s) = 4.71957 5.20036 4.96578
#
# Compressibility (1/GPa) = 0.03930094
#
# Stress axis : x y z
#
# Youngs Moduli (GPa) = 121.78447 52.71914 50.53486
#
# Poissons Ratio (x) = 0.13063 -0.13418
# Poissons Ratio (y) = 0.30176 0.20270
# Poissons Ratio (z) = -0.32337 0.21146
#
# Static dielectric constant tensor:
#      x y z
#    x 2.121940 0.000000 0.000000 
#    y 0.000000 1.996920 0.000000 
#    z 0.000000 0.000000 1.896020 
# 
# From -- ./inp_files/8800.got.cif
#   From: 2010.05.17/outbox.cif.g08.bks.cpg/sg33_5_cif.got.tgz:8800.got - 2010.06.03 17:15:25.
