data_PCOD9345320
_publ_section_title
;
Structure prediction by ZEFSAII (Michael W. Deem and Ramdas Pophale) SiO2 
 PCOD9345320
Probable space group: P N A 21
;
_chemical_formula_sum "Si O2"
_cell_formula_units_Z 28
_cell_length_a 18.653263
_cell_length_b 7.836207
_cell_length_c 6.994616
_cell_angle_alpha 90.000000
_cell_angle_beta 90.000000
_cell_angle_gamma 90.000000
_cell_volume 1022.408827
_symmetry_space_group_name_H-M "P N A 21"
_symmetry_group_IT_number 33
_symmetry_cell_setting 'orthorhombic'
loop_
_space_group_symop_operation_xyz
x,y,z
-x,-y,1/2+z
1/2-x,1/2+y,1/2+z
1/2+x,1/2-y,z
loop_
_atom_site_type_symbol
_atom_site_label
_atom_site_fract_x
_atom_site_fract_y
_atom_site_fract_z
Si Si1 0.023700 0.994869 0.309390
Si Si2 0.459984 0.868178 0.436069
Si Si3 0.368495 0.415035 0.206062
Si Si4 0.813218 0.710909 0.322854
Si Si5 0.224480 0.284648 0.272236
Si Si6 0.077144 0.345396 0.379242
Si Si7 0.168041 0.907512 0.274315
O O1 0.994593 0.810079 0.370871
O O2 0.952182 0.093010 0.245500
O O3 0.058373 0.149630 0.438788
O O4 0.091624 0.944035 0.171604
O O5 0.387570 0.898932 0.309110
O O6 0.432927 0.842735 0.650433
O O7 0.519017 0.017072 0.443710
O O8 0.341087 0.602603 0.266461
O O9 0.307865 0.307559 0.314771
O O10 0.359387 0.358008 0.985345
O O11 0.788934 0.683547 0.544636
O O12 0.736463 0.701258 0.214778
O O13 0.162674 0.381929 0.395119
O O14 0.204935 0.089492 0.296578
#
# Coordination Sequence:
#
# PCOD9345320 Si02
#       7
#     4   4   4   4   4   4   4
#     4  10  22  40  62  88 124 162 206 256 304 364
#     4  10  22  39  61  91 123 159 203 252 308 368
#     4  10  21  39  62  88 120 159 203 250 306 367
#     4   9  21  39  58  87 122 155 199 250 305 368
#     4   9  21  39  58  87 122 155 199 250 305 368
#     4  10  22  39  61  91 123 159 203 252 308 368
#     4  10  21  39  62  88 120 159 203 250 306 367
#
# _framework density 27.386303999999999
#
# number of rings (size 3 to 8) (size 9 to 14) (size 15 to 20)
#    0.000    2.286    0.000    0.857    4.000    8.000 
#    0.000    0.000    0.000    0.000    0.000    0.000 
#    0.000    0.000    0.000    0.000    0.000    0.000 
#
# Total GULP energy -156274.053080 kJ/mol
# GULP energy per Si atom -5581.216181 kJ/mol
# Density = 2.732397 g / cm^3
# Si number density = 27.386304 Si / 1000 Ang^3
#
#
#
# Elastic Constant Matrix: (Units=GPa)
#
#
# Indices 1 2 3 4 5 6 
#
# 1 276.6877 45.5447 32.7452 0.0000 0.0000 0.0000
# 2 45.5447 49.6980 -5.2905 0.0000 0.0000 0.0000
# 3 32.7452 -5.2905 73.5600 0.0000 0.0000 0.0000
# 4 0.0000 0.0000 0.0000 21.9911 0.0000 0.0000
# 5 0.0000 0.0000 0.0000 0.0000 39.3596 0.0000
# 6 0.0000 0.0000 0.0000 0.0000 0.0000 49.3107
#
#
#
# Elastic Compliance Matrix: (Units=1/GPa)
#
#
# Indices 1 2 3 4 5 6 
#
# 1 0.004638 -0.004505 -0.002389 0.000000 0.000000 0.000000
# 2 -0.004505 0.024652 0.003778 0.000000 0.000000 0.000000
# 3 -0.002389 0.003778 0.014929 0.000000 0.000000 0.000000
# 4 0.000000 0.000000 0.000000 0.045473 0.000000 0.000000
# 5 0.000000 0.000000 0.000000 0.000000 0.025407 0.000000
# 6 0.000000 0.000000 0.000000 0.000000 0.000000 0.020280
#
#
# Mechanical properties :
#
#
# Convention : Reuss Voigt Hill
#
# Bulk Modulus (GPa) = 26.32315 60.66051 43.49183
# Shear Modulus (GPa) = 32.40994 43.92870 38.16932
#
# Velocity S-wave (km/s) = 3.44384 4.00939 3.73733
# Velocity P-wave (km/s) = 5.04441 6.60543 5.87698
#
# Compressibility (1/GPa) = 0.03798938
#
# Stress axis : x y z
#
# Youngs Moduli (GPa) = 215.58841 40.56405 66.98158
#
# Poissons Ratio (x) = 0.18275 0.16001
# Poissons Ratio (y) = 0.97125 -0.25309
# Poissons Ratio (z) = 0.51500 -0.15327
#
# Static dielectric constant tensor:
#      x y z
#    x 2.282790 0.000000 0.000000 
#    y 0.000000 2.133270 0.000000 
#    z 0.000000 0.000000 2.441330 
# 
# From -- ./inp_files/4697.got.cif
#   From: 2010.05.17/outbox.cif.g08.bks.cpg/sg33_3_cif.got.tgz:4697.got - 2010.06.03 17:15:25.
