data_PCOD9345932
_publ_section_title
;
Structure prediction by ZEFSAII (Michael W. Deem and Ramdas Pophale) SiO2 
 PCOD9345932
Probable space group: P N A 21
;
_chemical_formula_sum "Si O2"
_cell_formula_units_Z 32
_cell_length_a 10.857796
_cell_length_b 10.505157
_cell_length_c 12.525282
_cell_angle_alpha 90.000000
_cell_angle_beta 90.000000
_cell_angle_gamma 90.000000
_cell_volume 1428.669383
_symmetry_space_group_name_H-M "P N A 21"
_symmetry_group_IT_number 33
_symmetry_cell_setting 'orthorhombic'
loop_
_space_group_symop_operation_xyz
x,y,z
-x,-y,1/2+z
1/2-x,1/2+y,1/2+z
1/2+x,1/2-y,z
loop_
_atom_site_type_symbol
_atom_site_label
_atom_site_fract_x
_atom_site_fract_y
_atom_site_fract_z
Si Si1 0.764093 0.695275 0.758350
Si Si2 0.088043 0.758242 0.575033
Si Si3 0.285059 0.915842 0.164595
Si Si4 0.851553 0.961231 0.849492
Si Si5 0.726204 0.373541 0.583402
Si Si6 0.172395 0.141477 0.014255
Si Si7 0.459064 0.976212 0.628208
Si Si8 0.367755 0.521731 0.307092
O O1 0.634645 0.722617 0.696216
O O2 0.813489 0.828229 0.795737
O O3 0.872963 0.619210 0.697352
O O4 0.717822 0.595698 0.844813
O O5 0.227185 0.755150 0.529108
O O6 0.970825 0.844206 0.548928
O O7 0.029086 0.620249 0.549216
O O8 0.280143 0.777202 0.108619
O O9 0.220066 0.931770 0.280166
O O10 0.223414 0.022847 0.085541
O O11 0.427397 0.954241 0.184369
O O12 0.828777 0.932807 0.974690
O O13 0.992617 0.989436 0.827682
O O14 0.867948 0.419225 0.581880
O O15 0.662688 0.441453 0.685801
O O16 0.168693 0.130393 0.887885
#
# Coordination Sequence:
#
# PCOD9345932 Si02
#       8
#     4   4   4   4   4   4   4   4
#     4  11  21  45  73 105 135 192 250 319 372 472
#     4  11  21  42  79 106 140 186 256 314 384 470
#     4  11  25  48  74 111 148 200 251 323 393 472
#     4  12  26  45  80 104 147 203 254 318 402 464
#     4  11  29  48  69 110 154 201 250 323 389 479
#     4  11  24  45  74 108 145 193 253 318 388 466
#     4  10  22  45  69 105 146 184 249 314 385 457
#     4  11  28  44  72 105 149 195 253 313 387 474
#
# _framework density 22.398464000000001
#
# number of rings (size 3 to 8) (size 9 to 14) (size 15 to 20)
#    0.000    1.000    3.750    2.250    7.000    3.000 
#   11.250    0.000    0.000    0.000    0.000    0.000 
#    0.000    0.000    0.000    0.000    0.000    0.000 
#
# Total GULP energy -178275.457426 kJ/mol
# GULP energy per Si atom -5571.108045 kJ/mol
# Density = 2.234748 g / cm^3
# Si number density = 22.398464 Si / 1000 Ang^3
#
#
#
# Elastic Constant Matrix: (Units=GPa)
#
#
# Indices 1 2 3 4 5 6 
#
# 1 144.4620 55.5723 36.2435 0.0000 0.0000 0.0000
# 2 55.5723 87.9497 35.5562 0.0000 0.0000 0.0000
# 3 36.2435 35.5562 116.3052 0.0000 0.0000 0.0000
# 4 0.0000 0.0000 0.0000 25.4782 0.0000 0.0000
# 5 0.0000 0.0000 0.0000 0.0000 11.7646 0.0000
# 6 0.0000 0.0000 0.0000 0.0000 0.0000 38.6104
#
#
#
# Elastic Compliance Matrix: (Units=1/GPa)
#
#
# Indices 1 2 3 4 5 6 
#
# 1 0.009304 -0.005370 -0.001257 0.000000 0.000000 0.000000
# 2 -0.005370 0.016073 -0.003240 0.000000 0.000000 0.000000
# 3 -0.001257 -0.003240 0.009981 0.000000 0.000000 0.000000
# 4 0.000000 0.000000 0.000000 0.039249 0.000000 0.000000
# 5 0.000000 0.000000 0.000000 0.000000 0.085001 0.000000
# 6 0.000000 0.000000 0.000000 0.000000 0.000000 0.025900
#
#
# Mechanical properties :
#
#
# Convention : Reuss Voigt Hill
#
# Bulk Modulus (GPa) = 64.01479 67.05120 65.53299
# Shear Modulus (GPa) = 23.75856 29.92698 26.84277
#
# Velocity S-wave (km/s) = 3.26041 3.65926 3.46558
# Velocity P-wave (km/s) = 6.54337 6.91767 6.73312
#
# Compressibility (1/GPa) = 0.01562139
#
# Stress axis : x y z
#
# Youngs Moduli (GPa) = 107.48582 62.21462 100.19487
#
# Poissons Ratio (x) = 0.33411 0.12599
# Poissons Ratio (y) = 0.57722 0.32467
# Poissons Ratio (z) = 0.13516 0.20160
#
# Static dielectric constant tensor:
#      x y z
#    x 1.804020 0.000000 0.000000 
#    y 0.000000 1.916400 0.000000 
#    z 0.000000 0.000000 1.952310 
# 
# From -- ./inp_files/6512.got.cif
#   From: 2010.05.17/outbox.cif.g08.bks.cpg/sg33_4_cif.got.tgz:6512.got - 2010.06.03 17:15:25.
