data_PCOD9345548
_publ_section_title
;
Structure prediction by ZEFSAII (Michael W. Deem and Ramdas Pophale) SiO2 
 PCOD9345548
Probable space group: P N A 21
;
_chemical_formula_sum "Si O2"
_cell_formula_units_Z 28
_cell_length_a 9.473611
_cell_length_b 13.827509
_cell_length_c 8.578462
_cell_angle_alpha 90.000000
_cell_angle_beta 90.000000
_cell_angle_gamma 90.000000
_cell_volume 1123.747994
_symmetry_space_group_name_H-M "P N A 21"
_symmetry_group_IT_number 33
_symmetry_cell_setting 'orthorhombic'
loop_
_space_group_symop_operation_xyz
x,y,z
-x,-y,1/2+z
1/2-x,1/2+y,1/2+z
1/2+x,1/2-y,z
loop_
_atom_site_type_symbol
_atom_site_label
_atom_site_fract_x
_atom_site_fract_y
_atom_site_fract_z
Si Si1 0.120090 0.079508 0.299550
Si Si2 0.844719 0.555727 0.156217
Si Si3 0.960603 0.797503 0.497000
Si Si4 0.939262 0.604658 0.697330
Si Si5 0.171676 0.918278 0.860298
Si Si6 0.141024 0.696681 0.955809
Si Si7 0.718578 0.745839 0.283460
O O1 0.205753 0.157311 0.401634
O O2 0.062471 0.132869 0.144396
O O3 0.978413 0.030632 0.362986
O O4 0.238894 0.001573 0.268464
O O5 0.989642 0.497722 0.160932
O O6 0.822232 0.666414 0.203781
O O7 0.775586 0.540218 0.988400
O O8 0.965987 0.688200 0.570319
O O9 0.099739 0.803300 0.391331
O O10 0.821481 0.807733 0.391269
O O11 0.771706 0.590141 0.711424
O O12 0.017978 0.643640 0.856267
O O13 0.132784 0.808621 0.907304
O O14 0.143464 0.696966 0.142715
#
# Coordination Sequence:
#
# PCOD9345548 Si02
#       7
#     4   4   4   4   4   4   4
#     4  11  23  46  71  97 131 184 226 273 339 419
#     4  10  27  42  63 101 142 166 223 278 352 385
#     4  12  24  44  72 100 132 176 234 282 330 400
#     4  11  23  46  71  97 131 184 226 273 339 419
#     4  11  21  41  70  95 128 178 224 270 322 417
#     4  10  21  43  70  96 127 177 222 271 337 416
#     4  11  27  42  67 104 137 169 223 297 337 392
#
# _framework density 24.916618
#
# number of rings (size 3 to 8) (size 9 to 14) (size 15 to 20)
#    0.000    1.143    2.857    2.571   12.000    0.000 
#    0.000    0.000    0.000    0.000    0.000    0.000 
#    0.000    0.000    0.000    0.000    0.000    0.000 
#
# Total GULP energy -156717.297138 kJ/mol
# GULP energy per Si atom -5597.046326 kJ/mol
# Density = 2.485991 g / cm^3
# Si number density = 24.916618 Si / 1000 Ang^3
#
#
#
# Elastic Constant Matrix: (Units=GPa)
#
#
# Indices 1 2 3 4 5 6 
#
# 1 125.9774 -4.7321 8.8300 0.0000 0.0000 0.0000
# 2 -4.7321 56.4179 -1.1924 0.0000 0.0000 0.0000
# 3 8.8300 -1.1924 82.9666 0.0000 0.0000 0.0000
# 4 0.0000 0.0000 0.0000 15.8384 0.0000 0.0000
# 5 0.0000 0.0000 0.0000 0.0000 18.4136 0.0000
# 6 0.0000 0.0000 0.0000 0.0000 0.0000 15.4315
#
#
#
# Elastic Compliance Matrix: (Units=1/GPa)
#
#
# Indices 1 2 3 4 5 6 
#
# 1 0.008022 0.000655 -0.000844 0.000000 0.000000 0.000000
# 2 0.000655 0.017784 0.000186 0.000000 0.000000 0.000000
# 3 -0.000844 0.000186 0.012146 0.000000 0.000000 0.000000
# 4 0.000000 0.000000 0.000000 0.063138 0.000000 0.000000
# 5 0.000000 0.000000 0.000000 0.000000 0.054308 0.000000
# 6 0.000000 0.000000 0.000000 0.000000 0.000000 0.064803
#
#
# Mechanical properties :
#
#
# Convention : Reuss Voigt Hill
#
# Bulk Modulus (GPa) = 26.35457 30.13033 28.24245
# Shear Modulus (GPa) = 21.47268 27.43379 24.45323
#
# Velocity S-wave (km/s) = 2.93880 3.32177 3.13613
# Velocity P-wave (km/s) = 4.70270 5.17986 4.94704
#
# Compressibility (1/GPa) = 0.03794409
#
# Stress axis : x y z
#
# Youngs Moduli (GPa) = 124.66160 56.23114 82.33457
#
# Poissons Ratio (x) = -0.03683 0.06952
# Poissons Ratio (y) = -0.08165 -0.01530
# Poissons Ratio (z) = 0.10525 -0.01045
#
# Static dielectric constant tensor:
#      x y z
#    x 1.986750 0.000000 0.000000 
#    y 0.000000 1.998430 0.000000 
#    z 0.000000 0.000000 2.029390 
# 
# From -- ./inp_files/3353.got.cif
#   From: 2010.05.17/outbox.cif.g08.bks.cpg/sg33_2_cif.got.tgz:3353.got - 2010.06.03 17:15:25.
