data_PCOD9345052
_publ_section_title
;
Structure prediction by ZEFSAII (Michael W. Deem and Ramdas Pophale) SiO2 
 PCOD9345052
Probable space group: P N A 21
;
_chemical_formula_sum "Si O2"
_cell_formula_units_Z 32
_cell_length_a 19.438635
_cell_length_b 5.965568
_cell_length_c 11.205552
_cell_angle_alpha 90.000000
_cell_angle_beta 90.000000
_cell_angle_gamma 90.000000
_cell_volume 1299.423812
_symmetry_space_group_name_H-M "P N A 21"
_symmetry_group_IT_number 33
_symmetry_cell_setting 'orthorhombic'
loop_
_space_group_symop_operation_xyz
x,y,z
-x,-y,1/2+z
1/2-x,1/2+y,1/2+z
1/2+x,1/2-y,z
loop_
_atom_site_type_symbol
_atom_site_label
_atom_site_fract_x
_atom_site_fract_y
_atom_site_fract_z
Si Si1 0.456180 0.126274 0.246970
Si Si2 0.364656 0.473640 0.380935
Si Si3 0.449423 0.736098 0.951135
Si Si4 0.697205 0.803734 0.099809
Si Si5 0.743950 0.675790 0.711632
Si Si6 0.157278 0.443935 0.616714
Si Si7 0.359104 0.498541 0.780933
Si Si8 0.957758 0.871115 0.566452
O O1 0.417054 0.349935 0.292157
O O2 0.511655 0.112225 0.352573
O O3 0.491946 0.181391 0.119515
O O4 0.398560 0.935597 0.225458
O O5 0.341762 0.300337 0.487422
O O6 0.295344 0.492737 0.302211
O O7 0.408863 0.659624 0.451165
O O8 0.407238 0.526995 0.893396
O O9 0.389796 0.884262 0.006745
O O10 0.501380 0.604673 0.039235
O O11 0.774191 0.702706 0.105527
O O12 0.661480 0.737600 0.225288
O O13 0.707863 0.065306 0.111994
O O14 0.687552 0.809728 0.635704
O O15 0.789744 0.852177 0.786264
O O16 0.406391 0.596242 0.675930
#
# Coordination Sequence:
#
# PCOD9345052 Si02
#       8
#     4   4   4   4   4   4   4   4
#     4   9  20  41  58  88 128 162 215 267 305 397
#     4   9  19  39  64  92 122 165 210 261 326 374
#     4  10  20  40  63  87 132 166 208 274 316 389
#     4  10  21  41  68  90 126 167 206 277 324 386
#     4  10  21  41  66  93 134 161 214 273 322 395
#     4  10  22  39  63  95 125 166 212 260 325 389
#     4   9  20  42  61  96 126 159 221 264 319 390
#     4   9  19  39  65  83 125 172 204 266 317 374
#
# _framework density 24.626300000000001
#
# number of rings (size 3 to 8) (size 9 to 14) (size 15 to 20)
#    0.000    2.500    0.000    0.750    3.500    0.000 
#   20.250   12.500    0.000    0.000    0.000    0.000 
#    0.000    0.000    0.000    0.000    0.000    0.000 
#
# Total GULP energy -178325.240441 kJ/mol
# GULP energy per Si atom -5572.663764 kJ/mol
# Density = 2.457025 g / cm^3
# Si number density = 24.626300 Si / 1000 Ang^3
#
#
#
# Elastic Constant Matrix: (Units=GPa)
#
#
# Indices 1 2 3 4 5 6 
#
# 1 110.3443 18.7280 33.6997 0.0000 0.0000 0.0000
# 2 18.7280 15.2911 16.1161 0.0000 0.0000 0.0000
# 3 33.6997 16.1161 65.7220 0.0000 0.0000 0.0000
# 4 0.0000 0.0000 0.0000 21.1406 0.0000 0.0000
# 5 0.0000 0.0000 0.0000 0.0000 25.3886 0.0000
# 6 0.0000 0.0000 0.0000 0.0000 0.0000 7.9831
#
#
#
# Elastic Compliance Matrix: (Units=1/GPa)
#
#
# Indices 1 2 3 4 5 6 
#
# 1 0.011989 -0.011064 -0.003435 0.000000 0.000000 0.000000
# 2 -0.011064 0.098401 -0.018456 0.000000 0.000000 0.000000
# 3 -0.003435 -0.018456 0.021502 0.000000 0.000000 0.000000
# 4 0.000000 0.000000 0.000000 0.047302 0.000000 0.000000
# 5 0.000000 0.000000 0.000000 0.000000 0.039388 0.000000
# 6 0.000000 0.000000 0.000000 0.000000 0.000000 0.125264
#
#
# Mechanical properties :
#
#
# Convention : Reuss Voigt Hill
#
# Bulk Modulus (GPa) = 15.15551 36.49387 25.82469
# Shear Modulus (GPa) = 11.58076 19.09005 15.33540
#
# Velocity S-wave (km/s) = 2.17090 2.78724 2.49815
# Velocity P-wave (km/s) = 3.52864 5.02091 4.33940
#
# Compressibility (1/GPa) = 0.06598260
#
# Stress axis : x y z
#
# Youngs Moduli (GPa) = 83.40743 10.16254 46.50645
#
# Poissons Ratio (x) = 0.11244 0.15973
# Poissons Ratio (y) = 0.92285 0.85832
# Poissons Ratio (z) = 0.28646 0.18756
#
# Static dielectric constant tensor:
#      x y z
#    x 2.025190 0.000000 0.000000 
#    y 0.000000 1.979900 0.000000 
#    z 0.000000 0.000000 1.970450 
# 
# From -- ./inp_files/7190.got.cif
#   From: 2010.05.17/outbox.cif.g08.bks.cpg/sg33_4_cif.got.tgz:7190.got - 2010.06.03 17:15:25.
