data_PCOD9345365
_publ_section_title
;
Structure prediction by ZEFSAII (Michael W. Deem and Ramdas Pophale) SiO2 
 PCOD9345365
Probable space group: P N A 21
;
_chemical_formula_sum "Si O2"
_cell_formula_units_Z 32
_cell_length_a 20.712803
_cell_length_b 11.290399
_cell_length_c 6.709092
_cell_angle_alpha 90.000000
_cell_angle_beta 90.000000
_cell_angle_gamma 90.000000
_cell_volume 1568.960146
_symmetry_space_group_name_H-M "P N A 21"
_symmetry_group_IT_number 33
_symmetry_cell_setting 'orthorhombic'
loop_
_space_group_symop_operation_xyz
x,y,z
-x,-y,1/2+z
1/2-x,1/2+y,1/2+z
1/2+x,1/2-y,z
loop_
_atom_site_type_symbol
_atom_site_label
_atom_site_fract_x
_atom_site_fract_y
_atom_site_fract_z
Si Si1 0.155679 0.907922 0.388950
Si Si2 0.443441 0.415061 0.243327
Si Si3 0.360157 0.984078 0.076321
Si Si4 0.602245 0.159967 0.235591
Si Si5 0.955236 0.363281 0.348288
Si Si6 0.588201 0.427679 0.112922
Si Si7 0.792130 0.524370 0.468795
Si Si8 0.859930 0.345611 0.695885
O O1 0.097610 0.917034 0.543717
O O2 0.222953 0.918578 0.505316
O O3 0.147810 0.788968 0.261095
O O4 0.145532 0.016520 0.240388
O O5 0.442350 0.276354 0.305531
O O6 0.517276 0.452841 0.205414
O O7 0.413630 0.506438 0.401615
O O8 0.302691 0.972679 0.232415
O O9 0.415993 0.041655 0.215340
O O10 0.368936 0.860321 0.958234
O O11 0.354325 0.078221 0.897610
O O12 0.529334 0.116477 0.285411
O O13 0.595247 0.287553 0.135045
O O14 0.650049 0.092088 0.084157
O O15 0.926742 0.371019 0.574162
O O16 0.803175 0.391446 0.549728
#
# Coordination Sequence:
#
# PCOD9345365 Si02
#       8
#     4   4   4   4   4   4   4   4
#     4  12  24  42  72  95 135 185 219 288 342 414
#     4  11  22  42  66  98 131 170 227 281 341 407
#     4  10  22  41  65  95 135 169 224 277 331 410
#     4  10  25  41  64  99 140 177 219 286 345 410
#     4  10  21  39  68  97 125 175 225 284 333 397
#     4  11  24  42  66 101 136 172 227 285 349 403
#     4  10  26  44  61 102 136 180 228 272 345 421
#     4  10  22  43  66  99 126 174 237 269 338 410
#
# _framework density 20.395674
#
# number of rings (size 3 to 8) (size 9 to 14) (size 15 to 20)
#    0.000    1.500    3.750    0.000    5.250    6.000 
#    0.000    0.000    0.000    0.000    0.000    0.000 
#    0.000    0.000    0.000    0.000    0.000    0.000 
#
# Total GULP energy -178251.501988 kJ/mol
# GULP energy per Si atom -5570.359437 kJ/mol
# Density = 2.034925 g / cm^3
# Si number density = 20.395674 Si / 1000 Ang^3
#
#
#
# Elastic Constant Matrix: (Units=GPa)
#
#
# Indices 1 2 3 4 5 6 
#
# 1 90.1182 30.9436 26.1062 0.0000 0.0000 0.0000
# 2 30.9436 66.0557 31.7755 0.0000 0.0000 0.0000
# 3 26.1062 31.7755 93.9045 0.0000 0.0000 0.0000
# 4 0.0000 0.0000 0.0000 34.6769 0.0000 0.0000
# 5 0.0000 0.0000 0.0000 0.0000 22.4131 0.0000
# 6 0.0000 0.0000 0.0000 0.0000 0.0000 16.8776
#
#
#
# Elastic Compliance Matrix: (Units=1/GPa)
#
#
# Indices 1 2 3 4 5 6 
#
# 1 0.013510 -0.005401 -0.001928 0.000000 0.000000 0.000000
# 2 -0.005401 0.020241 -0.005348 0.000000 0.000000 0.000000
# 3 -0.001928 -0.005348 0.012995 0.000000 0.000000 0.000000
# 4 0.000000 0.000000 0.000000 0.028838 0.000000 0.000000
# 5 0.000000 0.000000 0.000000 0.000000 0.044617 0.000000
# 6 0.000000 0.000000 0.000000 0.000000 0.000000 0.059250
#
#
# Mechanical properties :
#
#
# Convention : Reuss Voigt Hill
#
# Bulk Modulus (GPa) = 46.74689 47.52544 47.13617
# Shear Modulus (GPa) = 23.59217 25.54374 24.56796
#
# Velocity S-wave (km/s) = 3.40475 3.54278 3.47445
# Velocity P-wave (km/s) = 6.19889 6.33146 6.26552
#
# Compressibility (1/GPa) = 0.02139180
#
# Stress axis : x y z
#
# Youngs Moduli (GPa) = 74.02120 49.40383 76.95414
#
# Poissons Ratio (x) = 0.26683 0.14838
# Poissons Ratio (y) = 0.39979 0.41153
# Poissons Ratio (z) = 0.14273 0.26420
#
# Static dielectric constant tensor:
#      x y z
#    x 1.750610 0.000000 0.000000 
#    y 0.000000 1.753970 0.000000 
#    z 0.000000 0.000000 1.735240 
# 
# From -- ./inp_files/2015.got.cif
#   From: 2010.05.17/outbox.cif.g08.bks.cpg/sg33_2_cif.got.tgz:2015.got - 2010.06.03 17:15:25.
