data_PCOD9345951
_publ_section_title
;
Structure prediction by ZEFSAII (Michael W. Deem and Ramdas Pophale) SiO2 
 PCOD9345951
Probable space group: P N A 21
;
_chemical_formula_sum "Si O2"
_cell_formula_units_Z 28
_cell_length_a 20.716069
_cell_length_b 8.759275
_cell_length_c 5.479587
_cell_angle_alpha 90.000000
_cell_angle_beta 90.000000
_cell_angle_gamma 90.000000
_cell_volume 994.313502
_symmetry_space_group_name_H-M "P N A 21"
_symmetry_group_IT_number 33
_symmetry_cell_setting 'orthorhombic'
loop_
_space_group_symop_operation_xyz
x,y,z
-x,-y,1/2+z
1/2-x,1/2+y,1/2+z
1/2+x,1/2-y,z
loop_
_atom_site_type_symbol
_atom_site_label
_atom_site_fract_x
_atom_site_fract_y
_atom_site_fract_z
Si Si1 0.478727 0.083456 0.936860
Si Si2 0.741917 0.243245 0.255116
Si Si3 0.339276 0.992909 0.032219
Si Si4 0.129607 0.904737 0.972603
Si Si5 0.778813 0.032999 0.860448
Si Si6 0.590020 0.272328 0.754170
Si Si7 0.496359 0.596619 0.905841
O O1 0.524275 0.229859 0.899961
O O2 0.495529 0.991930 0.687548
O O3 0.400414 0.095712 0.955709
O O4 0.687840 0.107854 0.313743
O O5 0.715596 0.365021 0.469321
O O6 0.810073 0.179746 0.358445
O O7 0.752141 0.184743 0.972239
O O8 0.368987 0.880618 0.236009
O O9 0.271289 0.051426 0.158833
O O10 0.152078 0.927861 0.248714
O O11 0.064545 0.815488 0.913167
O O12 0.120772 0.075666 0.866443
O O13 0.564867 0.304703 0.477624
O O14 0.504905 0.495191 0.154982
#
# Coordination Sequence:
#
# PCOD9345951 Si02
#       7
#     4   4   4   4   4   4   4
#     4  10  24  41  67 103 132 182 234 292 363 437
#     4  11  25  43  72 101 141 191 240 304 366 440
#     4  10  24  43  66 103 135 183 239 297 363 444
#     4  10  24  43  66 103 135 183 239 297 363 444
#     4  11  25  43  72 101 141 191 240 304 366 440
#     4  10  22  46  70  98 142 186 236 302 378 442
#     4  10  24  41  67 103 132 182 234 292 363 437
#
# _framework density 28.160129999999999
#
# number of rings (size 3 to 8) (size 9 to 14) (size 15 to 20)
#    0.000    1.714    0.000    1.714   12.000    9.143 
#   10.286    0.000    0.000    0.000    0.000    0.000 
#    0.000    0.000    0.000    0.000    0.000    0.000 
#
# Total GULP energy -156140.981027 kJ/mol
# GULP energy per Si atom -5576.463608 kJ/mol
# Density = 2.809604 g / cm^3
# Si number density = 28.160130 Si / 1000 Ang^3
#
#
#
# Elastic Constant Matrix: (Units=GPa)
#
#
# Indices 1 2 3 4 5 6 
#
# 1 130.8964 8.5682 7.8496 0.0000 0.0000 0.0000
# 2 8.5682 139.9553 42.7369 0.0000 0.0000 0.0000
# 3 7.8496 42.7369 97.0408 0.0000 0.0000 0.0000
# 4 0.0000 0.0000 0.0000 41.3284 0.0000 0.0000
# 5 0.0000 0.0000 0.0000 0.0000 44.1587 0.0000
# 6 0.0000 0.0000 0.0000 0.0000 0.0000 43.9630
#
#
#
# Elastic Compliance Matrix: (Units=1/GPa)
#
#
# Indices 1 2 3 4 5 6 
#
# 1 0.007690 -0.000324 -0.000479 0.000000 0.000000 0.000000
# 2 -0.000324 0.008269 -0.003615 0.000000 0.000000 0.000000
# 3 -0.000479 -0.003615 0.011936 0.000000 0.000000 0.000000
# 4 0.000000 0.000000 0.000000 0.024196 0.000000 0.000000
# 5 0.000000 0.000000 0.000000 0.000000 0.022646 0.000000
# 6 0.000000 0.000000 0.000000 0.000000 0.000000 0.022746
#
#
# Mechanical properties :
#
#
# Convention : Reuss Voigt Hill
#
# Bulk Modulus (GPa) = 52.47546 54.02243 53.24894
# Shear Modulus (GPa) = 44.37614 46.47255 45.42434
#
# Velocity S-wave (km/s) = 3.97400 4.06679 4.02067
# Velocity P-wave (km/s) = 6.30334 6.42475 6.36433
#
# Compressibility (1/GPa) = 0.01905653
#
# Stress axis : x y z
#
# Youngs Moduli (GPa) = 130.04580 120.93339 83.78055
#
# Poissons Ratio (x) = 0.03924 0.04014
# Poissons Ratio (y) = 0.04219 0.30290
# Poissons Ratio (z) = 0.06231 0.43723
#
# Static dielectric constant tensor:
#      x y z
#    x 2.269940 0.000000 0.000000 
#    y 0.000000 2.362010 0.000000 
#    z 0.000000 0.000000 2.473090 
# 
# From -- ./inp_files/2243.got.cif
#   From: 2010.05.17/outbox.cif.g08.bks.cpg/sg33_2_cif.got.tgz:2243.got - 2010.06.03 17:15:25.
