data_PCOD9345159
_publ_section_title
;
Structure prediction by ZEFSAII (Michael W. Deem and Ramdas Pophale) SiO2 
 PCOD9345159
Probable space group: P N A 21
;
_chemical_formula_sum "Si O2"
_cell_formula_units_Z 16
_cell_length_a 9.201177
_cell_length_b 7.138749
_cell_length_c 10.581844
_cell_angle_alpha 90.000000
_cell_angle_beta 90.000000
_cell_angle_gamma 90.000000
_cell_volume 695.067292
_symmetry_space_group_name_H-M "P N A 21"
_symmetry_group_IT_number 33
_symmetry_cell_setting 'orthorhombic'
loop_
_space_group_symop_operation_xyz
x,y,z
-x,-y,1/2+z
1/2-x,1/2+y,1/2+z
1/2+x,1/2-y,z
loop_
_atom_site_type_symbol
_atom_site_label
_atom_site_fract_x
_atom_site_fract_y
_atom_site_fract_z
Si Si1 0.580026 0.000650 0.214870
Si Si2 0.199868 0.333301 0.973669
Si Si3 0.033893 0.896450 0.314330
Si Si4 0.650441 0.728476 0.721921
O O1 0.430259 0.085754 0.267340
O O2 0.709669 0.122264 0.278252
O O3 0.588656 0.781897 0.235651
O O4 0.601069 0.040566 0.066032
O O5 0.098118 0.191542 0.896859
O O6 0.325536 0.444085 0.898397
O O7 0.296047 0.226293 0.080346
O O8 0.973342 0.067160 0.231790
#
# Coordination Sequence:
#
# PCOD9345159 Si02
#       4
#     4   4   4   4
#     4  10  23  42  64  97 128 166 217 259 310 390
#     4  10  20  44  64  90 132 168 206 272 312 362
#     4  12  22  44  68  90 134 172 208 264 326 368
#     4  10  23  42  64  97 128 166 217 259 310 390
#
# _framework density 23.019352999999999
#
# number of rings (size 3 to 8) (size 9 to 14) (size 15 to 20)
#    1.500    0.000    5.000    0.000    3.500    0.000 
#    4.500    5.000    0.000    0.000    0.000    0.000 
#    0.000    0.000    0.000    0.000    0.000    0.000 
#
# Total GULP energy -89094.545463 kJ/mol
# GULP energy per Si atom -5568.409091 kJ/mol
# Density = 2.296696 g / cm^3
# Si number density = 23.019353 Si / 1000 Ang^3
#
#
#
# Elastic Constant Matrix: (Units=GPa)
#
#
# Indices 1 2 3 4 5 6 
#
# 1 130.0037 7.0503 31.0839 0.0000 0.0000 0.0000
# 2 7.0503 64.7397 12.0825 0.0000 0.0000 0.0000
# 3 31.0839 12.0825 45.5131 0.0000 0.0000 0.0000
# 4 0.0000 0.0000 0.0000 2.4707 0.0000 0.0000
# 5 0.0000 0.0000 0.0000 0.0000 45.7269 0.0000
# 6 0.0000 0.0000 0.0000 0.0000 0.0000 34.3557
#
#
#
# Elastic Compliance Matrix: (Units=1/GPa)
#
#
# Indices 1 2 3 4 5 6 
#
# 1 0.009195 0.000180 -0.006328 0.000000 0.000000 0.000000
# 2 0.000180 0.016255 -0.004438 0.000000 0.000000 0.000000
# 3 -0.006328 -0.004438 0.027472 0.000000 0.000000 0.000000
# 4 0.000000 0.000000 0.000000 0.404741 0.000000 0.000000
# 5 0.000000 0.000000 0.000000 0.000000 0.021869 0.000000
# 6 0.000000 0.000000 0.000000 0.000000 0.000000 0.029107
#
#
# Mechanical properties :
#
#
# Convention : Reuss Voigt Hill
#
# Bulk Modulus (GPa) = 31.49637 37.85446 34.67541
# Shear Modulus (GPa) = 9.25249 29.17999 19.21624
#
# Velocity S-wave (km/s) = 2.00703 3.56424 2.89240
# Velocity P-wave (km/s) = 4.36843 5.78089 5.12357
#
# Compressibility (1/GPa) = 0.03174969
#
# Stress axis : x y z
#
# Youngs Moduli (GPa) = 108.75097 61.51881 36.40135
#
# Poissons Ratio (x) = -0.01105 0.23034
# Poissons Ratio (y) = -0.01953 0.16155
# Poissons Ratio (z) = 0.68815 0.27302
#
# Static dielectric constant tensor:
#      x y z
#    x 1.905860 0.000000 0.000000 
#    y 0.000000 1.802770 0.000000 
#    z 0.000000 0.000000 1.892580 
# 
# From -- ./inp_files/5671.got.cif
#   From: 2010.05.17/outbox.cif.g08.bks.cpg/sg33_3_cif.got.tgz:5671.got - 2010.06.03 17:15:25.
