data_PCOD9345961
_publ_section_title
;
Structure prediction by ZEFSAII (Michael W. Deem and Ramdas Pophale) SiO2 
 PCOD9345961
Probable space group: P N A 21
;
_chemical_formula_sum "Si O2"
_cell_formula_units_Z 16
_cell_length_a 13.078165
_cell_length_b 5.784634
_cell_length_c 8.740390
_cell_angle_alpha 90.000000
_cell_angle_beta 90.000000
_cell_angle_gamma 90.000000
_cell_volume 661.231462
_symmetry_space_group_name_H-M "P N A 21"
_symmetry_group_IT_number 33
_symmetry_cell_setting 'orthorhombic'
loop_
_space_group_symop_operation_xyz
x,y,z
-x,-y,1/2+z
1/2-x,1/2+y,1/2+z
1/2+x,1/2-y,z
loop_
_atom_site_type_symbol
_atom_site_label
_atom_site_fract_x
_atom_site_fract_y
_atom_site_fract_z
Si Si1 0.478607 0.828292 0.643000
Si Si2 0.347304 0.843373 0.121169
Si Si3 0.186140 0.140273 0.300905
Si Si4 0.470960 0.530044 0.349574
O O1 0.547570 0.025777 0.572150
O O2 0.365257 0.857751 0.710135
O O3 0.464732 0.622343 0.520329
O O4 0.541258 0.732371 0.791063
O O5 0.272206 0.022773 0.201512
O O6 0.390455 0.669082 0.248420
O O7 0.296137 0.724278 0.973872
O O8 0.092737 0.953322 0.313853
#
# Coordination Sequence:
#
# PCOD9345961 Si02
#       4
#     4   4   4   4
#     4  10  23  44  68  98 147 183 245 290 365 429
#     4  12  24  45  73 104 146 188 238 309 359 433
#     4  10  25  44  69 110 135 193 245 287 373 431
#     4  10  22  47  64 100 142 184 242 292 355 439
#
# _framework density 24.197279000000002
#
# number of rings (size 3 to 8) (size 9 to 14) (size 15 to 20)
#    1.500    0.000    2.500    1.500    3.500    4.000 
#    4.500    0.000    0.000    0.000    0.000    0.000 
#    0.000    0.000    0.000    0.000    0.000    0.000 
#
# Total GULP energy -89084.949879 kJ/mol
# GULP energy per Si atom -5567.809367 kJ/mol
# Density = 2.414220 g / cm^3
# Si number density = 24.197279 Si / 1000 Ang^3
#
#
#
# Elastic Constant Matrix: (Units=GPa)
#
#
# Indices 1 2 3 4 5 6 
#
# 1 101.1965 23.3133 48.4568 0.0000 0.0000 0.0000
# 2 23.3133 20.6663 24.7400 0.0000 0.0000 0.0000
# 3 48.4568 24.7400 165.0368 0.0000 0.0000 0.0000
# 4 0.0000 0.0000 0.0000 20.8172 0.0000 0.0000
# 5 0.0000 0.0000 0.0000 0.0000 27.7394 0.0000
# 6 0.0000 0.0000 0.0000 0.0000 0.0000 38.9350
#
#
#
# Elastic Compliance Matrix: (Units=1/GPa)
#
#
# Indices 1 2 3 4 5 6 
#
# 1 0.013932 -0.013185 -0.002114 0.000000 0.000000 0.000000
# 2 -0.013185 0.071449 -0.006839 0.000000 0.000000 0.000000
# 3 -0.002114 -0.006839 0.007705 0.000000 0.000000 0.000000
# 4 0.000000 0.000000 0.000000 0.048037 0.000000 0.000000
# 5 0.000000 0.000000 0.000000 0.000000 0.036050 0.000000
# 6 0.000000 0.000000 0.000000 0.000000 0.000000 0.025684
#
#
# Mechanical properties :
#
#
# Convention : Reuss Voigt Hill
#
# Bulk Modulus (GPa) = 20.48802 53.32441 36.90621
# Shear Modulus (GPa) = 18.98228 30.19096 24.58662
#
# Velocity S-wave (km/s) = 2.80390 3.53611 3.19108
# Velocity P-wave (km/s) = 4.35521 6.22554 5.37239
#
# Compressibility (1/GPa) = 0.04880902
#
# Stress axis : x y z
#
# Youngs Moduli (GPa) = 71.77942 13.99593 129.78284
#
# Poissons Ratio (x) = 0.18454 0.27435
# Poissons Ratio (y) = 0.94643 0.88762
# Poissons Ratio (z) = 0.15174 0.09572
#
# Static dielectric constant tensor:
#      x y z
#    x 1.989650 0.000000 0.000000 
#    y 0.000000 2.002590 0.000000 
#    z 0.000000 0.000000 1.932700 
# 
# From -- ./inp_files/3633.got.cif
#   From: 2010.05.17/outbox.cif.g08.bks.cpg/sg33_2_cif.got.tgz:3633.got - 2010.06.03 17:15:25.
