data_PCOD9345861
_publ_section_title
;
Structure prediction by ZEFSAII (Michael W. Deem and Ramdas Pophale) SiO2 
 PCOD9345861
Probable space group: P N A 21
;
_chemical_formula_sum "Si O2"
_cell_formula_units_Z 24
_cell_length_a 28.043694
_cell_length_b 7.119356
_cell_length_c 5.520257
_cell_angle_alpha 90.000000
_cell_angle_beta 90.000000
_cell_angle_gamma 90.000000
_cell_volume 1102.136098
_symmetry_space_group_name_H-M "P N A 21"
_symmetry_group_IT_number 33
_symmetry_cell_setting 'orthorhombic'
loop_
_space_group_symop_operation_xyz
x,y,z
-x,-y,1/2+z
1/2-x,1/2+y,1/2+z
1/2+x,1/2-y,z
loop_
_atom_site_type_symbol
_atom_site_label
_atom_site_fract_x
_atom_site_fract_y
_atom_site_fract_z
Si Si1 0.645526 0.674000 0.845180
Si Si2 0.448626 0.858977 0.976235
Si Si3 0.141499 0.135293 0.488112
Si Si4 0.216454 0.856374 0.238573
Si Si5 0.557613 0.903372 0.982632
Si Si6 0.806766 0.477075 0.053597
O O1 0.639214 0.464563 0.749320
O O2 0.599855 0.750525 0.986162
O O3 0.652650 0.836354 0.645533
O O4 0.696879 0.677334 0.971386
O O5 0.439720 0.987689 0.738524
O O6 0.504850 0.814060 0.971692
O O7 0.413245 0.683970 0.935198
O O8 0.439153 0.962226 0.239260
O O9 0.168579 0.332803 0.468073
O O10 0.174280 0.987680 0.344028
O O11 0.219776 0.653205 0.360186
O O12 0.266927 0.957101 0.243693
#
# Coordination Sequence:
#
# PCOD9345861 Si02
#       6
#     4   4   4   4   4   4
#     4  11  24  41  65  96 133 175 227 283 340 412
#     4  10  22  43  70  98 132 184 223 283 346 410
#     4  11  24  41  65  97 131 177 227 278 348 403
#     4  11  25  39  64  98 128 178 225 284 335 409
#     4  10  22  43  70  97 135 179 229 278 349 407
#     4  11  23  43  64  92 137 173 227 280 340 407
#
# _framework density 21.775894000000001
#
# number of rings (size 3 to 8) (size 9 to 14) (size 15 to 20)
#    0.000    1.333    1.667    3.000    4.667    6.667 
#    3.000    0.000    0.000    0.000    0.000    0.000 
#    0.000    0.000    0.000    0.000    0.000    0.000 
#
# Total GULP energy -133760.526276 kJ/mol
# GULP energy per Si atom -5573.355262 kJ/mol
# Density = 2.172633 g / cm^3
# Si number density = 21.775894 Si / 1000 Ang^3
#
#
#
# Elastic Constant Matrix: (Units=GPa)
#
#
# Indices 1 2 3 4 5 6 
#
# 1 74.3548 17.8356 -4.6408 0.0000 0.0000 0.0000
# 2 17.8356 110.6987 14.1163 0.0000 0.0000 0.0000
# 3 -4.6408 14.1163 53.8797 0.0000 0.0000 0.0000
# 4 0.0000 0.0000 0.0000 35.5035 0.0000 0.0000
# 5 0.0000 0.0000 0.0000 0.0000 26.7009 0.0000
# 6 0.0000 0.0000 0.0000 0.0000 0.0000 5.7055
#
#
#
# Elastic Compliance Matrix: (Units=1/GPa)
#
#
# Indices 1 2 3 4 5 6 
#
# 1 0.014172 -0.002523 0.001882 0.000000 0.000000 0.000000
# 2 -0.002523 0.009795 -0.002784 0.000000 0.000000 0.000000
# 3 0.001882 -0.002784 0.019451 0.000000 0.000000 0.000000
# 4 0.000000 0.000000 0.000000 0.028166 0.000000 0.000000
# 5 0.000000 0.000000 0.000000 0.000000 0.037452 0.000000
# 6 0.000000 0.000000 0.000000 0.000000 0.000000 0.175270
#
#
# Mechanical properties :
#
#
# Convention : Reuss Voigt Hill
#
# Bulk Modulus (GPa) = 27.34651 32.61726 29.98189
# Shear Modulus (GPa) = 16.48283 27.69011 22.08647
#
# Velocity S-wave (km/s) = 2.75422 3.56981 3.18820
# Velocity P-wave (km/s) = 4.76442 5.65708 5.22983
#
# Compressibility (1/GPa) = 0.03656774
#
# Stress axis : x y z
#
# Youngs Moduli (GPa) = 70.56294 102.09238 51.41059
#
# Poissons Ratio (x) = 0.25761 -0.09674
# Poissons Ratio (y) = 0.17805 0.14311
# Poissons Ratio (z) = -0.13278 0.28419
#
# Static dielectric constant tensor:
#      x y z
#    x 1.786320 0.000000 0.000000 
#    y 0.000000 1.748200 0.000000 
#    z 0.000000 0.000000 1.928750 
# 
# From -- ./inp_files/2364.got.cif
#   From: 2010.05.17/outbox.cif.g08.bks.cpg/sg33_2_cif.got.tgz:2364.got - 2010.06.03 17:15:25.
