data_PCOD9345343
_publ_section_title
;
Structure prediction by ZEFSAII (Michael W. Deem and Ramdas Pophale) SiO2 
 PCOD9345343
Probable space group: P N A 21
;
_chemical_formula_sum "Si O2"
_cell_formula_units_Z 20
_cell_length_a 5.204927
_cell_length_b 15.305195
_cell_length_c 10.514323
_cell_angle_alpha 90.000000
_cell_angle_beta 90.000000
_cell_angle_gamma 90.000000
_cell_volume 837.596443
_symmetry_space_group_name_H-M "P N A 21"
_symmetry_group_IT_number 33
_symmetry_cell_setting 'orthorhombic'
loop_
_space_group_symop_operation_xyz
x,y,z
-x,-y,1/2+z
1/2-x,1/2+y,1/2+z
1/2+x,1/2-y,z
loop_
_atom_site_type_symbol
_atom_site_label
_atom_site_fract_x
_atom_site_fract_y
_atom_site_fract_z
Si Si1 0.462896 0.784989 0.648500
Si Si2 0.252154 0.444092 0.549436
Si Si3 0.750001 0.687194 0.290742
Si Si4 0.037102 0.784989 0.932982
Si Si5 0.752155 0.555908 0.532047
O O1 0.241728 0.725099 0.586569
O O2 0.500000 0.750000 0.790741
O O3 0.357811 0.881889 0.643779
O O4 0.247407 0.379281 0.670402
O O5 0.357811 0.381888 0.437705
O O6 0.473834 0.516897 0.563011
O O7 0.973834 0.483103 0.518472
O O8 0.500001 0.750000 0.290741
O O9 0.747409 0.620720 0.411083
O O10 0.258270 0.725099 0.994913
#
# Coordination Sequence:
#
# PCOD9345343 Si02
#       5
#     4   4   4   4   4
#     4  10  21  39  65  93 126 171 220 267 327 406
#     4  12  26  44  68 104 140 177 231 298 354 408
#     4  12  26  48  72 100 144 196 236 284 364 450
#     4  10  21  39  65  93 126 171 220 267 327 406
#     4  12  26  44  68 104 140 177 231 298 354 408
#
# _framework density 23.877846999999999
#
# number of rings (size 3 to 8) (size 9 to 14) (size 15 to 20)
#    0.000    0.800    0.000    7.200    0.000    9.600 
#    0.000    0.000    0.000    0.000    0.000    0.000 
#    0.000    0.000    0.000    0.000    0.000    0.000 
#
# Total GULP energy -111847.073787 kJ/mol
# GULP energy per Si atom -5592.353689 kJ/mol
# Density = 2.382350 g / cm^3
# Si number density = 23.877847 Si / 1000 Ang^3
#
#
#
# Elastic Constant Matrix: (Units=GPa)
#
#
# Indices 1 2 3 4 5 6 
#
# 1 209.8565 58.1908 28.6407 0.0000 0.0000 0.0000
# 2 58.1908 140.9489 55.8632 0.0000 0.0000 0.0000
# 3 28.6407 55.8632 115.7097 0.0000 0.0000 0.0000
# 4 0.0000 0.0000 0.0000 61.2549 0.0000 0.0000
# 5 0.0000 0.0000 0.0000 0.0000 21.0202 0.0000
# 6 0.0000 0.0000 0.0000 0.0000 0.0000 77.1533
#
#
#
# Elastic Compliance Matrix: (Units=1/GPa)
#
#
# Indices 1 2 3 4 5 6 
#
# 1 0.005391 -0.002098 -0.000321 0.000000 0.000000 0.000000
# 2 -0.002098 0.009590 -0.004111 0.000000 0.000000 0.000000
# 3 -0.000321 -0.004111 0.010706 0.000000 0.000000 0.000000
# 4 0.000000 0.000000 0.000000 0.016325 0.000000 0.000000
# 5 0.000000 0.000000 0.000000 0.000000 0.047573 0.000000
# 6 0.000000 0.000000 0.000000 0.000000 0.000000 0.012961
#
#
# Mechanical properties :
#
#
# Convention : Reuss Voigt Hill
#
# Bulk Modulus (GPa) = 79.19553 83.54492 81.37023
# Shear Modulus (GPa) = 41.73039 53.47371 47.60205
#
# Velocity S-wave (km/s) = 4.18504 4.73744 4.46978
# Velocity P-wave (km/s) = 7.52274 8.06157 7.79681
#
# Compressibility (1/GPa) = 0.01262697
#
# Stress axis : x y z
#
# Youngs Moduli (GPa) = 185.49997 104.27266 93.40170
#
# Poissons Ratio (x) = 0.21879 0.03001
# Poissons Ratio (y) = 0.38922 0.38394
# Poissons Ratio (z) = 0.05961 0.42863
#
# Static dielectric constant tensor:
#      x y z
#    x 2.105540 0.000000 0.000000 
#    y 0.000000 1.917700 0.000000 
#    z 0.000000 0.000000 2.170740 
# 
# From -- ./inp_files/5433.got.cif
#   From: 2010.05.17/outbox.cif.g08.bks.cpg/sg33_3_cif.got.tgz:5433.got - 2010.06.03 17:15:25.
