data_PCOD9345338
_publ_section_title
;
Structure prediction by ZEFSAII (Michael W. Deem and Ramdas Pophale) SiO2 
 PCOD9345338
Probable space group: P N A 21
;
_chemical_formula_sum "Si O2"
_cell_formula_units_Z 32
_cell_length_a 15.336375
_cell_length_b 9.118099
_cell_length_c 11.805065
_cell_angle_alpha 90.000000
_cell_angle_beta 90.000000
_cell_angle_gamma 90.000000
_cell_volume 1650.803592
_symmetry_space_group_name_H-M "P N A 21"
_symmetry_group_IT_number 33
_symmetry_cell_setting 'orthorhombic'
loop_
_space_group_symop_operation_xyz
x,y,z
-x,-y,1/2+z
1/2-x,1/2+y,1/2+z
1/2+x,1/2-y,z
loop_
_atom_site_type_symbol
_atom_site_label
_atom_site_fract_x
_atom_site_fract_y
_atom_site_fract_z
Si Si1 0.838593 0.063119 0.333110
Si Si2 0.120766 0.633055 0.915231
Si Si3 0.801425 0.620892 0.558906
Si Si4 0.847148 0.550484 0.806745
Si Si5 0.442535 0.668444 0.450407
Si Si6 0.434703 0.776691 0.011394
Si Si7 0.107455 0.941653 0.573974
Si Si8 0.970482 0.603197 0.257848
O O1 0.824420 0.232249 0.366345
O O2 0.746182 0.977847 0.335718
O O3 0.881971 0.054822 0.209517
O O4 0.903967 0.988494 0.420133
O O5 0.089775 0.520275 0.817400
O O6 0.168355 0.537750 0.011149
O O7 0.032862 0.702949 0.965830
O O8 0.819569 0.635391 0.692533
O O9 0.864763 0.737094 0.502373
O O10 0.698883 0.628048 0.533203
O O11 0.930126 0.454433 0.768385
O O12 0.876847 0.644418 0.915148
O O13 0.525483 0.652425 0.531604
O O14 0.467190 0.751742 0.334938
O O15 0.405991 0.608516 0.030438
O O16 0.436990 0.859781 0.132519
#
# Coordination Sequence:
#
# PCOD9345338 Si02
#       8
#     4   4   4   4   4   4   4   4
#     4  11  23  41  62  94 128 165 214 266 317 387
#     4  10  21  39  65  87 128 165 212 261 319 388
#     4  10  23  43  62  94 129 169 212 266 320 387
#     4  10  23  39  65  89 125 166 216 257 320 385
#     4  11  24  40  63  96 127 164 212 267 324 381
#     4  11  20  40  66  93 126 172 209 270 323 387
#     4  11  24  40  67  91 135 167 216 268 325 382
#     4  10  22  40  64  92 122 168 213 259 326 383
#
# _framework density 19.384497
#
# number of rings (size 3 to 8) (size 9 to 14) (size 15 to 20)
#    0.000    1.500    3.750    0.750    5.250    0.000 
#    2.250    0.000    2.750    0.000    0.000    0.000 
#    0.000    0.000    0.000    0.000    0.000    0.000 
#
# Total GULP energy -178490.385567 kJ/mol
# GULP energy per Si atom -5577.824549 kJ/mol
# Density = 1.934038 g / cm^3
# Si number density = 19.384497 Si / 1000 Ang^3
#
#
#
# Elastic Constant Matrix: (Units=GPa)
#
#
# Indices 1 2 3 4 5 6 
#
# 1 126.3751 28.3500 39.8289 0.0000 0.0000 0.0000
# 2 28.3500 84.3174 33.6847 0.0000 0.0000 0.0000
# 3 39.8289 33.6847 100.0794 0.0000 0.0000 0.0000
# 4 0.0000 0.0000 0.0000 14.4753 0.0000 0.0000
# 5 0.0000 0.0000 0.0000 0.0000 30.0033 0.0000
# 6 0.0000 0.0000 0.0000 0.0000 0.0000 18.1287
#
#
#
# Elastic Compliance Matrix: (Units=1/GPa)
#
#
# Indices 1 2 3 4 5 6 
#
# 1 0.009305 -0.001906 -0.003062 0.000000 0.000000 0.000000
# 2 -0.001906 0.014093 -0.003985 0.000000 0.000000 0.000000
# 3 -0.003062 -0.003985 0.012552 0.000000 0.000000 0.000000
# 4 0.000000 0.000000 0.000000 0.069083 0.000000 0.000000
# 5 0.000000 0.000000 0.000000 0.000000 0.033330 0.000000
# 6 0.000000 0.000000 0.000000 0.000000 0.000000 0.055161
#
#
# Mechanical properties :
#
#
# Convention : Reuss Voigt Hill
#
# Bulk Modulus (GPa) = 55.41664 57.16656 56.29160
# Shear Modulus (GPa) = 22.99443 26.44867 24.72155
#
# Velocity S-wave (km/s) = 3.44790 3.69782 3.57504
# Velocity P-wave (km/s) = 6.67090 6.91279 6.79292
#
# Compressibility (1/GPa) = 0.01804512
#
# Stress axis : x y z
#
# Youngs Moduli (GPa) = 107.46405 70.95910 79.66927
#
# Poissons Ratio (x) = 0.13521 0.24394
# Poissons Ratio (y) = 0.20477 0.31748
# Poissons Ratio (z) = 0.32905 0.28277
#
# Static dielectric constant tensor:
#      x y z
#    x 1.708800 0.000000 0.000000 
#    y 0.000000 1.674880 0.000000 
#    z 0.000000 0.000000 1.673080 
# 
# From -- ./inp_files/6775.got.cif
#   From: 2010.05.17/outbox.cif.g08.bks.cpg/sg33_4_cif.got.tgz:6775.got - 2010.06.03 17:15:25.
