data_PCOD9345111
_publ_section_title
;
Structure prediction by ZEFSAII (Michael W. Deem and Ramdas Pophale) SiO2 
 PCOD9345111
Probable space group: P N A 21
;
_chemical_formula_sum "Si O2"
_cell_formula_units_Z 28
_cell_length_a 8.486891
_cell_length_b 29.147877
_cell_length_c 5.116802
_cell_angle_alpha 90.000000
_cell_angle_beta 90.000000
_cell_angle_gamma 90.000000
_cell_volume 1265.768153
_symmetry_space_group_name_H-M "P N A 21"
_symmetry_group_IT_number 33
_symmetry_cell_setting 'orthorhombic'
loop_
_space_group_symop_operation_xyz
x,y,z
-x,-y,1/2+z
1/2-x,1/2+y,1/2+z
1/2+x,1/2-y,z
loop_
_atom_site_type_symbol
_atom_site_label
_atom_site_fract_x
_atom_site_fract_y
_atom_site_fract_z
Si Si1 0.841933 0.775814 0.791700
Si Si2 0.060036 0.972789 0.762738
Si Si3 0.794474 0.908429 0.622147
Si Si4 0.396809 0.799834 0.144286
Si Si5 0.698410 0.853878 0.127927
Si Si6 0.110780 0.770583 0.448869
Si Si7 0.106498 0.503435 0.404878
O O1 0.704232 0.771431 0.581879
O O2 0.002595 0.793657 0.667808
O O3 0.779322 0.807557 0.020399
O O4 0.862677 0.721664 0.861153
O O5 0.970653 0.926752 0.675134
O O6 0.245814 0.970903 0.825378
O O7 0.028202 0.008056 0.522509
O O8 0.776490 0.871399 0.393079
O O9 0.693044 0.951292 0.515635
O O10 0.726382 0.889634 0.893437
O O11 0.513247 0.842347 0.157053
O O12 0.232705 0.802377 0.296591
O O13 0.492529 0.756098 0.259227
O O14 0.996515 0.487130 0.644991
#
# Coordination Sequence:
#
# PCOD9345111 Si02
#       7
#     4   4   4   4   4   4   4
#     4  11  21  38  62  91 116 180 228 274 319 397
#     4  10  20  41  72 100 131 176 219 252 311 427
#     4  11  25  43  66 106 132 176 216 269 350 396
#     4  11  21  38  62  91 119 180 228 277 320 397
#     4  12  24  40  67  93 139 171 217 293 333 380
#     4  10  21  36  62  86 121 156 255 264 317 384
#     4  11  22  42  77 103 132 171 219 267 322 417
#
# _framework density 22.120954999999999
#
# number of rings (size 3 to 8) (size 9 to 14) (size 15 to 20)
#    0.000    1.143    2.857    5.143    4.000    0.000 
#    0.000    1.429    6.286    1.714    0.000    0.000 
#    0.000    0.000    0.000    0.000    0.000    0.000 
#
# Total GULP energy -156434.264945 kJ/mol
# GULP energy per Si atom -5586.938034 kJ/mol
# Density = 2.207061 g / cm^3
# Si number density = 22.120955 Si / 1000 Ang^3
#
#
#
# Elastic Constant Matrix: (Units=GPa)
#
#
# Indices 1 2 3 4 5 6 
#
# 1 120.6512 2.7750 37.3436 0.0000 0.0000 0.0000
# 2 2.7750 29.5677 3.3087 0.0000 0.0000 0.0000
# 3 37.3436 3.3087 105.5153 0.0000 0.0000 0.0000
# 4 0.0000 0.0000 0.0000 42.7819 0.0000 0.0000
# 5 0.0000 0.0000 0.0000 0.0000 49.9503 0.0000
# 6 0.0000 0.0000 0.0000 0.0000 0.0000 27.6768
#
#
#
# Elastic Compliance Matrix: (Units=1/GPa)
#
#
# Indices 1 2 3 4 5 6 
#
# 1 0.009316 -0.000507 -0.003281 0.000000 0.000000 0.000000
# 2 -0.000507 0.033967 -0.000886 0.000000 0.000000 0.000000
# 3 -0.003281 -0.000886 0.010666 0.000000 0.000000 0.000000
# 4 0.000000 0.000000 0.000000 0.023374 0.000000 0.000000
# 5 0.000000 0.000000 0.000000 0.000000 0.020020 0.000000
# 6 0.000000 0.000000 0.000000 0.000000 0.000000 0.036131
#
#
# Mechanical properties :
#
#
# Convention : Reuss Voigt Hill
#
# Bulk Modulus (GPa) = 22.42073 38.06544 30.24308
# Shear Modulus (GPa) = 31.70787 38.23560 34.97173
#
# Velocity S-wave (km/s) = 3.79012 4.16201 3.98041
# Velocity P-wave (km/s) = 5.41395 6.35151 5.90137
#
# Compressibility (1/GPa) = 0.04460158
#
# Stress axis : x y z
#
# Youngs Moduli (GPa) = 107.34732 29.44003 93.75340
#
# Poissons Ratio (x) = 0.01493 0.30761
# Poissons Ratio (y) = 0.05444 0.08303
# Poissons Ratio (z) = 0.35221 0.02607
#
# Static dielectric constant tensor:
#      x y z
#    x 1.822530 0.000000 0.000000 
#    y 0.000000 1.839350 0.000000 
#    z 0.000000 0.000000 1.850920 
# 
# From -- ./inp_files/532.got.cif
#   From: 2010.05.17/outbox.cif.g08.bks.cpg/sg33_1_cif.got.tgz:532.got - 2010.06.03 17:15:25.
