data_PCOD9345104
_publ_section_title
;
Structure prediction by ZEFSAII (Michael W. Deem and Ramdas Pophale) SiO2 
 PCOD9345104
Probable space group: P N A 21
;
_chemical_formula_sum "Si O2"
_cell_formula_units_Z 32
_cell_length_a 15.783470
_cell_length_b 9.490649
_cell_length_c 9.555332
_cell_angle_alpha 90.000000
_cell_angle_beta 90.000000
_cell_angle_gamma 90.000000
_cell_volume 1431.344528
_symmetry_space_group_name_H-M "P N A 21"
_symmetry_group_IT_number 33
_symmetry_cell_setting 'orthorhombic'
loop_
_space_group_symop_operation_xyz
x,y,z
-x,-y,1/2+z
1/2-x,1/2+y,1/2+z
1/2+x,1/2-y,z
loop_
_atom_site_type_symbol
_atom_site_label
_atom_site_fract_x
_atom_site_fract_y
_atom_site_fract_z
Si Si1 0.867112 0.876789 0.616380
Si Si2 0.123951 0.194724 0.422263
Si Si3 0.025038 0.069482 0.677993
Si Si4 0.913308 0.450933 0.237664
Si Si5 0.432256 0.317843 0.353438
Si Si6 0.762673 0.600298 0.088195
Si Si7 0.081752 0.440311 0.055876
Si Si8 0.380458 0.228685 0.660015
O O1 0.844412 0.883352 0.783229
O O2 0.879618 0.715606 0.570263
O O3 0.957217 0.959154 0.610888
O O4 0.794132 0.966726 0.542295
O O5 0.194294 0.306812 0.466502
O O6 0.094649 0.112228 0.562879
O O7 0.029481 0.241038 0.369549
O O8 0.966668 0.203860 0.725326
O O9 0.063622 0.977243 0.802353
O O10 0.887265 0.286796 0.247247
O O11 0.841660 0.543842 0.172149
O O12 0.927331 0.509723 0.395112
O O13 0.991613 0.450562 0.132130
O O14 0.391365 0.285716 0.501005
O O15 0.705944 0.693778 0.195473
O O16 0.130186 0.562562 0.144063
#
# Coordination Sequence:
#
# PCOD9345104 Si02
#       8
#     4   4   4   4   4   4   4   4
#     4  10  23  45  69  95 140 178 226 284 347 411
#     4  10  20  41  69  91 133 177 226 282 338 398
#     4   9  17  39  68  94 117 177 228 262 334 410
#     4  11  22  41  70  97 132 171 232 279 338 403
#     4   9  18  39  67  91 122 180 219 275 331 399
#     4  11  24  43  63  96 135 181 218 282 351 407
#     4  11  23  47  69 101 130 184 229 289 332 416
#     4   9  21  39  63  93 137 170 218 283 345 392
#
# _framework density 22.356601999999999
#
# number of rings (size 3 to 8) (size 9 to 14) (size 15 to 20)
#    0.000    2.000    2.500    2.250    3.500    0.000 
#   24.750    0.000    0.000    0.000    0.000    0.000 
#    0.000    0.000    0.000    0.000    0.000    0.000 
#
# Total GULP energy -178322.766817 kJ/mol
# GULP energy per Si atom -5572.586463 kJ/mol
# Density = 2.230572 g / cm^3
# Si number density = 22.356602 Si / 1000 Ang^3
#
#
#
# Elastic Constant Matrix: (Units=GPa)
#
#
# Indices 1 2 3 4 5 6 
#
# 1 67.5094 50.2989 31.0759 0.0000 0.0000 0.0000
# 2 50.2989 134.7708 9.7619 0.0000 0.0000 0.0000
# 3 31.0759 9.7619 44.6901 0.0000 0.0000 0.0000
# 4 0.0000 0.0000 0.0000 29.1656 0.0000 0.0000
# 5 0.0000 0.0000 0.0000 0.0000 9.5477 0.0000
# 6 0.0000 0.0000 0.0000 0.0000 0.0000 28.7733
#
#
#
# Elastic Compliance Matrix: (Units=1/GPa)
#
#
# Indices 1 2 3 4 5 6 
#
# 1 0.031618 -0.010372 -0.019721 0.000000 0.000000 0.000000
# 2 -0.010372 0.010942 0.004822 0.000000 0.000000 0.000000
# 3 -0.019721 0.004822 0.035036 0.000000 0.000000 0.000000
# 4 0.000000 0.000000 0.000000 0.034287 0.000000 0.000000
# 5 0.000000 0.000000 0.000000 0.000000 0.104738 0.000000
# 6 0.000000 0.000000 0.000000 0.000000 0.000000 0.034754
#
#
# Mechanical properties :
#
#
# Convention : Reuss Voigt Hill
#
# Bulk Modulus (GPa) = 36.96138 47.69375 42.32756
# Shear Modulus (GPa) = 16.08054 23.88621 19.98338
#
# Velocity S-wave (km/s) = 2.68484 3.27221 2.99297
# Velocity P-wave (km/s) = 5.11661 5.97127 5.56038
#
# Compressibility (1/GPa) = 0.02705527
#
# Stress axis : x y z
#
# Youngs Moduli (GPa) = 31.62706 91.39274 28.54204
#
# Poissons Ratio (x) = 0.94794 0.56287
# Poissons Ratio (y) = 0.32804 -0.13764
# Poissons Ratio (z) = 0.62371 -0.44073
#
# Static dielectric constant tensor:
#      x y z
#    x 1.913560 0.000000 0.000000 
#    y 0.000000 1.918460 0.000000 
#    z 0.000000 0.000000 1.871140 
# 
# From -- ./inp_files/6848.got.cif
#   From: 2010.05.17/outbox.cif.g08.bks.cpg/sg33_4_cif.got.tgz:6848.got - 2010.06.03 17:15:25.
