data_PCOD9345989
_publ_section_title
;
Structure prediction by ZEFSAII (Michael W. Deem and Ramdas Pophale) SiO2 
 PCOD9345989
Probable space group: P N A 21
;
_chemical_formula_sum "Si O2"
_cell_formula_units_Z 32
_cell_length_a 5.802663
_cell_length_b 31.934147
_cell_length_c 7.517030
_cell_angle_alpha 90.000000
_cell_angle_beta 90.000000
_cell_angle_gamma 90.000000
_cell_volume 1392.928911
_symmetry_space_group_name_H-M "P N A 21"
_symmetry_group_IT_number 33
_symmetry_cell_setting 'orthorhombic'
loop_
_space_group_symop_operation_xyz
x,y,z
-x,-y,1/2+z
1/2-x,1/2+y,1/2+z
1/2+x,1/2-y,z
loop_
_atom_site_type_symbol
_atom_site_label
_atom_site_fract_x
_atom_site_fract_y
_atom_site_fract_z
Si Si1 0.769305 0.690107 0.559730
Si Si2 0.263315 0.738949 0.265103
Si Si3 0.728497 0.108365 0.811955
Si Si4 0.762420 0.498847 0.986182
Si Si5 0.037667 0.912479 0.978504
Si Si6 0.257669 0.674737 0.565215
Si Si7 0.145316 0.549442 0.150630
Si Si8 0.417668 0.584478 0.595310
O O1 0.763387 0.731020 0.438209
O O2 0.794774 0.650551 0.424615
O O3 0.512335 0.686573 0.642704
O O4 0.019352 0.690222 0.655384
O O5 0.513370 0.749929 0.176658
O O6 0.262688 0.693304 0.361810
O O7 0.520327 0.076714 0.779233
O O8 0.825237 0.116687 0.613478
O O9 0.920059 0.083293 0.923872
O O10 0.609235 0.539568 0.016571
O O11 0.708286 0.459720 0.112833
O O12 0.013036 0.518170 0.019492
O O13 0.731542 0.481281 0.789072
O O14 0.773932 0.915088 0.037346
O O15 0.065738 0.905765 0.771144
O O16 0.255486 0.624495 0.569730
#
# Coordination Sequence:
#
# PCOD9345989 Si02
#       8
#     4   4   4   4   4   4   4   4
#     4   9  17  32  58  86 117 153 191 244 301 358
#     4   8  14  27  51  84 119 143 189 239 291 361
#     4  10  23  39  58  84 117 153 201 256 302 369
#     4  11  23  36  59  80 113 156 206 255 308 368
#     4  11  24  41  54  84 118 154 204 257 307 366
#     4   9  18  33  53  90 118 149 197 244 297 364
#     4  11  23  39  58  83 116 157 206 263 311 369
#     4  11  22  39  61  81 118 157 202 252 311 363
#
# _framework density 22.973175000000001
#
# number of rings (size 3 to 8) (size 9 to 14) (size 15 to 20)
#    0.000    2.000    1.250    2.250    7.000    0.000 
#    9.000    0.000    0.000    0.000    0.000   28.000 
#    0.000    0.000    0.000    0.000    0.000    0.000 
#
# Total GULP energy -178275.566705 kJ/mol
# GULP energy per Si atom -5571.111460 kJ/mol
# Density = 2.292089 g / cm^3
# Si number density = 22.973175 Si / 1000 Ang^3
#
#
#
# Elastic Constant Matrix: (Units=GPa)
#
#
# Indices 1 2 3 4 5 6 
#
# 1 119.5611 -3.0579 -7.8121 0.0000 0.0000 0.0000
# 2 -3.0579 78.3842 -5.6282 0.0000 0.0000 0.0000
# 3 -7.8121 -5.6282 45.8975 0.0000 0.0000 0.0000
# 4 0.0000 0.0000 0.0000 0.1294 0.0000 0.0000
# 5 0.0000 0.0000 0.0000 0.0000 15.5174 0.0000
# 6 0.0000 0.0000 0.0000 0.0000 0.0000 26.0377
#
#
#
# Elastic Compliance Matrix: (Units=1/GPa)
#
#
# Indices 1 2 3 4 5 6 
#
# 1 0.008473 0.000438 0.001496 0.000000 0.000000 0.000000
# 2 0.000438 0.012894 0.001656 0.000000 0.000000 0.000000
# 3 0.001496 0.001656 0.022245 0.000000 0.000000 0.000000
# 4 0.000000 0.000000 0.000000 7.729622 0.000000 0.000000
# 5 0.000000 0.000000 0.000000 0.000000 0.064444 0.000000
# 6 0.000000 0.000000 0.000000 0.000000 0.000000 0.038406
#
#
# Mechanical properties :
#
#
# Convention : Reuss Voigt Hill
#
# Bulk Modulus (GPa) = 19.68867 23.42739 21.55803
# Shear Modulus (GPa) = 0.63405 25.69298 13.16351
#
# Velocity S-wave (km/s) = 0.52592 3.34786 2.39633
# Velocity P-wave (km/s) = 2.99294 5.01638 4.13048
#
# Compressibility (1/GPa) = 0.05079062
#
# Stress axis : x y z
#
# Youngs Moduli (GPa) = 118.02391 77.55767 44.95334
#
# Poissons Ratio (x) = -0.03397 -0.06724
# Poissons Ratio (y) = -0.05169 -0.07443
# Poissons Ratio (z) = -0.17654 -0.12841
#
# Static dielectric constant tensor:
#      x y z
#    x 2.115270 0.000000 0.000000 
#    y 0.000000 1.877710 0.000000 
#    z 0.000000 0.000000 1.811020 
# 
# From -- ./inp_files/2854.got.cif
#   From: 2010.05.17/outbox.cif.g08.bks.cpg/sg33_2_cif.got.tgz:2854.got - 2010.06.03 17:15:25.
