data_PCOD9345502
_publ_section_title
;
Structure prediction by ZEFSAII (Michael W. Deem and Ramdas Pophale) SiO2 
 PCOD9345502
Probable space group: P N A 21
;
_chemical_formula_sum "Si O2"
_cell_formula_units_Z 28
_cell_length_a 11.787289
_cell_length_b 11.713732
_cell_length_c 8.797633
_cell_angle_alpha 90.000000
_cell_angle_beta 90.000000
_cell_angle_gamma 90.000000
_cell_volume 1214.716851
_symmetry_space_group_name_H-M "P N A 21"
_symmetry_group_IT_number 33
_symmetry_cell_setting 'orthorhombic'
loop_
_space_group_symop_operation_xyz
x,y,z
-x,-y,1/2+z
1/2-x,1/2+y,1/2+z
1/2+x,1/2-y,z
loop_
_atom_site_type_symbol
_atom_site_label
_atom_site_fract_x
_atom_site_fract_y
_atom_site_fract_z
Si Si1 0.048416 0.067698 0.732270
Si Si2 0.114180 0.603020 0.740289
Si Si3 0.954720 0.437012 0.910320
Si Si4 0.699313 0.348580 0.483219
Si Si5 0.649383 0.249814 0.960094
Si Si6 0.342503 0.259760 0.735481
Si Si7 0.032310 0.188865 0.255764
O O1 0.138651 0.062124 0.595302
O O2 0.777889 0.402619 0.351918
O O3 0.939856 0.149062 0.703956
O O4 0.111063 0.138178 0.865226
O O5 0.114382 0.550464 0.569179
O O6 0.504317 0.557821 0.765276
O O7 0.009901 0.546063 0.832260
O O8 0.076249 0.734298 0.719852
O O9 0.887899 0.365081 0.783757
O O10 0.060397 0.352893 0.944112
O O11 0.769730 0.261337 0.585771
O O12 0.593357 0.282053 0.412065
O O13 0.630952 0.288402 0.131831
O O14 0.765120 0.209024 0.881672
#
# Coordination Sequence:
#
# PCOD9345502 Si02
#       7
#     4   4   4   4   4   4   4
#     4  10  22  42  69  94 132 174 222 282 332 403
#     4  11  24  43  65  95 138 171 227 279 334 405
#     4  10  22  42  65  95 132 178 218 277 331 397
#     4  11  23  40  65  98 130 177 220 270 344 401
#     4   9  21  40  65  94 128 178 218 268 340 398
#     4  10  21  42  66  96 135 173 225 267 334 409
#     4  11  23  43  63 102 135 167 224 283 335 399
#
# _framework density 23.050639
#
# number of rings (size 3 to 8) (size 9 to 14) (size 15 to 20)
#    0.000    1.714    0.000    3.429    2.000    2.286 
#   12.857    0.000    0.000    0.000    0.000    0.000 
#    0.000    0.000    0.000    0.000    0.000    0.000 
#
# Total GULP energy -156388.916217 kJ/mol
# GULP energy per Si atom -5585.318436 kJ/mol
# Density = 2.299817 g / cm^3
# Si number density = 23.050639 Si / 1000 Ang^3
#
#
#
# Elastic Constant Matrix: (Units=GPa)
#
#
# Indices 1 2 3 4 5 6 
#
# 1 81.2122 23.1276 19.4559 0.0000 0.0000 0.0000
# 2 23.1276 82.2799 30.3961 0.0000 0.0000 0.0000
# 3 19.4559 30.3961 86.2216 0.0000 0.0000 0.0000
# 4 0.0000 0.0000 0.0000 22.1946 0.0000 0.0000
# 5 0.0000 0.0000 0.0000 0.0000 47.5902 0.0000
# 6 0.0000 0.0000 0.0000 0.0000 0.0000 6.6707
#
#
#
# Elastic Compliance Matrix: (Units=1/GPa)
#
#
# Indices 1 2 3 4 5 6 
#
# 1 0.013675 -0.003109 -0.001990 0.000000 0.000000 0.000000
# 2 -0.003109 0.014680 -0.004474 0.000000 0.000000 0.000000
# 3 -0.001990 -0.004474 0.013624 0.000000 0.000000 0.000000
# 4 0.000000 0.000000 0.000000 0.045056 0.000000 0.000000
# 5 0.000000 0.000000 0.000000 0.000000 0.021013 0.000000
# 6 0.000000 0.000000 0.000000 0.000000 0.000000 0.149908
#
#
# Mechanical properties :
#
#
# Convention : Reuss Voigt Hill
#
# Bulk Modulus (GPa) = 43.79273 43.96367 43.87820
# Shear Modulus (GPa) = 17.56149 27.07337 22.31743
#
# Velocity S-wave (km/s) = 2.76319 3.43084 3.11495
# Velocity P-wave (km/s) = 5.40555 5.89985 5.65810
#
# Compressibility (1/GPa) = 0.02283484
#
# Stress axis : x y z
#
# Youngs Moduli (GPa) = 73.12363 68.11888 73.39881
#
# Poissons Ratio (x) = 0.21177 0.14606
# Poissons Ratio (y) = 0.22733 0.32837
# Poissons Ratio (z) = 0.14551 0.30475
#
# Static dielectric constant tensor:
#      x y z
#    x 1.876370 0.000000 0.000000 
#    y 0.000000 1.805910 0.000000 
#    z 0.000000 0.000000 1.908050 
# 
# From -- ./inp_files/4104.got.cif
#   From: 2010.05.17/outbox.cif.g08.bks.cpg/sg33_3_cif.got.tgz:4104.got - 2010.06.03 17:15:25.
