data_PCOD9345837
_publ_section_title
;
Structure prediction by ZEFSAII (Michael W. Deem and Ramdas Pophale) SiO2 
 PCOD9345837
Probable space group: P N A 21
;
_chemical_formula_sum "Si O2"
_cell_formula_units_Z 28
_cell_length_a 8.670323
_cell_length_b 22.786314
_cell_length_c 5.778068
_cell_angle_alpha 90.000000
_cell_angle_beta 90.000000
_cell_angle_gamma 90.000000
_cell_volume 1141.542285
_symmetry_space_group_name_H-M "P N A 21"
_symmetry_group_IT_number 33
_symmetry_cell_setting 'orthorhombic'
loop_
_space_group_symop_operation_xyz
x,y,z
-x,-y,1/2+z
1/2-x,1/2+y,1/2+z
1/2+x,1/2-y,z
loop_
_atom_site_type_symbol
_atom_site_label
_atom_site_fract_x
_atom_site_fract_y
_atom_site_fract_z
Si Si1 0.064878 0.477565 0.978280
Si Si2 0.372761 0.310078 0.897454
Si Si3 0.555654 0.413077 0.684092
Si Si4 0.404529 0.771787 0.101379
Si Si5 0.824193 0.390829 0.953797
Si Si6 0.834191 0.281819 0.272850
Si Si7 0.625136 0.471187 0.286708
O O1 0.241248 0.495128 0.934099
O O2 0.979857 0.503922 0.743650
O O3 0.000548 0.411152 0.959521
O O4 0.454359 0.371406 0.844429
O O5 0.484116 0.263504 0.770252
O O6 0.212693 0.308553 0.756539
O O7 0.355385 0.282192 0.151614
O O8 0.539645 0.416173 0.408068
O O9 0.499403 0.479447 0.731712
O O10 0.733762 0.393670 0.713945
O O11 0.303413 0.726811 0.951355
O O12 0.515792 0.802271 0.915364
O O13 0.801345 0.328907 0.075281
O O14 0.724573 0.441176 0.084944
#
# Coordination Sequence:
#
# PCOD9345837 Si02
#       7
#     4   4   4   4   4   4   4
#     4  10  22  43  66  96 137 178 238 291 360 428
#     4  11  24  43  70 100 139 179 233 297 355 439
#     4  12  23  43  67  95 134 177 234 290 362 429
#     4  10  23  44  65 104 135 176 228 290 356 431
#     4  11  23  42  68  94 133 184 225 303 347 437
#     4  11  23  44  69 100 138 181 236 281 368 427
#     4  11  24  43  63  97 132 179 236 288 362 433
#
# _framework density 24.528217000000001
#
# number of rings (size 3 to 8) (size 9 to 14) (size 15 to 20)
#    0.000    1.143    2.857    3.429    0.000    4.571 
#   12.857    0.000    0.000    0.000    0.000    0.000 
#    0.000    0.000    0.000    0.000    0.000    0.000 
#
# Total GULP energy -156259.960874 kJ/mol
# GULP energy per Si atom -5580.712888 kJ/mol
# Density = 2.447239 g / cm^3
# Si number density = 24.528217 Si / 1000 Ang^3
#
#
#
# Elastic Constant Matrix: (Units=GPa)
#
#
# Indices 1 2 3 4 5 6 
#
# 1 107.1280 20.7401 26.6136 0.0000 0.0000 0.0000
# 2 20.7401 68.0168 8.7159 0.0000 0.0000 0.0000
# 3 26.6136 8.7159 71.0047 0.0000 0.0000 0.0000
# 4 0.0000 0.0000 0.0000 32.4776 0.0000 0.0000
# 5 0.0000 0.0000 0.0000 0.0000 45.4874 0.0000
# 6 0.0000 0.0000 0.0000 0.0000 0.0000 27.6923
#
#
#
# Elastic Compliance Matrix: (Units=1/GPa)
#
#
# Indices 1 2 3 4 5 6 
#
# 1 0.010800 -0.002819 -0.003702 0.000000 0.000000 0.000000
# 2 -0.002819 0.015673 -0.000867 0.000000 0.000000 0.000000
# 3 -0.003702 -0.000867 0.015578 0.000000 0.000000 0.000000
# 4 0.000000 0.000000 0.000000 0.030790 0.000000 0.000000
# 5 0.000000 0.000000 0.000000 0.000000 0.021984 0.000000
# 6 0.000000 0.000000 0.000000 0.000000 0.000000 0.036111
#
#
# Mechanical properties :
#
#
# Convention : Reuss Voigt Hill
#
# Bulk Modulus (GPa) = 36.66459 39.80983 38.23721
# Shear Modulus (GPa) = 32.29893 33.80347 33.05120
#
# Velocity S-wave (km/s) = 3.63272 3.71637 3.67478
# Velocity P-wave (km/s) = 5.70753 5.88903 5.79899
#
# Compressibility (1/GPa) = 0.02727428
#
# Stress axis : x y z
#
# Youngs Moduli (GPa) = 92.59231 63.80427 64.19477
#
# Poissons Ratio (x) = 0.17985 0.23765
# Poissons Ratio (y) = 0.26100 0.05568
# Poissons Ratio (z) = 0.34278 0.05534
#
# Static dielectric constant tensor:
#      x y z
#    x 1.969230 0.000000 0.000000 
#    y 0.000000 1.964330 0.000000 
#    z 0.000000 0.000000 2.055990 
# 
# From -- ./inp_files/465.got.cif
#   From: 2010.05.17/outbox.cif.g08.bks.cpg/sg33_1_cif.got.tgz:465.got - 2010.06.03 17:15:25.
