data_PCOD9345421
_publ_section_title
;
Structure prediction by ZEFSAII (Michael W. Deem and Ramdas Pophale) SiO2 
 PCOD9345421
Probable space group: P N A 21
;
_chemical_formula_sum "Si O2"
_cell_formula_units_Z 32
_cell_length_a 17.422082
_cell_length_b 5.569376
_cell_length_c 13.181302
_cell_angle_alpha 90.000000
_cell_angle_beta 90.000000
_cell_angle_gamma 90.000000
_cell_volume 1278.983385
_symmetry_space_group_name_H-M "P N A 21"
_symmetry_group_IT_number 33
_symmetry_cell_setting 'orthorhombic'
loop_
_space_group_symop_operation_xyz
x,y,z
-x,-y,1/2+z
1/2-x,1/2+y,1/2+z
1/2+x,1/2-y,z
loop_
_atom_site_type_symbol
_atom_site_label
_atom_site_fract_x
_atom_site_fract_y
_atom_site_fract_z
Si Si1 0.958329 0.371218 0.106710
Si Si2 0.401608 0.805884 0.930413
Si Si3 0.926618 0.364172 0.751511
Si Si4 0.683336 0.759764 0.730946
Si Si5 0.520341 0.417022 0.924617
Si Si6 0.765284 0.330459 0.461986
Si Si7 0.806502 0.827145 0.450615
Si Si8 0.761046 0.258469 0.732758
O O1 0.903195 0.251514 0.189894
O O2 0.016441 0.545280 0.165185
O O3 0.906970 0.506918 0.022386
O O4 0.003769 0.185210 0.036854
O O5 0.484602 0.680398 0.927676
O O6 0.326821 0.645127 0.951808
O O7 0.392812 0.916304 0.818751
O O8 0.972988 0.213752 0.835645
O O9 0.851090 0.233761 0.711532
O O10 0.695903 0.786403 0.851684
O O11 0.723984 0.511517 0.697330
O O12 0.716095 0.020535 0.699770
O O13 0.608998 0.369627 0.906585
O O14 0.802721 0.570692 0.506084
O O15 0.782501 0.068425 0.508001
O O16 0.749638 0.782407 0.355559
#
# Coordination Sequence:
#
# PCOD9345421 Si02
#       8
#     4   4   4   4   4   4   4   4
#     4  11  28  45  68 110 149 193 252 311 377 451
#     4  11  25  46  73 106 147 200 246 318 376 452
#     4  11  23  47  73 102 145 199 247 306 376 453
#     4  10  21  42  68  99 138 185 238 299 365 435
#     4  11  26  44  75 102 152 196 246 310 385 447
#     4  10  21  43  73 102 136 190 253 299 371 441
#     4  10  21  40  70 106 136 188 243 298 361 444
#     4  10  21  41  72 105 131 187 247 295 359 437
#
# _framework density 25.019870999999998
#
# number of rings (size 3 to 8) (size 9 to 14) (size 15 to 20)
#    0.000    1.500    2.500    3.000   10.500    1.000 
#    4.500    0.000    0.000    0.000    0.000    0.000 
#    0.000    0.000    0.000    0.000    0.000    0.000 
#
# Total GULP energy -178963.495117 kJ/mol
# GULP energy per Si atom -5592.609222 kJ/mol
# Density = 2.496292 g / cm^3
# Si number density = 25.019871 Si / 1000 Ang^3
#
#
#
# Elastic Constant Matrix: (Units=GPa)
#
#
# Indices 1 2 3 4 5 6 
#
# 1 113.5885 20.3797 4.1025 0.0000 0.0000 0.0000
# 2 20.3797 140.6853 -11.0416 0.0000 0.0000 0.0000
# 3 4.1025 -11.0416 97.3445 0.0000 0.0000 0.0000
# 4 0.0000 0.0000 0.0000 -20.7204 0.0000 0.0000
# 5 0.0000 0.0000 0.0000 0.0000 27.7760 0.0000
# 6 0.0000 0.0000 0.0000 0.0000 0.0000 38.9870
#
#
#
# Elastic Compliance Matrix: (Units=1/GPa)
#
#
# Indices 1 2 3 4 5 6 
#
# 1 0.009066 -0.001355 -0.000536 0.000000 0.000000 0.000000
# 2 -0.001355 0.007375 0.000894 0.000000 0.000000 0.000000
# 3 -0.000536 0.000894 0.010397 0.000000 0.000000 0.000000
# 4 0.000000 0.000000 0.000000 -0.048262 0.000000 0.000000
# 5 0.000000 0.000000 0.000000 0.000000 0.036002 0.000000
# 6 0.000000 0.000000 0.000000 0.000000 0.000000 0.025650
#
#
# Mechanical properties :
#
#
# Convention : Reuss Voigt Hill
#
# Bulk Modulus (GPa) = 40.25396 42.05551 41.15474
# Shear Modulus (GPa) = 99.00224 31.75368 65.37796
#
# Velocity S-wave (km/s) = 6.29725 3.56636 5.11734
# Velocity P-wave (km/s) = 8.30647 5.81411 7.16943
#
# Compressibility (1/GPa) = 0.02484227
#
# Stress axis : x y z
#
# Youngs Moduli (GPa) = 110.29932 135.60166 96.18401
#
# Poissons Ratio (x) = 0.18379 0.05154
# Poissons Ratio (y) = 0.14950 -0.08595
# Poissons Ratio (z) = 0.05910 -0.12117
#
# Static dielectric constant tensor:
#      x y z
#    x 1.907050 0.000000 0.000000 
#    y 0.000000 2.123380 0.000000 
#    z 0.000000 0.000000 1.963100 
# 
# From -- ./inp_files/8262.got.cif
#   From: 2010.05.17/outbox.cif.g08.bks.cpg/sg33_5_cif.got.tgz:8262.got - 2010.06.03 17:15:25.
