data_PCOD9345887
_publ_section_title
;
Structure prediction by ZEFSAII (Michael W. Deem and Ramdas Pophale) SiO2 
 PCOD9345887
Probable space group: P N A 21
;
_chemical_formula_sum "Si O2"
_cell_formula_units_Z 28
_cell_length_a 15.027245
_cell_length_b 6.466152
_cell_length_c 11.979222
_cell_angle_alpha 90.000000
_cell_angle_beta 90.000000
_cell_angle_gamma 90.000000
_cell_volume 1164.002438
_symmetry_space_group_name_H-M "P N A 21"
_symmetry_group_IT_number 33
_symmetry_cell_setting 'orthorhombic'
loop_
_space_group_symop_operation_xyz
x,y,z
-x,-y,1/2+z
1/2-x,1/2+y,1/2+z
1/2+x,1/2-y,z
loop_
_atom_site_type_symbol
_atom_site_label
_atom_site_fract_x
_atom_site_fract_y
_atom_site_fract_z
Si Si1 0.980688 0.447975 0.156140
Si Si2 0.883035 0.268015 0.947600
Si Si3 0.864286 0.800093 0.232656
Si Si4 0.735584 0.585328 0.885887
Si Si5 0.946377 0.152212 0.700816
Si Si6 0.257309 0.049846 0.535341
Si Si7 0.849327 0.758975 0.687140
O O1 0.900278 0.563510 0.222819
O O2 0.039128 0.650244 0.122408
O O3 0.053340 0.321440 0.225987
O O4 0.948145 0.320382 0.049883
O O5 0.818142 0.466289 0.941832
O O6 0.926888 0.232645 0.826624
O O7 0.823784 0.065264 0.971831
O O8 0.787839 0.840192 0.142560
O O9 0.952692 0.931744 0.202606
O O10 0.828909 0.901619 0.345782
O O11 0.775895 0.701642 0.777495
O O12 0.700958 0.770629 0.961186
O O13 0.868850 0.998110 0.668135
O O14 0.319536 0.865480 0.578377
#
# Coordination Sequence:
#
# PCOD9345887 Si02
#       7
#     4   4   4   4   4   4   4
#     4  10  23  43  67 101 136 188 238 297 345 422
#     4  12  23  41  71  99 140 181 238 287 359 427
#     4   9  22  44  68  92 142 182 228 291 357 408
#     4  11  21  44  65 101 138 184 236 290 351 431
#     4  10  22  44  67 101 136 191 230 298 353 424
#     4  11  24  42  66 108 137 187 232 298 352 431
#     4  11  23  44  70  94 145 187 234 293 367 411
#
# _framework density 24.054931
#
# number of rings (size 3 to 8) (size 9 to 14) (size 15 to 20)
#    0.857    0.571    4.286    0.857    0.000    3.429 
#    7.714    0.000    0.000    0.000    0.000    0.000 
#    0.000    0.000    0.000    0.000    0.000    0.000 
#
# Total GULP energy -156263.527554 kJ/mol
# GULP energy per Si atom -5580.840270 kJ/mol
# Density = 2.400018 g / cm^3
# Si number density = 24.054931 Si / 1000 Ang^3
#
#
#
# Elastic Constant Matrix: (Units=GPa)
#
#
# Indices 1 2 3 4 5 6 
#
# 1 58.7072 30.1741 31.2179 0.0000 0.0000 0.0000
# 2 30.1741 82.6035 52.0819 0.0000 0.0000 0.0000
# 3 31.2179 52.0819 84.2742 0.0000 0.0000 0.0000
# 4 0.0000 0.0000 0.0000 35.3354 0.0000 0.0000
# 5 0.0000 0.0000 0.0000 0.0000 34.4075 0.0000
# 6 0.0000 0.0000 0.0000 0.0000 0.0000 60.3301
#
#
#
# Elastic Compliance Matrix: (Units=1/GPa)
#
#
# Indices 1 2 3 4 5 6 
#
# 1 0.022324 -0.004818 -0.005292 0.000000 0.000000 0.000000
# 2 -0.004818 0.020875 -0.011116 0.000000 0.000000 0.000000
# 3 -0.005292 -0.011116 0.020696 0.000000 0.000000 0.000000
# 4 0.000000 0.000000 0.000000 0.028300 0.000000 0.000000
# 5 0.000000 0.000000 0.000000 0.000000 0.029063 0.000000
# 6 0.000000 0.000000 0.000000 0.000000 0.000000 0.016575
#
#
# Mechanical properties :
#
#
# Convention : Reuss Voigt Hill
#
# Bulk Modulus (GPa) = 46.63548 50.28138 48.45843
# Shear Modulus (GPa) = 26.67616 33.48866 30.08241
#
# Velocity S-wave (km/s) = 3.33373 3.73523 3.54018
# Velocity P-wave (km/s) = 5.85214 6.28894 6.07446
#
# Compressibility (1/GPa) = 0.02144290
#
# Stress axis : x y z
#
# Youngs Moduli (GPa) = 44.79459 47.90512 48.31861
#
# Poissons Ratio (x) = 0.23081 0.25570
# Poissons Ratio (y) = 0.21583 0.53710
# Poissons Ratio (z) = 0.23705 0.53250
#
# Static dielectric constant tensor:
#      x y z
#    x 1.975870 0.000000 0.000000 
#    y 0.000000 1.977580 0.000000 
#    z 0.000000 0.000000 1.965770 
# 
# From -- ./inp_files/8103.got.cif
#   From: 2010.05.17/outbox.cif.g08.bks.cpg/sg33_5_cif.got.tgz:8103.got - 2010.06.03 17:15:25.
