data_PCOD9345913
_publ_section_title
;
Structure prediction by ZEFSAII (Michael W. Deem and Ramdas Pophale) SiO2 
 PCOD9345913
Probable space group: P N A 21
;
_chemical_formula_sum "Si O2"
_cell_formula_units_Z 24
_cell_length_a 24.644576
_cell_length_b 7.252098
_cell_length_c 5.553494
_cell_angle_alpha 90.000000
_cell_angle_beta 90.000000
_cell_angle_gamma 90.000000
_cell_volume 992.547551
_symmetry_space_group_name_H-M "P N A 21"
_symmetry_group_IT_number 33
_symmetry_cell_setting 'orthorhombic'
loop_
_space_group_symop_operation_xyz
x,y,z
-x,-y,1/2+z
1/2-x,1/2+y,1/2+z
1/2+x,1/2-y,z
loop_
_atom_site_type_symbol
_atom_site_label
_atom_site_fract_x
_atom_site_fract_y
_atom_site_fract_z
Si Si1 0.372341 0.542042 0.701360
Si Si2 0.679011 0.679753 0.569551
Si Si3 0.329128 0.884695 0.400938
Si Si4 0.251527 0.595818 0.250426
Si Si5 0.087405 0.705466 0.860528
Si Si6 0.014868 0.102815 0.416797
O O1 0.323186 0.471308 0.862351
O O2 0.351392 0.710738 0.547228
O O3 0.393622 0.361820 0.554340
O O4 0.421940 0.621028 0.861252
O O5 0.709209 0.579876 0.786985
O O6 0.713529 0.848737 0.474309
O O7 0.616294 0.720476 0.618562
O O8 0.290742 0.773466 0.212302
O O9 0.289637 0.022488 0.547575
O O10 0.382609 0.009789 0.366918
O O11 0.022852 0.716540 0.880336
O O12 0.006404 0.024818 0.689212
#
# Coordination Sequence:
#
# PCOD9345913 Si02
#       6
#     4   4   4   4   4   4
#     4  11  23  44  68 101 134 182 227 296 351 426
#     4  11  22  42  64  94 134 180 224 285 346 420
#     4  11  24  42  66  98 138 178 238 281 350 420
#     4  10  24  40  64  98 132 184 228 286 344 414
#     4  11  23  44  68 101 134 182 227 296 351 426
#     4  10  22  44  76 104 142 186 234 300 370 422
#
# _framework density 24.180204
#
# number of rings (size 3 to 8) (size 9 to 14) (size 15 to 20)
#    0.000    1.333    5.000    0.000    0.000    9.333 
#    0.000   10.000    0.000    0.000    0.000    0.000 
#    0.000    0.000    0.000    0.000    0.000    0.000 
#
# Total GULP energy -133810.265163 kJ/mol
# GULP energy per Si atom -5575.427715 kJ/mol
# Density = 2.412517 g / cm^3
# Si number density = 24.180204 Si / 1000 Ang^3
#
#
#
# Elastic Constant Matrix: (Units=GPa)
#
#
# Indices 1 2 3 4 5 6 
#
# 1 63.8041 4.2673 -0.3306 0.0000 0.0000 0.0000
# 2 4.2673 100.2686 32.7523 0.0000 0.0000 0.0000
# 3 -0.3306 32.7523 60.3982 0.0000 0.0000 0.0000
# 4 0.0000 0.0000 0.0000 33.1030 0.0000 0.0000
# 5 0.0000 0.0000 0.0000 0.0000 31.3280 0.0000
# 6 0.0000 0.0000 0.0000 0.0000 0.0000 32.3826
#
#
#
# Elastic Compliance Matrix: (Units=1/GPa)
#
#
# Indices 1 2 3 4 5 6 
#
# 1 0.015733 -0.000848 0.000546 0.000000 0.000000 0.000000
# 2 -0.000848 0.012166 -0.006602 0.000000 0.000000 0.000000
# 3 0.000546 -0.006602 0.020140 0.000000 0.000000 0.000000
# 4 0.000000 0.000000 0.000000 0.030209 0.000000 0.000000
# 5 0.000000 0.000000 0.000000 0.000000 0.031920 0.000000
# 6 0.000000 0.000000 0.000000 0.000000 0.000000 0.030881
#
#
# Mechanical properties :
#
#
# Convention : Reuss Voigt Hill
#
# Bulk Modulus (GPa) = 29.21376 33.09433 31.15404
# Shear Modulus (GPa) = 30.07236 31.88150 30.97693
#
# Velocity S-wave (km/s) = 3.53041 3.63505 3.58311
# Velocity P-wave (km/s) = 5.35969 5.59771 5.47999
#
# Compressibility (1/GPa) = 0.03423045
#
# Stress axis : x y z
#
# Youngs Moduli (GPa) = 63.56265 82.19796 49.65302
#
# Poissons Ratio (x) = 0.06969 -0.02711
# Poissons Ratio (y) = 0.05389 0.32780
# Poissons Ratio (z) = -0.03470 0.54265
#
# Static dielectric constant tensor:
#      x y z
#    x 1.977210 0.000000 0.000000 
#    y 0.000000 1.934320 0.000000 
#    z 0.000000 0.000000 2.012480 
# 
# From -- ./inp_files/2374.got.cif
#   From: 2010.05.17/outbox.cif.g08.bks.cpg/sg33_2_cif.got.tgz:2374.got - 2010.06.03 17:15:25.
