data_PCOD9345857
_publ_section_title
;
Structure prediction by ZEFSAII (Michael W. Deem and Ramdas Pophale) SiO2 
 PCOD9345857
Probable space group: P N A 21
;
_chemical_formula_sum "Si O2"
_cell_formula_units_Z 28
_cell_length_a 24.796701
_cell_length_b 5.286399
_cell_length_c 8.628254
_cell_angle_alpha 90.000000
_cell_angle_beta 90.000000
_cell_angle_gamma 90.000000
_cell_volume 1131.036879
_symmetry_space_group_name_H-M "P N A 21"
_symmetry_group_IT_number 33
_symmetry_cell_setting 'orthorhombic'
loop_
_space_group_symop_operation_xyz
x,y,z
-x,-y,1/2+z
1/2-x,1/2+y,1/2+z
1/2+x,1/2-y,z
loop_
_atom_site_type_symbol
_atom_site_label
_atom_site_fract_x
_atom_site_fract_y
_atom_site_fract_z
Si Si1 0.703926 0.666256 0.176600
Si Si2 0.900026 0.558297 0.878824
Si Si3 0.063779 0.509293 0.856114
Si Si4 0.506957 0.268825 0.601175
Si Si5 0.807024 0.868443 0.996563
Si Si6 0.589492 0.643229 0.588531
Si Si7 0.860325 0.680186 0.583969
O O1 0.759545 0.763490 0.102468
O O2 0.708958 0.565054 0.356604
O O3 0.664954 0.903518 0.128124
O O4 0.680752 0.411114 0.096519
O O5 0.906318 0.695396 0.716312
O O6 0.941730 0.683204 0.996588
O O7 0.838351 0.632210 0.919416
O O8 0.907620 0.264585 0.916175
O O9 0.015010 0.370140 0.765389
O O10 0.095759 0.658813 0.726018
O O11 0.106550 0.316705 0.926797
O O12 0.042770 0.687646 0.996038
O O13 0.527696 0.553364 0.619513
O O14 0.855781 0.985005 0.095571
#
# Coordination Sequence:
#
# PCOD9345857 Si02
#       7
#     4   4   4   4   4   4   4
#     4  11  26  45  77 105 147 194 256 308 391 457
#     4   9  20  44  67  96 139 182 242 304 370 438
#     4  11  25  43  68 105 148 192 250 311 377 459
#     4  10  23  43  67 101 140 192 247 306 373 446
#     4  10  23  46  72 105 144 196 248 323 382 460
#     4  10  22  43  70 103 140 193 247 309 377 453
#     4  11  25  46  69 109 144 193 244 311 374 455
#
# _framework density 24.756046000000001
#
# number of rings (size 3 to 8) (size 9 to 14) (size 15 to 20)
#    0.000    1.714    1.429    0.857    4.000    6.857 
#    2.571    0.000    0.000    0.000    0.000    0.000 
#    0.000    0.000    0.000    0.000    0.000    0.000 
#
# Total GULP energy -156102.415243 kJ/mol
# GULP energy per Si atom -5575.086259 kJ/mol
# Density = 2.469970 g / cm^3
# Si number density = 24.756046 Si / 1000 Ang^3
#
#
#
# Elastic Constant Matrix: (Units=GPa)
#
#
# Indices 1 2 3 4 5 6 
#
# 1 117.8856 41.4428 46.5575 0.0000 0.0000 0.0000
# 2 41.4428 88.6503 32.5421 0.0000 0.0000 0.0000
# 3 46.5575 32.5421 96.1190 0.0000 0.0000 0.0000
# 4 0.0000 0.0000 0.0000 26.7678 0.0000 0.0000
# 5 0.0000 0.0000 0.0000 0.0000 37.9364 0.0000
# 6 0.0000 0.0000 0.0000 0.0000 0.0000 35.1578
#
#
#
# Elastic Compliance Matrix: (Units=1/GPa)
#
#
# Indices 1 2 3 4 5 6 
#
# 1 0.011515 -0.003809 -0.004288 0.000000 0.000000 0.000000
# 2 -0.003809 0.014141 -0.002943 0.000000 0.000000 0.000000
# 3 -0.004288 -0.002943 0.013477 0.000000 0.000000 0.000000
# 4 0.000000 0.000000 0.000000 0.037358 0.000000 0.000000
# 5 0.000000 0.000000 0.000000 0.000000 0.026360 0.000000
# 6 0.000000 0.000000 0.000000 0.000000 0.000000 0.028443
#
#
# Mechanical properties :
#
#
# Convention : Reuss Voigt Hill
#
# Bulk Modulus (GPa) = 58.63762 60.41552 59.52657
# Shear Modulus (GPa) = 31.43474 32.11323 31.77399
#
# Velocity S-wave (km/s) = 3.56726 3.60556 3.58646
# Velocity P-wave (km/s) = 6.38003 6.46457 6.42244
#
# Compressibility (1/GPa) = 0.01705390
#
# Stress axis : x y z
#
# Youngs Moduli (GPa) = 86.83957 70.71533 74.20007
#
# Poissons Ratio (x) = 0.26937 0.31818
# Poissons Ratio (y) = 0.33079 0.21834
# Poissons Ratio (z) = 0.37238 0.20808
#
# Static dielectric constant tensor:
#      x y z
#    x 1.964410 0.000000 0.000000 
#    y 0.000000 2.433560 0.000000 
#    z 0.000000 0.000000 2.101370 
# 
# From -- ./inp_files/5168.got.cif
#   From: 2010.05.17/outbox.cif.g08.bks.cpg/sg33_3_cif.got.tgz:5168.got - 2010.06.03 17:15:25.
