data_PCOD9345256
_publ_section_title
;
Structure prediction by ZEFSAII (Michael W. Deem and Ramdas Pophale) SiO2 
 PCOD9345256
Probable space group: P N A 21
;
_chemical_formula_sum "Si O2"
_cell_formula_units_Z 32
_cell_length_a 33.714767
_cell_length_b 8.476869
_cell_length_c 5.238658
_cell_angle_alpha 90.000000
_cell_angle_beta 90.000000
_cell_angle_gamma 90.000000
_cell_volume 1497.185738
_symmetry_space_group_name_H-M "P N A 21"
_symmetry_group_IT_number 33
_symmetry_cell_setting 'orthorhombic'
loop_
_space_group_symop_operation_xyz
x,y,z
-x,-y,1/2+z
1/2-x,1/2+y,1/2+z
1/2+x,1/2-y,z
loop_
_atom_site_type_symbol
_atom_site_label
_atom_site_fract_x
_atom_site_fract_y
_atom_site_fract_z
Si Si1 0.568470 0.484804 0.380260
Si Si2 0.013270 0.557242 0.751661
Si Si3 0.777533 0.464770 0.439389
Si Si4 0.218886 0.744067 0.434954
Si Si5 0.869344 0.484568 0.474972
Si Si6 0.514086 0.365902 0.024271
Si Si7 0.570379 0.180099 0.685450
Si Si8 0.626716 0.775788 0.471614
O O1 0.554906 0.456472 0.089387
O O2 0.524069 0.528936 0.477262
O O3 0.583162 0.316167 0.489746
O O4 0.596980 0.629946 0.433181
O O5 0.052626 0.491628 0.606330
O O6 0.981911 0.479912 0.550906
O O7 0.002057 0.739259 0.728764
O O8 0.771797 0.341566 0.668724
O O9 0.746168 0.603983 0.462181
O O10 0.822768 0.526663 0.467566
O O11 0.774162 0.375918 0.169239
O O12 0.172058 0.783234 0.436747
O O13 0.896218 0.632417 0.388937
O O14 0.878821 0.407640 0.749089
O O15 0.875086 0.352355 0.253270
O O16 0.529997 0.253771 0.801546
#
# Coordination Sequence:
#
# PCOD9345256 Si02
#       8
#     4   4   4   4   4   4   4   4
#     4  12  24  41  60  91 122 167 211 278 323 382
#     4  10  21  38  58  79 108 151 199 248 306 369
#     4  10  21  41  68  99 136 168 217 256 324 380
#     4  10  21  42  67 101 132 176 209 266 314 395
#     4  10  24  44  64  94 128 173 210 261 312 394
#     4  11  24  39  58  83 120 157 211 265 327 374
#     4  11  24  39  61  87 120 160 216 263 316 377
#     4  10  25  44  66  90 134 170 211 257 332 379
#
# _framework density 21.373431
#
# number of rings (size 3 to 8) (size 9 to 14) (size 15 to 20)
#    0.000    1.500    2.500    1.500    3.500    6.000 
#    2.250    0.000    0.000    0.000    0.000    0.000 
#    0.000    0.000    0.000    0.000    0.000    0.000 
#
# Total GULP energy -178311.700997 kJ/mol
# GULP energy per Si atom -5572.240656 kJ/mol
# Density = 2.132478 g / cm^3
# Si number density = 21.373431 Si / 1000 Ang^3
#
#
#
# Elastic Constant Matrix: (Units=GPa)
#
#
# Indices 1 2 3 4 5 6 
#
# 1 99.1103 51.7210 12.3924 0.0000 0.0000 0.0000
# 2 51.7210 60.6224 2.0697 0.0000 0.0000 0.0000
# 3 12.3924 2.0697 78.9821 0.0000 0.0000 0.0000
# 4 0.0000 0.0000 0.0000 28.1887 0.0000 0.0000
# 5 0.0000 0.0000 0.0000 0.0000 10.4118 0.0000
# 6 0.0000 0.0000 0.0000 0.0000 0.0000 49.0813
#
#
#
# Elastic Compliance Matrix: (Units=1/GPa)
#
#
# Indices 1 2 3 4 5 6 
#
# 1 0.018673 -0.015846 -0.002515 0.000000 0.000000 0.000000
# 2 -0.015846 0.029956 0.001701 0.000000 0.000000 0.000000
# 3 -0.002515 0.001701 0.013011 0.000000 0.000000 0.000000
# 4 0.000000 0.000000 0.000000 0.035475 0.000000 0.000000
# 5 0.000000 0.000000 0.000000 0.000000 0.096045 0.000000
# 6 0.000000 0.000000 0.000000 0.000000 0.000000 0.020374
#
#
# Mechanical properties :
#
#
# Convention : Reuss Voigt Hill
#
# Bulk Modulus (GPa) = 35.30738 41.23124 38.26931
# Shear Modulus (GPa) = 19.50885 29.03846 24.27366
#
# Velocity S-wave (km/s) = 3.02447 3.68995 3.37366
# Velocity P-wave (km/s) = 5.36206 6.12267 5.75495
#
# Compressibility (1/GPa) = 0.02832269
#
# Stress axis : x y z
#
# Youngs Moduli (GPa) = 53.55268 33.38194 76.85769
#
# Poissons Ratio (x) = 0.52895 0.19327
# Poissons Ratio (y) = 0.84857 -0.13075
# Poissons Ratio (z) = 0.13466 -0.05679
#
# Static dielectric constant tensor:
#      x y z
#    x 1.801980 0.000000 0.000000 
#    y 0.000000 1.847450 0.000000 
#    z 0.000000 0.000000 1.952140 
# 
# From -- ./inp_files/2536.got.cif
#   From: 2010.05.17/outbox.cif.g08.bks.cpg/sg33_2_cif.got.tgz:2536.got - 2010.06.03 17:15:25.
