data_PCOD9345035
_publ_section_title
;
Structure prediction by ZEFSAII (Michael W. Deem and Ramdas Pophale) SiO2 
 PCOD9345035
Probable space group: P N A 21
;
_chemical_formula_sum "Si O2"
_cell_formula_units_Z 32
_cell_length_a 15.517725
_cell_length_b 18.171805
_cell_length_c 5.409500
_cell_angle_alpha 90.000000
_cell_angle_beta 90.000000
_cell_angle_gamma 90.000000
_cell_volume 1525.398251
_symmetry_space_group_name_H-M "P N A 21"
_symmetry_group_IT_number 33
_symmetry_cell_setting 'orthorhombic'
loop_
_space_group_symop_operation_xyz
x,y,z
-x,-y,1/2+z
1/2-x,1/2+y,1/2+z
1/2+x,1/2-y,z
loop_
_atom_site_type_symbol
_atom_site_label
_atom_site_fract_x
_atom_site_fract_y
_atom_site_fract_z
Si Si1 0.894766 0.830648 0.480750
Si Si2 0.727981 0.095085 0.214494
Si Si3 0.684419 0.725176 0.952869
Si Si4 0.738993 0.943186 0.417503
Si Si5 0.491273 0.694130 0.962164
Si Si6 0.145540 0.603500 0.906948
Si Si7 0.328263 0.820149 0.339772
Si Si8 0.546415 0.137333 0.456207
O O1 0.819633 0.890349 0.463093
O O2 0.956898 0.846642 0.715392
O O3 0.851735 0.749516 0.511646
O O4 0.940319 0.826647 0.211508
O O5 0.783866 0.168566 0.247443
O O6 0.630402 0.106010 0.318104
O O7 0.766958 0.025731 0.347625
O O8 0.714221 0.102617 0.923882
O O9 0.761652 0.716601 0.148587
O O10 0.591880 0.693208 0.030880
O O11 0.670379 0.809709 0.878856
O O12 0.681380 0.936889 0.664100
O O13 0.687235 0.919699 0.168760
O O14 0.475152 0.778963 0.884876
O O15 0.042325 0.594493 0.926536
O O16 0.419085 0.848581 0.232362
#
# Coordination Sequence:
#
# PCOD9345035 Si02
#       8
#     4   4   4   4   4   4   4   4
#     4  11  21  42  63  95 128 173 213 272 327 391
#     4  11  24  41  65  94 135 175 218 266 335 399
#     4  10  23  41  68 101 122 174 226 283 323 396
#     4  12  27  41  65  96 135 182 209 272 330 406
#     4  10  22  39  69  96 126 162 228 276 325 380
#     4  11  25  43  67  96 133 169 228 266 331 397
#     4  10  20  39  68  91 135 169 222 270 330 393
#     4   9  22  38  63  97 124 172 212 273 321 390
#
# _framework density 20.97813
#
# number of rings (size 3 to 8) (size 9 to 14) (size 15 to 20)
#    0.000    1.500    2.500    1.500    8.750    3.000 
#    0.000    1.250    0.000    0.000    0.000    0.000 
#    0.000    0.000    0.000    0.000    0.000    0.000 
#
# Total GULP energy -178217.379238 kJ/mol
# GULP energy per Si atom -5569.293101 kJ/mol
# Density = 2.093038 g / cm^3
# Si number density = 20.978130 Si / 1000 Ang^3
#
#
#
# Elastic Constant Matrix: (Units=GPa)
#
#
# Indices 1 2 3 4 5 6 
#
# 1 58.5327 -6.8689 10.0170 0.0000 0.0000 0.0000
# 2 -6.8689 41.3376 28.1953 0.0000 0.0000 0.0000
# 3 10.0170 28.1953 59.9613 0.0000 0.0000 0.0000
# 4 0.0000 0.0000 0.0000 22.4303 0.0000 0.0000
# 5 0.0000 0.0000 0.0000 0.0000 0.7317 0.0000
# 6 0.0000 0.0000 0.0000 0.0000 0.0000 6.9321
#
#
#
# Elastic Compliance Matrix: (Units=1/GPa)
#
#
# Indices 1 2 3 4 5 6 
#
# 1 0.019200 0.007917 -0.006930 0.000000 0.000000 0.000000
# 2 0.007917 0.038878 -0.019604 0.000000 0.000000 0.000000
# 3 -0.006930 -0.019604 0.027054 0.000000 0.000000 0.000000
# 4 0.000000 0.000000 0.000000 0.044583 0.000000 0.000000
# 5 0.000000 0.000000 0.000000 0.000000 1.366773 0.000000
# 6 0.000000 0.000000 0.000000 0.000000 0.000000 0.144257
#
#
# Mechanical properties :
#
#
# Convention : Reuss Voigt Hill
#
# Bulk Modulus (GPa) = 20.87813 24.72426 22.80120
# Shear Modulus (GPa) = 2.95169 14.58468 8.76818
#
# Velocity S-wave (km/s) = 1.18747 2.63959 2.04664
# Velocity P-wave (km/s) = 3.44297 4.59361 4.05926
#
# Compressibility (1/GPa) = 0.04789701
#
# Stress axis : x y z
#
# Youngs Moduli (GPa) = 52.08435 25.72140 36.96373
#
# Poissons Ratio (x) = -0.20365 0.25617
# Poissons Ratio (y) = -0.41237 0.72464
# Poissons Ratio (z) = 0.36097 0.50425
#
# Static dielectric constant tensor:
#      x y z
#    x 1.778530 0.000000 0.000000 
#    y 0.000000 1.777490 0.000000 
#    z 0.000000 0.000000 1.919980 
# 
# From -- ./inp_files/1538.got.cif
#   From: 2010.05.17/outbox.cif.g08.bks.cpg/sg33_1_cif.got.tgz:1538.got - 2010.06.03 17:15:25.
