data_PCOD9345612
_publ_section_title
;
Structure prediction by ZEFSAII (Michael W. Deem and Ramdas Pophale) SiO2 
 PCOD9345612
Probable space group: P N A 21
;
_chemical_formula_sum "Si O2"
_cell_formula_units_Z 32
_cell_length_a 28.177527
_cell_length_b 6.747841
_cell_length_c 8.113189
_cell_angle_alpha 90.000000
_cell_angle_beta 90.000000
_cell_angle_gamma 90.000000
_cell_volume 1542.621246
_symmetry_space_group_name_H-M "P N A 21"
_symmetry_group_IT_number 33
_symmetry_cell_setting 'orthorhombic'
loop_
_space_group_symop_operation_xyz
x,y,z
-x,-y,1/2+z
1/2-x,1/2+y,1/2+z
1/2+x,1/2-y,z
loop_
_atom_site_type_symbol
_atom_site_label
_atom_site_fract_x
_atom_site_fract_y
_atom_site_fract_z
Si Si1 0.029733 0.793839 0.331440
Si Si2 0.294793 0.636204 0.857095
Si Si3 0.050322 0.043397 0.620131
Si Si4 0.281587 0.345137 0.135248
Si Si5 0.936512 0.614927 0.869737
Si Si6 0.655362 0.034034 0.579794
Si Si7 0.354856 0.617022 0.300346
Si Si8 0.889452 0.945187 0.668642
O O1 0.029418 0.558928 0.312607
O O2 0.982409 0.902743 0.272505
O O3 0.037355 0.846616 0.522700
O O4 0.073243 0.886767 0.225020
O O5 0.262093 0.732247 0.717941
O O6 0.341781 0.540698 0.777482
O O7 0.269953 0.471701 0.971841
O O8 0.312125 0.814902 0.974294
O O9 0.041426 0.218812 0.487985
O O10 0.105087 0.044857 0.670496
O O11 0.306553 0.500225 0.260552
O O12 0.320059 0.176023 0.096350
O O13 0.913837 0.737567 0.720063
O O14 0.893714 0.522719 0.978905
O O15 0.649316 0.150139 0.753960
O O16 0.374057 0.565010 0.479884
#
# Coordination Sequence:
#
# PCOD9345612 Si02
#       8
#     4   4   4   4   4   4   4   4
#     4  11  21  39  63  87 121 164 199 246 310 357
#     4  10  24  39  60  88 123 157 207 254 302 371
#     4  10  22  37  60  88 121 156 205 251 294 367
#     4  11  23  40  63  87 120 166 203 249 317 363
#     4   9  20  39  59  84 118 157 196 244 299 355
#     4   9  20  40  60  82 119 159 197 247 301 357
#     4  10  22  40  59  90 125 158 201 256 302 365
#     4  10  22  40  60  90 125 155 202 255 301 363
#
# _framework density 20.743911000000001
#
# number of rings (size 3 to 8) (size 9 to 14) (size 15 to 20)
#    0.000    2.000    0.000    4.500    3.500    5.000 
#    2.250    2.500    0.000    0.000    0.000    0.000 
#    0.000    0.000    0.000    0.000    0.000    0.000 
#
# Total GULP energy -178741.136279 kJ/mol
# GULP energy per Si atom -5585.660509 kJ/mol
# Density = 2.069670 g / cm^3
# Si number density = 20.743911 Si / 1000 Ang^3
#
#
#
# Elastic Constant Matrix: (Units=GPa)
#
#
# Indices 1 2 3 4 5 6 
#
# 1 41.3104 1.3610 -16.7844 0.0000 0.0000 0.0000
# 2 1.3610 52.7421 3.6633 0.0000 0.0000 0.0000
# 3 -16.7844 3.6633 42.5268 0.0000 0.0000 0.0000
# 4 0.0000 0.0000 0.0000 16.4873 0.0000 0.0000
# 5 0.0000 0.0000 0.0000 0.0000 20.7748 0.0000
# 6 0.0000 0.0000 0.0000 0.0000 0.0000 23.1488
#
#
#
# Elastic Compliance Matrix: (Units=1/GPa)
#
#
# Indices 1 2 3 4 5 6 
#
# 1 0.028956 -0.001550 0.011562 0.000000 0.000000 0.000000
# 2 -0.001550 0.019157 -0.002262 0.000000 0.000000 0.000000
# 3 0.011562 -0.002262 0.028273 0.000000 0.000000 0.000000
# 4 0.000000 0.000000 0.000000 0.060653 0.000000 0.000000
# 5 0.000000 0.000000 0.000000 0.000000 0.048135 0.000000
# 6 0.000000 0.000000 0.000000 0.000000 0.000000 0.043199
#
#
# Mechanical properties :
#
#
# Convention : Reuss Voigt Hill
#
# Bulk Modulus (GPa) = 10.88327 12.56212 11.72269
# Shear Modulus (GPa) = 20.53376 21.97148 21.25262
#
# Velocity S-wave (km/s) = 3.14963 3.25803 3.20429
# Velocity P-wave (km/s) = 4.29939 4.49689 4.39925
#
# Compressibility (1/GPa) = 0.09188414
#
# Stress axis : x y z
#
# Youngs Moduli (GPa) = 34.53574 52.19940 35.36998
#
# Poissons Ratio (x) = 0.08092 -0.40894
# Poissons Ratio (y) = 0.05354 0.08001
# Poissons Ratio (z) = -0.39929 0.11808
#
# Static dielectric constant tensor:
#      x y z
#    x 1.743560 0.000000 0.000000 
#    y 0.000000 1.728080 0.000000 
#    z 0.000000 0.000000 1.757300 
# 
# From -- ./inp_files/5311.got.cif
#   From: 2010.05.17/outbox.cif.g08.bks.cpg/sg33_3_cif.got.tgz:5311.got - 2010.06.03 17:15:25.
