data_PCOD9345617
_publ_section_title
;
Structure prediction by ZEFSAII (Michael W. Deem and Ramdas Pophale) SiO2 
 PCOD9345617
Probable space group: P N A 21
;
_chemical_formula_sum "Si O2"
_cell_formula_units_Z 20
_cell_length_a 19.998758
_cell_length_b 5.563164
_cell_length_c 6.962392
_cell_angle_alpha 90.000000
_cell_angle_beta 90.000000
_cell_angle_gamma 90.000000
_cell_volume 774.610464
_symmetry_space_group_name_H-M "P N A 21"
_symmetry_group_IT_number 33
_symmetry_cell_setting 'orthorhombic'
loop_
_space_group_symop_operation_xyz
x,y,z
-x,-y,1/2+z
1/2-x,1/2+y,1/2+z
1/2+x,1/2-y,z
loop_
_atom_site_type_symbol
_atom_site_label
_atom_site_fract_x
_atom_site_fract_y
_atom_site_fract_z
Si Si1 0.400947 0.834597 0.625000
Si Si2 0.922724 0.172282 0.671367
Si Si3 0.300808 0.874309 0.277145
Si Si4 0.320298 0.376561 0.059594
Si Si5 0.539690 0.640078 0.723914
O O1 0.381856 0.573590 0.706271
O O2 0.363404 0.847567 0.423623
O O3 0.481849 0.818514 0.647064
O O4 0.387068 0.083453 0.731921
O O5 0.932989 0.190915 0.437542
O O6 0.997791 0.108850 0.738380
O O7 0.305191 0.644157 0.139895
O O8 0.232136 0.848124 0.390263
O O9 0.303781 0.140062 0.188592
O O10 0.401219 0.371418 0.071727
#
# Coordination Sequence:
#
# PCOD9345617 Si02
#       5
#     4   4   4   4   4
#     4  10  22  39  67  92 129 165 216 271 330 391
#     4  10  22  37  67  94 124 168 207 273 327 394
#     4  12  25  49  67 101 137 185 229 282 342 401
#     4  12  26  46  71  96 142 183 228 284 337 411
#     4  10  23  41  68  95 132 165 220 270 342 383
#
# _framework density 25.819429
#
# number of rings (size 3 to 8) (size 9 to 14) (size 15 to 20)
#    1.200    0.000    4.000    1.200    5.600    1.600 
#    7.200    0.000    0.000    0.000    0.000    0.000 
#    0.000    0.000    0.000    0.000    0.000    0.000 
#
# Total GULP energy -111680.120495 kJ/mol
# GULP energy per Si atom -5584.006025 kJ/mol
# Density = 2.576066 g / cm^3
# Si number density = 25.819429 Si / 1000 Ang^3
#
#
#
# Elastic Constant Matrix: (Units=GPa)
#
#
# Indices 1 2 3 4 5 6 
#
# 1 125.8061 29.8128 38.5741 0.0000 0.0000 0.0000
# 2 29.8128 152.6254 4.2093 0.0000 0.0000 0.0000
# 3 38.5741 4.2093 51.7870 0.0000 0.0000 0.0000
# 4 0.0000 0.0000 0.0000 48.3539 0.0000 0.0000
# 5 0.0000 0.0000 0.0000 0.0000 53.4488 0.0000
# 6 0.0000 0.0000 0.0000 0.0000 0.0000 594.0408
#
#
#
# Elastic Compliance Matrix: (Units=1/GPa)
#
#
# Indices 1 2 3 4 5 6 
#
# 1 0.010822 -0.001896 -0.007907 0.000000 0.000000 0.000000
# 2 -0.001896 0.006899 0.000851 0.000000 0.000000 0.000000
# 3 -0.007907 0.000851 0.025130 0.000000 0.000000 0.000000
# 4 0.000000 0.000000 0.000000 0.020681 0.000000 0.000000
# 5 0.000000 0.000000 0.000000 0.000000 0.018709 0.000000
# 6 0.000000 0.000000 0.000000 0.000000 0.000000 0.001683
#
#
# Mechanical properties :
#
#
# Convention : Reuss Voigt Hill
#
# Bulk Modulus (GPa) = 40.08259 52.82342 46.45300
# Shear Modulus (GPa) = 45.39479 156.34351 100.86915
#
# Velocity S-wave (km/s) = 4.19760 7.79000 6.25715
# Velocity P-wave (km/s) = 6.24908 10.07052 8.38052
#
# Compressibility (1/GPa) = 0.02494849
#
# Stress axis : x y z
#
# Youngs Moduli (GPa) = 92.40025 144.95181 39.79249
#
# Poissons Ratio (x) = 0.27482 0.31464
# Poissons Ratio (y) = 0.17518 -0.03388
# Poissons Ratio (z) = 0.73062 -0.12342
#
# Static dielectric constant tensor:
#      x y z
#    x 1.840960 0.000000 0.000000 
#    y 0.000000 2.060240 0.000000 
#    z 0.000000 0.000000 2.098440 
# 
# From -- ./inp_files/4894.got.cif
#   From: 2010.05.17/outbox.cif.g08.bks.cpg/sg33_3_cif.got.tgz:4894.got - 2010.06.03 17:15:25.
