data_PCOD9345301
_publ_section_title
;
Structure prediction by ZEFSAII (Michael W. Deem and Ramdas Pophale) SiO2 
 PCOD9345301
Probable space group: P N A 21
;
_chemical_formula_sum "Si O2"
_cell_formula_units_Z 28
_cell_length_a 20.554170
_cell_length_b 7.941224
_cell_length_c 6.894543
_cell_angle_alpha 90.000000
_cell_angle_beta 90.000000
_cell_angle_gamma 90.000000
_cell_volume 1125.363630
_symmetry_space_group_name_H-M "P N A 21"
_symmetry_group_IT_number 33
_symmetry_cell_setting 'orthorhombic'
loop_
_space_group_symop_operation_xyz
x,y,z
-x,-y,1/2+z
1/2-x,1/2+y,1/2+z
1/2+x,1/2-y,z
loop_
_atom_site_type_symbol
_atom_site_label
_atom_site_fract_x
_atom_site_fract_y
_atom_site_fract_z
Si Si1 0.873483 0.764604 0.856710
Si Si2 0.037817 0.413633 0.641400
Si Si3 0.348270 0.134510 0.325926
Si Si4 0.259759 0.982660 0.011939
Si Si5 0.318111 0.212020 0.730134
Si Si6 0.601664 0.614793 0.556067
Si Si7 0.964661 0.741452 0.530747
O O1 0.811375 0.651120 0.915602
O O2 0.896778 0.789257 0.633946
O O3 0.873084 0.939250 0.973544
O O4 0.935419 0.667424 0.946924
O O5 0.094588 0.524162 0.736283
O O6 0.029649 0.266576 0.797862
O O7 0.983361 0.548961 0.589515
O O8 0.342309 0.099240 0.552385
O O9 0.364843 0.323297 0.254183
O O10 0.286472 0.076847 0.203379
O O11 0.203588 0.873623 0.107601
O O12 0.258522 0.126162 0.846597
O O13 0.372740 0.253412 0.889628
O O14 0.524541 0.636057 0.587267
#
# Coordination Sequence:
#
# PCOD9345301 Si02
#       7
#     4   4   4   4   4   4   4
#     4  11  24  43  62  99 136 170 234 283 339 427
#     4  10  21  38  66  88 122 176 224 268 343 408
#     4   9  22  43  65  95 130 177 224 282 340 415
#     4  10  25  43  69  99 130 182 236 280 354 414
#     4  11  24  45  72  95 139 180 229 295 341 418
#     4  10  26  41  62 102 135 175 233 276 355 413
#     4  11  22  39  66  90 132 176 216 282 344 415
#
# _framework density 24.880845000000001
#
# number of rings (size 3 to 8) (size 9 to 14) (size 15 to 20)
#    0.000    1.714    1.429    1.714    8.000    2.286 
#    2.571    0.000    0.000    0.000    0.000    0.000 
#    0.000    0.000    0.000    0.000    0.000    0.000 
#
# Total GULP energy -156367.646977 kJ/mol
# GULP energy per Si atom -5584.558821 kJ/mol
# Density = 2.482421 g / cm^3
# Si number density = 24.880845 Si / 1000 Ang^3
#
#
#
# Elastic Constant Matrix: (Units=GPa)
#
#
# Indices 1 2 3 4 5 6 
#
# 1 23.9105 -3.6867 22.3105 0.0000 0.0000 0.0000
# 2 -3.6867 64.5398 6.4335 0.0000 0.0000 0.0000
# 3 22.3105 6.4335 125.3639 0.0000 0.0000 0.0000
# 4 0.0000 0.0000 0.0000 28.4311 0.0000 0.0000
# 5 0.0000 0.0000 0.0000 0.0000 33.5364 0.0000
# 6 0.0000 0.0000 0.0000 0.0000 0.0000 18.5801
#
#
#
# Elastic Compliance Matrix: (Units=1/GPa)
#
#
# Indices 1 2 3 4 5 6 
#
# 1 0.051082 0.003844 -0.009288 0.000000 0.000000 0.000000
# 2 0.003844 0.015863 -0.001498 0.000000 0.000000 0.000000
# 3 -0.009288 -0.001498 0.009707 0.000000 0.000000 0.000000
# 4 0.000000 0.000000 0.000000 0.035173 0.000000 0.000000
# 5 0.000000 0.000000 0.000000 0.000000 0.029818 0.000000
# 6 0.000000 0.000000 0.000000 0.000000 0.000000 0.053821
#
#
# Mechanical properties :
#
#
# Convention : Reuss Voigt Hill
#
# Bulk Modulus (GPa) = 15.93197 29.32542 22.62870
# Shear Modulus (GPa) = 21.71357 28.69334 25.20345
#
# Velocity S-wave (km/s) = 2.95736 3.39961 3.18617
# Velocity P-wave (km/s) = 4.25188 5.21744 4.75921
#
# Compressibility (1/GPa) = 0.06276686
#
# Stress axis : x y z
#
# Youngs Moduli (GPa) = 19.57643 63.03891 103.02240
#
# Poissons Ratio (x) = -0.24231 0.95688
# Poissons Ratio (y) = -0.07525 0.15434
# Poissons Ratio (z) = 0.18183 0.09444
#
# Static dielectric constant tensor:
#      x y z
#    x 1.988810 0.000000 0.000000 
#    y 0.000000 2.031090 0.000000 
#    z 0.000000 0.000000 2.011680 
# 
# From -- ./inp_files/2238.got.cif
#   From: 2010.05.17/outbox.cif.g08.bks.cpg/sg33_2_cif.got.tgz:2238.got - 2010.06.03 17:15:25.
