data_PCOD9345238
_publ_section_title
;
Structure prediction by ZEFSAII (Michael W. Deem and Ramdas Pophale) SiO2 
 PCOD9345238
Probable space group: P N A 21
;
_chemical_formula_sum "Si O2"
_cell_formula_units_Z 32
_cell_length_a 8.763507
_cell_length_b 9.962612
_cell_length_c 18.057835
_cell_angle_alpha 90.000000
_cell_angle_beta 90.000000
_cell_angle_gamma 90.000000
_cell_volume 1576.582985
_symmetry_space_group_name_H-M "P N A 21"
_symmetry_group_IT_number 33
_symmetry_cell_setting 'orthorhombic'
loop_
_space_group_symop_operation_xyz
x,y,z
-x,-y,1/2+z
1/2-x,1/2+y,1/2+z
1/2+x,1/2-y,z
loop_
_atom_site_type_symbol
_atom_site_label
_atom_site_fract_x
_atom_site_fract_y
_atom_site_fract_z
Si Si1 0.095438 0.850825 0.465060
Si Si2 0.518639 0.827049 0.691479
Si Si3 0.840609 0.561839 0.106343
Si Si4 0.682620 0.825497 0.098816
Si Si5 0.255065 0.071266 0.948914
Si Si6 0.205144 0.895494 0.632070
Si Si7 0.734105 0.886344 0.928179
Si Si8 0.594359 0.145272 0.356201
O O1 0.140242 0.702221 0.440669
O O2 0.133699 0.864237 0.552267
O O3 0.919745 0.884061 0.451970
O O4 0.199716 0.964169 0.427087
O O5 0.375890 0.834470 0.635204
O O6 0.601280 0.684001 0.689919
O O7 0.448592 0.860595 0.770603
O O8 0.637415 0.939915 0.663621
O O9 0.719951 0.677045 0.126556
O O10 0.004898 0.635726 0.101338
O O11 0.797572 0.499768 0.026817
O O12 0.772403 0.945295 0.140491
O O13 0.736644 0.834960 0.013192
O O14 0.287278 0.966513 0.883705
O O15 0.561019 0.879653 0.901274
O O16 0.835659 0.788050 0.878644
#
# Coordination Sequence:
#
# PCOD9345238 Si02
#       8
#     4   4   4   4   4   4   4   4
#     4  11  24  39  68  98 124 165 221 278 328 366
#     4  11  24  42  62  97 135 176 211 263 327 399
#     4  11  23  39  64  91 128 162 214 270 316 378
#     4  10  21  37  61  94 118 158 216 271 311 364
#     4  12  23  40  65  95 127 165 219 277 321 390
#     4  10  22  39  63  92 130 161 217 267 317 384
#     4  11  21  39  62  94 126 168 214 272 316 387
#     4  12  24  41  65  95 138 175 216 260 336 396
#
# _framework density 20.297059999999998
#
# number of rings (size 3 to 8) (size 9 to 14) (size 15 to 20)
#    0.000    1.000    3.750    3.000    5.250    0.000 
#    0.000    6.250    0.000    0.000    0.000    0.000 
#    0.000    0.000    0.000    0.000    0.000    0.000 
#
# Total GULP energy -178985.819773 kJ/mol
# GULP energy per Si atom -5593.306868 kJ/mol
# Density = 2.025086 g / cm^3
# Si number density = 20.297060 Si / 1000 Ang^3
#
#
#
# Elastic Constant Matrix: (Units=GPa)
#
#
# Indices 1 2 3 4 5 6 
#
# 1 81.2879 33.9100 4.1768 0.0000 0.0000 0.0000
# 2 33.9100 103.3431 10.9081 0.0000 0.0000 0.0000
# 3 4.1768 10.9081 20.0614 0.0000 0.0000 0.0000
# 4 0.0000 0.0000 0.0000 18.5654 0.0000 0.0000
# 5 0.0000 0.0000 0.0000 0.0000 9.9379 0.0000
# 6 0.0000 0.0000 0.0000 0.0000 0.0000 37.5393
#
#
#
# Elastic Compliance Matrix: (Units=1/GPa)
#
#
# Indices 1 2 3 4 5 6 
#
# 1 0.014257 -0.004631 -0.000451 0.000000 0.000000 0.000000
# 2 -0.004631 0.011770 -0.005436 0.000000 0.000000 0.000000
# 3 -0.000451 -0.005436 0.052896 0.000000 0.000000 0.000000
# 4 0.000000 0.000000 0.000000 0.053864 0.000000 0.000000
# 5 0.000000 0.000000 0.000000 0.000000 0.100625 0.000000
# 6 0.000000 0.000000 0.000000 0.000000 0.000000 0.026639
#
#
# Mechanical properties :
#
#
# Convention : Reuss Voigt Hill
#
# Bulk Modulus (GPa) = 17.27424 33.63136 25.45280
# Shear Modulus (GPa) = 16.64561 23.58835 20.11698
#
# Velocity S-wave (km/s) = 2.86684 3.41274 3.15163
# Velocity P-wave (km/s) = 4.41447 5.66874 5.08046
#
# Compressibility (1/GPa) = 0.05788966
#
# Stress axis : x y z
#
# Youngs Moduli (GPa) = 70.14209 84.96427 18.90490
#
# Poissons Ratio (x) = 0.39343 0.00852
# Poissons Ratio (y) = 0.32479 0.10276
# Poissons Ratio (z) = 0.03160 0.46183
#
# Static dielectric constant tensor:
#      x y z
#    x 1.720260 0.000000 0.000000 
#    y 0.000000 1.721790 0.000000 
#    z 0.000000 0.000000 1.714230 
# 
# From -- ./inp_files/8944.got.cif
#   From: 2010.05.17/outbox.cif.g08.bks.cpg/sg33_5_cif.got.tgz:8944.got - 2010.06.03 17:15:25.
