data_PCOD9345716
_publ_section_title
;
Structure prediction by ZEFSAII (Michael W. Deem and Ramdas Pophale) SiO2 
 PCOD9345716
Probable space group: P N A 21
;
_chemical_formula_sum "Si O2"
_cell_formula_units_Z 32
_cell_length_a 8.254469
_cell_length_b 15.184553
_cell_length_c 11.729727
_cell_angle_alpha 90.000000
_cell_angle_beta 90.000000
_cell_angle_gamma 90.000000
_cell_volume 1470.208932
_symmetry_space_group_name_H-M "P N A 21"
_symmetry_group_IT_number 33
_symmetry_cell_setting 'orthorhombic'
loop_
_space_group_symop_operation_xyz
x,y,z
-x,-y,1/2+z
1/2-x,1/2+y,1/2+z
1/2+x,1/2-y,z
loop_
_atom_site_type_symbol
_atom_site_label
_atom_site_fract_x
_atom_site_fract_y
_atom_site_fract_z
Si Si1 0.205708 0.949320 0.911880
Si Si2 0.258101 0.896259 0.459009
Si Si3 0.833394 0.143416 0.640343
Si Si4 0.129666 0.028027 0.288472
Si Si5 0.081003 0.268625 0.777121
Si Si6 0.869402 0.857556 0.456407
Si Si7 0.643650 0.126076 0.210197
Si Si8 0.212346 0.697327 0.681714
O O1 0.351157 0.932373 0.823706
O O2 0.049239 0.957276 0.832890
O O3 0.171140 0.874478 0.005986
O O4 0.207991 0.045946 0.969006
O O5 0.388146 0.835133 0.388227
O O6 0.302838 0.914538 0.589578
O O7 0.068426 0.859418 0.459586
O O8 0.237928 0.986277 0.388715
O O9 0.655735 0.171674 0.679050
O O10 0.937534 0.217412 0.708648
O O11 0.876417 0.049292 0.695127
O O12 0.194137 0.119487 0.243996
O O13 0.171880 0.184204 0.833947
O O14 0.790527 0.799908 0.555818
O O15 0.763844 0.207377 0.234975
O O16 0.471761 0.169061 0.185048
#
# Coordination Sequence:
#
# PCOD9345716 Si02
#       8
#     4   4   4   4   4   4   4   4
#     4  11  24  45  69  95 142 183 232 280 360 411
#     4  10  22  40  69 104 129 172 230 281 345 408
#     4  11  24  42  67 104 136 181 225 293 348 417
#     4  10  22  44  69  93 136 176 228 280 344 412
#     4  11  21  40  66 102 131 173 227 281 345 406
#     4  11  21  41  72  96 135 183 228 288 335 416
#     4  12  27  41  68 101 135 181 229 284 344 406
#     4  12  25  43  66  99 136 175 231 283 339 412
#
# _framework density 21.765613999999999
#
# number of rings (size 3 to 8) (size 9 to 14) (size 15 to 20)
#    0.000    1.000    6.250    2.250    3.500    3.000 
#    2.250    0.000    0.000    0.000    0.000    0.000 
#    0.000    0.000    0.000    0.000    0.000    0.000 
#
# Total GULP energy -178295.133935 kJ/mol
# GULP energy per Si atom -5571.722935 kJ/mol
# Density = 2.171607 g / cm^3
# Si number density = 21.765614 Si / 1000 Ang^3
#
#
#
# Elastic Constant Matrix: (Units=GPa)
#
#
# Indices 1 2 3 4 5 6 
#
# 1 -7.3727 -18.8516 2.9667 0.0000 0.0000 0.0000
# 2 -18.8516 27.7282 6.2911 0.0000 0.0000 0.0000
# 3 2.9667 6.2911 66.7116 0.0000 0.0000 0.0000
# 4 0.0000 0.0000 0.0000 -276.5342 0.0000 0.0000
# 5 0.0000 0.0000 0.0000 0.0000 13.8694 0.0000
# 6 0.0000 0.0000 0.0000 0.0000 0.0000 24.8451
#
#
#
# Elastic Compliance Matrix: (Units=1/GPa)
#
#
# Indices 1 2 3 4 5 6 
#
# 1 -0.047635 -0.033585 0.005286 0.000000 0.000000 0.000000
# 2 -0.033585 0.013174 0.000251 0.000000 0.000000 0.000000
# 3 0.005286 0.000251 0.014731 0.000000 0.000000 0.000000
# 4 0.000000 0.000000 0.000000 -0.003616 0.000000 0.000000
# 5 0.000000 0.000000 0.000000 0.000000 0.072101 0.000000
# 6 0.000000 0.000000 0.000000 0.000000 0.000000 0.040249
#
#
# Mechanical properties :
#
#
# Convention : Reuss Voigt Hill
#
# Bulk Modulus (GPa) = -13.18824 7.54219 -2.82303
# Shear Modulus (GPa) = 41.72730 -41.11987 0.30371
#
# Velocity S-wave (km/s) = 4.38324 -4.35122 0.37395
# Velocity P-wave (km/s) = 4.42094 4.66599 1.05516
#
# Compressibility (1/GPa) = -0.07582514
#
# Stress axis : x y z
#
# Youngs Moduli (GPa) = -20.99315 75.90633 67.88337
#
# Poissons Ratio (x) = 2.54928 -0.35880
# Poissons Ratio (y) = -0.70505 -0.01705
# Poissons Ratio (z) = 0.11096 -0.01907
#
# Static dielectric constant tensor:
#      x y z
#    x 1.867890 0.000000 0.000000 
#    y 0.000000 2.290570 0.000000 
#    z 0.000000 0.000000 1.819070 
# 
# From -- ./inp_files/6004.got.cif
#   From: 2010.05.17/outbox.cif.g08.bks.cpg/sg33_4_cif.got.tgz:6004.got - 2010.06.03 17:15:25.
