data_PCOD9345979
_publ_section_title
;
Structure prediction by ZEFSAII (Michael W. Deem and Ramdas Pophale) SiO2 
 PCOD9345979
Probable space group: P N A 21
;
_chemical_formula_sum "Si O2"
_cell_formula_units_Z 24
_cell_length_a 21.446288
_cell_length_b 7.379569
_cell_length_c 6.047101
_cell_angle_alpha 90.000000
_cell_angle_beta 90.000000
_cell_angle_gamma 90.000000
_cell_volume 957.040582
_symmetry_space_group_name_H-M "P N A 21"
_symmetry_group_IT_number 33
_symmetry_cell_setting 'orthorhombic'
loop_
_space_group_symop_operation_xyz
x,y,z
-x,-y,1/2+z
1/2-x,1/2+y,1/2+z
1/2+x,1/2-y,z
loop_
_atom_site_type_symbol
_atom_site_label
_atom_site_fract_x
_atom_site_fract_y
_atom_site_fract_z
Si Si1 0.736003 0.616540 0.629230
Si Si2 0.066867 0.110779 0.158401
Si Si3 0.016483 0.745487 0.306051
Si Si4 0.463209 0.137258 0.264501
Si Si5 0.835698 0.465641 0.270570
Si Si6 0.327751 0.731364 0.962797
O O1 0.786635 0.564203 0.437210
O O2 0.692175 0.440639 0.609477
O O3 0.771045 0.651358 0.860787
O O4 0.697308 0.804750 0.630198
O O5 0.133701 0.158942 0.253423
O O6 0.018000 0.219735 0.317649
O O7 0.051206 0.901551 0.177686
O O8 0.047503 0.176965 0.915851
O O9 0.057753 0.712235 0.525129
O O10 0.999854 0.549612 0.213232
O O11 0.398211 0.108834 0.390701
O O12 0.861529 0.621355 0.110649
#
# Coordination Sequence:
#
# PCOD9345979 Si02
#       6
#     4   4   4   4   4   4
#     4  10  24  41  65 101 119 178 225 268 327 391
#     4  10  24  39  62  96 131 174 214 274 332 392
#     4  10  23  37  62  90 131 165 221 259 345 391
#     4  10  23  39  63  93 129 174 212 270 335 395
#     4  11  22  41  66  91 133 171 222 275 327 394
#     4  11  22  43  66  93 135 170 224 278 326 395
#
# _framework density 25.077307999999999
#
# number of rings (size 3 to 8) (size 9 to 14) (size 15 to 20)
#    1.000    0.667    0.000    4.000    4.667    0.000 
#    0.000    8.333    0.000    0.000    0.000    0.000 
#    0.000    0.000    0.000    0.000    0.000    0.000 
#
# Total GULP energy -133852.358891 kJ/mol
# GULP energy per Si atom -5577.181620 kJ/mol
# Density = 2.502023 g / cm^3
# Si number density = 25.077308 Si / 1000 Ang^3
#
#
#
# Elastic Constant Matrix: (Units=GPa)
#
#
# Indices 1 2 3 4 5 6 
#
# 1 96.1404 41.8389 4.7845 0.0000 0.0000 0.0000
# 2 41.8389 165.6046 45.1842 0.0000 0.0000 0.0000
# 3 4.7845 45.1842 33.3203 0.0000 0.0000 0.0000
# 4 0.0000 0.0000 0.0000 53.7690 0.0000 0.0000
# 5 0.0000 0.0000 0.0000 0.0000 35.6163 0.0000
# 6 0.0000 0.0000 0.0000 0.0000 0.0000 37.6038
#
#
#
# Elastic Compliance Matrix: (Units=1/GPa)
#
#
# Indices 1 2 3 4 5 6 
#
# 1 0.011980 -0.004059 0.003784 0.000000 0.000000 0.000000
# 2 -0.004059 0.010960 -0.014280 0.000000 0.000000 0.000000
# 3 0.003784 -0.014280 0.048832 0.000000 0.000000 0.000000
# 4 0.000000 0.000000 0.000000 0.018598 0.000000 0.000000
# 5 0.000000 0.000000 0.000000 0.000000 0.028077 0.000000
# 6 0.000000 0.000000 0.000000 0.000000 0.000000 0.026593
#
#
# Mechanical properties :
#
#
# Convention : Reuss Voigt Hill
#
# Bulk Modulus (GPa) = 23.43952 53.18672 38.31312
# Shear Modulus (GPa) = 26.54343 38.94832 32.74588
#
# Velocity S-wave (km/s) = 3.25693 3.94525 3.61750
# Velocity P-wave (km/s) = 4.84878 6.48140 5.72360
#
# Compressibility (1/GPa) = 0.04266299
#
# Stress axis : x y z
#
# Youngs Moduli (GPa) = 83.47541 91.24006 20.47817
#
# Poissons Ratio (x) = 0.37035 -0.07749
# Poissons Ratio (y) = 0.33883 0.29242
# Poissons Ratio (z) = -0.31588 1.30288
#
# Static dielectric constant tensor:
#      x y z
#    x 2.000480 0.000000 0.000000 
#    y 0.000000 1.938630 0.000000 
#    z 0.000000 0.000000 2.159360 
# 
# From -- ./inp_files/5109.got.cif
#   From: 2010.05.17/outbox.cif.g08.bks.cpg/sg33_3_cif.got.tgz:5109.got - 2010.06.03 17:15:25.
