data_PCOD9345087
_publ_section_title
;
Structure prediction by ZEFSAII (Michael W. Deem and Ramdas Pophale) SiO2 
 PCOD9345087
Probable space group: P N A 21
;
_chemical_formula_sum "Si O2"
_cell_formula_units_Z 32
_cell_length_a 10.544508
_cell_length_b 8.131658
_cell_length_c 13.681323
_cell_angle_alpha 90.000000
_cell_angle_beta 90.000000
_cell_angle_gamma 90.000000
_cell_volume 1173.095913
_symmetry_space_group_name_H-M "P N A 21"
_symmetry_group_IT_number 33
_symmetry_cell_setting 'orthorhombic'
loop_
_space_group_symop_operation_xyz
x,y,z
-x,-y,1/2+z
1/2-x,1/2+y,1/2+z
1/2+x,1/2-y,z
loop_
_atom_site_type_symbol
_atom_site_label
_atom_site_fract_x
_atom_site_fract_y
_atom_site_fract_z
Si Si1 0.691922 0.762597 0.475680
Si Si2 0.405903 0.182988 0.361844
Si Si3 0.803419 0.080690 0.800486
Si Si4 0.224616 0.600659 0.046416
Si Si5 0.438282 0.661990 0.573464
Si Si6 0.563988 0.494243 0.750121
Si Si7 0.863458 0.671266 0.152163
Si Si8 0.413065 0.946154 0.712602
O O1 0.693341 0.752139 0.358967
O O2 0.737702 0.576823 0.504366
O O3 0.545874 0.764317 0.511963
O O4 0.810452 0.874504 0.511391
O O5 0.384656 0.180459 0.478686
O O6 0.367309 0.350567 0.302264
O O7 0.303371 0.046715 0.330596
O O8 0.537881 0.105981 0.319808
O O9 0.773268 0.105330 0.686986
O O10 0.939377 0.005282 0.817856
O O11 0.336728 0.733472 0.052612
O O12 0.192745 0.560479 0.161237
O O13 0.523376 0.540665 0.639009
O O14 0.384967 0.775147 0.660282
O O15 0.593093 0.301216 0.736094
O O16 0.963233 0.526535 0.160091
#
# Coordination Sequence:
#
# PCOD9345087 Si02
#       8
#     4   4   4   4   4   4   4   4
#     4  10  22  42  67  96 134 175 231 285 336 422
#     4   9  22  42  66  91 128 175 231 281 342 414
#     4  10  24  42  62  94 138 174 225 290 348 420
#     4  10  20  41  62  96 130 173 222 288 342 410
#     4  10  22  41  72  96 128 182 236 278 349 416
#     4  11  23  40  69  95 133 183 233 280 357 426
#     4  11  22  40  60  94 134 175 219 286 354 406
#     4   9  21  40  62  88 131 175 217 282 348 400
#
# _framework density 27.278247
#
# number of rings (size 3 to 8) (size 9 to 14) (size 15 to 20)
#    0.000    2.000    1.250    0.750    7.000    3.000 
#    9.000    0.000    0.000    0.000    0.000    0.000 
#    0.000    0.000    0.000    0.000    0.000    0.000 
#
# Total GULP energy -178196.011975 kJ/mol
# GULP energy per Si atom -5568.625374 kJ/mol
# Density = 2.721616 g / cm^3
# Si number density = 27.278247 Si / 1000 Ang^3
#
#
#
# Elastic Constant Matrix: (Units=GPa)
#
#
# Indices 1 2 3 4 5 6 
#
# 1 50.4037 -20.9156 -10.3551 0.0000 0.0000 0.0000
# 2 -20.9156 64.2854 16.5720 0.0000 0.0000 0.0000
# 3 -10.3551 16.5720 60.0471 0.0000 0.0000 0.0000
# 4 0.0000 0.0000 0.0000 31.9022 0.0000 0.0000
# 5 0.0000 0.0000 0.0000 0.0000 24.3016 0.0000
# 6 0.0000 0.0000 0.0000 0.0000 0.0000 39.7214
#
#
#
# Elastic Compliance Matrix: (Units=1/GPa)
#
#
# Indices 1 2 3 4 5 6 
#
# 1 0.023171 0.007007 0.002062 0.000000 0.000000 0.000000
# 2 0.007007 0.018866 -0.003998 0.000000 0.000000 0.000000
# 3 0.002062 -0.003998 0.018113 0.000000 0.000000 0.000000
# 4 0.000000 0.000000 0.000000 0.031346 0.000000 0.000000
# 5 0.000000 0.000000 0.000000 0.000000 0.041150 0.000000
# 6 0.000000 0.000000 0.000000 0.000000 0.000000 0.025175
#
#
# Mechanical properties :
#
#
# Convention : Reuss Voigt Hill
#
# Bulk Modulus (GPa) = 14.22639 16.14877 15.18758
# Shear Modulus (GPa) = 29.22104 31.81403 30.51753
#
# Velocity S-wave (km/s) = 3.27650 3.41879 3.34840
# Velocity P-wave (km/s) = 4.42047 4.63864 4.53087
#
# Compressibility (1/GPa) = 0.07029191
#
# Stress axis : x y z
#
# Youngs Moduli (GPa) = 43.15702 53.00476 55.20997
#
# Poissons Ratio (x) = -0.37142 -0.11384
# Poissons Ratio (y) = -0.30241 0.22075
# Poissons Ratio (z) = -0.08899 0.21193
#
# Static dielectric constant tensor:
#      x y z
#    x 2.276720 0.000000 0.000000 
#    y 0.000000 2.189590 0.000000 
#    z 0.000000 0.000000 2.269300 
# 
# From -- ./inp_files/7947.got.cif
#   From: 2010.05.17/outbox.cif.g08.bks.cpg/sg33_4_cif.got.tgz:7947.got - 2010.06.03 17:15:25.
