data_PCOD9345230
_publ_section_title
;
Structure prediction by ZEFSAII (Michael W. Deem and Ramdas Pophale) SiO2 
 PCOD9345230
Probable space group: P N A 21
;
_chemical_formula_sum "Si O2"
_cell_formula_units_Z 32
_cell_length_a 20.879696
_cell_length_b 9.279767
_cell_length_c 8.989154
_cell_angle_alpha 90.000000
_cell_angle_beta 90.000000
_cell_angle_gamma 90.000000
_cell_volume 1741.726918
_symmetry_space_group_name_H-M "P N A 21"
_symmetry_group_IT_number 33
_symmetry_cell_setting 'orthorhombic'
loop_
_space_group_symop_operation_xyz
x,y,z
-x,-y,1/2+z
1/2-x,1/2+y,1/2+z
1/2+x,1/2-y,z
loop_
_atom_site_type_symbol
_atom_site_label
_atom_site_fract_x
_atom_site_fract_y
_atom_site_fract_z
Si Si1 0.063699 0.066089 0.471670
Si Si2 0.935653 0.593877 0.019977
Si Si3 0.299364 0.097265 0.337911
Si Si4 0.559526 0.936507 0.824995
Si Si5 0.178767 0.901826 0.316335
Si Si6 0.806496 0.097259 0.462740
Si Si7 0.186269 0.599248 0.481830
Si Si8 0.562623 0.598883 0.782994
O O1 0.073794 0.235865 0.500451
O O2 0.996831 0.050849 0.384382
O O3 0.120824 0.999154 0.375261
O O4 0.061453 0.981739 0.626943
O O5 0.943618 0.549452 0.191563
O O6 0.874130 0.506652 0.961179
O O7 0.000316 0.548430 0.935282
O O8 0.369707 0.052305 0.396142
O O9 0.280509 0.246654 0.413752
O O10 0.307760 0.123421 0.160274
O O11 0.245795 0.977350 0.359368
O O12 0.556662 0.772063 0.763130
O O13 0.177321 0.895319 0.137573
O O14 0.175646 0.746182 0.393221
O O15 0.870692 0.071163 0.368222
O O16 0.752008 0.978854 0.435568
#
# Coordination Sequence:
#
# PCOD9345230 Si02
#       8
#     4   4   4   4   4   4   4   4
#     4  11  22  38  60  86 116 151 189 234 286 341
#     4  10  21  37  58  83 112 147 186 230 282 339
#     4   9  20  39  56  79 114 146 188 238 281 336
#     4   9  20  38  56  81 112 145 185 234 280 332
#     4  11  22  37  59  85 114 150 192 237 287 338
#     4  10  21  38  59  84 113 149 194 238 285 338
#     4  10  22  38  57  82 114 151 189 233 283 338
#     4  10  22  39  59  84 117 149 189 238 284 338
#
# _framework density 18.37257
#
# number of rings (size 3 to 8) (size 9 to 14) (size 15 to 20)
#    0.000    2.000    0.000    3.750    0.000   10.000 
#    0.000    5.000    0.000    0.000    0.000    0.000 
#    0.000    0.000    0.000    0.000    0.000    0.000 
#
# Total GULP energy -178714.947159 kJ/mol
# GULP energy per Si atom -5584.842099 kJ/mol
# Density = 1.833075 g / cm^3
# Si number density = 18.372570 Si / 1000 Ang^3
#
#
#
# Elastic Constant Matrix: (Units=GPa)
#
#
# Indices 1 2 3 4 5 6 
#
# 1 56.4374 14.4794 7.1604 0.0000 0.0000 0.0000
# 2 14.4794 37.6709 11.1397 0.0000 0.0000 0.0000
# 3 7.1604 11.1397 27.1874 0.0000 0.0000 0.0000
# 4 0.0000 0.0000 0.0000 31.3535 0.0000 0.0000
# 5 0.0000 0.0000 0.0000 0.0000 26.9973 0.0000
# 6 0.0000 0.0000 0.0000 0.0000 0.0000 -42.1535
#
#
#
# Elastic Compliance Matrix: (Units=1/GPa)
#
#
# Indices 1 2 3 4 5 6 
#
# 1 0.019792 -0.006902 -0.002385 0.000000 0.000000 0.000000
# 2 -0.006902 0.032613 -0.011545 0.000000 0.000000 0.000000
# 3 -0.002385 -0.011545 0.042140 0.000000 0.000000 0.000000
# 4 0.000000 0.000000 0.000000 0.031894 0.000000 0.000000
# 5 0.000000 0.000000 0.000000 0.000000 0.037041 0.000000
# 6 0.000000 0.000000 0.000000 0.000000 0.000000 -0.023723
#
#
# Mechanical properties :
#
#
# Convention : Reuss Voigt Hill
#
# Bulk Modulus (GPa) = 18.91016 20.76163 19.83590
# Shear Modulus (GPa) = 25.11966 9.14055 17.13010
#
# Velocity S-wave (km/s) = 3.70163 2.23291 3.05679
# Velocity P-wave (km/s) = 5.34643 4.23943 4.82479
#
# Compressibility (1/GPa) = 0.05288161
#
# Stress axis : x y z
#
# Youngs Moduli (GPa) = 50.52519 30.66301 23.73041
#
# Poissons Ratio (x) = 0.21164 0.05659
# Poissons Ratio (y) = 0.34874 0.27396
# Poissons Ratio (z) = 0.12048 0.35400
#
# Static dielectric constant tensor:
#      x y z
#    x 1.629860 0.000000 0.000000 
#    y 0.000000 1.613880 0.000000 
#    z 0.000000 0.000000 1.609120 
# 
# From -- ./inp_files/4970.got.cif
#   From: 2010.05.17/outbox.cif.g08.bks.cpg/sg33_3_cif.got.tgz:4970.got - 2010.06.03 17:15:25.
