data_PCOD9345229
_publ_section_title
;
Structure prediction by ZEFSAII (Michael W. Deem and Ramdas Pophale) SiO2 
 PCOD9345229
Probable space group: P N A 21
;
_chemical_formula_sum "Si O2"
_cell_formula_units_Z 32
_cell_length_a 8.049651
_cell_length_b 19.252590
_cell_length_c 9.559720
_cell_angle_alpha 90.000000
_cell_angle_beta 90.000000
_cell_angle_gamma 90.000000
_cell_volume 1481.533193
_symmetry_space_group_name_H-M "P N A 21"
_symmetry_group_IT_number 33
_symmetry_cell_setting 'orthorhombic'
loop_
_space_group_symop_operation_xyz
x,y,z
-x,-y,1/2+z
1/2-x,1/2+y,1/2+z
1/2+x,1/2-y,z
loop_
_atom_site_type_symbol
_atom_site_label
_atom_site_fract_x
_atom_site_fract_y
_atom_site_fract_z
Si Si1 0.745668 0.026590 0.695480
Si Si2 0.763260 0.786087 0.373441
Si Si3 0.404371 0.857472 0.374098
Si Si4 0.095630 0.357472 0.195531
Si Si5 0.745669 0.026590 0.374150
Si Si6 0.888987 0.904335 0.874252
Si Si7 0.611011 0.404336 0.695379
Si Si8 0.736741 0.286087 0.196190
O O1 0.619730 0.078517 0.771135
O O2 0.701281 0.011304 0.534815
O O3 0.924002 0.066057 0.697171
O O4 0.778046 0.957014 0.782775
O O5 0.580230 0.818485 0.362770
O O6 0.772933 0.704234 0.345153
O O7 0.874790 0.829859 0.267705
O O8 0.820731 0.795498 0.534815
O O9 0.381824 0.880979 0.534815
O O10 0.119731 0.421482 0.298495
O O11 0.227070 0.295766 0.224476
O O12 0.919772 0.318484 0.206859
O O13 0.924003 0.066058 0.372459
O O14 0.778048 0.957015 0.286855
O O15 0.874787 0.829858 0.801927
O O16 0.832982 0.902147 0.034816
#
# Coordination Sequence:
#
# PCOD9345229 Si02
#       8
#     4   4   4   4   4   4   4   4
#     4  10  21  37  58  83 111 145 184 226 273 325
#     4  10  21  37  58  83 111 145 184 226 273 325
#     4  10  21  37  58  83 111 145 184 226 273 325
#     4  10  21  37  58  83 111 145 184 226 273 325
#     4  10  21  37  58  83 111 145 184 226 273 325
#     4  10  21  37  58  83 111 145 184 226 273 325
#     4  10  21  37  58  83 111 145 184 226 273 325
#     4  10  21  37  58  83 111 145 184 226 273 325
#
# _framework density 21.599246000000001
#
# number of rings (size 3 to 8) (size 9 to 14) (size 15 to 20)
#    0.000    2.000    0.000    3.000    0.000    8.000 
#    0.000    0.000    0.000    0.000    0.000    0.000 
#    0.000    0.000    0.000    0.000    0.000    0.000 
#
# Total GULP energy -179008.603128 kJ/mol
# GULP energy per Si atom -5594.018848 kJ/mol
# Density = 2.155008 g / cm^3
# Si number density = 21.599246 Si / 1000 Ang^3
#
#
#
# Elastic Constant Matrix: (Units=GPa)
#
#
# Indices 1 2 3 4 5 6 
#
# 1 49.7487 9.8958 23.5217 0.0000 0.0000 0.0000
# 2 9.8958 58.9704 47.5416 0.0000 0.0000 0.0000
# 3 23.5217 47.5416 120.3797 0.0000 0.0000 0.0000
# 4 0.0000 0.0000 0.0000 35.7358 0.0000 0.0000
# 5 0.0000 0.0000 0.0000 0.0000 24.5820 0.0000
# 6 0.0000 0.0000 0.0000 0.0000 0.0000 39.5532
#
#
#
# Elastic Compliance Matrix: (Units=1/GPa)
#
#
# Indices 1 2 3 4 5 6 
#
# 1 0.022152 -0.000334 -0.004196 0.000000 0.000000 0.000000
# 2 -0.000334 0.024884 -0.009762 0.000000 0.000000 0.000000
# 3 -0.004196 -0.009762 0.012982 0.000000 0.000000 0.000000
# 4 0.000000 0.000000 0.000000 0.027983 0.000000 0.000000
# 5 0.000000 0.000000 0.000000 0.000000 0.040680 0.000000
# 6 0.000000 0.000000 0.000000 0.000000 0.000000 0.025282
#
#
# Mechanical properties :
#
#
# Convention : Reuss Voigt Hill
#
# Bulk Modulus (GPa) = 31.81414 43.44633 37.63024
# Shear Modulus (GPa) = 25.90319 29.85018 27.87668
#
# Velocity S-wave (km/s) = 3.46680 3.72156 3.59643
# Velocity P-wave (km/s) = 5.54853 6.21491 5.89115
#
# Compressibility (1/GPa) = 0.03143256
#
# Stress axis : x y z
#
# Youngs Moduli (GPa) = 45.14354 40.18657 77.02757
#
# Poissons Ratio (x) = 0.01343 0.32323
# Poissons Ratio (y) = 0.01509 0.75195
# Poissons Ratio (z) = 0.18944 0.39231
#
# Static dielectric constant tensor:
#      x y z
#    x 1.839580 0.000000 0.000000 
#    y 0.000000 1.746110 0.000000 
#    z 0.000000 0.000000 1.737680 
# 
# From -- ./inp_files/3531.got.cif
#   From: 2010.05.17/outbox.cif.g08.bks.cpg/sg33_2_cif.got.tgz:3531.got - 2010.06.03 17:15:25.
