data_PCOD9345248
_publ_section_title
;
Structure prediction by ZEFSAII (Michael W. Deem and Ramdas Pophale) SiO2 
 PCOD9345248
Probable space group: P N A 21
;
_chemical_formula_sum "Si O2"
_cell_formula_units_Z 32
_cell_length_a 12.821255
_cell_length_b 14.382490
_cell_length_c 7.555972
_cell_angle_alpha 90.000000
_cell_angle_beta 90.000000
_cell_angle_gamma 90.000000
_cell_volume 1393.333113
_symmetry_space_group_name_H-M "P N A 21"
_symmetry_group_IT_number 33
_symmetry_cell_setting 'orthorhombic'
loop_
_space_group_symop_operation_xyz
x,y,z
-x,-y,1/2+z
1/2-x,1/2+y,1/2+z
1/2+x,1/2-y,z
loop_
_atom_site_type_symbol
_atom_site_label
_atom_site_fract_x
_atom_site_fract_y
_atom_site_fract_z
Si Si1 0.130336 0.265918 0.478890
Si Si2 0.018944 0.844260 0.698709
Si Si3 0.240062 0.771184 0.650419
Si Si4 0.052689 0.987004 0.009001
Si Si5 0.052704 0.451494 0.528424
Si Si6 0.325689 0.579946 0.085845
Si Si7 0.648920 0.047897 0.144583
Si Si8 0.249236 0.555328 0.679658
O O1 0.230292 0.290264 0.357386
O O2 0.069121 0.344725 0.585830
O O3 0.174391 0.189210 0.612858
O O4 0.055450 0.219039 0.324862
O O5 0.118019 0.789255 0.629406
O O6 0.970498 0.901994 0.533555
O O7 0.055916 0.924762 0.834399
O O8 0.307429 0.855386 0.564051
O O9 0.258470 0.662416 0.612358
O O10 0.164116 0.984677 0.103402
O O11 0.947005 0.944835 0.092647
O O12 0.087432 0.438359 0.326165
O O13 0.136241 0.516181 0.628591
O O14 0.937291 0.492605 0.533058
O O15 0.247192 0.517145 0.194517
O O16 0.281033 0.561922 0.886512
#
# Coordination Sequence:
#
# PCOD9345248 Si02
#       8
#     4   4   4   4   4   4   4   4
#     4   9  21  39  61  93 116 173 213 248 311 397
#     4  11  21  37  68  90 124 166 215 261 317 377
#     4  10  21  37  65  90 120 168 214 253 306 397
#     4  11  19  38  61  97 121 158 211 263 315 363
#     4  11  25  41  67  91 129 171 212 263 323 386
#     4  10  21  40  66  90 124 162 214 266 312 378
#     4  11  23  42  64  93 127 166 210 264 320 382
#     4  11  23  40  66  92 123 168 215 262 314 386
#
# _framework density 22.96651
#
# number of rings (size 3 to 8) (size 9 to 14) (size 15 to 20)
#    0.000    1.500    5.000    2.250    7.000    0.000 
#    0.000    2.500    5.500    0.000    0.000    0.000 
#    0.000    0.000    0.000    0.000    0.000    0.000 
#
# Total GULP energy -178175.884370 kJ/mol
# GULP energy per Si atom -5567.996387 kJ/mol
# Density = 2.291424 g / cm^3
# Si number density = 22.966510 Si / 1000 Ang^3
#
#
#
# Elastic Constant Matrix: (Units=GPa)
#
#
# Indices 1 2 3 4 5 6 
#
# 1 106.1907 24.7079 -3.6133 0.0000 0.0000 0.0000
# 2 24.7079 120.2608 7.5398 0.0000 0.0000 0.0000
# 3 -3.6133 7.5398 19.2565 0.0000 0.0000 0.0000
# 4 0.0000 0.0000 0.0000 25.5429 0.0000 0.0000
# 5 0.0000 0.0000 0.0000 0.0000 -24.3805 0.0000
# 6 0.0000 0.0000 0.0000 0.0000 0.0000 76.7210
#
#
#
# Elastic Compliance Matrix: (Units=1/GPa)
#
#
# Indices 1 2 3 4 5 6 
#
# 1 0.010031 -0.002234 0.002757 0.000000 0.000000 0.000000
# 2 -0.002234 0.009022 -0.003952 0.000000 0.000000 0.000000
# 3 0.002757 -0.003952 0.053995 0.000000 0.000000 0.000000
# 4 0.000000 0.000000 0.000000 0.039150 0.000000 0.000000
# 5 0.000000 0.000000 0.000000 0.000000 -0.041016 0.000000
# 6 0.000000 0.000000 0.000000 0.000000 0.000000 0.013034
#
#
# Mechanical properties :
#
#
# Convention : Reuss Voigt Hill
#
# Bulk Modulus (GPa) = 15.10791 33.66409 24.38600
# Shear Modulus (GPa) = 44.19465 30.04825 37.12145
#
# Velocity S-wave (km/s) = 4.39145 3.62104 4.02472
# Velocity P-wave (km/s) = 5.68381 5.67206 5.67794
#
# Compressibility (1/GPa) = 0.06619048
#
# Stress axis : x y z
#
# Youngs Moduli (GPa) = 99.69559 110.84115 18.52019
#
# Poissons Ratio (x) = 0.24758 -0.05105
# Poissons Ratio (y) = 0.22268 0.07318
# Poissons Ratio (z) = -0.27483 0.43800
#
# Static dielectric constant tensor:
#      x y z
#    x 2.127930 0.000000 0.000000 
#    y 0.000000 2.059940 0.000000 
#    z 0.000000 0.000000 1.967770 
# 
# From -- ./inp_files/4004.got.cif
#   From: 2010.05.17/outbox.cif.g08.bks.cpg/sg33_3_cif.got.tgz:4004.got - 2010.06.03 17:15:25.
