data_PCOD9345890
_publ_section_title
;
Structure prediction by ZEFSAII (Michael W. Deem and Ramdas Pophale) SiO2 
 PCOD9345890
Probable space group: P N A 21
;
_chemical_formula_sum "Si O2"
_cell_formula_units_Z 20
_cell_length_a 17.805681
_cell_length_b 7.184687
_cell_length_c 7.312096
_cell_angle_alpha 90.000000
_cell_angle_beta 90.000000
_cell_angle_gamma 90.000000
_cell_volume 935.423607
_symmetry_space_group_name_H-M "P N A 21"
_symmetry_group_IT_number 33
_symmetry_cell_setting 'orthorhombic'
loop_
_space_group_symop_operation_xyz
x,y,z
-x,-y,1/2+z
1/2-x,1/2+y,1/2+z
1/2+x,1/2-y,z
loop_
_atom_site_type_symbol
_atom_site_label
_atom_site_fract_x
_atom_site_fract_y
_atom_site_fract_z
Si Si1 0.661049 0.496725 0.410090
Si Si2 0.438369 0.859555 0.012918
Si Si3 0.245567 0.526097 0.238194
Si Si4 0.289789 0.946576 0.160901
Si Si5 0.912564 0.347353 0.712151
O O1 0.607144 0.322450 0.446271
O O2 0.696405 0.571770 0.600887
O O3 0.732512 0.435843 0.285206
O O4 0.617440 0.660506 0.307807
O O5 0.379971 0.960270 0.154401
O O6 0.520218 0.801796 0.078068
O O7 0.447957 0.011346 0.856793
O O8 0.274781 0.738506 0.234462
O O9 0.236266 0.465698 0.448295
O O10 0.162491 0.543071 0.148705
#
# Coordination Sequence:
#
# PCOD9345890 Si02
#       5
#     4   4   4   4   4
#     4  10  22  44  68  92 128 170 218 264 322 388
#     4  10  23  41  60  97 129 167 211 263 325 376
#     4   9  20  39  64  93 120 164 218 260 317 381
#     4   9  20  39  64  93 120 164 218 260 317 381
#     4  10  23  41  60  97 129 167 211 263 325 376
#
# _framework density 21.380687000000002
#
# number of rings (size 3 to 8) (size 9 to 14) (size 15 to 20)
#    0.000    2.400    0.000    0.000    2.800   16.000 
#   21.600    0.000    0.000    0.000    0.000    0.000 
#    0.000    0.000    0.000    0.000    0.000    0.000 
#
# Total GULP energy -111494.947901 kJ/mol
# GULP energy per Si atom -5574.747395 kJ/mol
# Density = 2.133202 g / cm^3
# Si number density = 21.380687 Si / 1000 Ang^3
#
#
#
# Elastic Constant Matrix: (Units=GPa)
#
#
# Indices 1 2 3 4 5 6 
#
# 1 71.0103 16.5346 14.4855 0.0000 0.0000 0.0000
# 2 16.5346 62.2927 16.3653 0.0000 0.0000 0.0000
# 3 14.4855 16.3653 41.0195 0.0000 0.0000 0.0000
# 4 0.0000 0.0000 0.0000 30.5207 0.0000 0.0000
# 5 0.0000 0.0000 0.0000 0.0000 36.2601 0.0000
# 6 0.0000 0.0000 0.0000 0.0000 0.0000 12.2282
#
#
#
# Elastic Compliance Matrix: (Units=1/GPa)
#
#
# Indices 1 2 3 4 5 6 
#
# 1 0.015669 -0.003022 -0.004328 0.000000 0.000000 0.000000
# 2 -0.003022 0.018516 -0.006320 0.000000 0.000000 0.000000
# 3 -0.004328 -0.006320 0.028428 0.000000 0.000000 0.000000
# 4 0.000000 0.000000 0.000000 0.032765 0.000000 0.000000
# 5 0.000000 0.000000 0.000000 0.000000 0.027579 0.000000
# 6 0.000000 0.000000 0.000000 0.000000 0.000000 0.081778
#
#
# Mechanical properties :
#
#
# Convention : Reuss Voigt Hill
#
# Bulk Modulus (GPa) = 28.34963 29.89924 29.12444
# Shear Modulus (GPa) = 20.50596 24.26426 22.38511
#
# Velocity S-wave (km/s) = 3.10027 3.37244 3.23921
# Velocity P-wave (km/s) = 5.10919 5.40176 5.25751
#
# Compressibility (1/GPa) = 0.03527383
#
# Stress axis : x y z
#
# Youngs Moduli (GPa) = 63.82048 54.00805 35.17621
#
# Poissons Ratio (x) = 0.16322 0.15223
# Poissons Ratio (y) = 0.19287 0.22231
# Poissons Ratio (z) = 0.27619 0.34132
#
# Static dielectric constant tensor:
#      x y z
#    x 1.797590 0.000000 0.000000 
#    y 0.000000 1.851080 0.000000 
#    z 0.000000 0.000000 1.843120 
# 
# From -- ./inp_files/1635.got.cif
#   From: 2010.05.17/outbox.cif.g08.bks.cpg/sg33_1_cif.got.tgz:1635.got - 2010.06.03 17:15:25.
