data_PCOD9345637
_publ_section_title
;
Structure prediction by ZEFSAII (Michael W. Deem and Ramdas Pophale) SiO2 
 PCOD9345637
Probable space group: P N A 21
;
_chemical_formula_sum "Si O2"
_cell_formula_units_Z 32
_cell_length_a 7.844585
_cell_length_b 15.290257
_cell_length_c 11.347379
_cell_angle_alpha 90.000000
_cell_angle_beta 90.000000
_cell_angle_gamma 90.000000
_cell_volume 1361.069552
_symmetry_space_group_name_H-M "P N A 21"
_symmetry_group_IT_number 33
_symmetry_cell_setting 'orthorhombic'
loop_
_space_group_symop_operation_xyz
x,y,z
-x,-y,1/2+z
1/2-x,1/2+y,1/2+z
1/2+x,1/2-y,z
loop_
_atom_site_type_symbol
_atom_site_label
_atom_site_fract_x
_atom_site_fract_y
_atom_site_fract_z
Si Si1 0.958737 0.159093 0.307560
Si Si2 0.229673 0.417929 0.627800
Si Si3 0.030798 0.453210 0.213884
Si Si4 0.095176 0.061208 0.502797
Si Si5 0.418492 0.841025 0.909347
Si Si6 0.192177 0.866049 0.565378
Si Si7 0.239131 0.632188 0.221925
Si Si8 0.599868 0.693768 0.319013
O O1 0.074459 0.085809 0.366986
O O2 0.767789 0.144986 0.353255
O O3 0.942737 0.158277 0.167872
O O4 0.017678 0.247799 0.368934
O O5 0.408459 0.432304 0.562545
O O6 0.108412 0.358314 0.545682
O O7 0.271465 0.368812 0.747905
O O8 0.128989 0.506871 0.646998
O O9 0.974821 0.412826 0.338509
O O10 0.126247 0.380989 0.131656
O O11 0.156558 0.536113 0.240890
O O12 0.207415 0.127222 0.583290
O O13 0.156540 0.963355 0.518588
O O14 0.162628 0.804154 0.453933
O O15 0.412467 0.652232 0.296069
O O16 0.115873 0.710990 0.259144
#
# Coordination Sequence:
#
# PCOD9345637 Si02
#       8
#     4   4   4   4   4   4   4   4
#     4  10  22  41  61  89 130 163 214 267 322 390
#     4  10  22  38  66  94 121 168 221 267 330 390
#     4  10  23  43  63  91 134 164 221 272 330 393
#     4   9  21  40  66  89 126 169 218 268 325 395
#     4  10  23  41  63  92 124 171 214 269 326 386
#     4  10  24  39  62  96 130 169 211 267 337 394
#     4  10  22  41  62  92 128 170 216 276 320 395
#     4  11  23  39  65  97 129 170 219 268 336 387
#
# _framework density 23.510922000000001
#
# number of rings (size 3 to 8) (size 9 to 14) (size 15 to 20)
#    0.000    2.000    0.000    1.500   10.500    7.000 
#    2.250    0.000    0.000    0.000    0.000    0.000 
#    0.000    0.000    0.000    0.000    0.000    0.000 
#
# Total GULP energy -178887.189602 kJ/mol
# GULP energy per Si atom -5590.224675 kJ/mol
# Density = 2.345741 g / cm^3
# Si number density = 23.510922 Si / 1000 Ang^3
#
#
#
# Elastic Constant Matrix: (Units=GPa)
#
#
# Indices 1 2 3 4 5 6 
#
# 1 74.3227 -5.3461 9.1289 0.0000 0.0000 0.0000
# 2 -5.3461 32.8448 -5.2008 0.0000 0.0000 0.0000
# 3 9.1289 -5.2008 119.0891 0.0000 0.0000 0.0000
# 4 0.0000 0.0000 0.0000 42.6347 0.0000 0.0000
# 5 0.0000 0.0000 0.0000 0.0000 0.2085 0.0000
# 6 0.0000 0.0000 0.0000 0.0000 0.0000 16.1288
#
#
#
# Elastic Compliance Matrix: (Units=1/GPa)
#
#
# Indices 1 2 3 4 5 6 
#
# 1 0.013723 0.002081 -0.000961 0.000000 0.000000 0.000000
# 2 0.002081 0.030974 0.001193 0.000000 0.000000 0.000000
# 3 -0.000961 0.001193 0.008523 0.000000 0.000000 0.000000
# 4 0.000000 0.000000 0.000000 0.023455 0.000000 0.000000
# 5 0.000000 0.000000 0.000000 0.000000 4.796361 0.000000
# 6 0.000000 0.000000 0.000000 0.000000 0.000000 0.062001
#
#
# Mechanical properties :
#
#
# Convention : Reuss Voigt Hill
#
# Bulk Modulus (GPa) = 17.28715 24.82452 21.05584
# Shear Modulus (GPa) = 1.01016 26.97269 13.99143
#
# Velocity S-wave (km/s) = 0.65619 3.39077 2.44212
# Velocity P-wave (km/s) = 2.81832 5.09032 4.11426
#
# Compressibility (1/GPa) = 0.05784643
#
# Stress axis : x y z
#
# Youngs Moduli (GPa) = 72.87247 32.28523 117.33169
#
# Poissons Ratio (x) = -0.06720 0.11276
# Poissons Ratio (y) = -0.15168 -0.13999
# Poissons Ratio (z) = 0.07003 -0.03852
#
# Static dielectric constant tensor:
#      x y z
#    x 1.938290 0.000000 0.000000 
#    y 0.000000 1.800810 0.000000 
#    z 0.000000 0.000000 1.919800 
# 
# From -- ./inp_files/6033.got.cif
#   From: 2010.05.17/outbox.cif.g08.bks.cpg/sg33_4_cif.got.tgz:6033.got - 2010.06.03 17:15:25.
