data_PCOD9345489
_publ_section_title
;
Structure prediction by ZEFSAII (Michael W. Deem and Ramdas Pophale) SiO2 
 PCOD9345489
Probable space group: P N A 21
;
_chemical_formula_sum "Si O2"
_cell_formula_units_Z 32
_cell_length_a 10.253229
_cell_length_b 17.439782
_cell_length_c 7.504835
_cell_angle_alpha 90.000000
_cell_angle_beta 90.000000
_cell_angle_gamma 90.000000
_cell_volume 1341.970155
_symmetry_space_group_name_H-M "P N A 21"
_symmetry_group_IT_number 33
_symmetry_cell_setting 'orthorhombic'
loop_
_space_group_symop_operation_xyz
x,y,z
-x,-y,1/2+z
1/2-x,1/2+y,1/2+z
1/2+x,1/2-y,z
loop_
_atom_site_type_symbol
_atom_site_label
_atom_site_fract_x
_atom_site_fract_y
_atom_site_fract_z
Si Si1 0.251650 0.152860 0.147120
Si Si2 0.177471 0.964840 0.411853
Si Si3 0.782581 0.522778 0.055012
Si Si4 0.579230 0.967851 0.101200
Si Si5 0.747909 0.335405 0.746162
Si Si6 0.793914 0.605357 0.723574
Si Si7 0.548788 0.386395 0.460595
Si Si8 0.680641 0.733262 0.915924
O O1 0.283612 0.066754 0.089034
O O2 0.134995 0.141293 0.289270
O O3 0.351518 0.201304 0.269643
O O4 0.228519 0.189384 0.950829
O O5 0.195771 0.940435 0.210025
O O6 0.307920 0.018470 0.452753
O O7 0.056424 0.020754 0.444425
O O8 0.199906 0.896842 0.551653
O O9 0.931441 0.552610 0.060628
O O10 0.731322 0.544920 0.862322
O O11 0.639715 0.901112 0.223737
O O12 0.578489 0.056241 0.172590
O O13 0.619439 0.369454 0.649951
O O14 0.786968 0.269303 0.606129
O O15 0.798632 0.685825 0.820890
O O16 0.427712 0.330529 0.442764
#
# Coordination Sequence:
#
# PCOD9345489 Si02
#       8
#     4   4   4   4   4   4   4   4
#     4  10  22  40  64  90 130 166 209 265 325 390
#     4   8  19  35  56  86 122 150 209 259 300 371
#     4  11  18  36  64  92 119 163 206 258 324 367
#     4   9  19  36  61  89 122 154 208 261 309 373
#     4  10  21  42  62  90 130 166 208 267 323 387
#     4  10  22  38  57  91 119 157 219 253 292 390
#     4   9  20  42  60  87 126 173 203 261 331 375
#     4  11  25  41  62  95 134 165 210 270 326 381
#
# _framework density 23.845538000000001
#
# number of rings (size 3 to 8) (size 9 to 14) (size 15 to 20)
#    0.750    1.500    1.250    1.500    0.000    6.000 
#    4.500    0.000    0.000    0.000    0.000    0.000 
#    0.000    0.000    0.000    0.000    0.000    0.000 
#
# Total GULP energy -178218.521302 kJ/mol
# GULP energy per Si atom -5569.328791 kJ/mol
# Density = 2.379126 g / cm^3
# Si number density = 23.845538 Si / 1000 Ang^3
#
#
#
# Elastic Constant Matrix: (Units=GPa)
#
#
# Indices 1 2 3 4 5 6 
#
# 1 34.3797 3.7034 -9.4606 0.0000 0.0000 0.0000
# 2 3.7034 86.3019 10.7946 0.0000 0.0000 0.0000
# 3 -9.4606 10.7946 147.2546 0.0000 0.0000 0.0000
# 4 0.0000 0.0000 0.0000 38.3819 0.0000 0.0000
# 5 0.0000 0.0000 0.0000 0.0000 8.5310 0.0000
# 6 0.0000 0.0000 0.0000 0.0000 0.0000 13.1741
#
#
#
# Elastic Compliance Matrix: (Units=1/GPa)
#
#
# Indices 1 2 3 4 5 6 
#
# 1 0.029810 -0.001533 0.002028 0.000000 0.000000 0.000000
# 2 -0.001533 0.011773 -0.000962 0.000000 0.000000 0.000000
# 3 0.002028 -0.000962 0.006992 0.000000 0.000000 0.000000
# 4 0.000000 0.000000 0.000000 0.026054 0.000000 0.000000
# 5 0.000000 0.000000 0.000000 0.000000 0.117220 0.000000
# 6 0.000000 0.000000 0.000000 0.000000 0.000000 0.075907
#
#
# Mechanical properties :
#
#
# Convention : Reuss Voigt Hill
#
# Bulk Modulus (GPa) = 20.99014 30.89010 25.94012
# Shear Modulus (GPa) = 17.57040 29.54398 23.55719
#
# Velocity S-wave (km/s) = 2.71743 3.52372 3.14651
# Velocity P-wave (km/s) = 4.32060 5.43488 4.90945
#
# Compressibility (1/GPa) = 0.04764143
#
# Stress axis : x y z
#
# Youngs Moduli (GPa) = 33.54575 84.93811 143.02657
#
# Poissons Ratio (x) = 0.13020 -0.28999
# Poissons Ratio (y) = 0.05142 0.13752
# Poissons Ratio (z) = -0.06802 0.08167
#
# Static dielectric constant tensor:
#      x y z
#    x 2.004260 0.000000 0.000000 
#    y 0.000000 1.961940 0.000000 
#    z 0.000000 0.000000 1.989370 
# 
# From -- ./inp_files/4064.got.cif
#   From: 2010.05.17/outbox.cif.g08.bks.cpg/sg33_3_cif.got.tgz:4064.got - 2010.06.03 17:15:25.
