data_PCOD9345807
_publ_section_title
;
Structure prediction by ZEFSAII (Michael W. Deem and Ramdas Pophale) SiO2 
 PCOD9345807
Probable space group: P N A 21
;
_chemical_formula_sum "Si O2"
_cell_formula_units_Z 16
_cell_length_a 13.078112
_cell_length_b 5.828018
_cell_length_c 8.029108
_cell_angle_alpha 90.000000
_cell_angle_beta 90.000000
_cell_angle_gamma 90.000000
_cell_volume 611.974374
_symmetry_space_group_name_H-M "P N A 21"
_symmetry_group_IT_number 33
_symmetry_cell_setting 'orthorhombic'
loop_
_space_group_symop_operation_xyz
x,y,z
-x,-y,1/2+z
1/2-x,1/2+y,1/2+z
1/2+x,1/2-y,z
loop_
_atom_site_type_symbol
_atom_site_label
_atom_site_fract_x
_atom_site_fract_y
_atom_site_fract_z
Si Si1 0.440557 0.328400 0.963550
Si Si2 0.511982 0.941781 0.153172
Si Si3 0.639887 0.650284 0.938036
Si Si4 0.191279 0.142599 0.631869
O O1 0.430597 0.140970 0.818359
O O2 0.541265 0.485273 0.948176
O O3 0.337887 0.476509 0.976417
O O4 0.466718 0.194604 0.134982
O O5 0.584964 0.893823 0.992072
O O6 0.413603 0.780274 0.152766
O O7 0.725250 0.669419 0.083107
O O8 0.701432 0.539316 0.782793
#
# Coordination Sequence:
#
# PCOD9345807 Si02
#       4
#     4   4   4   4
#     4  10  22  44  71  98 141 184 234 290 362 421
#     4  10  22  42  69  98 142 184 231 291 350 432
#     4  10  23  44  68 104 134 185 234 294 353 429
#     4  10  23  44  68 102 137 181 239 287 361 422
#
# _framework density 26.144887000000001
#
# number of rings (size 3 to 8) (size 9 to 14) (size 15 to 20)
#    0.000    2.000    0.000    1.500    3.500    4.000 
#    9.000    0.000    0.000    0.000    0.000    0.000 
#    0.000    0.000    0.000    0.000    0.000    0.000 
#
# Total GULP energy -89094.043899 kJ/mol
# GULP energy per Si atom -5568.377744 kJ/mol
# Density = 2.608538 g / cm^3
# Si number density = 26.144887 Si / 1000 Ang^3
#
#
#
# Elastic Constant Matrix: (Units=GPa)
#
#
# Indices 1 2 3 4 5 6 
#
# 1 73.2002 -7.6892 25.1788 0.0000 0.0000 0.0000
# 2 -7.6892 65.6535 28.6616 0.0000 0.0000 0.0000
# 3 25.1788 28.6616 114.1816 0.0000 0.0000 0.0000
# 4 0.0000 0.0000 0.0000 41.0750 0.0000 0.0000
# 5 0.0000 0.0000 0.0000 0.0000 19.7349 0.0000
# 6 0.0000 0.0000 0.0000 0.0000 0.0000 2.6208
#
#
#
# Elastic Compliance Matrix: (Units=1/GPa)
#
#
# Indices 1 2 3 4 5 6 
#
# 1 0.015554 0.003728 -0.004366 0.000000 0.000000 0.000000
# 2 0.003728 0.017999 -0.005340 0.000000 0.000000 0.000000
# 3 -0.004366 -0.005340 0.011061 0.000000 0.000000 0.000000
# 4 0.000000 0.000000 0.000000 0.024346 0.000000 0.000000
# 5 0.000000 0.000000 0.000000 0.000000 0.050672 0.000000
# 6 0.000000 0.000000 0.000000 0.000000 0.000000 0.381566
#
#
# Mechanical properties :
#
#
# Convention : Reuss Voigt Hill
#
# Bulk Modulus (GPa) = 30.62001 38.37086 34.49543
# Shear Modulus (GPa) = 9.54123 26.47841 18.00982
#
# Velocity S-wave (km/s) = 1.91240 3.18584 2.62744
# Velocity P-wave (km/s) = 4.07596 5.31421 4.73573
#
# Compressibility (1/GPa) = 0.03265838
#
# Stress axis : x y z
#
# Youngs Moduli (GPa) = 64.29052 55.55764 90.40654
#
# Poissons Ratio (x) = -0.20709 0.39469
# Poissons Ratio (y) = -0.23965 0.48278
# Poissons Ratio (z) = 0.28067 0.29669
#
# Static dielectric constant tensor:
#      x y z
#    x 2.097640 0.000000 0.000000 
#    y 0.000000 2.018070 0.000000 
#    z 0.000000 0.000000 2.232280 
# 
# From -- ./inp_files/3610.got.cif
#   From: 2010.05.17/outbox.cif.g08.bks.cpg/sg33_2_cif.got.tgz:3610.got - 2010.06.03 17:15:25.
