data_PCOD9345483
_publ_section_title
;
Structure prediction by ZEFSAII (Michael W. Deem and Ramdas Pophale) SiO2 
 PCOD9345483
Probable space group: P N A 21
;
_chemical_formula_sum "Si O2"
_cell_formula_units_Z 24
_cell_length_a 16.786390
_cell_length_b 7.540554
_cell_length_c 8.158618
_cell_angle_alpha 90.000000
_cell_angle_beta 90.000000
_cell_angle_gamma 90.000000
_cell_volume 1032.707099
_symmetry_space_group_name_H-M "P N A 21"
_symmetry_group_IT_number 33
_symmetry_cell_setting 'orthorhombic'
loop_
_space_group_symop_operation_xyz
x,y,z
-x,-y,1/2+z
1/2-x,1/2+y,1/2+z
1/2+x,1/2-y,z
loop_
_atom_site_type_symbol
_atom_site_label
_atom_site_fract_x
_atom_site_fract_y
_atom_site_fract_z
Si Si1 0.934277 0.947363 0.989040
Si Si2 0.148223 0.718427 0.562474
Si Si3 0.607406 0.587621 0.122900
Si Si4 0.174041 0.252581 0.023790
Si Si5 0.091621 0.541862 0.231034
Si Si6 0.095982 0.387083 0.698918
O O1 0.905897 0.112880 0.100427
O O2 0.913465 0.014619 0.806237
O O3 0.028193 0.929353 0.014917
O O4 0.898012 0.762488 0.055932
O O5 0.233286 0.797420 0.512494
O O6 0.110325 0.602082 0.415102
O O7 0.149061 0.565187 0.696871
O O8 0.672917 0.457018 0.055060
O O9 0.628532 0.793385 0.129762
O O10 0.131315 0.362722 0.168496
O O11 0.121885 0.290293 0.864557
O O12 0.996412 0.550117 0.206356
#
# Coordination Sequence:
#
# PCOD9345483 Si02
#       6
#     4   4   4   4   4   4
#     4  10  22  42  70  97 132 172 227 270 331 407
#     4  11  26  41  66  98 137 170 221 283 340 396
#     4  10  21  41  69  98 129 176 222 274 327 407
#     4  12  26  40  68  99 138 172 222 284 344 392
#     4  10  23  46  68  94 133 178 226 270 331 422
#     4  11  24  44  71  96 131 184 224 273 339 416
#
# _framework density 23.239889000000002
#
# number of rings (size 3 to 8) (size 9 to 14) (size 15 to 20)
#    0.000    1.333    0.000    6.000    7.000    5.333 
#    0.000    0.000    0.000    0.000    0.000    0.000 
#    0.000    0.000    0.000    0.000    0.000    0.000 
#
# Total GULP energy -134127.139161 kJ/mol
# GULP energy per Si atom -5588.630798 kJ/mol
# Density = 2.318699 g / cm^3
# Si number density = 23.239889 Si / 1000 Ang^3
#
#
#
# Elastic Constant Matrix: (Units=GPa)
#
#
# Indices 1 2 3 4 5 6 
#
# 1 35.4042 12.6394 0.2408 0.0000 0.0000 0.0000
# 2 12.6394 105.6514 -10.4311 0.0000 0.0000 0.0000
# 3 0.2408 -10.4311 40.6322 0.0000 0.0000 0.0000
# 4 0.0000 0.0000 0.0000 27.2861 0.0000 0.0000
# 5 0.0000 0.0000 0.0000 0.0000 16.7343 0.0000
# 6 0.0000 0.0000 0.0000 0.0000 0.0000 19.2022
#
#
#
# Elastic Compliance Matrix: (Units=1/GPa)
#
#
# Indices 1 2 3 4 5 6 
#
# 1 0.029554 -0.003645 -0.001111 0.000000 0.000000 0.000000
# 2 -0.003645 0.010161 0.002630 0.000000 0.000000 0.000000
# 3 -0.001111 0.002630 0.025293 0.000000 0.000000 0.000000
# 4 0.000000 0.000000 0.000000 0.036649 0.000000 0.000000
# 5 0.000000 0.000000 0.000000 0.000000 0.059757 0.000000
# 6 0.000000 0.000000 0.000000 0.000000 0.000000 0.052077
#
#
# Mechanical properties :
#
#
# Convention : Reuss Voigt Hill
#
# Bulk Modulus (GPa) = 16.45944 20.73178 18.59561
# Shear Modulus (GPa) = 21.00881 24.59379 22.80130
#
# Velocity S-wave (km/s) = 3.00992 3.25662 3.13569
# Velocity P-wave (km/s) = 4.37918 4.80426 4.59664
#
# Compressibility (1/GPa) = 0.06075541
#
# Stress axis : x y z
#
# Youngs Moduli (GPa) = 33.83617 98.41678 39.53691
#
# Poissons Ratio (x) = 0.35876 0.04392
# Poissons Ratio (y) = 0.12334 -0.10399
# Poissons Ratio (z) = 0.03759 -0.25885
#
# Static dielectric constant tensor:
#      x y z
#    x 1.873610 0.000000 0.000000 
#    y 0.000000 1.912160 0.000000 
#    z 0.000000 0.000000 1.954590 
# 
# From -- ./inp_files/4685.got.cif
#   From: 2010.05.17/outbox.cif.g08.bks.cpg/sg33_3_cif.got.tgz:4685.got - 2010.06.03 17:15:25.
