data_PCOD9345227
_publ_section_title
;
Structure prediction by ZEFSAII (Michael W. Deem and Ramdas Pophale) SiO2 
 PCOD9345227
Probable space group: P N A 21
;
_chemical_formula_sum "Si O2"
_cell_formula_units_Z 32
_cell_length_a 16.362256
_cell_length_b 8.766848
_cell_length_c 9.438781
_cell_angle_alpha 90.000000
_cell_angle_beta 90.000000
_cell_angle_gamma 90.000000
_cell_volume 1353.949823
_symmetry_space_group_name_H-M "P N A 21"
_symmetry_group_IT_number 33
_symmetry_cell_setting 'orthorhombic'
loop_
_space_group_symop_operation_xyz
x,y,z
-x,-y,1/2+z
1/2-x,1/2+y,1/2+z
1/2+x,1/2-y,z
loop_
_atom_site_type_symbol
_atom_site_label
_atom_site_fract_x
_atom_site_fract_y
_atom_site_fract_z
Si Si1 0.914494 0.175865 0.745670
Si Si2 0.997309 0.322443 0.483939
Si Si3 0.997309 0.677557 0.483939
Si Si4 0.348126 0.679042 0.320419
Si Si5 0.258089 0.175935 0.081595
Si Si6 0.258089 0.824065 0.081595
Si Si7 0.348126 0.320958 0.320419
Si Si8 0.085506 0.175865 0.245670
O O1 0.979473 0.227039 0.625414
O O2 0.827231 0.188939 0.669294
O O3 0.926698 0.275501 0.886013
O O4 0.928365 0.000000 0.783439
O O5 0.998761 0.500000 0.519461
O O6 0.920366 0.281429 0.382460
O O7 0.073302 0.275500 0.386013
O O8 0.920366 0.718571 0.382460
O O9 0.979473 0.772961 0.625414
O O10 0.270446 0.711138 0.422931
O O11 0.322170 0.718849 0.161898
O O12 0.368178 0.500000 0.337743
O O13 0.322170 0.281151 0.161899
O O14 0.172769 0.188939 0.169293
O O15 0.285395 1.000000 0.090126
O O16 0.229554 0.788862 0.922931
#
# Coordination Sequence:
#
# PCOD9345227 Si02
#       8
#     4   4   4   4   4   4   4   4
#     4  10  21  39  59  81 113 149 185 227 279 333
#     4  11  22  37  58  84 113 145 186 232 276 326
#     4  11  22  37  58  84 113 145 186 232 276 326
#     4  10  21  37  57  81 111 146 183 225 276 331
#     4   9  20  37  56  80 109 142 182 226 271 326
#     4   9  20  37  56  80 109 142 182 226 271 326
#     4  10  21  37  57  81 111 146 183 225 276 331
#     4  10  21  39  59  81 113 149 185 227 279 333
#
# _framework density 23.634551999999999
#
# number of rings (size 3 to 8) (size 9 to 14) (size 15 to 20)
#    0.000    2.000    0.000    5.250    0.000    8.000 
#    0.000    5.000    0.000    0.000    0.000    0.000 
#    0.000    0.000    0.000    0.000    0.000    0.000 
#
# Total GULP energy -179125.510898 kJ/mol
# GULP energy per Si atom -5597.672216 kJ/mol
# Density = 2.358076 g / cm^3
# Si number density = 23.634552 Si / 1000 Ang^3
#
#
#
# Elastic Constant Matrix: (Units=GPa)
#
#
# Indices 1 2 3 4 5 6 
#
# 1 53.1216 3.3788 7.3004 0.0000 0.0000 0.0000
# 2 3.3788 51.7271 0.6877 0.0000 0.0000 0.0000
# 3 7.3004 0.6877 79.7360 0.0000 0.0000 0.0000
# 4 0.0000 0.0000 0.0000 35.3466 0.0000 0.0000
# 5 0.0000 0.0000 0.0000 0.0000 48.2480 0.0000
# 6 0.0000 0.0000 0.0000 0.0000 0.0000 23.8502
#
#
#
# Elastic Compliance Matrix: (Units=1/GPa)
#
#
# Indices 1 2 3 4 5 6 
#
# 1 0.019142 -0.001227 -0.001742 0.000000 0.000000 0.000000
# 2 -0.001227 0.019413 -0.000055 0.000000 0.000000 0.000000
# 3 -0.001742 -0.000055 0.012701 0.000000 0.000000 0.000000
# 4 0.000000 0.000000 0.000000 0.028291 0.000000 0.000000
# 5 0.000000 0.000000 0.000000 0.000000 0.020726 0.000000
# 6 0.000000 0.000000 0.000000 0.000000 0.000000 0.041928
#
#
# Mechanical properties :
#
#
# Convention : Reuss Voigt Hill
#
# Bulk Modulus (GPa) = 22.11993 23.03538 22.57766
# Shear Modulus (GPa) = 30.61468 33.03684 31.82576
#
# Velocity S-wave (km/s) = 3.60298 3.74280 3.67356
# Velocity P-wave (km/s) = 5.16605 5.33345 5.25042
#
# Compressibility (1/GPa) = 0.04520809
#
# Stress axis : x y z
#
# Youngs Moduli (GPa) = 52.24059 51.51160 78.73179
#
# Poissons Ratio (x) = 0.06321 0.13715
# Poissons Ratio (y) = 0.06411 0.00434
# Poissons Ratio (z) = 0.09100 0.00284
#
# Static dielectric constant tensor:
#      x y z
#    x 1.980660 0.000000 0.000000 
#    y 0.000000 1.786370 0.000000 
#    z 0.000000 0.000000 1.868710 
# 
# From -- ./inp_files/4994.got.cif
#   From: 2010.05.17/outbox.cif.g08.bks.cpg/sg33_3_cif.got.tgz:4994.got - 2010.06.03 17:15:25.
