data_PCOD9345944
_publ_section_title
;
Structure prediction by ZEFSAII (Michael W. Deem and Ramdas Pophale) SiO2 
 PCOD9345944
Probable space group: P N A 21
;
_chemical_formula_sum "Si O2"
_cell_formula_units_Z 28
_cell_length_a 10.601837
_cell_length_b 12.658114
_cell_length_c 9.745616
_cell_angle_alpha 90.000000
_cell_angle_beta 90.000000
_cell_angle_gamma 90.000000
_cell_volume 1307.854469
_symmetry_space_group_name_H-M "P N A 21"
_symmetry_group_IT_number 33
_symmetry_cell_setting 'orthorhombic'
loop_
_space_group_symop_operation_xyz
x,y,z
-x,-y,1/2+z
1/2-x,1/2+y,1/2+z
1/2+x,1/2-y,z
loop_
_atom_site_type_symbol
_atom_site_label
_atom_site_fract_x
_atom_site_fract_y
_atom_site_fract_z
Si Si1 0.609579 0.280576 0.587100
Si Si2 0.624686 0.812107 0.959095
Si Si3 0.631574 0.039104 0.011757
Si Si4 0.794718 0.558726 0.201983
Si Si5 0.997588 0.050613 0.784009
Si Si6 0.409264 0.394472 0.075803
Si Si7 0.905733 0.343723 0.137337
O O1 0.472219 0.273727 0.516833
O O2 0.725335 0.308363 0.486242
O O3 0.655471 0.165567 0.635529
O O4 0.588223 0.362838 0.711433
O O5 0.585936 0.920399 0.035282
O O6 0.602291 0.820145 0.798178
O O7 0.773504 0.052414 0.060462
O O8 0.542916 0.120140 0.088578
O O9 0.632931 0.051820 0.847747
O O10 0.647170 0.568857 0.237626
O O11 0.819996 0.449270 0.119320
O O12 0.994427 0.065039 0.948244
O O13 0.034912 0.937318 0.719146
O O14 0.383683 0.269089 0.066048
#
# Coordination Sequence:
#
# PCOD9345944 Si02
#       7
#     4   4   4   4   4   4   4
#     4  12  22  45  66 103 135 190 232 289 356 419
#     4  11  25  40  72  99 142 179 237 292 350 428
#     4  10  22  46  63 100 133 179 235 292 349 419
#     4  10  23  42  69  96 138 178 235 293 352 423
#     4  11  25  45  68 102 145 184 234 293 357 419
#     4  11  26  43  71  99 144 185 233 295 355 426
#     4  11  25  43  69 101 135 185 234 294 353 422
#
# _framework density 21.409112
#
# number of rings (size 3 to 8) (size 9 to 14) (size 15 to 20)
#    0.000    1.143    4.286    0.857    6.000    0.000 
#    0.000    0.000    0.000    0.000    0.000    0.000 
#    0.000    0.000    0.000    0.000    0.000    0.000 
#
# Total GULP energy -156234.175357 kJ/mol
# GULP energy per Si atom -5579.791977 kJ/mol
# Density = 2.136038 g / cm^3
# Si number density = 21.409112 Si / 1000 Ang^3
#
#
#
# Elastic Constant Matrix: (Units=GPa)
#
#
# Indices 1 2 3 4 5 6 
#
# 1 48.7729 18.4292 19.2325 0.0000 0.0000 0.0000
# 2 18.4292 107.8275 32.7726 0.0000 0.0000 0.0000
# 3 19.2325 32.7726 61.7702 0.0000 0.0000 0.0000
# 4 0.0000 0.0000 0.0000 21.5619 0.0000 0.0000
# 5 0.0000 0.0000 0.0000 0.0000 33.5793 0.0000
# 6 0.0000 0.0000 0.0000 0.0000 0.0000 26.7355
#
#
#
# Elastic Compliance Matrix: (Units=1/GPa)
#
#
# Indices 1 2 3 4 5 6 
#
# 1 0.023789 -0.002164 -0.006259 0.000000 0.000000 0.000000
# 2 -0.002164 0.011254 -0.005297 0.000000 0.000000 0.000000
# 3 -0.006259 -0.005297 0.020948 0.000000 0.000000 0.000000
# 4 0.000000 0.000000 0.000000 0.046378 0.000000 0.000000
# 5 0.000000 0.000000 0.000000 0.000000 0.029780 0.000000
# 6 0.000000 0.000000 0.000000 0.000000 0.000000 0.037403
#
#
# Mechanical properties :
#
#
# Convention : Reuss Voigt Hill
#
# Bulk Modulus (GPa) = 35.02425 39.91546 37.46986
# Shear Modulus (GPa) = 24.21200 26.23776 25.22488
#
# Velocity S-wave (km/s) = 3.36656 3.50457 3.43626
# Velocity P-wave (km/s) = 5.61308 5.92120 5.76920
#
# Compressibility (1/GPa) = 0.02855164
#
# Stress axis : x y z
#
# Youngs Moduli (GPa) = 42.03663 88.85851 47.73666
#
# Poissons Ratio (x) = 0.19225 0.29878
# Poissons Ratio (y) = 0.09095 0.25287
# Poissons Ratio (z) = 0.26310 0.47070
#
# Static dielectric constant tensor:
#      x y z
#    x 1.753190 0.000000 0.000000 
#    y 0.000000 1.876200 0.000000 
#    z 0.000000 0.000000 1.763620 
# 
# From -- ./inp_files/3855.got.cif
#   From: 2010.05.17/outbox.cif.g08.bks.cpg/sg33_2_cif.got.tgz:3855.got - 2010.06.03 17:15:25.
