data_PCOD9345755
_publ_section_title
;
Structure prediction by ZEFSAII (Michael W. Deem and Ramdas Pophale) SiO2 
 PCOD9345755
Probable space group: P N A 21
;
_chemical_formula_sum "Si O2"
_cell_formula_units_Z 32
_cell_length_a 20.290422
_cell_length_b 5.593551
_cell_length_c 12.364678
_cell_angle_alpha 90.000000
_cell_angle_beta 90.000000
_cell_angle_gamma 90.000000
_cell_volume 1403.335439
_symmetry_space_group_name_H-M "P N A 21"
_symmetry_group_IT_number 33
_symmetry_cell_setting 'orthorhombic'
loop_
_space_group_symop_operation_xyz
x,y,z
-x,-y,1/2+z
1/2-x,1/2+y,1/2+z
1/2+x,1/2-y,z
loop_
_atom_site_type_symbol
_atom_site_label
_atom_site_fract_x
_atom_site_fract_y
_atom_site_fract_z
Si Si1 0.232531 0.643091 0.266550
Si Si2 0.912455 0.017534 0.957028
Si Si3 0.147794 0.448514 0.088337
Si Si4 0.803972 0.360961 0.224601
Si Si5 0.947031 0.328831 0.169662
Si Si6 0.925067 0.944032 0.714731
Si Si7 0.979716 0.300124 0.550482
Si Si8 0.781364 0.202437 0.991666
O O1 0.181708 0.646190 0.166541
O O2 0.272520 0.394305 0.257139
O O3 0.203517 0.645355 0.386050
O O4 0.273058 0.892314 0.265046
O O5 0.912332 0.072238 0.828797
O O6 0.835147 0.986894 0.988832
O O7 0.965627 0.804464 0.970419
O O8 0.934772 0.208554 0.049955
O O9 0.130024 0.245628 0.177734
O O10 0.079167 0.511214 0.027932
O O11 0.205886 0.377934 0.006559
O O12 0.881901 0.340377 0.240233
O O13 0.795054 0.362443 0.095547
O O14 0.004986 0.187858 0.227090
O O15 0.975356 0.588372 0.144883
O O16 0.937476 0.095456 0.607090
#
# Coordination Sequence:
#
# PCOD9345755 Si02
#       8
#     4   4   4   4   4   4   4   4
#     4  11  25  44  69 103 138 190 234 289 364 420
#     4  10  22  41  69  99 127 187 236 288 346 434
#     4  10  24  43  66 102 141 186 231 304 352 424
#     4  10  25  44  67 101 141 178 235 295 352 419
#     4   9  22  42  62  99 129 181 224 294 348 417
#     4  10  22  42  66  95 136 178 234 285 354 420
#     4  10  22  41  69  93 143 176 234 289 358 415
#     4  10  24  43  68 100 139 182 244 290 358 423
#
# _framework density 22.802814999999999
#
# number of rings (size 3 to 8) (size 9 to 14) (size 15 to 20)
#    0.000    2.000    0.000    0.750   14.000    7.000 
#    6.750    0.000    0.000    0.000    0.000    0.000 
#    0.000    0.000    0.000    0.000    0.000    0.000 
#
# Total GULP energy -178281.203257 kJ/mol
# GULP energy per Si atom -5571.287602 kJ/mol
# Density = 2.275091 g / cm^3
# Si number density = 22.802815 Si / 1000 Ang^3
#
#
#
# Elastic Constant Matrix: (Units=GPa)
#
#
# Indices 1 2 3 4 5 6 
#
# 1 142.0812 26.9875 3.3386 0.0000 0.0000 0.0000
# 2 26.9875 64.1365 13.9639 0.0000 0.0000 0.0000
# 3 3.3386 13.9639 56.0214 0.0000 0.0000 0.0000
# 4 0.0000 0.0000 0.0000 5.4838 0.0000 0.0000
# 5 0.0000 0.0000 0.0000 0.0000 13.1811 0.0000
# 6 0.0000 0.0000 0.0000 0.0000 0.0000 8.7151
#
#
#
# Elastic Compliance Matrix: (Units=1/GPa)
#
#
# Indices 1 2 3 4 5 6 
#
# 1 0.007657 -0.003302 0.000367 0.000000 0.000000 0.000000
# 2 -0.003302 0.017910 -0.004268 0.000000 0.000000 0.000000
# 3 0.000367 -0.004268 0.018892 0.000000 0.000000 0.000000
# 4 0.000000 0.000000 0.000000 0.182354 0.000000 0.000000
# 5 0.000000 0.000000 0.000000 0.000000 0.075866 0.000000
# 6 0.000000 0.000000 0.000000 0.000000 0.000000 0.114744
#
#
# Mechanical properties :
#
#
# Convention : Reuss Voigt Hill
#
# Bulk Modulus (GPa) = 33.27338 38.97991 36.12664
# Shear Modulus (GPa) = 11.31615 20.00594 15.66104
#
# Velocity S-wave (km/s) = 2.23011 2.96521 2.62354
# Velocity P-wave (km/s) = 4.61028 5.37166 5.00547
#
# Compressibility (1/GPa) = 0.03005406
#
# Stress axis : x y z
#
# Youngs Moduli (GPa) = 130.60380 55.83419 52.93193
#
# Poissons Ratio (x) = 0.18435 -0.01941
# Poissons Ratio (y) = 0.43121 0.22589
# Poissons Ratio (z) = -0.04789 0.23827
#
# Static dielectric constant tensor:
#      x y z
#    x 1.988560 0.000000 0.000000 
#    y 0.000000 1.990820 0.000000 
#    z 0.000000 0.000000 1.874700 
# 
# From -- ./inp_files/7234.got.cif
#   From: 2010.05.17/outbox.cif.g08.bks.cpg/sg33_4_cif.got.tgz:7234.got - 2010.06.03 17:15:25.
