data_PCOD9345748
_publ_section_title
;
Structure prediction by ZEFSAII (Michael W. Deem and Ramdas Pophale) SiO2 
 PCOD9345748
Probable space group: P N A 21
;
_chemical_formula_sum "Si O2"
_cell_formula_units_Z 28
_cell_length_a 10.373836
_cell_length_b 5.801173
_cell_length_c 17.812355
_cell_angle_alpha 90.000000
_cell_angle_beta 90.000000
_cell_angle_gamma 90.000000
_cell_volume 1071.954957
_symmetry_space_group_name_H-M "P N A 21"
_symmetry_group_IT_number 33
_symmetry_cell_setting 'orthorhombic'
loop_
_space_group_symop_operation_xyz
x,y,z
-x,-y,1/2+z
1/2-x,1/2+y,1/2+z
1/2+x,1/2-y,z
loop_
_atom_site_type_symbol
_atom_site_label
_atom_site_fract_x
_atom_site_fract_y
_atom_site_fract_z
Si Si1 0.673697 0.505667 0.783720
Si Si2 0.390711 0.005290 0.987043
Si Si3 0.990554 0.904415 0.144525
Si Si4 0.212830 0.099716 0.526108
Si Si5 0.261836 0.371410 0.883332
Si Si6 0.583069 0.098747 0.120590
Si Si7 0.071117 0.251222 0.332051
O O1 0.626514 0.414364 0.704210
O O2 0.662623 0.294678 0.842742
O O3 0.822778 0.585030 0.791709
O O4 0.574767 0.713065 0.804609
O O5 0.430891 0.829597 0.919587
O O6 0.347373 0.221221 0.939552
O O7 0.271937 0.877292 0.029433
O O8 0.487322 0.085595 0.049770
O O9 0.063492 0.149492 0.156877
O O10 0.934108 0.904620 0.059218
O O11 0.057003 0.654891 0.157734
O O12 0.279009 0.926890 0.583111
O O13 0.281451 0.052125 0.445889
O O14 0.357461 0.503424 0.827852
#
# Coordination Sequence:
#
# PCOD9345748 Si02
#       7
#     4   4   4   4   4   4   4
#     4  11  27  45  71 102 147 195 246 302 380 445
#     4   9  21  41  63 104 131 180 239 301 362 431
#     4  11  27  46  66 107 141 195 245 299 367 451
#     4  10  23  41  71  99 142 185 242 307 365 438
#     4  10  22  41  67 103 139 186 240 308 368 440
#     4  11  25  42  72  97 143 185 242 297 367 433
#     4  10  25  44  70 102 143 186 244 302 371 446
#
# _framework density 26.120504
#
# number of rings (size 3 to 8) (size 9 to 14) (size 15 to 20)
#    0.000    1.714    1.429    0.000   14.000    2.286 
#    0.000    0.000    0.000    0.000    0.000    0.000 
#    0.000    0.000    0.000    0.000    0.000    0.000 
#
# Total GULP energy -156043.754169 kJ/mol
# GULP energy per Si atom -5572.991220 kJ/mol
# Density = 2.606105 g / cm^3
# Si number density = 26.120504 Si / 1000 Ang^3
#
#
#
# Elastic Constant Matrix: (Units=GPa)
#
#
# Indices 1 2 3 4 5 6 
#
# 1 75.0459 26.2008 19.5839 0.0000 0.0000 0.0000
# 2 26.2008 123.6404 7.7633 0.0000 0.0000 0.0000
# 3 19.5839 7.7633 69.8770 0.0000 0.0000 0.0000
# 4 0.0000 0.0000 0.0000 41.8910 0.0000 0.0000
# 5 0.0000 0.0000 0.0000 0.0000 33.4735 0.0000
# 6 0.0000 0.0000 0.0000 0.0000 0.0000 25.9214
#
#
#
# Elastic Compliance Matrix: (Units=1/GPa)
#
#
# Indices 1 2 3 4 5 6 
#
# 1 0.015419 -0.003017 -0.003986 0.000000 0.000000 0.000000
# 2 -0.003017 0.008735 -0.000125 0.000000 0.000000 0.000000
# 3 -0.003986 -0.000125 0.015442 0.000000 0.000000 0.000000
# 4 0.000000 0.000000 0.000000 0.023871 0.000000 0.000000
# 5 0.000000 0.000000 0.000000 0.000000 0.029874 0.000000
# 6 0.000000 0.000000 0.000000 0.000000 0.000000 0.038578
#
#
# Mechanical properties :
#
#
# Convention : Reuss Voigt Hill
#
# Bulk Modulus (GPa) = 39.46393 41.73993 40.60193
# Shear Modulus (GPa) = 32.33681 34.59155 33.46418
#
# Velocity S-wave (km/s) = 3.52232 3.64305 3.58319
# Velocity P-wave (km/s) = 5.62881 5.80605 5.71812
#
# Compressibility (1/GPa) = 0.02533960
#
# Stress axis : x y z
#
# Youngs Moduli (GPa) = 64.85609 114.47971 64.75895
#
# Poissons Ratio (x) = 0.34540 0.25814
# Poissons Ratio (y) = 0.19568 0.00809
# Poissons Ratio (z) = 0.25852 0.01430
#
# Static dielectric constant tensor:
#      x y z
#    x 2.162840 0.000000 0.000000 
#    y 0.000000 2.170820 0.000000 
#    z 0.000000 0.000000 2.217480 
# 
# From -- ./inp_files/8629.got.cif
#   From: 2010.05.17/outbox.cif.g08.bks.cpg/sg33_5_cif.got.tgz:8629.got - 2010.06.03 17:15:25.
