data_PCOD9345901
_publ_section_title
;
Structure prediction by ZEFSAII (Michael W. Deem and Ramdas Pophale) SiO2 
 PCOD9345901
Probable space group: P N A 21
;
_chemical_formula_sum "Si O2"
_cell_formula_units_Z 32
_cell_length_a 19.696823
_cell_length_b 9.064641
_cell_length_c 6.866874
_cell_angle_alpha 90.000000
_cell_angle_beta 90.000000
_cell_angle_gamma 90.000000
_cell_volume 1226.043473
_symmetry_space_group_name_H-M "P N A 21"
_symmetry_group_IT_number 33
_symmetry_cell_setting 'orthorhombic'
loop_
_space_group_symop_operation_xyz
x,y,z
-x,-y,1/2+z
1/2-x,1/2+y,1/2+z
1/2+x,1/2-y,z
loop_
_atom_site_type_symbol
_atom_site_label
_atom_site_fract_x
_atom_site_fract_y
_atom_site_fract_z
Si Si1 0.373756 0.870938 0.242350
Si Si2 0.355586 0.256074 0.567953
Si Si3 0.504951 0.715514 0.213592
Si Si4 0.840283 0.917092 0.680684
Si Si5 0.489513 0.637081 0.762479
Si Si6 0.286476 0.609150 0.107472
Si Si7 0.386235 0.187062 0.118558
Si Si8 0.248490 0.834057 0.520143
O O1 0.449785 0.825885 0.305816
O O2 0.348219 0.711804 0.163915
O O3 0.310161 0.903074 0.387341
O O4 0.383321 0.009480 0.096753
O O5 0.418886 0.216066 0.709140
O O6 0.355101 0.432601 0.571463
O O7 0.279891 0.207767 0.620327
O O8 0.368350 0.200850 0.350168
O O9 0.499704 0.541822 0.275791
O O10 0.493597 0.701898 0.979352
O O11 0.912483 0.839065 0.696982
O O12 0.786712 0.815036 0.578296
O O13 0.808078 0.947344 0.892584
O O14 0.543597 0.718709 0.621833
O O15 0.263481 0.452884 0.194571
O O16 0.327892 0.270352 0.999254
#
# Coordination Sequence:
#
# PCOD9345901 Si02
#       8
#     4   4   4   4   4   4   4   4
#     4  12  26  45  69 104 145 184 238 296 359 434
#     4  10  22  44  69  96 139 183 233 295 350 424
#     4  10  23  43  74  97 135 185 234 295 356 422
#     4  11  24  44  69 102 138 185 238 295 365 427
#     4  10  23  46  71 100 134 187 238 294 355 430
#     4  12  23  44  67 100 143 178 240 289 358 429
#     4  11  24  46  68 102 142 187 237 295 355 427
#     4  12  25  40  69 105 134 189 230 293 358 429
#
# _framework density 26.100217000000001
#
# number of rings (size 3 to 8) (size 9 to 14) (size 15 to 20)
#    0.000    1.000    3.750    2.250    7.000    2.000 
#    0.000    0.000    0.000    0.000    0.000    0.000 
#    0.000    0.000    0.000    0.000    0.000    0.000 
#
# Total GULP energy -178704.836177 kJ/mol
# GULP energy per Si atom -5584.526131 kJ/mol
# Density = 2.604081 g / cm^3
# Si number density = 26.100217 Si / 1000 Ang^3
#
#
#
# Elastic Constant Matrix: (Units=GPa)
#
#
# Indices 1 2 3 4 5 6 
#
# 1 235.3957 34.1852 27.0946 0.0000 0.0000 0.0000
# 2 34.1852 93.6354 0.8699 0.0000 0.0000 0.0000
# 3 27.0946 0.8699 36.4363 0.0000 0.0000 0.0000
# 4 0.0000 0.0000 0.0000 30.9202 0.0000 0.0000
# 5 0.0000 0.0000 0.0000 0.0000 3.8673 0.0000
# 6 0.0000 0.0000 0.0000 0.0000 0.0000 30.7314
#
#
#
# Elastic Compliance Matrix: (Units=1/GPa)
#
#
# Indices 1 2 3 4 5 6 
#
# 1 0.004920 -0.001763 -0.003617 0.000000 0.000000 0.000000
# 2 -0.001763 0.011314 0.001041 0.000000 0.000000 0.000000
# 3 -0.003617 0.001041 0.030110 0.000000 0.000000 0.000000
# 4 0.000000 0.000000 0.000000 0.032341 0.000000 0.000000
# 5 0.000000 0.000000 0.000000 0.000000 0.258582 0.000000
# 6 0.000000 0.000000 0.000000 0.000000 0.000000 0.032540
#
#
# Mechanical properties :
#
#
# Convention : Reuss Voigt Hill
#
# Bulk Modulus (GPa) = 26.54905 54.41852 40.48379
# Shear Modulus (GPa) = 12.78642 33.32496 23.05569
#
# Velocity S-wave (km/s) = 2.21576 3.57712 2.97535
# Velocity P-wave (km/s) = 4.09148 6.16086 5.22955
#
# Compressibility (1/GPa) = 0.03766613
#
# Stress axis : x y z
#
# Youngs Moduli (GPa) = 203.23236 88.38893 33.21171
#
# Poissons Ratio (x) = 0.15581 0.12012
# Poissons Ratio (y) = 0.35826 -0.03456
# Poissons Ratio (z) = 0.73506 -0.09199
#
# Static dielectric constant tensor:
#      x y z
#    x 2.517460 0.000000 0.000000 
#    y 0.000000 2.106540 0.000000 
#    z 0.000000 0.000000 2.279680 
# 
# From -- ./inp_files/5024.got.cif
#   From: 2010.05.17/outbox.cif.g08.bks.cpg/sg33_3_cif.got.tgz:5024.got - 2010.06.03 17:15:25.
