data_PCOD9345891
_publ_section_title
;
Structure prediction by ZEFSAII (Michael W. Deem and Ramdas Pophale) SiO2 
 PCOD9345891
Probable space group: P N A 21
;
_chemical_formula_sum "Si O2"
_cell_formula_units_Z 32
_cell_length_a 10.603372
_cell_length_b 16.421359
_cell_length_c 8.692100
_cell_angle_alpha 90.000000
_cell_angle_beta 90.000000
_cell_angle_gamma 90.000000
_cell_volume 1513.483908
_symmetry_space_group_name_H-M "P N A 21"
_symmetry_group_IT_number 33
_symmetry_cell_setting 'orthorhombic'
loop_
_space_group_symop_operation_xyz
x,y,z
-x,-y,1/2+z
1/2-x,1/2+y,1/2+z
1/2+x,1/2-y,z
loop_
_atom_site_type_symbol
_atom_site_label
_atom_site_fract_x
_atom_site_fract_y
_atom_site_fract_z
Si Si1 0.145647 0.043385 0.088620
Si Si2 0.421794 0.033162 0.163245
Si Si3 0.456555 0.265595 0.664826
Si Si4 0.719724 0.660267 0.375174
Si Si5 0.546114 0.803896 0.825950
Si Si6 0.981348 0.926208 0.291485
Si Si7 0.489457 0.894342 0.345635
Si Si8 0.801925 0.768417 0.658076
O O1 0.278508 0.005386 0.137516
O O2 0.156546 0.138223 0.133564
O O3 0.038896 0.994189 0.180491
O O4 0.123610 0.040809 0.905626
O O5 0.436309 0.099602 0.298827
O O6 0.511527 0.958661 0.208898
O O7 0.449698 0.079675 0.004667
O O8 0.317754 0.300574 0.709756
O O9 0.470381 0.226701 0.499242
O O10 0.546175 0.344173 0.693878
O O11 0.480156 0.196303 0.791458
O O12 0.592958 0.608333 0.404717
O O13 0.840289 0.603915 0.373671
O O14 0.754811 0.728587 0.498966
O O15 0.677319 0.766248 0.763860
O O16 0.422931 0.777298 0.728569
#
# Coordination Sequence:
#
# PCOD9345891 Si02
#       8
#     4   4   4   4   4   4   4   4
#     4  11  23  44  65 100 135 175 230 277 345 418
#     4  11  24  44  67 103 132 181 225 296 346 413
#     4  10  24  41  65  98 131 182 223 281 344 414
#     4  10  22  44  68  94 133 182 224 277 346 417
#     4  11  24  41  67 100 136 173 233 289 340 422
#     4  10  24  44  67  95 139 179 227 282 339 415
#     4  12  22  45  69  94 141 172 230 282 347 413
#     4  11  23  43  70  96 137 182 228 282 355 420
#
# _framework density 21.143270999999999
#
# number of rings (size 3 to 8) (size 9 to 14) (size 15 to 20)
#    0.750    0.500    2.500    3.750    3.500    0.000 
#    4.500    0.000    0.000    0.000    0.000    0.000 
#    0.000    0.000    0.000    0.000    0.000    0.000 
#
# Total GULP energy -178499.624196 kJ/mol
# GULP energy per Si atom -5578.113256 kJ/mol
# Density = 2.109515 g / cm^3
# Si number density = 21.143271 Si / 1000 Ang^3
#
#
#
# Elastic Constant Matrix: (Units=GPa)
#
#
# Indices 1 2 3 4 5 6 
#
# 1 44.1518 -1.4827 2.2237 0.0000 0.0000 0.0000
# 2 -1.4827 78.0360 36.5883 0.0000 0.0000 0.0000
# 3 2.2237 36.5883 95.5790 0.0000 0.0000 0.0000
# 4 0.0000 0.0000 0.0000 39.5923 0.0000 0.0000
# 5 0.0000 0.0000 0.0000 0.0000 19.7926 0.0000
# 6 0.0000 0.0000 0.0000 0.0000 0.0000 22.2878
#
#
#
# Elastic Compliance Matrix: (Units=1/GPa)
#
#
# Indices 1 2 3 4 5 6 
#
# 1 0.022720 0.000828 -0.000846 0.000000 0.000000 0.000000
# 2 0.000828 0.015648 -0.006009 0.000000 0.000000 0.000000
# 3 -0.000846 -0.006009 0.012783 0.000000 0.000000 0.000000
# 4 0.000000 0.000000 0.000000 0.025257 0.000000 0.000000
# 5 0.000000 0.000000 0.000000 0.000000 0.050524 0.000000
# 6 0.000000 0.000000 0.000000 0.000000 0.000000 0.044868
#
#
# Mechanical properties :
#
#
# Convention : Reuss Voigt Hill
#
# Bulk Modulus (GPa) = 25.57779 32.49172 29.03475
# Shear Modulus (GPa) = 25.39555 28.36372 26.87964
#
# Velocity S-wave (km/s) = 3.46947 3.66662 3.56941
# Velocity P-wave (km/s) = 5.30785 5.77289 5.54525
#
# Compressibility (1/GPa) = 0.03909642
#
# Stress axis : x y z
#
# Youngs Moduli (GPa) = 44.01497 63.90629 78.23103
#
# Poissons Ratio (x) = -0.05292 0.06615
# Poissons Ratio (y) = -0.03645 0.47012
# Poissons Ratio (z) = 0.03722 0.38404
#
# Static dielectric constant tensor:
#      x y z
#    x 1.779980 0.000000 0.000000 
#    y 0.000000 1.782350 0.000000 
#    z 0.000000 0.000000 1.757630 
# 
# From -- ./inp_files/4100.got.cif
#   From: 2010.05.17/outbox.cif.g08.bks.cpg/sg33_3_cif.got.tgz:4100.got - 2010.06.03 17:15:25.
