data_PCOD9345076
_publ_section_title
;
Structure prediction by ZEFSAII (Michael W. Deem and Ramdas Pophale) SiO2 
 PCOD9345076
Probable space group: P N A 21
;
_chemical_formula_sum "Si O2"
_cell_formula_units_Z 20
_cell_length_a 5.616779
_cell_length_b 15.564565
_cell_length_c 8.357444
_cell_angle_alpha 90.000000
_cell_angle_beta 90.000000
_cell_angle_gamma 90.000000
_cell_volume 730.630502
_symmetry_space_group_name_H-M "P N A 21"
_symmetry_group_IT_number 33
_symmetry_cell_setting 'orthorhombic'
loop_
_space_group_symop_operation_xyz
x,y,z
-x,-y,1/2+z
1/2-x,1/2+y,1/2+z
1/2+x,1/2-y,z
loop_
_atom_site_type_symbol
_atom_site_label
_atom_site_fract_x
_atom_site_fract_y
_atom_site_fract_z
Si Si1 0.821519 0.459041 0.511510
Si Si2 0.102657 0.636458 0.508263
Si Si3 0.451999 0.796326 0.853403
Si Si4 0.481482 0.555239 0.327769
Si Si5 0.643813 0.727771 0.217919
O O1 0.958972 0.547963 0.488931
O O2 0.980787 0.379275 0.461161
O O3 0.605410 0.468832 0.384691
O O4 0.717140 0.455052 0.690663
O O5 0.099833 0.711016 0.373057
O O6 0.002837 0.674723 0.670121
O O7 0.370865 0.600337 0.485959
O O8 0.173408 0.771399 0.868668
O O9 0.657928 0.627488 0.257145
O O10 0.884423 0.761870 0.138627
#
# Coordination Sequence:
#
# PCOD9345076 Si02
#       5
#     4   4   4   4   4
#     4  12  27  48  77 114 160 207 274 331 403 477
#     4  11  24  46  81 108 151 208 269 325 404 482
#     4  12  30  52  79 117 166 212 265 336 412 482
#     4  11  25  44  74 111 151 204 267 331 398 477
#     4  10  20  40  69 104 136 187 243 309 375 460
#
# _framework density 27.373618
#
# number of rings (size 3 to 8) (size 9 to 14) (size 15 to 20)
#    0.000    0.800    2.000    4.800    8.400    3.200 
#    0.000    0.000    0.000    0.000    0.000    0.000 
#    0.000    0.000    0.000    0.000    0.000    0.000 
#
# Total GULP energy -112015.674112 kJ/mol
# GULP energy per Si atom -5600.783706 kJ/mol
# Density = 2.731131 g / cm^3
# Si number density = 27.373618 Si / 1000 Ang^3
#
#
#
# Elastic Constant Matrix: (Units=GPa)
#
#
# Indices 1 2 3 4 5 6 
#
# 1 166.1511 58.2044 61.3608 0.0000 0.0000 0.0000
# 2 58.2044 136.9217 38.0947 0.0000 0.0000 0.0000
# 3 61.3608 38.0947 100.5096 0.0000 0.0000 0.0000
# 4 0.0000 0.0000 0.0000 42.6661 0.0000 0.0000
# 5 0.0000 0.0000 0.0000 0.0000 43.1644 0.0000
# 6 0.0000 0.0000 0.0000 0.0000 0.0000 63.9077
#
#
#
# Elastic Compliance Matrix: (Units=1/GPa)
#
#
# Indices 1 2 3 4 5 6 
#
# 1 0.008423 -0.002403 -0.004231 0.000000 0.000000 0.000000
# 2 -0.002403 0.008850 -0.001887 0.000000 0.000000 0.000000
# 3 -0.004231 -0.001887 0.013248 0.000000 0.000000 0.000000
# 4 0.000000 0.000000 0.000000 0.023438 0.000000 0.000000
# 5 0.000000 0.000000 0.000000 0.000000 0.023167 0.000000
# 6 0.000000 0.000000 0.000000 0.000000 0.000000 0.015648
#
#
# Mechanical properties :
#
#
# Convention : Reuss Voigt Hill
#
# Bulk Modulus (GPa) = 74.19839 79.87801 77.03820
# Shear Modulus (GPa) = 43.74067 46.34247 45.04157
#
# Velocity S-wave (km/s) = 4.00173 4.11902 4.06080
# Velocity P-wave (km/s) = 6.96537 7.20179 7.08457
#
# Compressibility (1/GPa) = 0.01347738
#
# Stress axis : x y z
#
# Youngs Moduli (GPa) = 118.71898 112.99269 75.48417
#
# Poissons Ratio (x) = 0.27156 0.31941
# Poissons Ratio (y) = 0.28533 0.14244
# Poissons Ratio (z) = 0.50235 0.21323
#
# Static dielectric constant tensor:
#      x y z
#    x 2.227780 0.000000 0.000000 
#    y 0.000000 2.086760 0.000000 
#    z 0.000000 0.000000 2.274170 
# 
# From -- ./inp_files/2643.got.cif
#   From: 2010.05.17/outbox.cif.g08.bks.cpg/sg33_2_cif.got.tgz:2643.got - 2010.06.03 17:15:25.
