data_PCOD9345687
_publ_section_title
;
Structure prediction by ZEFSAII (Michael W. Deem and Ramdas Pophale) SiO2 
 PCOD9345687
Probable space group: P N A 21
;
_chemical_formula_sum "Si O2"
_cell_formula_units_Z 32
_cell_length_a 12.208155
_cell_length_b 5.371900
_cell_length_c 20.982418
_cell_angle_alpha 90.000000
_cell_angle_beta 90.000000
_cell_angle_gamma 90.000000
_cell_volume 1376.047700
_symmetry_space_group_name_H-M "P N A 21"
_symmetry_group_IT_number 33
_symmetry_cell_setting 'orthorhombic'
loop_
_space_group_symop_operation_xyz
x,y,z
-x,-y,1/2+z
1/2-x,1/2+y,1/2+z
1/2+x,1/2-y,z
loop_
_atom_site_type_symbol
_atom_site_label
_atom_site_fract_x
_atom_site_fract_y
_atom_site_fract_z
Si Si1 0.383756 0.308486 0.831990
Si Si2 0.241642 0.931426 0.901756
Si Si3 0.899826 0.948790 0.958409
Si Si4 0.613534 0.574194 0.032290
Si Si5 0.599901 0.610545 0.673626
Si Si6 0.471550 0.891401 0.222556
Si Si7 0.280546 0.147555 0.282632
Si Si8 0.729341 0.084051 0.060126
O O1 0.442786 0.395942 0.897215
O O2 0.446453 0.140218 0.781450
O O3 0.341952 0.550177 0.793065
O O4 0.278691 0.165836 0.860462
O O5 0.353239 0.804908 0.928394
O O6 0.185542 0.742151 0.852166
O O7 0.167711 0.958202 0.962673
O O8 0.795161 0.077771 0.992559
O O9 0.986962 0.903316 0.013903
O O10 0.649032 0.319572 0.066279
O O11 0.664983 0.821660 0.063373
O O12 0.532195 0.357719 0.681087
O O13 0.687107 0.641584 0.732077
O O14 0.675890 0.609922 0.612240
O O15 0.523312 0.854606 0.681970
O O16 0.352794 0.923439 0.255531
#
# Coordination Sequence:
#
# PCOD9345687 Si02
#       8
#     4   4   4   4   4   4   4   4
#     4  11  22  39  65  98 141 164 221 277 334 405
#     4  10  22  40  63  99 140 165 216 283 329 404
#     4  10  25  39  66 102 136 176 223 274 343 395
#     4  11  25  41  71  96 128 182 221 273 339 391
#     4  10  23  46  67  91 135 175 224 276 323 393
#     4  10  24  40  67  95 126 177 217 268 337 390
#     4   9  23  38  65  97 128 174 211 269 331 392
#     4  11  24  49  66  96 138 175 231 280 318 400
#
# _framework density 23.255006000000002
#
# number of rings (size 3 to 8) (size 9 to 14) (size 15 to 20)
#    0.750    1.000    1.250    1.500   10.500    0.000 
#    2.250    0.000    0.000    0.000    0.000    0.000 
#    0.000    0.000    0.000    0.000    0.000    0.000 
#
# Total GULP energy -178552.978122 kJ/mol
# GULP energy per Si atom -5579.780566 kJ/mol
# Density = 2.320208 g / cm^3
# Si number density = 23.255006 Si / 1000 Ang^3
#
#
#
# Elastic Constant Matrix: (Units=GPa)
#
#
# Indices 1 2 3 4 5 6 
#
# 1 27.6446 16.2953 16.3980 0.0000 0.0000 0.0000
# 2 16.2953 135.1731 31.3421 0.0000 0.0000 0.0000
# 3 16.3980 31.3421 66.0385 0.0000 0.0000 0.0000
# 4 0.0000 0.0000 0.0000 27.2966 0.0000 0.0000
# 5 0.0000 0.0000 0.0000 0.0000 39.6180 0.0000
# 6 0.0000 0.0000 0.0000 0.0000 0.0000 18.5980
#
#
#
# Elastic Compliance Matrix: (Units=1/GPa)
#
#
# Indices 1 2 3 4 5 6 
#
# 1 0.043534 -0.003081 -0.009348 0.000000 0.000000 0.000000
# 2 -0.003081 0.008531 -0.003284 0.000000 0.000000 0.000000
# 3 -0.009348 -0.003284 0.019022 0.000000 0.000000 0.000000
# 4 0.000000 0.000000 0.000000 0.036635 0.000000 0.000000
# 5 0.000000 0.000000 0.000000 0.000000 0.025241 0.000000
# 6 0.000000 0.000000 0.000000 0.000000 0.000000 0.053769
#
#
# Mechanical properties :
#
#
# Convention : Reuss Voigt Hill
#
# Bulk Modulus (GPa) = 25.21261 39.65856 32.43559
# Shear Modulus (GPa) = 21.60969 28.09058 24.85014
#
# Velocity S-wave (km/s) = 3.05167 3.47931 3.27248
# Velocity P-wave (km/s) = 4.82517 5.76468 5.31572
#
# Compressibility (1/GPa) = 0.03966270
#
# Stress axis : x y z
#
# Youngs Moduli (GPa) = 22.97041 117.22392 52.56981
#
# Poissons Ratio (x) = 0.36112 0.49142
# Poissons Ratio (y) = 0.07076 0.17263
# Poissons Ratio (z) = 0.21473 0.38493
#
# Static dielectric constant tensor:
#      x y z
#    x 1.886570 0.000000 0.000000 
#    y 0.000000 1.922230 0.000000 
#    z 0.000000 0.000000 1.852620 
# 
# From -- ./inp_files/9295.got.cif
#   From: 2010.05.17/outbox.cif.g08.bks.cpg/sg33_5_cif.got.tgz:9295.got - 2010.06.03 17:15:25.
