data_PCOD9345425
_publ_section_title
;
Structure prediction by ZEFSAII (Michael W. Deem and Ramdas Pophale) SiO2 
 PCOD9345425
Probable space group: P N A 21
;
_chemical_formula_sum "Si O2"
_cell_formula_units_Z 32
_cell_length_a 9.091777
_cell_length_b 11.522996
_cell_length_c 12.662827
_cell_angle_alpha 90.000000
_cell_angle_beta 90.000000
_cell_angle_gamma 90.000000
_cell_volume 1326.614866
_symmetry_space_group_name_H-M "P N A 21"
_symmetry_group_IT_number 33
_symmetry_cell_setting 'orthorhombic'
loop_
_space_group_symop_operation_xyz
x,y,z
-x,-y,1/2+z
1/2-x,1/2+y,1/2+z
1/2+x,1/2-y,z
loop_
_atom_site_type_symbol
_atom_site_label
_atom_site_fract_x
_atom_site_fract_y
_atom_site_fract_z
Si Si1 0.154601 0.014306 0.803200
Si Si2 0.368775 0.811562 0.836814
Si Si3 0.491463 0.304866 0.957903
Si Si4 0.084771 0.046471 0.130682
Si Si5 0.229109 0.222258 0.676865
Si Si6 0.664013 0.895907 0.762711
Si Si7 0.031439 0.799491 0.038478
Si Si8 0.306715 0.874901 0.377844
O O1 0.078639 0.106454 0.880811
O O2 0.250844 0.094360 0.723962
O O3 0.256582 0.918442 0.858194
O O4 0.021327 0.962566 0.732841
O O5 0.495347 0.859556 0.759252
O O6 0.265098 0.713938 0.787848
O O7 0.458768 0.753298 0.934306
O O8 0.539644 0.180252 0.914677
O O9 0.320561 0.336313 0.957460
O O10 0.551596 0.334396 0.072208
O O11 0.255696 0.045092 0.162901
O O12 0.043480 0.938608 0.053486
O O13 0.313328 0.244259 0.568059
O O14 0.252157 0.314414 0.769618
O O15 0.060720 0.234854 0.642686
O O16 0.679740 0.989946 0.856611
#
# Coordination Sequence:
#
# PCOD9345425 Si02
#       8
#     4   4   4   4   4   4   4   4
#     4  10  24  46  70 105 152 188 239 315 369 433
#     4  12  28  44  72 107 154 196 245 307 385 444
#     4  11  25  43  75 106 144 190 250 302 371 433
#     4  11  24  47  75 101 144 201 243 304 372 447
#     4  10  21  40  72 104 139 186 248 304 354 431
#     4  12  26  46  71 101 149 197 240 306 377 436
#     4  11  23  41  71 107 138 191 256 297 358 446
#     4  11  23  45  72 105 146 191 243 311 370 432
#
# _framework density 24.121545999999999
#
# number of rings (size 3 to 8) (size 9 to 14) (size 15 to 20)
#    0.000    1.000    2.500    3.750    8.750    3.000 
#    0.000    0.000    2.750    0.000    0.000    0.000 
#    0.000    0.000    0.000    0.000    0.000    0.000 
#
# Total GULP energy -178975.137344 kJ/mol
# GULP energy per Si atom -5592.973042 kJ/mol
# Density = 2.406664 g / cm^3
# Si number density = 24.121546 Si / 1000 Ang^3
#
#
#
# Elastic Constant Matrix: (Units=GPa)
#
#
# Indices 1 2 3 4 5 6 
#
# 1 84.9931 29.9332 -0.3750 0.0000 0.0000 0.0000
# 2 29.9332 77.5239 -2.9482 0.0000 0.0000 0.0000
# 3 -0.3750 -2.9482 41.6059 0.0000 0.0000 0.0000
# 4 0.0000 0.0000 0.0000 36.3468 0.0000 0.0000
# 5 0.0000 0.0000 0.0000 0.0000 20.6420 0.0000
# 6 0.0000 0.0000 0.0000 0.0000 0.0000 36.9398
#
#
#
# Elastic Compliance Matrix: (Units=1/GPa)
#
#
# Indices 1 2 3 4 5 6 
#
# 1 0.013620 -0.005268 -0.000251 0.000000 0.000000 0.000000
# 2 -0.005268 0.014972 0.001013 0.000000 0.000000 0.000000
# 3 -0.000251 0.001013 0.024105 0.000000 0.000000 0.000000
# 4 0.000000 0.000000 0.000000 0.027513 0.000000 0.000000
# 5 0.000000 0.000000 0.000000 0.000000 0.048445 0.000000
# 6 0.000000 0.000000 0.000000 0.000000 0.000000 0.027071
#
#
# Mechanical properties :
#
#
# Convention : Reuss Voigt Hill
#
# Bulk Modulus (GPa) = 22.89087 28.59365 25.74226
# Shear Modulus (GPa) = 27.88648 30.61991 29.25320
#
# Velocity S-wave (km/s) = 3.40381 3.56673 3.48622
# Velocity P-wave (km/s) = 4.99583 5.37046 5.18653
#
# Compressibility (1/GPa) = 0.04368554
#
# Stress axis : x y z
#
# Youngs Moduli (GPa) = 73.42140 66.79129 41.48580
#
# Poissons Ratio (x) = 0.35189 0.01039
# Poissons Ratio (y) = 0.38682 -0.04204
# Poissons Ratio (z) = 0.01840 -0.06769
#
# Static dielectric constant tensor:
#      x y z
#    x 1.911430 0.000000 0.000000 
#    y 0.000000 1.939060 0.000000 
#    z 0.000000 0.000000 1.951940 
# 
# From -- ./inp_files/7626.got.cif
#   From: 2010.05.17/outbox.cif.g08.bks.cpg/sg33_4_cif.got.tgz:7626.got - 2010.06.03 17:15:25.
