data_PCOD9345854
_publ_section_title
;
Structure prediction by ZEFSAII (Michael W. Deem and Ramdas Pophale) SiO2 
 PCOD9345854
Probable space group: P N A 21
;
_chemical_formula_sum "Si O2"
_cell_formula_units_Z 28
_cell_length_a 13.535894
_cell_length_b 5.114862
_cell_length_c 18.402093
_cell_angle_alpha 90.000000
_cell_angle_beta 90.000000
_cell_angle_gamma 90.000000
_cell_volume 1274.054737
_symmetry_space_group_name_H-M "P N A 21"
_symmetry_group_IT_number 33
_symmetry_cell_setting 'orthorhombic'
loop_
_space_group_symop_operation_xyz
x,y,z
-x,-y,1/2+z
1/2-x,1/2+y,1/2+z
1/2+x,1/2-y,z
loop_
_atom_site_type_symbol
_atom_site_label
_atom_site_fract_x
_atom_site_fract_y
_atom_site_fract_z
Si Si1 0.199530 0.010971 0.393880
Si Si2 0.337028 0.026014 0.058250
Si Si3 0.190332 0.988875 0.940068
Si Si4 0.724423 0.669741 0.683687
Si Si5 0.955433 0.883943 0.152631
Si Si6 0.974654 0.088386 0.993797
Si Si7 0.655613 0.671875 0.236729
O O1 0.266452 0.771747 0.420952
O O2 0.149314 0.897610 0.321465
O O3 0.112745 0.061516 0.451933
O O4 0.268730 0.266614 0.385380
O O5 0.386602 0.849874 0.120996
O O6 0.289867 0.283670 0.096932
O O7 0.425041 0.124118 0.004814
O O8 0.244784 0.906887 0.015385
O O9 0.074736 0.031659 0.951053
O O10 0.612099 0.581381 0.699932
O O11 0.790444 0.438134 0.714610
O O12 0.776155 0.934870 0.708182
O O13 0.049140 0.811224 0.199759
O O14 0.993119 0.009193 0.077273
#
# Coordination Sequence:
#
# PCOD9345854 Si02
#       7
#     4   4   4   4   4   4   4
#     4  11  26  46  62 102 139 183 242 278 341 443
#     4  10  22  43  69 108 137 168 240 302 348 435
#     4  11  24  44  71  95 138 181 225 292 353 414
#     4  11  25  45  65 104 139 177 233 286 357 421
#     4  11  24  44  73 106 138 180 240 303 353 422
#     4  10  24  41  73 102 134 181 231 293 358 402
#     4  12  27  43  71  97 145 194 229 292 360 427
#
# _framework density 21.977074999999999
#
# number of rings (size 3 to 8) (size 9 to 14) (size 15 to 20)
#    0.000    1.143    2.857    1.714    8.000    2.286 
#    0.000    0.000    0.000    0.000    0.000    0.000 
#    0.000    0.000    0.000    0.000    0.000    0.000 
#
# Total GULP energy -156128.988259 kJ/mol
# GULP energy per Si atom -5576.035295 kJ/mol
# Density = 2.192705 g / cm^3
# Si number density = 21.977075 Si / 1000 Ang^3
#
#
#
# Elastic Constant Matrix: (Units=GPa)
#
#
# Indices 1 2 3 4 5 6 
#
# 1 75.1925 5.1343 -1.3625 0.0000 0.0000 0.0000
# 2 5.1343 92.3296 -5.3026 0.0000 0.0000 0.0000
# 3 -1.3625 -5.3026 27.3112 0.0000 0.0000 0.0000
# 4 0.0000 0.0000 0.0000 24.2055 0.0000 0.0000
# 5 0.0000 0.0000 0.0000 0.0000 19.0429 0.0000
# 6 0.0000 0.0000 0.0000 0.0000 0.0000 18.7440
#
#
#
# Elastic Compliance Matrix: (Units=1/GPa)
#
#
# Indices 1 2 3 4 5 6 
#
# 1 0.013357 -0.000712 0.000528 0.000000 0.000000 0.000000
# 2 -0.000712 0.010991 0.002098 0.000000 0.000000 0.000000
# 3 0.000528 0.002098 0.037049 0.000000 0.000000 0.000000
# 4 0.000000 0.000000 0.000000 0.041313 0.000000 0.000000
# 5 0.000000 0.000000 0.000000 0.000000 0.052513 0.000000
# 6 0.000000 0.000000 0.000000 0.000000 0.000000 0.053350
#
#
# Mechanical properties :
#
#
# Convention : Reuss Voigt Hill
#
# Bulk Modulus (GPa) = 15.33154 21.30798 18.31976
# Shear Modulus (GPa) = 22.07629 25.48941 23.78285
#
# Velocity S-wave (km/s) = 3.17285 3.40930 3.29320
# Velocity P-wave (km/s) = 4.51817 5.02140 4.77642
#
# Compressibility (1/GPa) = 0.06522501
#
# Stress axis : x y z
#
# Youngs Moduli (GPa) = 74.86483 90.98442 26.99145
#
# Poissons Ratio (x) = 0.06482 -0.01425
# Poissons Ratio (y) = 0.05334 -0.05664
# Poissons Ratio (z) = -0.03953 -0.19092
#
# Static dielectric constant tensor:
#      x y z
#    x 1.780720 0.000000 0.000000 
#    y 0.000000 1.883180 0.000000 
#    z 0.000000 0.000000 1.889430 
# 
# From -- ./inp_files/8651.got.cif
#   From: 2010.05.17/outbox.cif.g08.bks.cpg/sg33_5_cif.got.tgz:8651.got - 2010.06.03 17:15:25.
