data_PCOD9345484
_publ_section_title
;
Structure prediction by ZEFSAII (Michael W. Deem and Ramdas Pophale) SiO2 
 PCOD9345484
Probable space group: P N A 21
;
_chemical_formula_sum "Si O2"
_cell_formula_units_Z 32
_cell_length_a 13.280950
_cell_length_b 17.126206
_cell_length_c 5.211130
_cell_angle_alpha 90.000000
_cell_angle_beta 90.000000
_cell_angle_gamma 90.000000
_cell_volume 1185.283429
_symmetry_space_group_name_H-M "P N A 21"
_symmetry_group_IT_number 33
_symmetry_cell_setting 'orthorhombic'
loop_
_space_group_symop_operation_xyz
x,y,z
-x,-y,1/2+z
1/2-x,1/2+y,1/2+z
1/2+x,1/2-y,z
loop_
_atom_site_type_symbol
_atom_site_label
_atom_site_fract_x
_atom_site_fract_y
_atom_site_fract_z
Si Si1 0.556695 0.972680 0.290890
Si Si2 0.180797 0.652876 0.466114
Si Si3 0.272413 0.793742 0.288431
Si Si4 0.586372 0.237023 0.381794
Si Si5 0.976577 0.961176 0.134413
Si Si6 0.717954 0.093217 0.157865
Si Si7 0.290958 0.613069 0.938669
Si Si8 0.103993 0.824945 0.908643
O O1 0.664612 0.014205 0.237003
O O2 0.505406 0.014835 0.532041
O O3 0.576255 0.882583 0.365274
O O4 0.210265 0.743869 0.500329
O O5 0.205826 0.604836 0.724301
O O6 0.253088 0.636745 0.220528
O O7 0.381926 0.770904 0.182768
O O8 0.278685 0.885084 0.358340
O O9 0.193330 0.784653 0.061038
O O10 0.638627 0.161847 0.252659
O O11 0.641871 0.317893 0.312873
O O12 0.471298 0.256205 0.318545
O O13 0.033538 0.878814 0.091456
O O14 0.969652 0.979176 0.435779
O O15 0.867910 0.955578 0.996710
O O16 0.831244 0.112051 0.247441
#
# Coordination Sequence:
#
# PCOD9345484 Si02
#       8
#     4   4   4   4   4   4   4   4
#     4  12  31  49  71 104 146 202 248 302 377 449
#     4  11  23  45  71  99 139 189 244 303 364 438
#     4  10  23  42  74 104 141 192 245 311 370 439
#     4   9  21  44  66 104 144 179 241 306 364 435
#     4  11  25  41  64 100 146 185 232 289 373 442
#     4  11  25  45  73 103 147 190 250 304 367 446
#     4  10  21  41  69  99 136 185 232 292 365 431
#     4  10  25  41  70 107 137 190 242 307 370 432
#
# _framework density 26.997762000000002
#
# number of rings (size 3 to 8) (size 9 to 14) (size 15 to 20)
#    0.000    1.500    1.250    1.500   10.500    2.000 
#    0.000    0.000    0.000    0.000    0.000    0.000 
#    0.000    0.000    0.000    0.000    0.000    0.000 
#
# Total GULP energy -178629.233223 kJ/mol
# GULP energy per Si atom -5582.163538 kJ/mol
# Density = 2.693631 g / cm^3
# Si number density = 26.997762 Si / 1000 Ang^3
#
#
#
# Elastic Constant Matrix: (Units=GPa)
#
#
# Indices 1 2 3 4 5 6 
#
# 1 96.1044 7.3259 13.5493 0.0000 0.0000 0.0000
# 2 7.3259 88.9674 -9.7275 0.0000 0.0000 0.0000
# 3 13.5493 -9.7275 84.3764 0.0000 0.0000 0.0000
# 4 0.0000 0.0000 0.0000 35.2207 0.0000 0.0000
# 5 0.0000 0.0000 0.0000 0.0000 37.7038 0.0000
# 6 0.0000 0.0000 0.0000 0.0000 0.0000 40.6128
#
#
#
# Elastic Compliance Matrix: (Units=1/GPa)
#
#
# Indices 1 2 3 4 5 6 
#
# 1 0.010749 -0.001088 -0.001852 0.000000 0.000000 0.000000
# 2 -0.001088 0.011494 0.001500 0.000000 0.000000 0.000000
# 3 -0.001852 0.001500 0.012322 0.000000 0.000000 0.000000
# 4 0.000000 0.000000 0.000000 0.028392 0.000000 0.000000
# 5 0.000000 0.000000 0.000000 0.000000 0.026523 0.000000
# 6 0.000000 0.000000 0.000000 0.000000 0.000000 0.024623
#
#
# Mechanical properties :
#
#
# Convention : Reuss Voigt Hill
#
# Bulk Modulus (GPa) = 31.55968 32.41593 31.98780
# Shear Modulus (GPa) = 39.20239 39.92749 39.56494
#
# Velocity S-wave (km/s) = 3.81473 3.84984 3.83232
# Velocity P-wave (km/s) = 5.57835 5.63868 5.60859
#
# Compressibility (1/GPa) = 0.03168600
#
# Stress axis : x y z
#
# Youngs Moduli (GPa) = 93.02941 87.00492 81.15648
#
# Poissons Ratio (x) = 0.09462 0.15026
# Poissons Ratio (y) = 0.10118 -0.12171
# Poissons Ratio (z) = 0.17225 -0.13048
#
# Static dielectric constant tensor:
#      x y z
#    x 2.111170 0.000000 0.000000 
#    y 0.000000 2.252750 0.000000 
#    z 0.000000 0.000000 2.161660 
# 
# From -- ./inp_files/1070.got.cif
#   From: 2010.05.17/outbox.cif.g08.bks.cpg/sg33_1_cif.got.tgz:1070.got - 2010.06.03 17:15:25.
