data_PCOD9345954
_publ_section_title
;
Structure prediction by ZEFSAII (Michael W. Deem and Ramdas Pophale) SiO2 
 PCOD9345954
Probable space group: P N A 21
;
_chemical_formula_sum "Si O2"
_cell_formula_units_Z 28
_cell_length_a 21.609224
_cell_length_b 5.137534
_cell_length_c 10.342785
_cell_angle_alpha 90.000000
_cell_angle_beta 90.000000
_cell_angle_gamma 90.000000
_cell_volume 1148.236577
_symmetry_space_group_name_H-M "P N A 21"
_symmetry_group_IT_number 33
_symmetry_cell_setting 'orthorhombic'
loop_
_space_group_symop_operation_xyz
x,y,z
-x,-y,1/2+z
1/2-x,1/2+y,1/2+z
1/2+x,1/2-y,z
loop_
_atom_site_type_symbol
_atom_site_label
_atom_site_fract_x
_atom_site_fract_y
_atom_site_fract_z
Si Si1 0.128667 0.987757 0.728250
Si Si2 0.713044 0.839105 0.920835
Si Si3 0.105432 0.013980 0.446325
Si Si4 0.101520 0.366628 0.034198
Si Si5 0.961658 0.126571 0.427677
Si Si6 0.645403 0.990340 0.305816
Si Si7 0.257528 0.804056 0.202045
O O1 0.168897 0.250760 0.713936
O O2 0.166513 0.833029 0.836278
O O3 0.128985 0.893985 0.581726
O O4 0.059535 0.965332 0.783741
O O5 0.670472 0.070279 0.981908
O O6 0.754592 0.971234 0.808110
O O7 0.738801 0.690408 0.049549
O O8 0.118239 0.787316 0.345753
O O9 0.137917 0.286901 0.412185
O O10 0.033178 0.079471 0.452326
O O11 0.057635 0.578631 0.963077
O O12 0.078109 0.076997 0.011933
O O13 0.105182 0.415894 0.185189
O O14 0.715199 0.928968 0.259443
#
# Coordination Sequence:
#
# PCOD9345954 Si02
#       7
#     4   4   4   4   4   4   4
#     4  11  27  44  76 105 147 195 254 302 388 451
#     4  10  24  45  72 109 148 195 247 314 379 461
#     4  12  28  47  72 111 149 193 254 314 376 454
#     4  10  22  46  72 103 144 192 248 297 376 450
#     4  11  24  47  73 104 144 198 241 317 369 453
#     4  11  27  45  73 109 146 194 247 311 378 447
#     4  11  24  46  76 105 152 195 251 315 384 464
#
# _framework density 24.38522
#
# number of rings (size 3 to 8) (size 9 to 14) (size 15 to 20)
#    0.000    1.143    1.429    2.571   10.000    1.143 
#    0.000    0.000    0.000    0.000    0.000    0.000 
#    0.000    0.000    0.000    0.000    0.000    0.000 
#
# Total GULP energy -156386.653006 kJ/mol
# GULP energy per Si atom -5585.237607 kJ/mol
# Density = 2.432972 g / cm^3
# Si number density = 24.385220 Si / 1000 Ang^3
#
#
#
# Elastic Constant Matrix: (Units=GPa)
#
#
# Indices 1 2 3 4 5 6 
#
# 1 68.0568 16.3723 22.8813 0.0000 0.0000 0.0000
# 2 16.3723 86.3693 34.0426 0.0000 0.0000 0.0000
# 3 22.8813 34.0426 152.7569 0.0000 0.0000 0.0000
# 4 0.0000 0.0000 0.0000 25.4854 0.0000 0.0000
# 5 0.0000 0.0000 0.0000 0.0000 22.3207 0.0000
# 6 0.0000 0.0000 0.0000 0.0000 0.0000 27.4370
#
#
#
# Elastic Compliance Matrix: (Units=1/GPa)
#
#
# Indices 1 2 3 4 5 6 
#
# 1 0.015869 -0.002271 -0.001871 0.000000 0.000000 0.000000
# 2 -0.002271 0.013018 -0.002561 0.000000 0.000000 0.000000
# 3 -0.001871 -0.002561 0.007397 0.000000 0.000000 0.000000
# 4 0.000000 0.000000 0.000000 0.039238 0.000000 0.000000
# 5 0.000000 0.000000 0.000000 0.000000 0.044801 0.000000
# 6 0.000000 0.000000 0.000000 0.000000 0.000000 0.036447
#
#
# Mechanical properties :
#
#
# Convention : Reuss Voigt Hill
#
# Bulk Modulus (GPa) = 43.70827 50.41948 47.06387
# Shear Modulus (GPa) = 28.12106 30.64107 29.38107
#
# Velocity S-wave (km/s) = 3.39957 3.54862 3.47489
# Velocity P-wave (km/s) = 5.77688 6.12466 5.95331
#
# Compressibility (1/GPa) = 0.02287897
#
# Stress axis : x y z
#
# Youngs Moduli (GPa) = 63.01640 76.81644 135.18392
#
# Poissons Ratio (x) = 0.17443 0.25292
# Poissons Ratio (y) = 0.14309 0.34621
# Poissons Ratio (z) = 0.11790 0.19673
#
# Static dielectric constant tensor:
#      x y z
#    x 2.043240 0.000000 0.000000 
#    y 0.000000 1.943880 0.000000 
#    z 0.000000 0.000000 1.952250 
# 
# From -- ./inp_files/5157.got.cif
#   From: 2010.05.17/outbox.cif.g08.bks.cpg/sg33_3_cif.got.tgz:5157.got - 2010.06.03 17:15:25.
