data_PCOD9345386
_publ_section_title
;
Structure prediction by ZEFSAII (Michael W. Deem and Ramdas Pophale) SiO2 
 PCOD9345386
Probable space group: P N A 21
;
_chemical_formula_sum "Si O2"
_cell_formula_units_Z 28
_cell_length_a 13.054532
_cell_length_b 8.445460
_cell_length_c 10.748705
_cell_angle_alpha 90.000000
_cell_angle_beta 90.000000
_cell_angle_gamma 90.000000
_cell_volume 1185.061148
_symmetry_space_group_name_H-M "P N A 21"
_symmetry_group_IT_number 33
_symmetry_cell_setting 'orthorhombic'
loop_
_space_group_symop_operation_xyz
x,y,z
-x,-y,1/2+z
1/2-x,1/2+y,1/2+z
1/2+x,1/2-y,z
loop_
_atom_site_type_symbol
_atom_site_label
_atom_site_fract_x
_atom_site_fract_y
_atom_site_fract_z
Si Si1 0.209852 0.456887 0.359750
Si Si2 0.913381 0.145108 0.278214
Si Si3 0.883916 0.044125 0.742953
Si Si4 0.369164 0.948224 0.601400
Si Si5 0.320607 0.619082 0.979997
Si Si6 0.771469 0.344117 0.095706
Si Si7 0.478087 0.227577 0.550739
O O1 0.324778 0.483381 0.307895
O O2 0.128858 0.458667 0.249825
O O3 0.210426 0.272909 0.400301
O O4 0.190819 0.577162 0.469674
O O5 0.858552 0.257258 0.176685
O O6 0.940278 0.220038 0.413004
O O7 0.017989 0.071763 0.226725
O O8 0.860903 0.023083 0.890296
O O9 0.781694 0.979863 0.677754
O O10 0.914080 0.200555 0.666656
O O11 0.277183 0.058813 0.551871
O O12 0.469647 0.037279 0.553365
O O13 0.323702 0.776632 0.569031
O O14 0.411454 0.691363 0.061667
#
# Coordination Sequence:
#
# PCOD9345386 Si02
#       7
#     4   4   4   4   4   4   4
#     4  11  22  44  64  92 131 172 214 265 329 394
#     4  10  21  40  63  90 124 167 215 260 322 387
#     4  11  21  40  70  90 126 172 209 267 331 384
#     4  11  23  42  63  97 126 166 221 265 326 396
#     4  11  23  44  65  93 132 170 212 273 328 390
#     4  11  22  40  65  93 127 168 213 270 319 391
#     4  11  22  40  64  93 128 167 214 270 323 392
#
# _framework density 23.627472000000001
#
# number of rings (size 3 to 8) (size 9 to 14) (size 15 to 20)
#    0.000    1.143    5.714    1.714    2.000    1.143 
#    2.571    1.429    0.000    0.000    0.000    0.000 
#    0.000    0.000    0.000    0.000    0.000    0.000 
#
# Total GULP energy -156368.057193 kJ/mol
# GULP energy per Si atom -5584.573471 kJ/mol
# Density = 2.357370 g / cm^3
# Si number density = 23.627472 Si / 1000 Ang^3
#
#
#
# Elastic Constant Matrix: (Units=GPa)
#
#
# Indices 1 2 3 4 5 6 
#
# 1 61.3758 2.3635 8.3823 0.0000 0.0000 0.0000
# 2 2.3635 51.5623 32.2596 0.0000 0.0000 0.0000
# 3 8.3823 32.2596 77.1315 0.0000 0.0000 0.0000
# 4 0.0000 0.0000 0.0000 44.3700 0.0000 0.0000
# 5 0.0000 0.0000 0.0000 0.0000 12.9280 0.0000
# 6 0.0000 0.0000 0.0000 0.0000 0.0000 24.0862
#
#
#
# Elastic Compliance Matrix: (Units=1/GPa)
#
#
# Indices 1 2 3 4 5 6 
#
# 1 0.016548 0.000497 -0.002006 0.000000 0.000000 0.000000
# 2 0.000497 0.026282 -0.011046 0.000000 0.000000 0.000000
# 3 -0.002006 -0.011046 0.017803 0.000000 0.000000 0.000000
# 4 0.000000 0.000000 0.000000 0.022538 0.000000 0.000000
# 5 0.000000 0.000000 0.000000 0.000000 0.077351 0.000000
# 6 0.000000 0.000000 0.000000 0.000000 0.000000 0.041518
#
#
# Mechanical properties :
#
#
# Convention : Reuss Voigt Hill
#
# Bulk Modulus (GPa) = 28.15193 30.67559 29.41376
# Shear Modulus (GPa) = 20.92121 26.08112 23.50116
#
# Velocity S-wave (km/s) = 2.97890 3.32602 3.15724
# Velocity P-wave (km/s) = 4.87571 5.26888 5.07610
#
# Compressibility (1/GPa) = 0.03552154
#
# Stress axis : x y z
#
# Youngs Moduli (GPa) = 60.43056 38.04838 56.17056
#
# Poissons Ratio (x) = -0.01889 0.11268
# Poissons Ratio (y) = -0.03001 0.62048
# Poissons Ratio (z) = 0.12123 0.42030
#
# Static dielectric constant tensor:
#      x y z
#    x 1.952890 0.000000 0.000000 
#    y 0.000000 1.923840 0.000000 
#    z 0.000000 0.000000 1.933920 
# 
# From -- ./inp_files/6697.got.cif
#   From: 2010.05.17/outbox.cif.g08.bks.cpg/sg33_4_cif.got.tgz:6697.got - 2010.06.03 17:15:25.
