data_PCOD9345560
_publ_section_title
;
Structure prediction by ZEFSAII (Michael W. Deem and Ramdas Pophale) SiO2 
 PCOD9345560
Probable space group: P N A 21
;
_chemical_formula_sum "Si O2"
_cell_formula_units_Z 24
_cell_length_a 5.364242
_cell_length_b 15.266762
_cell_length_c 12.479849
_cell_angle_alpha 90.000000
_cell_angle_beta 90.000000
_cell_angle_gamma 90.000000
_cell_volume 1022.032316
_symmetry_space_group_name_H-M "P N A 21"
_symmetry_group_IT_number 33
_symmetry_cell_setting 'orthorhombic'
loop_
_space_group_symop_operation_xyz
x,y,z
-x,-y,1/2+z
1/2-x,1/2+y,1/2+z
1/2+x,1/2-y,z
loop_
_atom_site_type_symbol
_atom_site_label
_atom_site_fract_x
_atom_site_fract_y
_atom_site_fract_z
Si Si1 0.646696 0.495152 0.399810
Si Si2 0.694631 0.705761 0.139953
Si Si3 0.144616 0.465104 0.518154
Si Si4 0.675043 0.897046 0.695356
Si Si5 0.350364 0.770688 0.796910
Si Si6 0.309876 0.298054 0.899013
O O1 0.369640 0.468628 0.433675
O O2 0.701643 0.464190 0.279092
O O3 0.872672 0.452547 0.467464
O O4 0.672186 0.598816 0.419915
O O5 0.412945 0.727242 0.105697
O O6 0.692456 0.707959 0.269288
O O7 0.788198 0.612838 0.098109
O O8 0.150502 0.555962 0.583612
O O9 0.410768 0.863177 0.743836
O O10 0.823204 0.804988 0.705490
O O11 0.596022 0.740710 0.859726
O O12 0.053808 0.254022 0.938242
#
# Coordination Sequence:
#
# PCOD9345560 Si02
#       6
#     4   4   4   4   4   4
#     4  12  27  43  69 103 129 178 221 266 337 389
#     4  10  21  44  67  93 130 175 213 272 330 380
#     4  12  27  43  69 103 129 178 221 266 337 389
#     4  10  24  48  66  92 144 158 230 274 322 390
#     4   8  20  40  68  92 118 188 204 264 348 356
#     4  10  21  44  67  93 130 175 213 272 330 380
#
# _framework density 23.482621000000002
#
# number of rings (size 3 to 8) (size 9 to 14) (size 15 to 20)
#    1.000    0.667    1.667    2.000    4.667    0.000 
#   18.000    0.000    0.000    0.000    0.000    0.000 
#    0.000    0.000    0.000    0.000    0.000    0.000 
#
# Total GULP energy -134057.450088 kJ/mol
# GULP energy per Si atom -5585.727087 kJ/mol
# Density = 2.342917 g / cm^3
# Si number density = 23.482621 Si / 1000 Ang^3
#
#
#
# Elastic Constant Matrix: (Units=GPa)
#
#
# Indices 1 2 3 4 5 6 
#
# 1 142.8506 8.6555 18.0756 0.0000 0.0000 0.0000
# 2 8.6555 84.6050 -1.5954 0.0000 0.0000 0.0000
# 3 18.0756 -1.5954 48.7430 0.0000 0.0000 0.0000
# 4 0.0000 0.0000 0.0000 29.9009 0.0000 0.0000
# 5 0.0000 0.0000 0.0000 0.0000 8.2857 0.0000
# 6 0.0000 0.0000 0.0000 0.0000 0.0000 32.0142
#
#
#
# Elastic Compliance Matrix: (Units=1/GPa)
#
#
# Indices 1 2 3 4 5 6 
#
# 1 0.007400 -0.000809 -0.002771 0.000000 0.000000 0.000000
# 2 -0.000809 0.011915 0.000690 0.000000 0.000000 0.000000
# 3 -0.002771 0.000690 0.021566 0.000000 0.000000 0.000000
# 4 0.000000 0.000000 0.000000 0.033444 0.000000 0.000000
# 5 0.000000 0.000000 0.000000 0.000000 0.120690 0.000000
# 6 0.000000 0.000000 0.000000 0.000000 0.000000 0.031236
#
#
# Mechanical properties :
#
#
# Convention : Reuss Voigt Hill
#
# Bulk Modulus (GPa) = 28.48877 36.27445 32.38161
# Shear Modulus (GPa) = 20.51441 30.77769 25.64605
#
# Velocity S-wave (km/s) = 2.95888 3.62423 3.30832
# Velocity P-wave (km/s) = 4.88175 5.74406 5.33037
#
# Compressibility (1/GPa) = 0.03510155
#
# Stress axis : x y z
#
# Youngs Moduli (GPa) = 135.13621 83.92470 46.36965
#
# Poissons Ratio (x) = 0.06792 0.12847
# Poissons Ratio (y) = 0.10937 -0.03200
# Poissons Ratio (z) = 0.37442 -0.05792
#
# Static dielectric constant tensor:
#      x y z
#    x 1.937310 0.000000 0.000000 
#    y 0.000000 1.875820 0.000000 
#    z 0.000000 0.000000 1.859960 
# 
# From -- ./inp_files/7400.got.cif
#   From: 2010.05.17/outbox.cif.g08.bks.cpg/sg33_4_cif.got.tgz:7400.got - 2010.06.03 17:15:25.
