data_PCOD9345178
_publ_section_title
;
Structure prediction by ZEFSAII (Michael W. Deem and Ramdas Pophale) SiO2 
 PCOD9345178
Probable space group: P N A 21
;
_chemical_formula_sum "Si O2"
_cell_formula_units_Z 20
_cell_length_a 19.713043
_cell_length_b 7.448784
_cell_length_c 5.325548
_cell_angle_alpha 90.000000
_cell_angle_beta 90.000000
_cell_angle_gamma 90.000000
_cell_volume 781.993879
_symmetry_space_group_name_H-M "P N A 21"
_symmetry_group_IT_number 33
_symmetry_cell_setting 'orthorhombic'
loop_
_space_group_symop_operation_xyz
x,y,z
-x,-y,1/2+z
1/2-x,1/2+y,1/2+z
1/2+x,1/2-y,z
loop_
_atom_site_type_symbol
_atom_site_label
_atom_site_fract_x
_atom_site_fract_y
_atom_site_fract_z
Si Si1 0.666834 0.508771 0.048930
Si Si2 0.106164 0.946106 0.545780
Si Si3 0.918048 0.617728 0.825629
Si Si4 0.802890 0.349230 0.852752
Si Si5 0.483859 0.766319 0.331508
O O1 0.645599 0.443543 0.328087
O O2 0.690553 0.714256 0.114837
O O3 0.607695 0.509762 0.839369
O O4 0.727126 0.393058 0.932881
O O5 0.154512 0.767174 0.552533
O O6 0.035890 0.888205 0.417468
O O7 0.843189 0.535199 0.833700
O O8 0.966587 0.440203 0.825987
O O9 0.932355 0.698326 0.555219
O O10 0.946095 0.733809 0.062190
#
# Coordination Sequence:
#
# PCOD9345178 Si02
#       5
#     4   4   4   4   4
#     4  10  21  32  52  72 111 137 180 210 270 324
#     4   9  20  32  52  74 109 132 176 215 275 322
#     4   9  17  25  48  68 104 123 164 206 275 310
#     4   9  22  33  51  77 107 141 174 221 263 337
#     4   9  16  28  45  73  99 129 154 218 271 315
#
# _framework density 25.57565
#
# number of rings (size 3 to 8) (size 9 to 14) (size 15 to 20)
#    1.200    1.600    0.000    1.200   11.200    0.000 
#    0.000    0.000    0.000    0.000    0.000    5.600 
#    0.000    0.000    0.000    0.000    0.000    0.000 
#
# Total GULP energy -111741.104652 kJ/mol
# GULP energy per Si atom -5587.055233 kJ/mol
# Density = 2.551744 g / cm^3
# Si number density = 25.575650 Si / 1000 Ang^3
#
#
#
# Elastic Constant Matrix: (Units=GPa)
#
#
# Indices 1 2 3 4 5 6 
#
# 1 103.8029 12.3489 67.3500 0.0000 0.0000 0.0000
# 2 12.3489 84.2953 65.8915 0.0000 0.0000 0.0000
# 3 67.3500 65.8915 202.6866 0.0000 0.0000 0.0000
# 4 0.0000 0.0000 0.0000 42.4786 0.0000 0.0000
# 5 0.0000 0.0000 0.0000 0.0000 26.1962 0.0000
# 6 0.0000 0.0000 0.0000 0.0000 0.0000 35.8193
#
#
#
# Elastic Compliance Matrix: (Units=1/GPa)
#
#
# Indices 1 2 3 4 5 6 
#
# 1 0.012504 0.001898 -0.004772 0.000000 0.000000 0.000000
# 2 0.001898 0.016193 -0.005895 0.000000 0.000000 0.000000
# 3 -0.004772 -0.005895 0.008436 0.000000 0.000000 0.000000
# 4 0.000000 0.000000 0.000000 0.023541 0.000000 0.000000
# 5 0.000000 0.000000 0.000000 0.000000 0.038173 0.000000
# 6 0.000000 0.000000 0.000000 0.000000 0.000000 0.027918
#
#
# Mechanical properties :
#
#
# Convention : Reuss Voigt Hill
#
# Bulk Modulus (GPa) = 51.03213 75.77394 63.40304
# Shear Modulus (GPa) = 33.14893 37.24513 35.19703
#
# Velocity S-wave (km/s) = 3.60406 3.82025 3.71373
# Velocity P-wave (km/s) = 6.10866 7.01076 6.57520
#
# Compressibility (1/GPa) = 0.01959550
#
# Stress axis : x y z
#
# Youngs Moduli (GPa) = 79.97412 61.75549 118.54210
#
# Poissons Ratio (x) = -0.11724 0.56569
# Poissons Ratio (y) = -0.15182 0.69880
# Poissons Ratio (z) = 0.38164 0.36405
#
# Static dielectric constant tensor:
#      x y z
#    x 1.969600 0.000000 0.000000 
#    y 0.000000 2.359250 0.000000 
#    z 0.000000 0.000000 1.952640 
# 
# From -- ./inp_files/1678.got.cif
#   From: 2010.05.17/outbox.cif.g08.bks.cpg/sg33_1_cif.got.tgz:1678.got - 2010.06.03 17:15:25.
