data_PCOD9345481
_publ_section_title
;
Structure prediction by ZEFSAII (Michael W. Deem and Ramdas Pophale) SiO2 
 PCOD9345481
Probable space group: P N A 21
;
_chemical_formula_sum "Si O2"
_cell_formula_units_Z 28
_cell_length_a 11.138710
_cell_length_b 17.454297
_cell_length_c 5.733533
_cell_angle_alpha 90.000000
_cell_angle_beta 90.000000
_cell_angle_gamma 90.000000
_cell_volume 1114.704040
_symmetry_space_group_name_H-M "P N A 21"
_symmetry_group_IT_number 33
_symmetry_cell_setting 'orthorhombic'
loop_
_space_group_symop_operation_xyz
x,y,z
-x,-y,1/2+z
1/2-x,1/2+y,1/2+z
1/2+x,1/2-y,z
loop_
_atom_site_type_symbol
_atom_site_label
_atom_site_fract_x
_atom_site_fract_y
_atom_site_fract_z
Si Si1 0.531436 0.904912 0.469640
Si Si2 0.325099 0.215330 0.285608
Si Si3 0.251485 0.011756 0.948926
Si Si4 0.289716 0.865968 0.705803
Si Si5 0.462387 0.798689 0.096114
Si Si6 0.640804 0.346653 0.668962
Si Si7 0.457565 0.470888 0.706313
O O1 0.608567 0.849183 0.635701
O O2 0.604895 0.983264 0.474959
O O3 0.393219 0.898424 0.539776
O O4 0.531716 0.866989 0.218267
O O5 0.283705 0.289911 0.139298
O O6 0.432721 0.242934 0.452773
O O7 0.218123 0.175625 0.437877
O O8 0.211724 0.092049 0.828919
O O9 0.182889 0.991814 0.186788
O O10 0.216549 0.940216 0.785510
O O11 0.361251 0.834249 0.931962
O O12 0.398307 0.736901 0.264302
O O13 0.514260 0.389672 0.637356
O O14 0.496215 0.482690 0.974934
#
# Coordination Sequence:
#
# PCOD9345481 Si02
#       7
#     4   4   4   4   4   4   4
#     4  11  24  39  67  95 124 175 222 274 340 416
#     4  10  21  43  66  91 127 171 217 279 335 414
#     4  11  23  42  66  96 135 178 220 284 356 402
#     4  10  25  41  63  96 130 167 224 277 340 414
#     4  10  22  43  63  92 129 170 220 276 337 417
#     4  10  21  41  69  92 132 173 226 278 345 411
#     4  10  22  43  66 104 137 178 229 286 347 416
#
# _framework density 25.118773000000001
#
# number of rings (size 3 to 8) (size 9 to 14) (size 15 to 20)
#    0.000    1.714    1.429    1.714    4.000    0.000 
#   23.143    0.000    0.000    0.000    0.000    0.000 
#    0.000    0.000    0.000    0.000    0.000    0.000 
#
# Total GULP energy -156146.952102 kJ/mol
# GULP energy per Si atom -5576.676861 kJ/mol
# Density = 2.506160 g / cm^3
# Si number density = 25.118773 Si / 1000 Ang^3
#
#
#
# Elastic Constant Matrix: (Units=GPa)
#
#
# Indices 1 2 3 4 5 6 
#
# 1 66.4012 34.0014 20.9869 0.0000 0.0000 0.0000
# 2 34.0014 77.6046 5.4405 0.0000 0.0000 0.0000
# 3 20.9869 5.4405 41.2134 0.0000 0.0000 0.0000
# 4 0.0000 0.0000 0.0000 0.3860 0.0000 0.0000
# 5 0.0000 0.0000 0.0000 0.0000 32.0524 0.0000
# 6 0.0000 0.0000 0.0000 0.0000 0.0000 26.9148
#
#
#
# Elastic Compliance Matrix: (Units=1/GPa)
#
#
# Indices 1 2 3 4 5 6 
#
# 1 0.023241 -0.009440 -0.010588 0.000000 0.000000 0.000000
# 2 -0.009440 0.016841 0.002584 0.000000 0.000000 0.000000
# 3 -0.010588 0.002584 0.029315 0.000000 0.000000 0.000000
# 4 0.000000 0.000000 0.000000 2.590672 0.000000 0.000000
# 5 0.000000 0.000000 0.000000 0.000000 0.031199 0.000000
# 6 0.000000 0.000000 0.000000 0.000000 0.000000 0.037154
#
#
# Mechanical properties :
#
#
# Convention : Reuss Voigt Hill
#
# Bulk Modulus (GPa) = 28.97978 34.00852 31.49415
# Shear Modulus (GPa) = 1.80192 20.19002 10.99597
#
# Velocity S-wave (km/s) = 0.84789 2.83818 2.09454
# Velocity P-wave (km/s) = 3.53846 4.93040 4.29124
#
# Compressibility (1/GPa) = 0.03450682
#
# Stress axis : x y z
#
# Youngs Moduli (GPa) = 43.02827 59.37974 34.11256
#
# Poissons Ratio (x) = 0.56056 0.36120
# Poissons Ratio (y) = 0.40620 -0.08815
# Poissons Ratio (z) = 0.45560 -0.15344
#
# Static dielectric constant tensor:
#      x y z
#    x 2.113480 0.000000 0.000000 
#    y 0.000000 1.958050 0.000000 
#    z 0.000000 0.000000 2.026500 
# 
# From -- ./inp_files/905.got.cif
#   From: 2010.05.17/outbox.cif.g08.bks.cpg/sg33_1_cif.got.tgz:905.got - 2010.06.03 17:15:25.
