data_PCOD9345827
_publ_section_title
;
Structure prediction by ZEFSAII (Michael W. Deem and Ramdas Pophale) SiO2 
 PCOD9345827
Probable space group: P N A 21
;
_chemical_formula_sum "Si O2"
_cell_formula_units_Z 24
_cell_length_a 14.258114
_cell_length_b 9.639538
_cell_length_c 8.271027
_cell_angle_alpha 90.000000
_cell_angle_beta 90.000000
_cell_angle_gamma 90.000000
_cell_volume 1136.783447
_symmetry_space_group_name_H-M "P N A 21"
_symmetry_group_IT_number 33
_symmetry_cell_setting 'orthorhombic'
loop_
_space_group_symop_operation_xyz
x,y,z
-x,-y,1/2+z
1/2-x,1/2+y,1/2+z
1/2+x,1/2-y,z
loop_
_atom_site_type_symbol
_atom_site_label
_atom_site_fract_x
_atom_site_fract_y
_atom_site_fract_z
Si Si1 0.118359 0.261147 0.764530
Si Si2 0.035390 0.567451 0.421927
Si Si3 0.213641 0.258350 0.119454
Si Si4 0.221581 0.475773 0.534796
Si Si5 0.984318 0.701890 0.763627
Si Si6 0.130151 0.939523 0.767776
O O1 0.173281 0.351911 0.632460
O O2 0.017542 0.331754 0.798516
O O3 0.110511 0.098885 0.723845
O O4 0.172835 0.267972 0.937374
O O5 0.146711 0.545076 0.409828
O O6 0.994178 0.412833 0.399049
O O7 0.017730 0.629606 0.597754
O O8 0.126639 0.279463 0.239989
O O9 0.296923 0.366799 0.145698
O O10 0.252763 0.104336 0.149357
O O11 0.313979 0.434798 0.437539
O O12 0.037932 0.845784 0.780405
#
# Coordination Sequence:
#
# PCOD9345827 Si02
#       6
#     4   4   4   4   4   4
#     4  10  24  41  64  99 126 172 220 266 333 381
#     4  11  20  42  66  90 129 174 215 261 329 396
#     4  10  22  43  65  90 130 170 212 279 320 388
#     4  11  22  44  65  92 133 173 217 264 333 393
#     4  11  23  42  67  96 130 174 219 268 325 392
#     4  11  23  44  65  99 130 167 225 272 322 388
#
# _framework density 21.112200000000001
#
# number of rings (size 3 to 8) (size 9 to 14) (size 15 to 20)
#    0.000    1.333    5.000    0.000    0.000    4.000 
#   15.000    0.000    0.000    0.000    0.000    0.000 
#    0.000    0.000    0.000    0.000    0.000    0.000 
#
# Total GULP energy -134032.106499 kJ/mol
# GULP energy per Si atom -5584.671104 kJ/mol
# Density = 2.106415 g / cm^3
# Si number density = 21.112200 Si / 1000 Ang^3
#
#
#
# Elastic Constant Matrix: (Units=GPa)
#
#
# Indices 1 2 3 4 5 6 
#
# 1 84.4287 51.9481 5.5576 0.0000 0.0000 0.0000
# 2 51.9481 174.8394 37.6258 0.0000 0.0000 0.0000
# 3 5.5576 37.6258 49.0546 0.0000 0.0000 0.0000
# 4 0.0000 0.0000 0.0000 29.0962 0.0000 0.0000
# 5 0.0000 0.0000 0.0000 0.0000 17.3545 0.0000
# 6 0.0000 0.0000 0.0000 0.0000 0.0000 26.9336
#
#
#
# Elastic Compliance Matrix: (Units=1/GPa)
#
#
# Indices 1 2 3 4 5 6 
#
# 1 0.014658 -0.004788 0.002012 0.000000 0.000000 0.000000
# 2 -0.004788 0.008414 -0.005911 0.000000 0.000000 0.000000
# 3 0.002012 -0.005911 0.024692 0.000000 0.000000 0.000000
# 4 0.000000 0.000000 0.000000 0.034369 0.000000 0.000000
# 5 0.000000 0.000000 0.000000 0.000000 0.057622 0.000000
# 6 0.000000 0.000000 0.000000 0.000000 0.000000 0.037128
#
#
# Mechanical properties :
#
#
# Convention : Reuss Voigt Hill
#
# Bulk Modulus (GPa) = 32.90700 55.39838 44.15269
# Shear Modulus (GPa) = 24.46329 28.88962 26.67646
#
# Velocity S-wave (km/s) = 3.40770 3.70318 3.55851
# Velocity P-wave (km/s) = 5.57708 6.67695 6.15165
#
# Compressibility (1/GPa) = 0.03038867
#
# Stress axis : x y z
#
# Youngs Moduli (GPa) = 68.22230 118.84470 40.49936
#
# Poissons Ratio (x) = 0.56904 -0.08148
# Poissons Ratio (y) = 0.32666 0.23941
# Poissons Ratio (z) = -0.13726 0.70255
#
# Static dielectric constant tensor:
#      x y z
#    x 1.775250 0.000000 0.000000 
#    y 0.000000 1.755340 0.000000 
#    z 0.000000 0.000000 1.792770 
# 
# From -- ./inp_files/4196.got.cif
#   From: 2010.05.17/outbox.cif.g08.bks.cpg/sg33_3_cif.got.tgz:4196.got - 2010.06.03 17:15:25.
