data_PCOD9345618
_publ_section_title
;
Structure prediction by ZEFSAII (Michael W. Deem and Ramdas Pophale) SiO2 
 PCOD9345618
Probable space group: P N A 21
;
_chemical_formula_sum "Si O2"
_cell_formula_units_Z 28
_cell_length_a 10.080613
_cell_length_b 16.507710
_cell_length_c 8.957927
_cell_angle_alpha 90.000000
_cell_angle_beta 90.000000
_cell_angle_gamma 90.000000
_cell_volume 1490.669247
_symmetry_space_group_name_H-M "P N A 21"
_symmetry_group_IT_number 33
_symmetry_cell_setting 'orthorhombic'
loop_
_space_group_symop_operation_xyz
x,y,z
-x,-y,1/2+z
1/2-x,1/2+y,1/2+z
1/2+x,1/2-y,z
loop_
_atom_site_type_symbol
_atom_site_label
_atom_site_fract_x
_atom_site_fract_y
_atom_site_fract_z
Si Si1 0.818589 0.990810 0.565240
Si Si2 0.712974 0.499555 0.614494
Si Si3 0.614049 0.914736 0.341426
Si Si4 0.520226 0.581323 0.804649
Si Si5 0.189546 0.759837 0.220580
Si Si6 0.302923 0.915867 0.326498
Si Si7 0.575112 0.327758 0.567136
O O1 0.707663 0.939431 0.479156
O O2 0.904845 0.946973 0.692343
O O3 0.920343 0.023540 0.438070
O O4 0.738954 0.058783 0.658557
O O5 0.843096 0.473366 0.704643
O O6 0.646372 0.576474 0.695224
O O7 0.735328 0.524514 0.445171
O O8 0.624464 0.416953 0.623764
O O9 0.647586 0.823171 0.298019
O O10 0.457810 0.921652 0.359968
O O11 0.466882 0.658252 0.895423
O O12 0.251951 0.824054 0.334966
O O13 0.304333 0.733487 0.102252
O O14 0.057078 0.798501 0.150390
#
# Coordination Sequence:
#
# PCOD9345618 Si02
#       7
#     4   4   4   4   4   4   4
#     4  11  21  36  67  94 124 164 219 278 316 386
#     4  10  22  37  68  98 122 166 228 276 316 393
#     4  10  24  40  61  96 132 169 214 269 337 389
#     4  11  19  38  63  98 121 160 217 269 317 377
#     4  11  23  40  66  93 130 175 211 263 336 404
#     4  12  20  41  67  93 128 172 222 273 326 387
#     4  11  21  40  64  94 127 170 215 264 328 394
#
# _framework density 18.78351
#
# number of rings (size 3 to 8) (size 9 to 14) (size 15 to 20)
#    0.000    1.143    5.714    0.857    0.000    1.143 
#    0.000    1.429    0.000    0.000    0.000    0.000 
#    0.000    0.000    0.000    0.000    0.000    0.000 
#
# Total GULP energy -155950.423145 kJ/mol
# GULP energy per Si atom -5569.657969 kJ/mol
# Density = 1.874076 g / cm^3
# Si number density = 18.783510 Si / 1000 Ang^3
#
#
#
# Elastic Constant Matrix: (Units=GPa)
#
#
# Indices 1 2 3 4 5 6 
#
# 1 130.1031 40.1342 46.3523 0.0000 0.0000 0.0000
# 2 40.1342 68.6011 35.6043 0.0000 0.0000 0.0000
# 3 46.3523 35.6043 106.9700 0.0000 0.0000 0.0000
# 4 0.0000 0.0000 0.0000 24.2058 0.0000 0.0000
# 5 0.0000 0.0000 0.0000 0.0000 19.3786 0.0000
# 6 0.0000 0.0000 0.0000 0.0000 0.0000 27.7400
#
#
#
# Elastic Compliance Matrix: (Units=1/GPa)
#
#
# Indices 1 2 3 4 5 6 
#
# 1 0.010074 -0.004386 -0.002906 0.000000 0.000000 0.000000
# 2 -0.004386 0.019530 -0.004600 0.000000 0.000000 0.000000
# 3 -0.002906 -0.004600 0.012139 0.000000 0.000000 0.000000
# 4 0.000000 0.000000 0.000000 0.041312 0.000000 0.000000
# 5 0.000000 0.000000 0.000000 0.000000 0.051603 0.000000
# 6 0.000000 0.000000 0.000000 0.000000 0.000000 0.036049
#
#
# Mechanical properties :
#
#
# Convention : Reuss Voigt Hill
#
# Bulk Modulus (GPa) = 55.67865 61.09511 58.38688
# Shear Modulus (GPa) = 24.94039 26.50377 25.72208
#
# Velocity S-wave (km/s) = 3.64783 3.76042 3.70455
# Velocity P-wave (km/s) = 6.88831 7.17293 7.03206
#
# Compressibility (1/GPa) = 0.01796020
#
# Stress axis : x y z
#
# Youngs Moduli (GPa) = 99.26197 51.20228 82.38191
#
# Poissons Ratio (x) = 0.22457 0.23937
# Poissons Ratio (y) = 0.43535 0.37896
# Poissons Ratio (z) = 0.28842 0.23554
#
# Static dielectric constant tensor:
#      x y z
#    x 1.678260 0.000000 0.000000 
#    y 0.000000 1.663240 0.000000 
#    z 0.000000 0.000000 1.657660 
# 
# From -- ./inp_files/3314.got.cif
#   From: 2010.05.17/outbox.cif.g08.bks.cpg/sg33_2_cif.got.tgz:3314.got - 2010.06.03 17:15:25.
