data_PCOD9345621
_publ_section_title
;
Structure prediction by ZEFSAII (Michael W. Deem and Ramdas Pophale) SiO2 
 PCOD9345621
Probable space group: P N A 21
;
_chemical_formula_sum "Si O2"
_cell_formula_units_Z 16
_cell_length_a 4.929446
_cell_length_b 15.870444
_cell_length_c 8.323367
_cell_angle_alpha 90.000000
_cell_angle_beta 90.000000
_cell_angle_gamma 90.000000
_cell_volume 651.157781
_symmetry_space_group_name_H-M "P N A 21"
_symmetry_group_IT_number 33
_symmetry_cell_setting 'orthorhombic'
loop_
_space_group_symop_operation_xyz
x,y,z
-x,-y,1/2+z
1/2-x,1/2+y,1/2+z
1/2+x,1/2-y,z
loop_
_atom_site_type_symbol
_atom_site_label
_atom_site_fract_x
_atom_site_fract_y
_atom_site_fract_z
Si Si1 0.976006 0.380141 0.907170
Si Si2 0.277725 0.056692 0.411140
Si Si3 0.115603 0.300406 0.576510
Si Si4 0.456785 0.414181 0.096931
O O1 0.057902 0.320622 0.762811
O O2 0.052442 0.475102 0.849542
O O3 0.669777 0.379061 0.966258
O O4 0.172550 0.368566 0.061728
O O5 0.487111 0.123955 0.476965
O O6 0.090359 0.089966 0.269152
O O7 0.099663 0.012286 0.551102
O O8 0.926911 0.219142 0.542464
#
# Coordination Sequence:
#
# PCOD9345621 Si02
#       4
#     4   4   4   4
#     4  10  23  42  67  98 130 186 233 278 335 425
#     4  10  24  41  72 102 132 181 242 281 339 413
#     4  12  27  44  67 101 146 179 220 291 367 404
#     4  10  22  37  74  95 130 168 247 280 323 400
#
# _framework density 24.571615999999999
#
# number of rings (size 3 to 8) (size 9 to 14) (size 15 to 20)
#    1.500    0.000    0.000    4.500   10.500    0.000 
#    0.000    7.500    0.000    0.000    0.000    0.000 
#    0.000    0.000    0.000    0.000    0.000    0.000 
#
# Total GULP energy -89565.117841 kJ/mol
# GULP energy per Si atom -5597.819865 kJ/mol
# Density = 2.451569 g / cm^3
# Si number density = 24.571616 Si / 1000 Ang^3
#
#
#
# Elastic Constant Matrix: (Units=GPa)
#
#
# Indices 1 2 3 4 5 6 
#
# 1 80.5503 12.7936 6.3074 0.0000 0.0000 0.0000
# 2 12.7936 42.9936 20.0592 0.0000 0.0000 0.0000
# 3 6.3074 20.0592 88.9004 0.0000 0.0000 0.0000
# 4 0.0000 0.0000 0.0000 40.5223 0.0000 0.0000
# 5 0.0000 0.0000 0.0000 0.0000 44.1612 0.0000
# 6 0.0000 0.0000 0.0000 0.0000 0.0000 27.6123
#
#
#
# Elastic Compliance Matrix: (Units=1/GPa)
#
#
# Indices 1 2 3 4 5 6 
#
# 1 0.013031 -0.003852 -0.000055 0.000000 0.000000 0.000000
# 2 -0.003852 0.027134 -0.005849 0.000000 0.000000 0.000000
# 3 -0.000055 -0.005849 0.012572 0.000000 0.000000 0.000000
# 4 0.000000 0.000000 0.000000 0.024678 0.000000 0.000000
# 5 0.000000 0.000000 0.000000 0.000000 0.022644 0.000000
# 6 0.000000 0.000000 0.000000 0.000000 0.000000 0.036216
#
#
# Mechanical properties :
#
#
# Convention : Reuss Voigt Hill
#
# Bulk Modulus (GPa) = 30.09807 32.30716 31.20262
# Shear Modulus (GPa) = 29.96474 34.01146 31.98810
#
# Velocity S-wave (km/s) = 3.49590 3.72449 3.61200
# Velocity P-wave (km/s) = 5.34517 5.62783 5.48832
#
# Compressibility (1/GPa) = 0.03322472
#
# Stress axis : x y z
#
# Youngs Moduli (GPa) = 76.74191 36.85351 79.54007
#
# Poissons Ratio (x) = 0.14195 0.00441
# Poissons Ratio (y) = 0.29558 0.46525
# Poissons Ratio (z) = 0.00425 0.21557
#
# Static dielectric constant tensor:
#      x y z
#    x 1.910940 0.000000 0.000000 
#    y 0.000000 1.964720 0.000000 
#    z 0.000000 0.000000 1.925990 
# 
# From -- ./inp_files/2601.got.cif
#   From: 2010.05.17/outbox.cif.g08.bks.cpg/sg33_2_cif.got.tgz:2601.got - 2010.06.03 17:15:25.
