data_PCOD9345522
_publ_section_title
;
Structure prediction by ZEFSAII (Michael W. Deem and Ramdas Pophale) SiO2 
 PCOD9345522
Probable space group: P N A 21
;
_chemical_formula_sum "Si O2"
_cell_formula_units_Z 20
_cell_length_a 14.216529
_cell_length_b 7.674160
_cell_length_c 8.705794
_cell_angle_alpha 90.000000
_cell_angle_beta 90.000000
_cell_angle_gamma 90.000000
_cell_volume 949.801413
_symmetry_space_group_name_H-M "P N A 21"
_symmetry_group_IT_number 33
_symmetry_cell_setting 'orthorhombic'
loop_
_space_group_symop_operation_xyz
x,y,z
-x,-y,1/2+z
1/2-x,1/2+y,1/2+z
1/2+x,1/2-y,z
loop_
_atom_site_type_symbol
_atom_site_label
_atom_site_fract_x
_atom_site_fract_y
_atom_site_fract_z
Si Si1 0.080730 0.323994 0.037890
Si Si2 0.045111 0.590575 0.815234
Si Si3 0.911654 0.844040 0.998534
Si Si4 0.420017 0.462480 0.683183
Si Si5 0.305318 0.158344 0.538319
O O1 0.991966 0.367935 0.147889
O O2 0.162365 0.462545 0.084282
O O3 0.054695 0.388989 0.866585
O O4 0.108064 0.127585 0.075180
O O5 0.968063 0.679875 0.927906
O O6 0.144354 0.673237 0.869810
O O7 0.911990 0.980517 0.857894
O O8 0.804471 0.810138 0.038344
O O9 0.973525 0.920521 0.135191
O O10 0.356440 0.297901 0.644722
#
# Coordination Sequence:
#
# PCOD9345522 Si02
#       5
#     4   4   4   4   4
#     4   9  19  39  59  87 117 165 197 251 307 361
#     4   8  19  37  59  85 126 149 201 257 293 358
#     4  10  21  43  61  93 127 161 209 257 308 371
#     4  10  22  41  65  88 125 165 204 258 315 361
#     4   9  21  40  60  89 125 162 205 251 307 373
#
# _framework density 21.057034000000002
#
# number of rings (size 3 to 8) (size 9 to 14) (size 15 to 20)
#    1.200    1.600    0.000    0.000    2.800    1.600 
#   28.800    0.000    0.000    0.000    0.000    0.000 
#    0.000    0.000    0.000    0.000    0.000    0.000 
#
# Total GULP energy -111460.929244 kJ/mol
# GULP energy per Si atom -5573.046462 kJ/mol
# Density = 2.100911 g / cm^3
# Si number density = 21.057034 Si / 1000 Ang^3
#
#
#
# Elastic Constant Matrix: (Units=GPa)
#
#
# Indices 1 2 3 4 5 6 
#
# 1 142.6968 35.5441 1.9238 0.0000 0.0000 0.0000
# 2 35.5441 68.5075 0.3653 0.0000 0.0000 0.0000
# 3 1.9238 0.3653 18.5706 0.0000 0.0000 0.0000
# 4 0.0000 0.0000 0.0000 31.8435 0.0000 0.0000
# 5 0.0000 0.0000 0.0000 0.0000 7.9856 0.0000
# 6 0.0000 0.0000 0.0000 0.0000 0.0000 13.7479
#
#
#
# Elastic Compliance Matrix: (Units=1/GPa)
#
#
# Indices 1 2 3 4 5 6 
#
# 1 0.008058 -0.004177 -0.000753 0.000000 0.000000 0.000000
# 2 -0.004177 0.016764 0.000103 0.000000 0.000000 0.000000
# 3 -0.000753 0.000103 0.053925 0.000000 0.000000 0.000000
# 4 0.000000 0.000000 0.000000 0.031404 0.000000 0.000000
# 5 0.000000 0.000000 0.000000 0.000000 0.125226 0.000000
# 6 0.000000 0.000000 0.000000 0.000000 0.000000 0.072738
#
#
# Mechanical properties :
#
#
# Convention : Reuss Voigt Hill
#
# Bulk Modulus (GPa) = 14.47318 33.93791 24.20555
# Shear Modulus (GPa) = 14.67142 23.51150 19.09146
#
# Velocity S-wave (km/s) = 2.64246 3.34513 3.01434
# Velocity P-wave (km/s) = 4.02472 5.57422 4.86160
#
# Compressibility (1/GPa) = 0.06909331
#
# Stress axis : x y z
#
# Youngs Moduli (GPa) = 124.09327 59.65314 18.54440
#
# Poissons Ratio (x) = 0.24917 0.01396
# Poissons Ratio (y) = 0.51834 -0.00191
# Poissons Ratio (z) = 0.09340 -0.00614
#
# Static dielectric constant tensor:
#      x y z
#    x 1.729050 0.000000 0.000000 
#    y 0.000000 1.816880 0.000000 
#    z 0.000000 0.000000 1.781810 
# 
# From -- ./inp_files/4209.got.cif
#   From: 2010.05.17/outbox.cif.g08.bks.cpg/sg33_3_cif.got.tgz:4209.got - 2010.06.03 17:15:25.
