data_PCOD9345941
_publ_section_title
;
Structure prediction by ZEFSAII (Michael W. Deem and Ramdas Pophale) SiO2 
 PCOD9345941
Probable space group: P N A 21
;
_chemical_formula_sum "Si O2"
_cell_formula_units_Z 16
_cell_length_a 10.737933
_cell_length_b 9.628470
_cell_length_c 7.249946
_cell_angle_alpha 90.000000
_cell_angle_beta 90.000000
_cell_angle_gamma 90.000000
_cell_volume 749.570944
_symmetry_space_group_name_H-M "P N A 21"
_symmetry_group_IT_number 33
_symmetry_cell_setting 'orthorhombic'
loop_
_space_group_symop_operation_xyz
x,y,z
-x,-y,1/2+z
1/2-x,1/2+y,1/2+z
1/2+x,1/2-y,z
loop_
_atom_site_type_symbol
_atom_site_label
_atom_site_fract_x
_atom_site_fract_y
_atom_site_fract_z
Si Si1 0.304773 0.494212 0.723770
Si Si2 0.504642 0.641775 0.502040
Si Si3 0.919765 0.332423 0.327783
Si Si4 0.051405 0.368511 0.700601
O O1 0.391065 0.542947 0.557141
O O2 0.388423 0.433647 0.886771
O O3 0.223918 0.622339 0.805622
O O4 0.197882 0.387657 0.657588
O O5 0.552599 0.706380 0.693073
O O6 0.460992 0.768645 0.374290
O O7 0.988556 0.474092 0.254419
O O8 0.969973 0.312284 0.532743
#
# Coordination Sequence:
#
# PCOD9345941 Si02
#       4
#     4   4   4   4
#     4  10  26  46  68 106 144 184 228 292 344 420
#     4  12  24  48  68 106 142 182 236 282 354 412
#     4  10  22  45  72  99 137 185 228 287 343 406
#     4  10  22  45  72  99 137 185 228 287 343 406
#
# _framework density 21.345545000000001
#
# number of rings (size 3 to 8) (size 9 to 14) (size 15 to 20)
#    1.500    0.000    2.500    1.500    3.500    2.000 
#   13.500    0.000    0.000    0.000    0.000    0.000 
#    0.000    0.000    0.000    0.000    0.000    0.000 
#
# Total GULP energy -89359.790764 kJ/mol
# GULP energy per Si atom -5584.986923 kJ/mol
# Density = 2.129696 g / cm^3
# Si number density = 21.345545 Si / 1000 Ang^3
#
#
#
# Elastic Constant Matrix: (Units=GPa)
#
#
# Indices 1 2 3 4 5 6 
#
# 1 73.2725 6.4304 -2.6260 0.0000 0.0000 0.0000
# 2 6.4304 34.2840 11.5898 0.0000 0.0000 0.0000
# 3 -2.6260 11.5898 72.5319 0.0000 0.0000 0.0000
# 4 0.0000 0.0000 0.0000 41.5796 0.0000 0.0000
# 5 0.0000 0.0000 0.0000 0.0000 29.2583 0.0000
# 6 0.0000 0.0000 0.0000 0.0000 0.0000 68.1252
#
#
#
# Elastic Compliance Matrix: (Units=1/GPa)
#
#
# Indices 1 2 3 4 5 6 
#
# 1 0.013941 -0.002944 0.000975 0.000000 0.000000 0.000000
# 2 -0.002944 0.031456 -0.005133 0.000000 0.000000 0.000000
# 3 0.000975 -0.005133 0.014643 0.000000 0.000000 0.000000
# 4 0.000000 0.000000 0.000000 0.024050 0.000000 0.000000
# 5 0.000000 0.000000 0.000000 0.000000 0.034178 0.000000
# 6 0.000000 0.000000 0.000000 0.000000 0.000000 0.014679
#
#
# Mechanical properties :
#
#
# Convention : Reuss Voigt Hill
#
# Bulk Modulus (GPa) = 21.81744 23.43076 22.62410
# Shear Modulus (GPa) = 30.78267 38.77222 34.77745
#
# Velocity S-wave (km/s) = 3.80164 4.26656 4.04079
# Velocity P-wave (km/s) = 5.43260 5.93903 5.69145
#
# Compressibility (1/GPa) = 0.04583489
#
# Stress axis : x y z
#
# Youngs Moduli (GPa) = 71.73062 31.79091 68.29430
#
# Poissons Ratio (x) = 0.09361 -0.06660
# Poissons Ratio (y) = 0.21121 0.35054
# Poissons Ratio (z) = -0.06995 0.16318
#
# Static dielectric constant tensor:
#      x y z
#    x 1.761360 0.000000 0.000000 
#    y 0.000000 1.794000 0.000000 
#    z 0.000000 0.000000 1.725380 
# 
# From -- ./inp_files/662.got.cif
#   From: 2010.05.17/outbox.cif.g08.bks.cpg/sg33_1_cif.got.tgz:662.got - 2010.06.03 17:15:25.
