data_PCOD9345068
_publ_section_title
;
Structure prediction by ZEFSAII (Michael W. Deem and Ramdas Pophale) SiO2 
 PCOD9345068
Probable space group: P N A 21
;
_chemical_formula_sum "Si O2"
_cell_formula_units_Z 20
_cell_length_a 8.629531
_cell_length_b 13.139583
_cell_length_c 6.865136
_cell_angle_alpha 90.000000
_cell_angle_beta 90.000000
_cell_angle_gamma 90.000000
_cell_volume 778.427053
_symmetry_space_group_name_H-M "P N A 21"
_symmetry_group_IT_number 33
_symmetry_cell_setting 'orthorhombic'
loop_
_space_group_symop_operation_xyz
x,y,z
-x,-y,1/2+z
1/2-x,1/2+y,1/2+z
1/2+x,1/2-y,z
loop_
_atom_site_type_symbol
_atom_site_label
_atom_site_fract_x
_atom_site_fract_y
_atom_site_fract_z
Si Si1 0.311364 0.187813 0.172880
Si Si2 0.165213 0.006480 0.718208
Si Si3 0.227489 0.836138 0.004590
Si Si4 0.001738 0.147225 0.955849
Si Si5 0.065362 0.633280 0.072131
O O1 0.228098 0.272897 0.308721
O O2 0.168203 0.137930 0.064424
O O3 0.427852 0.245624 0.025652
O O4 0.399076 0.122411 0.338689
O O5 0.335593 0.050815 0.685923
O O6 0.150323 0.933676 0.906169
O O7 0.052517 0.103208 0.746480
O O8 0.117238 0.935966 0.539109
O O9 0.134291 0.746630 0.112547
O O10 0.383753 0.866879 0.112813
#
# Coordination Sequence:
#
# PCOD9345068 Si02
#       5
#     4   4   4   4   4
#     4   9  18  40  65  82 131 169 216 272 343 374
#     4  11  24  37  68 100 129 174 233 266 338 405
#     4   9  20  40  63  88 128 173 218 273 336 387
#     4  11  22  41  62  96 127 176 223 277 329 408
#     4  10  20  40  66  86 131 178 214 278 340 384
#
# _framework density 25.692834999999999
#
# number of rings (size 3 to 8) (size 9 to 14) (size 15 to 20)
#    1.200    0.800    2.000    1.200    2.800    3.200 
#    0.000    0.000    0.000    0.000    0.000    0.000 
#    0.000    0.000    0.000    0.000    0.000    0.000 
#
# Total GULP energy -111605.863995 kJ/mol
# GULP energy per Si atom -5580.293200 kJ/mol
# Density = 2.563436 g / cm^3
# Si number density = 25.692835 Si / 1000 Ang^3
#
#
#
# Elastic Constant Matrix: (Units=GPa)
#
#
# Indices 1 2 3 4 5 6 
#
# 1 42.8849 -3.7392 -4.5265 0.0000 0.0000 0.0000
# 2 -3.7392 61.9759 1.1822 0.0000 0.0000 0.0000
# 3 -4.5265 1.1822 60.1518 0.0000 0.0000 0.0000
# 4 0.0000 0.0000 0.0000 32.9122 0.0000 0.0000
# 5 0.0000 0.0000 0.0000 0.0000 42.1639 0.0000
# 6 0.0000 0.0000 0.0000 0.0000 0.0000 51.7868
#
#
#
# Elastic Compliance Matrix: (Units=1/GPa)
#
#
# Indices 1 2 3 4 5 6 
#
# 1 0.023624 0.001392 0.001750 0.000000 0.000000 0.000000
# 2 0.001392 0.016223 -0.000214 0.000000 0.000000 0.000000
# 3 0.001750 -0.000214 0.016761 0.000000 0.000000 0.000000
# 4 0.000000 0.000000 0.000000 0.030384 0.000000 0.000000
# 5 0.000000 0.000000 0.000000 0.000000 0.023717 0.000000
# 6 0.000000 0.000000 0.000000 0.000000 0.000000 0.019310
#
#
# Mechanical properties :
#
#
# Convention : Reuss Voigt Hill
#
# Bulk Modulus (GPa) = 16.00904 16.76063 16.38484
# Shear Modulus (GPa) = 34.48652 36.84564 35.66608
#
# Velocity S-wave (km/s) = 3.66766 3.79104 3.72986
# Velocity P-wave (km/s) = 4.91733 5.06954 4.99402
#
# Compressibility (1/GPa) = 0.06246471
#
# Stress axis : x y z
#
# Youngs Moduli (GPa) = 42.32918 61.63951 59.66393
#
# Poissons Ratio (x) = -0.08580 -0.10444
# Poissons Ratio (y) = -0.05892 0.01277
# Poissons Ratio (z) = -0.07409 0.01320
#
# Static dielectric constant tensor:
#      x y z
#    x 1.970430 0.000000 0.000000 
#    y 0.000000 2.072170 0.000000 
#    z 0.000000 0.000000 2.130400 
# 
# From -- ./inp_files/2986.got.cif
#   From: 2010.05.17/outbox.cif.g08.bks.cpg/sg33_2_cif.got.tgz:2986.got - 2010.06.03 17:15:25.
