data_PCOD9345756
_publ_section_title
;
Structure prediction by ZEFSAII (Michael W. Deem and Ramdas Pophale) SiO2 
 PCOD9345756
Probable space group: P N A 21
;
_chemical_formula_sum "Si O2"
_cell_formula_units_Z 28
_cell_length_a 14.974056
_cell_length_b 12.429126
_cell_length_c 5.856876
_cell_angle_alpha 90.000000
_cell_angle_beta 90.000000
_cell_angle_gamma 90.000000
_cell_volume 1090.049131
_symmetry_space_group_name_H-M "P N A 21"
_symmetry_group_IT_number 33
_symmetry_cell_setting 'orthorhombic'
loop_
_space_group_symop_operation_xyz
x,y,z
-x,-y,1/2+z
1/2-x,1/2+y,1/2+z
1/2+x,1/2-y,z
loop_
_atom_site_type_symbol
_atom_site_label
_atom_site_fract_x
_atom_site_fract_y
_atom_site_fract_z
Si Si1 0.471004 0.759243 0.802590
Si Si2 0.645894 0.711435 0.031894
Si Si3 0.115605 0.460525 0.807296
Si Si4 0.049681 0.877437 0.425126
Si Si5 0.330797 0.726377 0.173279
Si Si6 0.407627 0.002371 0.800090
Si Si7 0.878778 0.992715 0.297422
O O1 0.478243 0.685130 0.583544
O O2 0.427667 0.874682 0.781036
O O3 0.574734 0.766537 0.868526
O O4 0.416133 0.707344 0.009937
O O5 0.600362 0.712631 0.279505
O O6 0.743341 0.757366 0.022573
O O7 0.646020 0.583648 0.978314
O O8 0.156693 0.340220 0.800455
O O9 0.134243 0.513911 0.555382
O O10 0.006900 0.446325 0.803465
O O11 0.136705 0.520179 0.049169
O O12 0.984252 0.962892 0.306529
O O13 0.125579 0.942540 0.559990
O O14 0.323071 0.615926 0.311305
#
# Coordination Sequence:
#
# PCOD9345756 Si02
#       7
#     4   4   4   4   4   4   4
#     4  10  22  41  69  95 138 180 225 296 362 429
#     4  11  25  44  63 108 134 173 253 288 353 459
#     4   9  19  38  61  95 131 177 232 276 342 440
#     4  11  20  42  72  99 131 180 239 287 356 434
#     4  11  23  45  67 100 137 185 235 297 373 435
#     4   9  18  36  64  93 129 181 226 275 351 421
#     4  11  21  42  70  96 134 182 226 301 363 424
#
# _framework density 25.686917000000001
#
# number of rings (size 3 to 8) (size 9 to 14) (size 15 to 20)
#    0.000    1.714    2.857    1.714    2.000    0.000 
#   20.571    2.857    0.000    0.000    0.000    0.000 
#    0.000    0.000    0.000    0.000    0.000    0.000 
#
# Total GULP energy -156464.368134 kJ/mol
# GULP energy per Si atom -5588.013148 kJ/mol
# Density = 2.562845 g / cm^3
# Si number density = 25.686917 Si / 1000 Ang^3
#
#
#
# Elastic Constant Matrix: (Units=GPa)
#
#
# Indices 1 2 3 4 5 6 
#
# 1 72.2769 13.6536 6.4036 0.0000 0.0000 0.0000
# 2 13.6536 61.1487 12.6383 0.0000 0.0000 0.0000
# 3 6.4036 12.6383 122.9260 0.0000 0.0000 0.0000
# 4 0.0000 0.0000 0.0000 42.7189 0.0000 0.0000
# 5 0.0000 0.0000 0.0000 0.0000 16.1326 0.0000
# 6 0.0000 0.0000 0.0000 0.0000 0.0000 26.6228
#
#
#
# Elastic Compliance Matrix: (Units=1/GPa)
#
#
# Indices 1 2 3 4 5 6 
#
# 1 0.014467 -0.003141 -0.000431 0.000000 0.000000 0.000000
# 2 -0.003141 0.017391 -0.001624 0.000000 0.000000 0.000000
# 3 -0.000431 -0.001624 0.008324 0.000000 0.000000 0.000000
# 4 0.000000 0.000000 0.000000 0.023409 0.000000 0.000000
# 5 0.000000 0.000000 0.000000 0.000000 0.061986 0.000000
# 6 0.000000 0.000000 0.000000 0.000000 0.000000 0.037562
#
#
# Mechanical properties :
#
#
# Convention : Reuss Voigt Hill
#
# Bulk Modulus (GPa) = 33.56862 35.74917 34.65890
# Shear Modulus (GPa) = 27.25365 32.00528 29.62946
#
# Velocity S-wave (km/s) = 3.26082 3.53367 3.39998
# Velocity P-wave (km/s) = 5.22245 5.53142 5.37915
#
# Compressibility (1/GPa) = 0.02978972
#
# Stress axis : x y z
#
# Youngs Moduli (GPa) = 69.12163 57.50203 120.12856
#
# Poissons Ratio (x) = 0.18063 0.05174
# Poissons Ratio (y) = 0.21713 0.19513
# Poissons Ratio (z) = 0.02977 0.09340
#
# Static dielectric constant tensor:
#      x y z
#    x 1.966430 0.000000 0.000000 
#    y 0.000000 2.017340 0.000000 
#    z 0.000000 0.000000 2.191600 
# 
# From -- ./inp_files/1385.got.cif
#   From: 2010.05.17/outbox.cif.g08.bks.cpg/sg33_1_cif.got.tgz:1385.got - 2010.06.03 17:15:25.
