data_PCOD9345134
_publ_section_title
;
Structure prediction by ZEFSAII (Michael W. Deem and Ramdas Pophale) SiO2 
 PCOD9345134
Probable space group: P N A 21
;
_chemical_formula_sum "Si O2"
_cell_formula_units_Z 28
_cell_length_a 19.309209
_cell_length_b 5.612920
_cell_length_c 12.907427
_cell_angle_alpha 90.000000
_cell_angle_beta 90.000000
_cell_angle_gamma 90.000000
_cell_volume 1398.920431
_symmetry_space_group_name_H-M "P N A 21"
_symmetry_group_IT_number 33
_symmetry_cell_setting 'orthorhombic'
loop_
_space_group_symop_operation_xyz
x,y,z
-x,-y,1/2+z
1/2-x,1/2+y,1/2+z
1/2+x,1/2-y,z
loop_
_atom_site_type_symbol
_atom_site_label
_atom_site_fract_x
_atom_site_fract_y
_atom_site_fract_z
Si Si1 0.168369 0.549532 0.343450
Si Si2 0.766989 0.580457 0.453559
Si Si3 0.343959 0.053053 0.259294
Si Si4 0.797051 0.820461 0.667178
Si Si5 0.580757 0.444345 0.702641
Si Si6 0.625616 0.329755 0.479161
Si Si7 0.077616 0.928306 0.265621
O O1 0.227376 0.731838 0.378744
O O2 0.201770 0.363211 0.264170
O O3 0.135229 0.444080 0.448312
O O4 0.104033 0.661253 0.282383
O O5 0.819735 0.443725 0.379263
O O6 0.797620 0.702249 0.554967
O O7 0.704420 0.416284 0.492068
O O8 0.275037 0.041675 0.186731
O O9 0.382181 0.303592 0.231931
O O10 0.384914 0.802574 0.245201
O O11 0.866998 0.968085 0.684300
O O12 0.584674 0.405208 0.579341
O O13 0.501340 0.456103 0.737128
O O14 0.593838 0.446835 0.375883
#
# Coordination Sequence:
#
# PCOD9345134 Si02
#       7
#     4   4   4   4   4   4   4
#     4  10  20  42  68  99 139 178 236 283 352 424
#     4  11  22  39  68 107 133 180 235 301 347 408
#     4  12  25  45  69 108 138 178 244 295 339 429
#     4  11  22  42  72  99 137 188 237 290 352 416
#     4  12  28  46  70 104 146 186 234 295 362 423
#     4  10  22  41  73  93 138 192 230 285 367 415
#     4  10  25  45  66 100 143 188 234 293 353 437
#
# _framework density 20.015433999999999
#
# number of rings (size 3 to 8) (size 9 to 14) (size 15 to 20)
#    0.000    1.143    5.714    1.714    6.000    2.286 
#    2.571    0.000    0.000    0.000    0.000    0.000 
#    0.000    0.000    0.000    0.000    0.000    0.000 
#
# Total GULP energy -156234.164922 kJ/mol
# GULP energy per Si atom -5579.791604 kJ/mol
# Density = 1.996988 g / cm^3
# Si number density = 20.015434 Si / 1000 Ang^3
#
#
#
# Elastic Constant Matrix: (Units=GPa)
#
#
# Indices 1 2 3 4 5 6 
#
# 1 136.5891 52.6110 63.6778 0.0000 0.0000 0.0000
# 2 52.6110 91.5261 28.4608 0.0000 0.0000 0.0000
# 3 63.6778 28.4608 103.7323 0.0000 0.0000 0.0000
# 4 0.0000 0.0000 0.0000 32.9099 0.0000 0.0000
# 5 0.0000 0.0000 0.0000 0.0000 14.1162 0.0000
# 6 0.0000 0.0000 0.0000 0.0000 0.0000 22.6457
#
#
#
# Elastic Compliance Matrix: (Units=1/GPa)
#
#
# Indices 1 2 3 4 5 6 
#
# 1 0.012085 -0.005072 -0.006027 0.000000 0.000000 0.000000
# 2 -0.005072 0.014074 -0.000748 0.000000 0.000000 0.000000
# 3 -0.006027 -0.000748 0.013545 0.000000 0.000000 0.000000
# 4 0.000000 0.000000 0.000000 0.030386 0.000000 0.000000
# 5 0.000000 0.000000 0.000000 0.000000 0.070840 0.000000
# 6 0.000000 0.000000 0.000000 0.000000 0.000000 0.044158
#
#
# Mechanical properties :
#
#
# Convention : Reuss Voigt Hill
#
# Bulk Modulus (GPa) = 62.46057 69.03851 65.74954
# Shear Modulus (GPa) = 23.35154 26.40757 24.87956
#
# Velocity S-wave (km/s) = 3.41937 3.63624 3.52947
# Velocity P-wave (km/s) = 6.84569 7.22476 7.03778
#
# Compressibility (1/GPa) = 0.01601010
#
# Stress axis : x y z
#
# Youngs Moduli (GPa) = 82.74967 71.05257 73.82860
#
# Poissons Ratio (x) = 0.36041 0.44494
# Poissons Ratio (y) = 0.41974 0.05520
# Poissons Ratio (z) = 0.49870 0.05312
#
# Static dielectric constant tensor:
#      x y z
#    x 1.686830 0.000000 0.000000 
#    y 0.000000 1.848660 0.000000 
#    z 0.000000 0.000000 1.729440 
# 
# From -- ./inp_files/6935.got.cif
#   From: 2010.05.17/outbox.cif.g08.bks.cpg/sg33_4_cif.got.tgz:6935.got - 2010.06.03 17:15:25.
