data_PCOD9345935
_publ_section_title
;
Structure prediction by ZEFSAII (Michael W. Deem and Ramdas Pophale) SiO2 
 PCOD9345935
Probable space group: P N A 21
;
_chemical_formula_sum "Si O2"
_cell_formula_units_Z 32
_cell_length_a 12.280296
_cell_length_b 19.666578
_cell_length_c 5.691165
_cell_angle_alpha 90.000000
_cell_angle_beta 90.000000
_cell_angle_gamma 90.000000
_cell_volume 1374.481222
_symmetry_space_group_name_H-M "P N A 21"
_symmetry_group_IT_number 33
_symmetry_cell_setting 'orthorhombic'
loop_
_space_group_symop_operation_xyz
x,y,z
-x,-y,1/2+z
1/2-x,1/2+y,1/2+z
1/2+x,1/2-y,z
loop_
_atom_site_type_symbol
_atom_site_label
_atom_site_fract_x
_atom_site_fract_y
_atom_site_fract_z
Si Si1 0.398673 0.848497 0.211450
Si Si2 0.934647 0.500566 0.235219
Si Si3 0.623308 0.872996 0.965792
Si Si4 0.556743 0.514536 0.852013
Si Si5 0.795323 0.224708 0.449211
Si Si6 0.008694 0.159708 0.444682
Si Si7 0.197036 0.110140 0.799962
Si Si8 0.352614 0.745962 0.577646
O O1 0.423857 0.800868 0.433964
O O2 0.371424 0.927709 0.255499
O O3 0.501302 0.852943 0.036885
O O4 0.298166 0.807186 0.106701
O O5 0.872374 0.429000 0.262391
O O6 0.006041 0.499799 0.480102
O O7 0.692037 0.805403 0.929061
O O8 0.686290 0.904439 0.187487
O O9 0.512837 0.497492 0.590590
O O10 0.558959 0.596181 0.839285
O O11 0.655455 0.462154 0.898107
O O12 0.746851 0.210573 0.189463
O O13 0.909592 0.201048 0.554844
O O14 0.102810 0.131565 0.611516
O O15 0.066618 0.209927 0.262717
O O16 0.197094 0.179451 0.949551
#
# Coordination Sequence:
#
# PCOD9345935 Si02
#       8
#     4   4   4   4   4   4   4   4
#     4  11  27  49  71 108 151 193 258 314 380 454
#     4  10  26  50  78 108 151 205 257 315 381 453
#     4  11  24  49  73 106 150 198 246 317 375 462
#     4  10  22  45  70 101 146 186 239 302 367 443
#     4  12  26  44  71 107 145 195 249 311 380 444
#     4  11  25  45  68 104 148 186 244 309 372 447
#     4  11  23  46  69 107 142 196 240 302 378 449
#     4  12  23  42  72 105 143 191 253 304 379 448
#
# _framework density 23.281513
#
# number of rings (size 3 to 8) (size 9 to 14) (size 15 to 20)
#    0.000    1.000    3.750    1.500    7.000    3.000 
#   15.750    0.000    0.000    0.000    0.000    0.000 
#    0.000    0.000    0.000    0.000    0.000    0.000 
#
# Total GULP energy -178271.821153 kJ/mol
# GULP energy per Si atom -5570.994411 kJ/mol
# Density = 2.322852 g / cm^3
# Si number density = 23.281513 Si / 1000 Ang^3
#
#
#
# Elastic Constant Matrix: (Units=GPa)
#
#
# Indices 1 2 3 4 5 6 
#
# 1 78.0366 27.9978 1.1037 0.0000 0.0000 0.0000
# 2 27.9978 136.1189 16.3094 0.0000 0.0000 0.0000
# 3 1.1037 16.3094 71.5444 0.0000 0.0000 0.0000
# 4 0.0000 0.0000 0.0000 30.8713 0.0000 0.0000
# 5 0.0000 0.0000 0.0000 0.0000 13.9923 0.0000
# 6 0.0000 0.0000 0.0000 0.0000 0.0000 30.3332
#
#
#
# Elastic Compliance Matrix: (Units=1/GPa)
#
#
# Indices 1 2 3 4 5 6 
#
# 1 0.013849 -0.002902 0.000448 0.000000 0.000000 0.000000
# 2 -0.002902 0.008161 -0.001816 0.000000 0.000000 0.000000
# 3 0.000448 -0.001816 0.014384 0.000000 0.000000 0.000000
# 4 0.000000 0.000000 0.000000 0.032393 0.000000 0.000000
# 5 0.000000 0.000000 0.000000 0.000000 0.071468 0.000000
# 6 0.000000 0.000000 0.000000 0.000000 0.000000 0.032967
#
#
# Mechanical properties :
#
#
# Convention : Reuss Voigt Hill
#
# Bulk Modulus (GPa) = 35.90043 41.83575 38.86809
# Shear Modulus (GPa) = 26.17156 31.05865 28.61510
#
# Velocity S-wave (km/s) = 3.35645 3.65642 3.50964
# Velocity P-wave (km/s) = 5.52038 5.98619 5.75800
#
# Compressibility (1/GPa) = 0.02785482
#
# Stress axis : x y z
#
# Youngs Moduli (GPa) = 72.20505 122.53357 69.52018
#
# Poissons Ratio (x) = 0.35563 -0.03114
# Poissons Ratio (y) = 0.20956 0.12622
# Poissons Ratio (z) = -0.03234 0.22248
#
# Static dielectric constant tensor:
#      x y z
#    x 1.866240 0.000000 0.000000 
#    y 0.000000 1.964130 0.000000 
#    z 0.000000 0.000000 1.988460 
# 
# From -- ./inp_files/1032.got.cif
#   From: 2010.05.17/outbox.cif.g08.bks.cpg/sg33_1_cif.got.tgz:1032.got - 2010.06.03 17:15:25.
