data_PCOD9345846
_publ_section_title
;
Structure prediction by ZEFSAII (Michael W. Deem and Ramdas Pophale) SiO2 
 PCOD9345846
Probable space group: P N A 21
;
_chemical_formula_sum "Si O2"
_cell_formula_units_Z 32
_cell_length_a 5.164201
_cell_length_b 30.379093
_cell_length_c 8.610925
_cell_angle_alpha 90.000000
_cell_angle_beta 90.000000
_cell_angle_gamma 90.000000
_cell_volume 1350.914140
_symmetry_space_group_name_H-M "P N A 21"
_symmetry_group_IT_number 33
_symmetry_cell_setting 'orthorhombic'
loop_
_space_group_symop_operation_xyz
x,y,z
-x,-y,1/2+z
1/2-x,1/2+y,1/2+z
1/2+x,1/2-y,z
loop_
_atom_site_type_symbol
_atom_site_label
_atom_site_fract_x
_atom_site_fract_y
_atom_site_fract_z
Si Si1 0.482381 0.774787 0.232370
Si Si2 0.822701 0.085861 0.126769
Si Si3 0.249034 0.453567 0.639107
Si Si4 0.558439 0.862081 0.111735
Si Si5 0.615817 0.406144 0.833847
Si Si6 0.179040 0.631492 0.761631
Si Si7 0.490853 0.976074 0.452993
Si Si8 0.956650 0.276157 0.106077
O O1 0.270562 0.738905 0.184879
O O2 0.393471 0.819618 0.151506
O O3 0.505099 0.778686 0.419350
O O4 0.586111 0.106931 0.217617
O O5 0.079595 0.100086 0.218231
O O6 0.728884 0.036514 0.080621
O O7 0.882998 0.104047 0.951538
O O8 0.531057 0.437892 0.691600
O O9 0.175635 0.483824 0.496007
O O10 0.098127 0.407609 0.621309
O O11 0.149940 0.480720 0.789041
O O12 0.762622 0.864555 0.252750
O O13 0.684502 0.858982 0.943974
O O14 0.824705 0.433457 0.932639
O O15 0.153567 0.677457 0.668273
O O16 0.743646 0.239532 0.156092
#
# Coordination Sequence:
#
# PCOD9345846 Si02
#       8
#     4   4   4   4   4   4   4   4
#     4  10  24  43  72  99 138 191 237 289 352 438
#     4  11  24  45  68 103 133 195 239 282 355 426
#     4  10  25  43  71 101 148 186 244 296 352 428
#     4  11  27  44  67 112 144 188 239 301 366 423
#     4  10  23  45  71  99 142 192 241 295 345 441
#     4  12  26  42  73 103 145 184 229 307 355 427
#     4  10  23  45  66 104 136 194 233 300 346 422
#     4  10  22  43  68 103 134 182 238 288 355 437
#
# _framework density 23.687666
#
# number of rings (size 3 to 8) (size 9 to 14) (size 15 to 20)
#    0.000    1.500    1.250    1.500    8.750    6.000 
#    0.000    0.000    0.000    0.000    0.000    0.000 
#    0.000    0.000    0.000    0.000    0.000    0.000 
#
# Total GULP energy -178766.283799 kJ/mol
# GULP energy per Si atom -5586.446369 kJ/mol
# Density = 2.363375 g / cm^3
# Si number density = 23.687666 Si / 1000 Ang^3
#
#
#
# Elastic Constant Matrix: (Units=GPa)
#
#
# Indices 1 2 3 4 5 6 
#
# 1 110.8317 13.9498 10.0516 0.0000 0.0000 0.0000
# 2 13.9498 55.5231 23.7884 0.0000 0.0000 0.0000
# 3 10.0516 23.7884 32.1920 0.0000 0.0000 0.0000
# 4 0.0000 0.0000 0.0000 34.2042 0.0000 0.0000
# 5 0.0000 0.0000 0.0000 0.0000 18.7089 0.0000
# 6 0.0000 0.0000 0.0000 0.0000 0.0000 24.8969
#
#
#
# Elastic Compliance Matrix: (Units=1/GPa)
#
#
# Indices 1 2 3 4 5 6 
#
# 1 0.009383 -0.001613 -0.001738 0.000000 0.000000 0.000000
# 2 -0.001613 0.026631 -0.019176 0.000000 0.000000 0.000000
# 3 -0.001738 -0.019176 0.045776 0.000000 0.000000 0.000000
# 4 0.000000 0.000000 0.000000 0.029236 0.000000 0.000000
# 5 0.000000 0.000000 0.000000 0.000000 0.053451 0.000000
# 6 0.000000 0.000000 0.000000 0.000000 0.000000 0.040166
#
#
# Mechanical properties :
#
#
# Convention : Reuss Voigt Hill
#
# Bulk Modulus (GPa) = 27.21998 32.68071 29.95035
# Shear Modulus (GPa) = 19.08813 25.61246 22.35030
#
# Velocity S-wave (km/s) = 2.84179 3.29181 3.07504
# Velocity P-wave (km/s) = 4.72057 5.31738 5.02784
#
# Compressibility (1/GPa) = 0.03673772
#
# Stress axis : x y z
#
# Youngs Moduli (GPa) = 106.57211 37.54957 21.84534
#
# Poissons Ratio (x) = 0.06056 0.03797
# Poissons Ratio (y) = 0.17189 0.41890
# Poissons Ratio (z) = 0.18522 0.72004
#
# Static dielectric constant tensor:
#      x y z
#    x 1.926550 0.000000 0.000000 
#    y 0.000000 1.912240 0.000000 
#    z 0.000000 0.000000 1.908450 
# 
# From -- ./inp_files/2835.got.cif
#   From: 2010.05.17/outbox.cif.g08.bks.cpg/sg33_2_cif.got.tgz:2835.got - 2010.06.03 17:15:25.
