data_PCOD9345156
_publ_section_title
;
Structure prediction by ZEFSAII (Michael W. Deem and Ramdas Pophale) SiO2 
 PCOD9345156
Probable space group: P N A 21
;
_chemical_formula_sum "Si O2"
_cell_formula_units_Z 28
_cell_length_a 13.361444
_cell_length_b 7.175950
_cell_length_c 11.663085
_cell_angle_alpha 90.000000
_cell_angle_beta 90.000000
_cell_angle_gamma 90.000000
_cell_volume 1118.268884
_symmetry_space_group_name_H-M "P N A 21"
_symmetry_group_IT_number 33
_symmetry_cell_setting 'orthorhombic'
loop_
_space_group_symop_operation_xyz
x,y,z
-x,-y,1/2+z
1/2-x,1/2+y,1/2+z
1/2+x,1/2-y,z
loop_
_atom_site_type_symbol
_atom_site_label
_atom_site_fract_x
_atom_site_fract_y
_atom_site_fract_z
Si Si1 0.076212 0.669543 0.508040
Si Si2 0.387332 0.704617 0.648580
Si Si3 0.405872 0.752644 0.069468
Si Si4 0.729470 0.261240 0.937307
Si Si5 0.220599 0.001806 0.726528
Si Si6 0.486845 0.351889 0.343603
Si Si7 0.552205 0.085744 0.811696
O O1 0.116159 0.456808 0.516345
O O2 0.173310 0.796134 0.508933
O O3 0.990859 0.707367 0.600744
O O4 0.019873 0.703861 0.391009
O O5 0.336519 0.628090 0.532274
O O6 0.423775 0.586530 0.757109
O O7 0.304710 0.851869 0.693344
O O8 0.313199 0.636926 0.122057
O O9 0.455928 0.823664 0.187743
O O10 0.474264 0.642256 0.976475
O O11 0.766771 0.377790 0.829402
O O12 0.659605 0.109335 0.875663
O O13 0.117414 0.931095 0.790552
O O14 0.475094 0.128619 0.325008
#
# Coordination Sequence:
#
# PCOD9345156 Si02
#       7
#     4   4   4   4   4   4   4
#     4  10  20  43  71  94 141 177 228 281 360 419
#     4  11  23  44  69 100 139 186 226 291 355 414
#     4  10  22  43  67  99 134 188 224 287 356 410
#     4  10  23  43  69 100 132 180 234 287 349 420
#     4  11  25  45  68 104 141 176 247 290 335 437
#     4  11  23  44  69 100 145 181 234 290 356 417
#     4   9  20  42  69  99 130 186 225 282 361 421
#
# _framework density 25.038701
#
# number of rings (size 3 to 8) (size 9 to 14) (size 15 to 20)
#    0.000    1.714    1.429    2.571    2.000    0.000 
#   18.000    0.000    0.000    0.000    0.000    0.000 
#    0.000    0.000    0.000    0.000    0.000    0.000 
#
# Total GULP energy -156098.919101 kJ/mol
# GULP energy per Si atom -5574.961396 kJ/mol
# Density = 2.498171 g / cm^3
# Si number density = 25.038701 Si / 1000 Ang^3
#
#
#
# Elastic Constant Matrix: (Units=GPa)
#
#
# Indices 1 2 3 4 5 6 
#
# 1 136.7237 8.5936 71.6475 0.0000 0.0000 0.0000
# 2 8.5936 42.9154 37.1529 0.0000 0.0000 0.0000
# 3 71.6475 37.1529 133.8788 0.0000 0.0000 0.0000
# 4 0.0000 0.0000 0.0000 5.1087 0.0000 0.0000
# 5 0.0000 0.0000 0.0000 0.0000 39.1236 0.0000
# 6 0.0000 0.0000 0.0000 0.0000 0.0000 33.8052
#
#
#
# Elastic Compliance Matrix: (Units=1/GPa)
#
#
# Indices 1 2 3 4 5 6 
#
# 1 0.010585 0.003665 -0.006682 0.000000 0.000000 0.000000
# 2 0.003665 0.031939 -0.010825 0.000000 0.000000 0.000000
# 3 -0.006682 -0.010825 0.014049 0.000000 0.000000 0.000000
# 4 0.000000 0.000000 0.000000 0.195745 0.000000 0.000000
# 5 0.000000 0.000000 0.000000 0.000000 0.025560 0.000000
# 6 0.000000 0.000000 0.000000 0.000000 0.000000 0.029581
#
#
# Mechanical properties :
#
#
# Convention : Reuss Voigt Hill
#
# Bulk Modulus (GPa) = 34.61376 60.92285 47.76831
# Shear Modulus (GPa) = 14.50227 28.68243 21.59235
#
# Velocity S-wave (km/s) = 2.40926 3.38823 2.93978
# Velocity P-wave (km/s) = 4.64688 6.30009 5.53555
#
# Compressibility (1/GPa) = 0.02889025
#
# Stress axis : x y z
#
# Youngs Moduli (GPa) = 94.47143 31.30955 71.17723
#
# Poissons Ratio (x) = -0.11475 0.47560
# Poissons Ratio (y) = -0.34625 0.77049
# Poissons Ratio (z) = 0.63125 0.33892
#
# Static dielectric constant tensor:
#      x y z
#    x 2.003420 0.000000 0.000000 
#    y 0.000000 2.032370 0.000000 
#    z 0.000000 0.000000 2.069220 
# 
# From -- ./inp_files/6322.got.cif
#   From: 2010.05.17/outbox.cif.g08.bks.cpg/sg33_4_cif.got.tgz:6322.got - 2010.06.03 17:15:25.
