data_PCOD9345515
_publ_section_title
;
Structure prediction by ZEFSAII (Michael W. Deem and Ramdas Pophale) SiO2 
 PCOD9345515
Probable space group: P N A 21
;
_chemical_formula_sum "Si O2"
_cell_formula_units_Z 32
_cell_length_a 9.159484
_cell_length_b 11.968408
_cell_length_c 11.198710
_cell_angle_alpha 90.000000
_cell_angle_beta 90.000000
_cell_angle_gamma 90.000000
_cell_volume 1227.652330
_symmetry_space_group_name_H-M "P N A 21"
_symmetry_group_IT_number 33
_symmetry_cell_setting 'orthorhombic'
loop_
_space_group_symop_operation_xyz
x,y,z
-x,-y,1/2+z
1/2-x,1/2+y,1/2+z
1/2+x,1/2-y,z
loop_
_atom_site_type_symbol
_atom_site_label
_atom_site_fract_x
_atom_site_fract_y
_atom_site_fract_z
Si Si1 0.292137 0.084282 0.533800
Si Si2 0.521452 0.475389 0.431076
Si Si3 0.952511 0.711952 0.688023
Si Si4 0.660555 0.346364 0.987359
Si Si5 0.124071 0.815247 0.128909
Si Si6 0.314503 0.403414 0.234257
Si Si7 0.551677 0.954157 0.476477
Si Si8 0.385431 0.820137 0.281332
O O1 0.286424 0.210612 0.574971
O O2 0.187885 0.061828 0.421215
O O3 0.232850 0.990344 0.628000
O O4 0.461832 0.062978 0.508756
O O5 0.500814 0.601472 0.477423
O O6 0.450680 0.391736 0.529067
O O7 0.425558 0.475448 0.313085
O O8 0.837846 0.788351 0.614316
O O9 0.845725 0.642024 0.775574
O O10 0.011517 0.631172 0.583875
O O11 0.081043 0.792878 0.728775
O O12 0.686968 0.257971 0.883321
O O13 0.776147 0.445347 0.973629
O O14 0.251785 0.872602 0.207154
O O15 0.997567 0.758212 0.208548
O O16 0.483607 0.907908 0.353706
#
# Coordination Sequence:
#
# PCOD9345515 Si02
#       8
#     4   4   4   4   4   4   4   4
#     4  11  26  47  66  99 141 180 230 283 338 412
#     4  12  28  41  69  95 139 180 228 278 343 417
#     4  10  21  42  69  97 135 169 224 278 335 399
#     4  11  22  42  69 105 125 177 228 277 338 407
#     4  12  26  47  62  98 139 182 222 287 340 407
#     4  11  24  44  69  98 136 181 222 280 343 411
#     4  10  23  41  70 102 129 171 228 285 329 412
#     4  11  24  42  74  94 136 174 228 280 346 401
#
# _framework density 26.066009999999999
#
# number of rings (size 3 to 8) (size 9 to 14) (size 15 to 20)
#    0.000    1.000    5.000    0.750    5.250    0.000 
#    0.000    0.000    0.000    0.000    0.000    0.000 
#    0.000    0.000    0.000    0.000    0.000    0.000 
#
# Total GULP energy -178882.730254 kJ/mol
# GULP energy per Si atom -5590.085320 kJ/mol
# Density = 2.600668 g / cm^3
# Si number density = 26.066010 Si / 1000 Ang^3
#
#
#
# Elastic Constant Matrix: (Units=GPa)
#
#
# Indices 1 2 3 4 5 6 
#
# 1 100.2733 0.6597 1.1095 0.0000 0.0000 0.0000
# 2 0.6597 52.6265 -7.4344 0.0000 0.0000 0.0000
# 3 1.1095 -7.4344 19.0833 0.0000 0.0000 0.0000
# 4 0.0000 0.0000 0.0000 26.2563 0.0000 0.0000
# 5 0.0000 0.0000 0.0000 0.0000 19.9689 0.0000
# 6 0.0000 0.0000 0.0000 0.0000 0.0000 45.1190
#
#
#
# Elastic Compliance Matrix: (Units=1/GPa)
#
#
# Indices 1 2 3 4 5 6 
#
# 1 0.009982 -0.000219 -0.000666 0.000000 0.000000 0.000000
# 2 -0.000219 0.020113 0.007848 0.000000 0.000000 0.000000
# 3 -0.000666 0.007848 0.055498 0.000000 0.000000 0.000000
# 4 0.000000 0.000000 0.000000 0.038086 0.000000 0.000000
# 5 0.000000 0.000000 0.000000 0.000000 0.050078 0.000000
# 6 0.000000 0.000000 0.000000 0.000000 0.000000 0.022164
#
#
# Mechanical properties :
#
#
# Convention : Reuss Voigt Hill
#
# Bulk Modulus (GPa) = 10.04823 17.85029 13.94926
# Shear Modulus (GPa) = 23.23782 30.11209 26.67495
#
# Velocity S-wave (km/s) = 2.98904 3.40255 3.20247
# Velocity P-wave (km/s) = 3.97187 4.72222 4.36321
#
# Compressibility (1/GPa) = 0.09951998
#
# Stress axis : x y z
#
# Youngs Moduli (GPa) = 100.18480 49.71834 18.01866
#
# Poissons Ratio (x) = 0.01090 0.01199
# Poissons Ratio (y) = 0.02196 -0.14142
# Poissons Ratio (z) = 0.06669 -0.39021
#
# Static dielectric constant tensor:
#      x y z
#    x 2.043380 0.000000 0.000000 
#    y 0.000000 2.118110 0.000000 
#    z 0.000000 0.000000 2.118600 
# 
# From -- ./inp_files/5997.got.cif
#   From: 2010.05.17/outbox.cif.g08.bks.cpg/sg33_3_cif.got.tgz:5997.got - 2010.06.03 17:15:25.
