data_PCOD9345358
_publ_section_title
;
Structure prediction by ZEFSAII (Michael W. Deem and Ramdas Pophale) SiO2 
 PCOD9345358
Probable space group: P N A 21
;
_chemical_formula_sum "Si O2"
_cell_formula_units_Z 32
_cell_length_a 10.889855
_cell_length_b 9.489037
_cell_length_c 11.754113
_cell_angle_alpha 90.000000
_cell_angle_beta 90.000000
_cell_angle_gamma 90.000000
_cell_volume 1214.602299
_symmetry_space_group_name_H-M "P N A 21"
_symmetry_group_IT_number 33
_symmetry_cell_setting 'orthorhombic'
loop_
_space_group_symop_operation_xyz
x,y,z
-x,-y,1/2+z
1/2-x,1/2+y,1/2+z
1/2+x,1/2-y,z
loop_
_atom_site_type_symbol
_atom_site_label
_atom_site_fract_x
_atom_site_fract_y
_atom_site_fract_z
Si Si1 0.278186 0.723265 0.972650
Si Si2 0.483624 0.084472 0.023183
Si Si3 0.286643 0.990125 0.658641
Si Si4 0.034814 0.684367 0.879585
Si Si5 0.039844 0.024453 0.292731
Si Si6 0.650887 0.655466 0.484508
Si Si7 0.753473 0.555233 0.132869
Si Si8 0.683743 0.304993 0.808660
O O1 0.421296 0.763023 0.965949
O O2 0.184746 0.687288 0.871420
O O3 0.241720 0.614811 0.070001
O O4 0.211576 0.865839 0.018319
O O5 0.584041 0.070015 0.122076
O O6 0.358574 0.046204 0.088936
O O7 0.463277 0.240400 0.978809
O O8 0.516614 0.980003 0.917997
O O9 0.185933 0.881228 0.613404
O O10 0.282624 0.070121 0.777237
O O11 0.002862 0.814037 0.795234
O O12 0.115284 0.980421 0.408006
O O13 0.135139 0.007514 0.191363
O O14 0.936513 0.901729 0.288810
O O15 0.765923 0.733280 0.423459
O O16 0.808944 0.674386 0.219136
#
# Coordination Sequence:
#
# PCOD9345358 Si02
#       8
#     4   4   4   4   4   4   4   4
#     4   9  19  37  67  94 124 176 226 272 337 418
#     4  10  23  44  69  95 133 179 226 286 363 421
#     4  10  21  44  68  98 135 181 229 290 351 426
#     4  10  21  39  67  95 129 170 224 278 343 421
#     4  11  23  40  68 100 133 174 232 285 344 433
#     4  11  23  44  68 101 137 184 236 288 359 419
#     4   9  22  38  65  94 131 176 222 276 350 414
#     4  10  24  40  68 103 136 180 235 287 347 428
#
# _framework density 26.346073000000001
#
# number of rings (size 3 to 8) (size 9 to 14) (size 15 to 20)
#    0.000    2.000    1.250    0.750   14.000    0.000 
#    4.500    0.000    0.000    0.000    0.000    0.000 
#    0.000    0.000    0.000    0.000    0.000    0.000 
#
# Total GULP energy -178184.783193 kJ/mol
# GULP energy per Si atom -5568.274475 kJ/mol
# Density = 2.628611 g / cm^3
# Si number density = 26.346073 Si / 1000 Ang^3
#
#
#
# Elastic Constant Matrix: (Units=GPa)
#
#
# Indices 1 2 3 4 5 6 
#
# 1 80.5527 4.7378 -5.3934 0.0000 0.0000 0.0000
# 2 4.7378 96.4034 16.6486 0.0000 0.0000 0.0000
# 3 -5.3934 16.6486 36.7377 0.0000 0.0000 0.0000
# 4 0.0000 0.0000 0.0000 36.8380 0.0000 0.0000
# 5 0.0000 0.0000 0.0000 0.0000 31.2840 0.0000
# 6 0.0000 0.0000 0.0000 0.0000 0.0000 34.4859
#
#
#
# Elastic Compliance Matrix: (Units=1/GPa)
#
#
# Indices 1 2 3 4 5 6 
#
# 1 0.012629 -0.001021 0.002317 0.000000 0.000000 0.000000
# 2 -0.001021 0.011336 -0.005287 0.000000 0.000000 0.000000
# 3 0.002317 -0.005287 0.029956 0.000000 0.000000 0.000000
# 4 0.000000 0.000000 0.000000 0.027146 0.000000 0.000000
# 5 0.000000 0.000000 0.000000 0.000000 0.031965 0.000000
# 6 0.000000 0.000000 0.000000 0.000000 0.000000 0.028997
#
#
# Mechanical properties :
#
#
# Convention : Reuss Voigt Hill
#
# Bulk Modulus (GPa) = 21.76784 27.29774 24.53279
# Shear Modulus (GPa) = 30.24327 33.70162 31.97245
#
# Velocity S-wave (km/s) = 3.39178 3.58046 3.48739
# Velocity P-wave (km/s) = 4.85995 5.24181 5.05449
#
# Compressibility (1/GPa) = 0.04593933
#
# Stress axis : x y z
#
# Youngs Moduli (GPa) = 79.18042 88.21198 33.38212
#
# Poissons Ratio (x) = 0.09004 -0.07734
# Poissons Ratio (y) = 0.08082 0.17650
# Poissons Ratio (z) = -0.18344 0.46639
#
# Static dielectric constant tensor:
#      x y z
#    x 2.279440 0.000000 0.000000 
#    y 0.000000 2.130160 0.000000 
#    z 0.000000 0.000000 2.152290 
# 
# From -- ./inp_files/7958.got.cif
#   From: 2010.05.17/outbox.cif.g08.bks.cpg/sg33_4_cif.got.tgz:7958.got - 2010.06.03 17:15:25.
