data_PCOD9345445
_publ_section_title
;
Structure prediction by ZEFSAII (Michael W. Deem and Ramdas Pophale) SiO2 
 PCOD9345445
Probable space group: P N A 21
;
_chemical_formula_sum "Si O2"
_cell_formula_units_Z 32
_cell_length_a 16.347624
_cell_length_b 15.511391
_cell_length_c 6.368176
_cell_angle_alpha 90.000000
_cell_angle_beta 90.000000
_cell_angle_gamma 90.000000
_cell_volume 1614.806331
_symmetry_space_group_name_H-M "P N A 21"
_symmetry_group_IT_number 33
_symmetry_cell_setting 'orthorhombic'
loop_
_space_group_symop_operation_xyz
x,y,z
-x,-y,1/2+z
1/2-x,1/2+y,1/2+z
1/2+x,1/2-y,z
loop_
_atom_site_type_symbol
_atom_site_label
_atom_site_fract_x
_atom_site_fract_y
_atom_site_fract_z
Si Si1 0.174869 0.116079 0.100210
Si Si2 0.637272 0.202792 0.279821
Si Si3 0.468815 0.631158 0.283357
Si Si4 0.876237 0.590010 0.167396
Si Si5 0.498059 0.184305 0.936409
Si Si6 0.153149 0.570133 0.399345
Si Si7 0.726286 0.045046 0.057883
Si Si8 0.096304 0.004823 0.450073
O O1 0.173056 0.202736 0.239505
O O2 0.132632 0.041356 0.234440
O O3 0.117494 0.133346 0.902104
O O4 0.263134 0.090416 0.019302
O O5 0.633917 0.174334 0.521800
O O6 0.696580 0.130860 0.177542
O O7 0.549496 0.198670 0.154226
O O8 0.499403 0.728600 0.299252
O O9 0.533240 0.571741 0.408345
O O10 0.450894 0.582799 0.065763
O O11 0.951018 0.609969 0.319081
O O12 0.801478 0.563974 0.319359
O O13 0.889836 0.511309 0.010698
O O14 0.406211 0.150280 0.935776
O O15 0.178247 0.535283 0.167134
O O16 0.822912 0.027018 0.074319
#
# Coordination Sequence:
#
# PCOD9345445 Si02
#       8
#     4   4   4   4   4   4   4   4
#     4  11  22  42  63  93 128 166 212 271 327 379
#     4   9  22  41  64  89 129 166 210 268 317 381
#     4  11  24  42  65  92 126 169 215 270 322 387
#     4  10  21  41  63  92 128 169 210 260 329 381
#     4  10  24  40  63  95 128 167 215 264 320 385
#     4  11  23  38  65  95 128 170 213 264 326 395
#     4  10  22  39  64  94 125 166 210 261 326 392
#     4  12  22  41  67  90 126 169 215 264 323 394
#
# _framework density 19.816616
#
# number of rings (size 3 to 8) (size 9 to 14) (size 15 to 20)
#    0.000    1.500    3.750    0.750    7.000    0.000 
#    0.000    0.000    0.000    0.000    0.000    0.000 
#    0.000    0.000    0.000    0.000    0.000    0.000 
#
# Total GULP energy -178504.908857 kJ/mol
# GULP energy per Si atom -5578.278402 kJ/mol
# Density = 1.977151 g / cm^3
# Si number density = 19.816616 Si / 1000 Ang^3
#
#
#
# Elastic Constant Matrix: (Units=GPa)
#
#
# Indices 1 2 3 4 5 6 
#
# 1 80.9751 39.4541 19.7590 0.0000 0.0000 0.0000
# 2 39.4541 89.0133 10.8288 0.0000 0.0000 0.0000
# 3 19.7590 10.8288 65.4915 0.0000 0.0000 0.0000
# 4 0.0000 0.0000 0.0000 29.6972 0.0000 0.0000
# 5 0.0000 0.0000 0.0000 0.0000 22.9267 0.0000
# 6 0.0000 0.0000 0.0000 0.0000 0.0000 28.1256
#
#
#
# Elastic Compliance Matrix: (Units=1/GPa)
#
#
# Indices 1 2 3 4 5 6 
#
# 1 0.016667 -0.006915 -0.003885 0.000000 0.000000 0.000000
# 2 -0.006915 0.014334 -0.000284 0.000000 0.000000 0.000000
# 3 -0.003885 -0.000284 0.016488 0.000000 0.000000 0.000000
# 4 0.000000 0.000000 0.000000 0.033673 0.000000 0.000000
# 5 0.000000 0.000000 0.000000 0.000000 0.043617 0.000000
# 6 0.000000 0.000000 0.000000 0.000000 0.000000 0.035555
#
#
# Mechanical properties :
#
#
# Convention : Reuss Voigt Hill
#
# Bulk Modulus (GPa) = 39.49235 41.72931 40.61083
# Shear Modulus (GPa) = 26.18609 27.17910 26.68259
#
# Velocity S-wave (km/s) = 3.63908 3.70744 3.67342
# Velocity P-wave (km/s) = 6.13428 6.27935 6.20724
#
# Compressibility (1/GPa) = 0.02532136
#
# Stress axis : x y z
#
# Youngs Moduli (GPa) = 60.00046 69.76597 60.64932
#
# Poissons Ratio (x) = 0.48240 0.23563
# Poissons Ratio (y) = 0.41488 0.01722
# Poissons Ratio (z) = 0.23310 0.01980
#
# Static dielectric constant tensor:
#      x y z
#    x 1.693710 0.000000 0.000000 
#    y 0.000000 1.701220 0.000000 
#    z 0.000000 0.000000 1.744110 
# 
# From -- ./inp_files/1496.got.cif
#   From: 2010.05.17/outbox.cif.g08.bks.cpg/sg33_1_cif.got.tgz:1496.got - 2010.06.03 17:15:25.
