data_PCOD9345233
_publ_section_title
;
Structure prediction by ZEFSAII (Michael W. Deem and Ramdas Pophale) SiO2 
 PCOD9345233
Probable space group: P N A 21
;
_chemical_formula_sum "Si O2"
_cell_formula_units_Z 32
_cell_length_a 17.685312
_cell_length_b 7.762232
_cell_length_c 10.492329
_cell_angle_alpha 90.000000
_cell_angle_beta 90.000000
_cell_angle_gamma 90.000000
_cell_volume 1440.360639
_symmetry_space_group_name_H-M "P N A 21"
_symmetry_group_IT_number 33
_symmetry_cell_setting 'orthorhombic'
loop_
_space_group_symop_operation_xyz
x,y,z
-x,-y,1/2+z
1/2-x,1/2+y,1/2+z
1/2+x,1/2-y,z
loop_
_atom_site_type_symbol
_atom_site_label
_atom_site_fract_x
_atom_site_fract_y
_atom_site_fract_z
Si Si1 0.670977 0.825825 0.495230
Si Si2 0.508884 0.498220 0.831912
Si Si3 0.218350 0.877602 0.014106
Si Si4 0.336231 0.355124 0.260228
Si Si5 0.071102 0.079857 0.089831
Si Si6 0.996858 0.425887 0.021235
Si Si7 0.273302 0.745132 0.267469
Si Si8 0.936620 0.610316 0.271039
O O1 0.704308 0.018579 0.494068
O O2 0.684003 0.741068 0.632232
O O3 0.581437 0.835503 0.476405
O O4 0.718432 0.729684 0.387094
O O5 0.573935 0.623632 0.775840
O O6 0.439185 0.532489 0.737870
O O7 0.534899 0.303753 0.800195
O O8 0.512509 0.509477 0.986516
O O9 0.152018 0.018128 0.038536
O O10 0.225886 0.768661 0.139914
O O11 0.197171 0.773289 0.888292
O O12 0.303909 0.549448 0.263873
O O13 0.054797 0.281719 0.073094
O O14 0.034451 0.499761 0.892652
O O15 0.971503 0.545524 0.138365
O O16 0.346032 0.870295 0.267813
#
# Coordination Sequence:
#
# PCOD9345233 Si02
#       8
#     4   4   4   4   4   4   4   4
#     4  11  21  40  63  91 120 166 202 248 310 366
#     4   9  19  37  59  82 116 153 197 252 296 359
#     4  10  22  40  59  88 123 160 200 253 308 366
#     4   9  20  39  59  84 119 153 202 249 298 361
#     4  10  21  37  60  87 118 158 203 251 305 361
#     4  11  22  42  62  90 125 166 207 255 310 366
#     4  10  22  42  62  89 127 159 203 259 308 364
#     4  10  23  43  60  89 128 161 202 259 311 363
#
# _framework density 22.216657000000001
#
# number of rings (size 3 to 8) (size 9 to 14) (size 15 to 20)
#    0.000    2.000    2.500    2.250    3.500    2.000 
#    9.000    2.500    0.000    0.000    0.000    0.000 
#    0.000    0.000    0.000    0.000    0.000    0.000 
#
# Total GULP energy -178660.229053 kJ/mol
# GULP energy per Si atom -5583.132158 kJ/mol
# Density = 2.216609 g / cm^3
# Si number density = 22.216657 Si / 1000 Ang^3
#
#
#
# Elastic Constant Matrix: (Units=GPa)
#
#
# Indices 1 2 3 4 5 6 
#
# 1 58.2432 12.5911 26.4384 0.0000 0.0000 0.0000
# 2 12.5911 31.6593 20.8136 0.0000 0.0000 0.0000
# 3 26.4384 20.8136 158.7969 0.0000 0.0000 0.0000
# 4 0.0000 0.0000 0.0000 33.3062 0.0000 0.0000
# 5 0.0000 0.0000 0.0000 0.0000 39.7130 0.0000
# 6 0.0000 0.0000 0.0000 0.0000 0.0000 7.3953
#
#
#
# Elastic Compliance Matrix: (Units=1/GPa)
#
#
# Indices 1 2 3 4 5 6 
#
# 1 0.019622 -0.006189 -0.002456 0.000000 0.000000 0.000000
# 2 -0.006189 0.036517 -0.003756 0.000000 0.000000 0.000000
# 3 -0.002456 -0.003756 0.007198 0.000000 0.000000 0.000000
# 4 0.000000 0.000000 0.000000 0.030024 0.000000 0.000000
# 5 0.000000 0.000000 0.000000 0.000000 0.025181 0.000000
# 6 0.000000 0.000000 0.000000 0.000000 0.000000 0.135221
#
#
# Mechanical properties :
#
#
# Convention : Reuss Voigt Hill
#
# Bulk Modulus (GPa) = 25.94988 40.93173 33.44081
# Shear Modulus (GPa) = 17.15788 28.67330 22.91559
#
# Velocity S-wave (km/s) = 2.78204 3.59642 3.21512
# Velocity P-wave (km/s) = 4.69312 5.97575 5.37285
#
# Compressibility (1/GPa) = 0.03853582
#
# Stress axis : x y z
#
# Youngs Moduli (GPa) = 50.96287 27.38445 138.91825
#
# Poissons Ratio (x) = 0.16949 0.34114
# Poissons Ratio (y) = 0.31543 0.52175
# Poissons Ratio (z) = 0.12515 0.10285
#
# Static dielectric constant tensor:
#      x y z
#    x 1.808480 0.000000 0.000000 
#    y 0.000000 1.828380 0.000000 
#    z 0.000000 0.000000 1.853480 
# 
# From -- ./inp_files/5042.got.cif
#   From: 2010.05.17/outbox.cif.g08.bks.cpg/sg33_3_cif.got.tgz:5042.got - 2010.06.03 17:15:25.
