data_PCOD9345708
_publ_section_title
;
Structure prediction by ZEFSAII (Michael W. Deem and Ramdas Pophale) SiO2 
 PCOD9345708
Probable space group: P N A 21
;
_chemical_formula_sum "Si O2"
_cell_formula_units_Z 28
_cell_length_a 16.579922
_cell_length_b 9.350878
_cell_length_c 9.325110
_cell_angle_alpha 90.000000
_cell_angle_beta 90.000000
_cell_angle_gamma 90.000000
_cell_volume 1445.735474
_symmetry_space_group_name_H-M "P N A 21"
_symmetry_group_IT_number 33
_symmetry_cell_setting 'orthorhombic'
loop_
_space_group_symop_operation_xyz
x,y,z
-x,-y,1/2+z
1/2-x,1/2+y,1/2+z
1/2+x,1/2-y,z
loop_
_atom_site_type_symbol
_atom_site_label
_atom_site_fract_x
_atom_site_fract_y
_atom_site_fract_z
Si Si1 0.773260 0.425793 0.805070
Si Si2 0.084769 0.779387 0.385063
Si Si3 0.667840 0.182143 0.883484
Si Si4 0.196345 0.019378 0.491186
Si Si5 0.034956 0.329821 0.667233
Si Si6 0.972055 0.636726 0.610115
Si Si7 0.118589 0.297619 0.378859
O O1 0.842520 0.303429 0.804808
O O2 0.704987 0.342122 0.899040
O O3 0.730049 0.464603 0.653931
O O4 0.823630 0.563336 0.859370
O O5 0.117028 0.923005 0.459993
O O6 0.015263 0.783062 0.263017
O O7 0.048676 0.689058 0.518885
O O8 0.624774 0.170713 0.731116
O O9 0.736159 0.065822 0.904520
O O10 0.598963 0.136455 0.994123
O O11 0.177418 0.171383 0.424412
O O12 0.049853 0.308635 0.500373
O O13 0.992286 0.483871 0.680678
O O14 0.932592 0.730313 0.735288
#
# Coordination Sequence:
#
# PCOD9345708 Si02
#       7
#     4   4   4   4   4   4   4
#     4  11  21  43  64  94 132 169 221 267 328 399
#     4  10  23  41  68  90 134 173 210 284 322 378
#     4  10  22  40  67  87 135 168 211 282 322 383
#     4  11  24  41  63 100 133 166 218 275 335 387
#     4  11  20  40  68  96 125 176 219 266 330 397
#     4  11  21  41  67  96 126 175 228 260 333 398
#     4  12  23  38  69  95 129 173 225 264 328 406
#
# _framework density 19.367305999999999
#
# number of rings (size 3 to 8) (size 9 to 14) (size 15 to 20)
#    0.000    1.143    5.714    0.857    0.000    3.429 
#    0.000    0.000    0.000    0.000    0.000    0.000 
#    0.000    0.000    0.000    0.000    0.000    0.000 
#
# Total GULP energy -155877.111894 kJ/mol
# GULP energy per Si atom -5567.039710 kJ/mol
# Density = 1.932323 g / cm^3
# Si number density = 19.367306 Si / 1000 Ang^3
#
#
#
# Elastic Constant Matrix: (Units=GPa)
#
#
# Indices 1 2 3 4 5 6 
#
# 1 62.4238 34.4784 19.5674 0.0000 0.0000 0.0000
# 2 34.4784 88.3115 22.9066 0.0000 0.0000 0.0000
# 3 19.5674 22.9066 70.4280 0.0000 0.0000 0.0000
# 4 0.0000 0.0000 0.0000 11.4934 0.0000 0.0000
# 5 0.0000 0.0000 0.0000 0.0000 34.5721 0.0000
# 6 0.0000 0.0000 0.0000 0.0000 0.0000 30.0885
#
#
#
# Elastic Compliance Matrix: (Units=1/GPa)
#
#
# Indices 1 2 3 4 5 6 
#
# 1 0.021181 -0.007364 -0.003490 0.000000 0.000000 0.000000
# 2 -0.007364 0.014927 -0.002809 0.000000 0.000000 0.000000
# 3 -0.003490 -0.002809 0.016082 0.000000 0.000000 0.000000
# 4 0.000000 0.000000 0.000000 0.087006 0.000000 0.000000
# 5 0.000000 0.000000 0.000000 0.000000 0.028925 0.000000
# 6 0.000000 0.000000 0.000000 0.000000 0.000000 0.033235
#
#
# Mechanical properties :
#
#
# Convention : Reuss Voigt Hill
#
# Bulk Modulus (GPa) = 40.21798 41.67424 40.94611
# Shear Modulus (GPa) = 21.09965 24.84487 22.97226
#
# Velocity S-wave (km/s) = 3.30426 3.58554 3.44777
# Velocity P-wave (km/s) = 5.94714 6.22142 6.08582
#
# Compressibility (1/GPa) = 0.02486450
#
# Stress axis : x y z
#
# Youngs Moduli (GPa) = 47.21240 66.99130 62.18108
#
# Poissons Ratio (x) = 0.49334 0.21699
# Poissons Ratio (y) = 0.34768 0.17467
# Poissons Ratio (z) = 0.16475 0.18818
#
# Static dielectric constant tensor:
#      x y z
#    x 1.611470 0.000000 0.000000 
#    y 0.000000 1.688470 0.000000 
#    z 0.000000 0.000000 1.716380 
# 
# From -- ./inp_files/4707.got.cif
#   From: 2010.05.17/outbox.cif.g08.bks.cpg/sg33_3_cif.got.tgz:4707.got - 2010.06.03 17:15:25.
