data_PCOD9345520
_publ_section_title
;
Structure prediction by ZEFSAII (Michael W. Deem and Ramdas Pophale) SiO2 
 PCOD9345520
Probable space group: P N A 21
;
_chemical_formula_sum "Si O2"
_cell_formula_units_Z 28
_cell_length_a 10.246940
_cell_length_b 5.369013
_cell_length_c 19.257444
_cell_angle_alpha 90.000000
_cell_angle_beta 90.000000
_cell_angle_gamma 90.000000
_cell_volume 1059.466655
_symmetry_space_group_name_H-M "P N A 21"
_symmetry_group_IT_number 33
_symmetry_cell_setting 'orthorhombic'
loop_
_space_group_symop_operation_xyz
x,y,z
-x,-y,1/2+z
1/2-x,1/2+y,1/2+z
1/2+x,1/2-y,z
loop_
_atom_site_type_symbol
_atom_site_label
_atom_site_fract_x
_atom_site_fract_y
_atom_site_fract_z
Si Si1 0.370715 0.297636 0.798070
Si Si2 0.505376 0.211149 0.267016
Si Si3 0.933560 0.527371 0.634077
Si Si4 0.693726 0.667692 0.037573
Si Si5 0.510790 0.701776 0.502263
Si Si6 0.734806 0.052520 0.933619
Si Si7 0.303443 0.965546 0.176765
O O1 0.475977 0.522961 0.801348
O O2 0.264529 0.388087 0.854257
O O3 0.795368 0.196257 0.723827
O O4 0.634707 0.830481 0.730651
O O5 0.599727 0.199023 0.199021
O O6 0.558567 0.968795 0.308374
O O7 0.823414 0.405699 0.587911
O O8 0.008783 0.695236 0.579083
O O9 0.051108 0.342490 0.660126
O O10 0.745926 0.488718 0.099238
O O11 0.554870 0.568459 0.010708
O O12 0.757008 0.777656 0.967235
O O13 0.406987 0.854859 0.456271
O O14 0.652776 0.710799 0.471147
#
# Coordination Sequence:
#
# PCOD9345520 Si02
#       7
#     4   4   4   4   4   4   4
#     4  12  26  49  68 110 146 208 246 316 379 475
#     4  10  26  43  72 102 146 186 252 306 385 447
#     4   9  21  39  67 106 134 189 242 321 372 450
#     4  11  21  44  70 109 139 194 252 324 380 456
#     4  11  24  46  71 108 150 197 255 321 386 470
#     4  11  29  43  76 104 158 203 264 309 404 464
#     4  10  21  42  74 101 147 187 253 315 382 448
#
# _framework density 26.428393
#
# number of rings (size 3 to 8) (size 9 to 14) (size 15 to 20)
#    0.857    0.571    1.429    2.571    4.000    4.571 
#    5.143    0.000    0.000    0.000    0.000    0.000 
#    0.000    0.000    0.000    0.000    0.000    0.000 
#
# Total GULP energy -156041.470010 kJ/mol
# GULP energy per Si atom -5572.909643 kJ/mol
# Density = 2.636824 g / cm^3
# Si number density = 26.428393 Si / 1000 Ang^3
#
#
#
# Elastic Constant Matrix: (Units=GPa)
#
#
# Indices 1 2 3 4 5 6 
#
# 1 88.2445 12.9632 2.7427 0.0000 0.0000 0.0000
# 2 12.9632 95.3569 22.4097 0.0000 0.0000 0.0000
# 3 2.7427 22.4097 117.5766 0.0000 0.0000 0.0000
# 4 0.0000 0.0000 0.0000 25.3588 0.0000 0.0000
# 5 0.0000 0.0000 0.0000 0.0000 44.8049 0.0000
# 6 0.0000 0.0000 0.0000 0.0000 0.0000 21.4622
#
#
#
# Elastic Compliance Matrix: (Units=1/GPa)
#
#
# Indices 1 2 3 4 5 6 
#
# 1 0.011563 -0.001579 0.000031 0.000000 0.000000 0.000000
# 2 -0.001579 0.011194 -0.002097 0.000000 0.000000 0.000000
# 3 0.000031 -0.002097 0.008904 0.000000 0.000000 0.000000
# 4 0.000000 0.000000 0.000000 0.039434 0.000000 0.000000
# 5 0.000000 0.000000 0.000000 0.000000 0.022319 0.000000
# 6 0.000000 0.000000 0.000000 0.000000 0.000000 0.046593
#
#
# Mechanical properties :
#
#
# Convention : Reuss Voigt Hill
#
# Bulk Modulus (GPa) = 41.03073 41.93435 41.48254
# Shear Modulus (GPa) = 32.17057 35.86269 34.01663
#
# Velocity S-wave (km/s) = 3.49273 3.68771 3.59154
# Velocity P-wave (km/s) = 5.64132 5.83386 5.73840
#
# Compressibility (1/GPa) = 0.02437198
#
# Stress axis : x y z
#
# Youngs Moduli (GPa) = 86.48144 89.33056 112.30908
#
# Poissons Ratio (x) = 0.14108 -0.00351
# Poissons Ratio (y) = 0.13658 0.23549
# Poissons Ratio (z) = -0.00270 0.18731
#
# Static dielectric constant tensor:
#      x y z
#    x 2.162210 0.000000 0.000000 
#    y 0.000000 2.183190 0.000000 
#    z 0.000000 0.000000 2.097210 
# 
# From -- ./inp_files/9029.got.cif
#   From: 2010.05.17/outbox.cif.g08.bks.cpg/sg33_5_cif.got.tgz:9029.got - 2010.06.03 17:15:25.
