data_PCOD9345671
_publ_section_title
;
Structure prediction by ZEFSAII (Michael W. Deem and Ramdas Pophale) SiO2 
 PCOD9345671
Probable space group: P N A 21
;
_chemical_formula_sum "Si O2"
_cell_formula_units_Z 32
_cell_length_a 9.388044
_cell_length_b 8.524417
_cell_length_c 16.674011
_cell_angle_alpha 90.000000
_cell_angle_beta 90.000000
_cell_angle_gamma 90.000000
_cell_volume 1334.381114
_symmetry_space_group_name_H-M "P N A 21"
_symmetry_group_IT_number 33
_symmetry_cell_setting 'orthorhombic'
loop_
_space_group_symop_operation_xyz
x,y,z
-x,-y,1/2+z
1/2-x,1/2+y,1/2+z
1/2+x,1/2-y,z
loop_
_atom_site_type_symbol
_atom_site_label
_atom_site_fract_x
_atom_site_fract_y
_atom_site_fract_z
Si Si1 0.432661 0.749961 0.889100
Si Si2 0.676702 0.390003 0.142254
Si Si3 0.275253 0.258793 0.820224
Si Si4 0.823298 0.390004 0.313898
Si Si5 0.067339 0.749961 0.567052
Si Si6 0.034064 0.106031 0.900355
Si Si7 0.275253 0.758794 0.135928
Si Si8 0.034064 0.606031 0.055797
O O1 0.266472 0.721713 0.873573
O O2 0.512400 0.845208 0.818992
O O3 0.495926 0.574650 0.889911
O O4 0.477557 0.837721 0.969845
O O5 0.750000 0.369280 0.228076
O O6 0.766472 0.278287 0.082579
O O7 0.512400 0.345207 0.137160
O O8 0.702633 0.571022 0.120445
O O9 0.202633 0.428978 0.835707
O O10 0.198248 0.140375 0.880776
O O11 0.440109 0.291812 0.837826
O O12 0.250000 0.213265 0.728076
O O13 0.004074 0.574650 0.566240
O O14 0.022444 0.837722 0.486307
O O15 0.440109 0.791813 0.118326
O O16 0.198248 0.640375 0.075376
#
# Coordination Sequence:
#
# PCOD9345671 Si02
#       8
#     4   4   4   4   4   4   4   4
#     4  11  23  38  59  86 116 153 194 237 287 342
#     4  10  22  40  61  87 118 151 191 239 289 343
#     4  10  22  40  61  87 118 151 191 239 289 343
#     4  10  22  40  61  87 118 151 191 239 289 343
#     4  11  23  38  59  86 116 153 194 237 287 342
#     4  11  23  38  59  86 116 153 194 237 287 342
#     4  10  22  40  61  87 118 151 191 239 289 343
#     4  11  23  38  59  86 116 153 194 237 287 342
#
# _framework density 23.981154
#
# number of rings (size 3 to 8) (size 9 to 14) (size 15 to 20)
#    0.000    1.500    0.000    4.500    0.000    9.000 
#    0.000    0.000    0.000    0.000    0.000    0.000 
#    0.000    0.000    0.000    0.000    0.000    0.000 
#
# Total GULP energy -179146.564287 kJ/mol
# GULP energy per Si atom -5598.330134 kJ/mol
# Density = 2.392657 g / cm^3
# Si number density = 23.981154 Si / 1000 Ang^3
#
#
#
# Elastic Constant Matrix: (Units=GPa)
#
#
# Indices 1 2 3 4 5 6 
#
# 1 56.8929 16.0146 -22.4529 0.0000 0.0000 0.0000
# 2 16.0146 35.8965 -10.1117 0.0000 0.0000 0.0000
# 3 -22.4529 -10.1117 43.4109 0.0000 0.0000 0.0000
# 4 0.0000 0.0000 0.0000 19.0352 0.0000 0.0000
# 5 0.0000 0.0000 0.0000 0.0000 32.5910 0.0000
# 6 0.0000 0.0000 0.0000 0.0000 0.0000 38.9150
#
#
#
# Elastic Compliance Matrix: (Units=1/GPa)
#
#
# Indices 1 2 3 4 5 6 
#
# 1 0.023916 -0.007690 0.010579 0.000000 0.000000 0.000000
# 2 -0.007690 0.032287 0.003543 0.000000 0.000000 0.000000
# 3 0.010579 0.003543 0.029333 0.000000 0.000000 0.000000
# 4 0.000000 0.000000 0.000000 0.052534 0.000000 0.000000
# 5 0.000000 0.000000 0.000000 0.000000 0.030683 0.000000
# 6 0.000000 0.000000 0.000000 0.000000 0.000000 0.025697
#
#
# Mechanical properties :
#
#
# Convention : Reuss Voigt Hill
#
# Bulk Modulus (GPa) = 10.16264 11.45559 10.80911
# Shear Modulus (GPa) = 23.32239 28.29159 25.80699
#
# Velocity S-wave (km/s) = 3.12192 3.43846 3.28401
# Velocity P-wave (km/s) = 4.15237 4.53336 4.34704
#
# Compressibility (1/GPa) = 0.09839964
#
# Stress axis : x y z
#
# Youngs Moduli (GPa) = 41.81223 30.97256 34.09182
#
# Poissons Ratio (x) = 0.23818 -0.36065
# Poissons Ratio (y) = 0.32153 -0.12079
# Poissons Ratio (z) = -0.44232 -0.10974
#
# Static dielectric constant tensor:
#      x y z
#    x 1.875830 0.000000 0.000000 
#    y 0.000000 1.847130 0.000000 
#    z 0.000000 0.000000 1.942240 
# 
# From -- ./inp_files/8496.got.cif
#   From: 2010.05.17/outbox.cif.g08.bks.cpg/sg33_5_cif.got.tgz:8496.got - 2010.06.03 17:15:25.
