data_PCOD9345625
_publ_section_title
;
Structure prediction by ZEFSAII (Michael W. Deem and Ramdas Pophale) SiO2 
 PCOD9345625
Probable space group: P N A 21
;
_chemical_formula_sum "Si O2"
_cell_formula_units_Z 20
_cell_length_a 19.976960
_cell_length_b 7.121564
_cell_length_c 5.064337
_cell_angle_alpha 90.000000
_cell_angle_beta 90.000000
_cell_angle_gamma 90.000000
_cell_volume 720.489041
_symmetry_space_group_name_H-M "P N A 21"
_symmetry_group_IT_number 33
_symmetry_cell_setting 'orthorhombic'
loop_
_space_group_symop_operation_xyz
x,y,z
-x,-y,1/2+z
1/2-x,1/2+y,1/2+z
1/2+x,1/2-y,z
loop_
_atom_site_type_symbol
_atom_site_label
_atom_site_fract_x
_atom_site_fract_y
_atom_site_fract_z
Si Si1 0.228089 0.567545 0.237880
Si Si2 0.559106 0.695425 0.825395
Si Si3 0.519696 0.251617 0.833042
Si Si4 0.167125 0.903498 0.417893
Si Si5 0.347858 0.774265 0.099922
O O1 0.178680 0.742684 0.204376
O O2 0.301514 0.655344 0.305106
O O3 0.194842 0.422950 0.436142
O O4 0.256283 0.467198 0.980105
O O5 0.541046 0.472218 0.836352
O O6 0.507859 0.791740 0.619929
O O7 0.629305 0.695691 0.663813
O O8 0.538697 0.766624 0.114771
O O9 0.587123 0.148498 0.741960
O O10 0.131491 0.105078 0.392751
#
# Coordination Sequence:
#
# PCOD9345625 Si02
#       5
#     4   4   4   4   4
#     4  10  22  38  60  92 134 176 222 272 344 404
#     4   9  18  37  62  93 124 171 225 276 334 397
#     4   9  18  37  62  93 124 171 225 276 334 397
#     4   9  22  39  61  95 129 177 216 281 331 410
#     4   9  22  39  61  95 129 177 216 281 331 410
#
# _framework density 27.758922999999999
#
# number of rings (size 3 to 8) (size 9 to 14) (size 15 to 20)
#    1.200    1.600    0.000    0.000    2.800    3.200 
#    7.200    2.000    0.000    0.000    0.000    0.000 
#    0.000    0.000    0.000    0.000    0.000    0.000 
#
# Total GULP energy -111512.643867 kJ/mol
# GULP energy per Si atom -5575.632193 kJ/mol
# Density = 2.769574 g / cm^3
# Si number density = 27.758923 Si / 1000 Ang^3
#
#
#
# Elastic Constant Matrix: (Units=GPa)
#
#
# Indices 1 2 3 4 5 6 
#
# 1 97.8902 37.3519 12.2253 0.0000 0.0000 0.0000
# 2 37.3519 88.6438 -0.0875 0.0000 0.0000 0.0000
# 3 12.2253 -0.0875 78.7592 0.0000 0.0000 0.0000
# 4 0.0000 0.0000 0.0000 25.6010 0.0000 0.0000
# 5 0.0000 0.0000 0.0000 0.0000 50.8911 0.0000
# 6 0.0000 0.0000 0.0000 0.0000 0.0000 33.7194
#
#
#
# Elastic Compliance Matrix: (Units=1/GPa)
#
#
# Indices 1 2 3 4 5 6 
#
# 1 0.012462 -0.005253 -0.001940 0.000000 0.000000 0.000000
# 2 -0.005253 0.013495 0.000830 0.000000 0.000000 0.000000
# 3 -0.001940 0.000830 0.012999 0.000000 0.000000 0.000000
# 4 0.000000 0.000000 0.000000 0.039061 0.000000 0.000000
# 5 0.000000 0.000000 0.000000 0.000000 0.019650 0.000000
# 6 0.000000 0.000000 0.000000 0.000000 0.000000 0.029657
#
#
# Mechanical properties :
#
#
# Convention : Reuss Voigt Hill
#
# Bulk Modulus (GPa) = 38.12325 40.47473 39.29899
# Shear Modulus (GPa) = 33.60357 36.42919 35.01638
#
# Velocity S-wave (km/s) = 3.48307 3.62656 3.55554
# Velocity P-wave (km/s) = 5.47167 5.66995 5.57169
#
# Compressibility (1/GPa) = 0.02623071
#
# Stress axis : x y z
#
# Youngs Moduli (GPa) = 80.24203 74.09905 76.92878
#
# Poissons Ratio (x) = 0.38925 0.14926
# Poissons Ratio (y) = 0.42152 -0.06388
# Poissons Ratio (z) = 0.15569 -0.06153
#
# Static dielectric constant tensor:
#      x y z
#    x 2.200800 0.000000 0.000000 
#    y 0.000000 2.301560 0.000000 
#    z 0.000000 0.000000 2.257720 
# 
# From -- ./inp_files/2169.got.cif
#   From: 2010.05.17/outbox.cif.g08.bks.cpg/sg33_2_cif.got.tgz:2169.got - 2010.06.03 17:15:25.
