data_PCOD9345396
_publ_section_title
;
Structure prediction by ZEFSAII (Michael W. Deem and Ramdas Pophale) SiO2 
 PCOD9345396
Probable space group: P N A 21
;
_chemical_formula_sum "Si O2"
_cell_formula_units_Z 32
_cell_length_a 18.460618
_cell_length_b 8.291572
_cell_length_c 8.519084
_cell_angle_alpha 90.000000
_cell_angle_beta 90.000000
_cell_angle_gamma 90.000000
_cell_volume 1303.995259
_symmetry_space_group_name_H-M "P N A 21"
_symmetry_group_IT_number 33
_symmetry_cell_setting 'orthorhombic'
loop_
_space_group_symop_operation_xyz
x,y,z
-x,-y,1/2+z
1/2-x,1/2+y,1/2+z
1/2+x,1/2-y,z
loop_
_atom_site_type_symbol
_atom_site_label
_atom_site_fract_x
_atom_site_fract_y
_atom_site_fract_z
Si Si1 0.571254 0.676556 0.933990
Si Si2 0.147968 0.338864 0.354476
Si Si3 0.716456 0.561042 0.034823
Si Si4 0.281661 0.826257 0.521436
Si Si5 0.916248 0.651877 0.317590
Si Si6 0.500389 0.548445 0.228865
Si Si7 0.646855 0.545559 0.366627
Si Si8 0.484542 0.986454 0.021164
O O1 0.656499 0.649430 0.927008
O O2 0.531486 0.623295 0.776642
O O3 0.543989 0.842928 0.006081
O O4 0.539700 0.548910 0.061574
O O5 0.205632 0.376114 0.489690
O O6 0.077006 0.440848 0.394037
O O7 0.136087 0.147171 0.362867
O O8 0.183364 0.378589 0.186760
O O9 0.717183 0.368193 0.015561
O O10 0.690095 0.596545 0.209921
O O11 0.336128 0.877410 0.381287
O O12 0.200578 0.894336 0.501430
O O13 0.934346 0.824214 0.238787
O O14 0.968577 0.637293 0.468766
O O15 0.944636 0.524477 0.187976
O O16 0.565501 0.607044 0.343694
#
# Coordination Sequence:
#
# PCOD9345396 Si02
#       8
#     4   4   4   4   4   4   4   4
#     4  10  21  40  65  90 119 158 203 252 308 364
#     4  11  24  42  64  91 123 164 206 254 311 366
#     4  10  23  42  62  90 126 162 205 256 306 370
#     4  11  24  42  64  91 123 164 206 254 311 366
#     4  11  24  41  64  94 126 164 206 257 311 366
#     4  10  21  40  65  90 119 158 203 252 308 364
#     4  10  23  42  62  90 126 162 205 256 306 370
#     4  11  24  41  64  94 126 164 206 257 311 366
#
# _framework density 24.539967000000001
#
# number of rings (size 3 to 8) (size 9 to 14) (size 15 to 20)
#    0.000    1.500    2.500    1.500    3.500    4.000 
#    0.000    0.000    0.000    0.000    0.000    0.000 
#    0.000    0.000    0.000    0.000    0.000    0.000 
#
# Total GULP energy -179023.180304 kJ/mol
# GULP energy per Si atom -5594.474384 kJ/mol
# Density = 2.448411 g / cm^3
# Si number density = 24.539967 Si / 1000 Ang^3
#
#
#
# Elastic Constant Matrix: (Units=GPa)
#
#
# Indices 1 2 3 4 5 6 
#
# 1 104.9112 0.6300 1.6886 0.0000 0.0000 0.0000
# 2 0.6300 17.9887 -5.3501 0.0000 0.0000 0.0000
# 3 1.6886 -5.3501 57.6586 0.0000 0.0000 0.0000
# 4 0.0000 0.0000 0.0000 26.4423 0.0000 0.0000
# 5 0.0000 0.0000 0.0000 0.0000 43.4728 0.0000
# 6 0.0000 0.0000 0.0000 0.0000 0.0000 23.9830
#
#
#
# Elastic Compliance Matrix: (Units=1/GPa)
#
#
# Indices 1 2 3 4 5 6 
#
# 1 0.009540 -0.000429 -0.000319 0.000000 0.000000 0.000000
# 2 -0.000429 0.057187 0.005319 0.000000 0.000000 0.000000
# 3 -0.000319 0.005319 0.017846 0.000000 0.000000 0.000000
# 4 0.000000 0.000000 0.000000 0.037818 0.000000 0.000000
# 5 0.000000 0.000000 0.000000 0.000000 0.023003 0.000000
# 6 0.000000 0.000000 0.000000 0.000000 0.000000 0.041696
#
#
# Mechanical properties :
#
#
# Convention : Reuss Voigt Hill
#
# Bulk Modulus (GPa) = 10.67067 19.38839 15.02953
# Shear Modulus (GPa) = 23.90198 31.01893 27.46045
#
# Velocity S-wave (km/s) = 3.12429 3.55916 3.34879
# Velocity P-wave (km/s) = 4.16805 4.98077 4.59242
#
# Compressibility (1/GPa) = 0.09371484
#
# Stress axis : x y z
#
# Youngs Moduli (GPa) = 104.82637 17.48634 56.03388
#
# Poissons Ratio (x) = 0.00750 0.01789
# Poissons Ratio (y) = 0.04497 -0.29804
# Poissons Ratio (z) = 0.03346 -0.09301
#
# Static dielectric constant tensor:
#      x y z
#    x 1.902780 0.000000 0.000000 
#    y 0.000000 1.977320 0.000000 
#    z 0.000000 0.000000 2.017240 
# 
# From -- ./inp_files/4790.got.cif
#   From: 2010.05.17/outbox.cif.g08.bks.cpg/sg33_3_cif.got.tgz:4790.got - 2010.06.03 17:15:25.
