data_PCOD9345203
_publ_section_title
;
Structure prediction by ZEFSAII (Michael W. Deem and Ramdas Pophale) SiO2 
 PCOD9345203
Probable space group: P N A 21
;
_chemical_formula_sum "Si O2"
_cell_formula_units_Z 32
_cell_length_a 8.816943
_cell_length_b 21.840483
_cell_length_c 8.405488
_cell_angle_alpha 90.000000
_cell_angle_beta 90.000000
_cell_angle_gamma 90.000000
_cell_volume 1618.613671
_symmetry_space_group_name_H-M "P N A 21"
_symmetry_group_IT_number 33
_symmetry_cell_setting 'orthorhombic'
loop_
_space_group_symop_operation_xyz
x,y,z
-x,-y,1/2+z
1/2-x,1/2+y,1/2+z
1/2+x,1/2-y,z
loop_
_atom_site_type_symbol
_atom_site_label
_atom_site_fract_x
_atom_site_fract_y
_atom_site_fract_z
Si Si1 0.795403 0.729318 0.961540
Si Si2 0.778527 0.238506 0.961431
Si Si3 0.625500 0.650880 0.740809
Si Si4 0.575514 0.822947 0.839665
Si Si5 0.407734 0.935735 0.734781
Si Si6 0.900274 0.435040 0.907024
Si Si7 0.317019 0.643321 0.583812
Si Si8 0.529362 0.186632 0.775563
O O1 0.668799 0.679112 0.912793
O O2 0.702632 0.792853 0.955356
O O3 0.929876 0.722232 0.829372
O O4 0.894501 0.710612 0.113219
O O5 0.674897 0.185657 0.889282
O O6 0.902993 0.266375 0.841791
O O7 0.842401 0.207159 0.119917
O O8 0.661839 0.295376 0.982388
O O9 0.745402 0.596856 0.712288
O O10 0.455101 0.630810 0.701480
O O11 0.499622 0.889873 0.855919
O O12 0.667983 0.833985 0.678826
O O13 0.492563 0.939545 0.564254
O O14 0.395449 0.001536 0.814959
O O15 0.956797 0.380490 0.790571
O O16 0.737598 0.412747 0.976536
#
# Coordination Sequence:
#
# PCOD9345203 Si02
#       8
#     4   4   4   4   4   4   4   4
#     4  11  22  34  59  96 134 158 208 263 336 384
#     4  11  20  36  60  91 123 161 202 257 329 396
#     4  11  21  37  66  92 123 166 214 266 323 396
#     4  10  21  36  60  93 126 164 204 263 318 393
#     4  10  23  41  64  90 120 173 224 261 323 389
#     4  10  23  42  65  86 125 170 224 268 320 395
#     4  10  21  38  64  93 122 164 214 266 320 390
#     4  11  23  38  60  95 131 164 206 270 327 383
#
# _framework density 19.770005000000001
#
# number of rings (size 3 to 8) (size 9 to 14) (size 15 to 20)
#    0.000    1.500    3.750    1.500    7.000    0.000 
#    0.000    2.500    0.000    0.000    0.000    0.000 
#    0.000    0.000    0.000    0.000    0.000    0.000 
#
# Total GULP energy -178166.344034 kJ/mol
# GULP energy per Si atom -5567.698251 kJ/mol
# Density = 1.972501 g / cm^3
# Si number density = 19.770005 Si / 1000 Ang^3
#
#
#
# Elastic Constant Matrix: (Units=GPa)
#
#
# Indices 1 2 3 4 5 6 
#
# 1 108.3703 59.2214 31.0143 0.0000 0.0000 0.0000
# 2 59.2214 128.4769 20.1166 0.0000 0.0000 0.0000
# 3 31.0143 20.1166 51.0786 0.0000 0.0000 0.0000
# 4 0.0000 0.0000 0.0000 33.9122 0.0000 0.0000
# 5 0.0000 0.0000 0.0000 0.0000 37.4183 0.0000
# 6 0.0000 0.0000 0.0000 0.0000 0.0000 24.1225
#
#
#
# Elastic Compliance Matrix: (Units=1/GPa)
#
#
# Indices 1 2 3 4 5 6 
#
# 1 0.014043 -0.005476 -0.006370 0.000000 0.000000 0.000000
# 2 -0.005476 0.010430 -0.000783 0.000000 0.000000 0.000000
# 3 -0.006370 -0.000783 0.023754 0.000000 0.000000 0.000000
# 4 0.000000 0.000000 0.000000 0.029488 0.000000 0.000000
# 5 0.000000 0.000000 0.000000 0.000000 0.026725 0.000000
# 6 0.000000 0.000000 0.000000 0.000000 0.000000 0.041455
#
#
# Mechanical properties :
#
#
# Convention : Reuss Voigt Hill
#
# Bulk Modulus (GPa) = 43.53637 56.51448 50.02543
# Shear Modulus (GPa) = 27.96276 30.92883 29.44579
#
# Velocity S-wave (km/s) = 3.76494 3.95958 3.86348
# Velocity P-wave (km/s) = 6.40069 7.03935 6.72760
#
# Compressibility (1/GPa) = 0.02296930
#
# Stress axis : x y z
#
# Youngs Moduli (GPa) = 71.20975 95.87627 42.09819
#
# Poissons Ratio (x) = 0.52499 0.26818
# Poissons Ratio (y) = 0.38992 0.03296
# Poissons Ratio (z) = 0.45362 0.07507
#
# Static dielectric constant tensor:
#      x y z
#    x 1.734200 0.000000 0.000000 
#    y 0.000000 1.696800 0.000000 
#    z 0.000000 0.000000 1.847530 
# 
# From -- ./inp_files/3577.got.cif
#   From: 2010.05.17/outbox.cif.g08.bks.cpg/sg33_2_cif.got.tgz:3577.got - 2010.06.03 17:15:25.
