data_PCOD9345389
_publ_section_title
;
Structure prediction by ZEFSAII (Michael W. Deem and Ramdas Pophale) SiO2 
 PCOD9345389
Probable space group: P N A 21
;
_chemical_formula_sum "Si O2"
_cell_formula_units_Z 16
_cell_length_a 8.412687
_cell_length_b 7.171181
_cell_length_c 9.384090
_cell_angle_alpha 90.000000
_cell_angle_beta 90.000000
_cell_angle_gamma 90.000000
_cell_volume 566.131838
_symmetry_space_group_name_H-M "P N A 21"
_symmetry_group_IT_number 33
_symmetry_cell_setting 'orthorhombic'
loop_
_space_group_symop_operation_xyz
x,y,z
-x,-y,1/2+z
1/2-x,1/2+y,1/2+z
1/2+x,1/2-y,z
loop_
_atom_site_type_symbol
_atom_site_label
_atom_site_fract_x
_atom_site_fract_y
_atom_site_fract_z
Si Si1 0.994313 0.534893 0.244940
Si Si2 0.700105 0.064111 0.006108
Si Si3 0.011844 0.099260 0.322323
Si Si4 0.802191 0.985338 0.566973
O O1 0.004809 0.316680 0.287597
O O2 0.947863 0.616427 0.398557
O O3 0.141527 0.560420 0.138544
O O4 0.046044 0.998443 0.172441
O O5 0.746564 0.267293 0.061878
O O6 0.834334 0.962815 0.914303
O O7 0.345940 0.920430 0.142629
O O8 0.856398 0.048906 0.412148
#
# Coordination Sequence:
#
# PCOD9345389 Si02
#       4
#     4   4   4   4
#     4  10  23  40  63  95 128 167 216 268 325 391
#     4  10  21  40  63  92 129 169 216 270 324 389
#     4  10  22  42  65  94 130 169 218 272 325 390
#     4  10  22  42  65  91 127 165 214 272 328 390
#
# _framework density 28.261968
#
# number of rings (size 3 to 8) (size 9 to 14) (size 15 to 20)
#    0.000    2.000    0.000    3.000    0.000   10.000 
#    0.000   12.500    0.000    0.000    0.000    0.000 
#    0.000    0.000    0.000    0.000    0.000    0.000 
#
# Total GULP energy -89719.746353 kJ/mol
# GULP energy per Si atom -5607.484147 kJ/mol
# Density = 2.819764 g / cm^3
# Si number density = 28.261968 Si / 1000 Ang^3
#
#
#
# Elastic Constant Matrix: (Units=GPa)
#
#
# Indices 1 2 3 4 5 6 
#
# 1 103.6486 36.7101 63.6525 0.0000 0.0000 0.0000
# 2 36.7101 81.3807 24.9251 0.0000 0.0000 0.0000
# 3 63.6525 24.9251 158.0214 0.0000 0.0000 0.0000
# 4 0.0000 0.0000 0.0000 43.7129 0.0000 0.0000
# 5 0.0000 0.0000 0.0000 0.0000 81.9018 0.0000
# 6 0.0000 0.0000 0.0000 0.0000 0.0000 101.5173
#
#
#
# Elastic Compliance Matrix: (Units=1/GPa)
#
#
# Indices 1 2 3 4 5 6 
#
# 1 0.014530 -0.005003 -0.005063 0.000000 0.000000 0.000000
# 2 -0.005003 0.014635 -0.000293 0.000000 0.000000 0.000000
# 3 -0.005063 -0.000293 0.008414 0.000000 0.000000 0.000000
# 4 0.000000 0.000000 0.000000 0.022877 0.000000 0.000000
# 5 0.000000 0.000000 0.000000 0.000000 0.012210 0.000000
# 6 0.000000 0.000000 0.000000 0.000000 0.000000 0.009851
#
#
# Mechanical properties :
#
#
# Convention : Reuss Voigt Hill
#
# Bulk Modulus (GPa) = 59.31635 65.95845 62.63740
# Shear Modulus (GPa) = 45.93292 59.94393 52.93842
#
# Velocity S-wave (km/s) = 4.03582 4.61044 4.33267
# Velocity P-wave (km/s) = 6.53840 7.19239 6.87318
#
# Compressibility (1/GPa) = 0.01685876
#
# Stress axis : x y z
#
# Youngs Moduli (GPa) = 68.82476 68.33109 118.84830
#
# Poissons Ratio (x) = 0.34189 0.60179
# Poissons Ratio (y) = 0.34436 0.03482
# Poissons Ratio (z) = 0.34849 0.02002
#
# Static dielectric constant tensor:
#      x y z
#    x 2.239170 0.000000 0.000000 
#    y 0.000000 2.135000 0.000000 
#    z 0.000000 0.000000 2.155350 
# 
# From -- ./inp_files/2916.got.cif
#   From: 2010.05.17/outbox.cif.g08.bks.cpg/sg33_2_cif.got.tgz:2916.got - 2010.06.03 17:15:25.
