data_PCOD9345718
_publ_section_title
;
Structure prediction by ZEFSAII (Michael W. Deem and Ramdas Pophale) SiO2 
 PCOD9345718
Probable space group: P N A 21
;
_chemical_formula_sum "Si O2"
_cell_formula_units_Z 24
_cell_length_a 13.933399
_cell_length_b 7.827986
_cell_length_c 9.030911
_cell_angle_alpha 90.000000
_cell_angle_beta 90.000000
_cell_angle_gamma 90.000000
_cell_volume 985.005547
_symmetry_space_group_name_H-M "P N A 21"
_symmetry_group_IT_number 33
_symmetry_cell_setting 'orthorhombic'
loop_
_space_group_symop_operation_xyz
x,y,z
-x,-y,1/2+z
1/2-x,1/2+y,1/2+z
1/2+x,1/2-y,z
loop_
_atom_site_type_symbol
_atom_site_label
_atom_site_fract_x
_atom_site_fract_y
_atom_site_fract_z
Si Si1 0.807973 0.467561 0.398670
Si Si2 0.715848 0.384677 0.668094
Si Si3 0.005037 0.628140 0.294097
Si Si4 0.866424 0.095296 0.738590
Si Si5 0.595730 0.595268 0.903353
Si Si6 0.435082 0.817937 0.973897
O O1 0.769180 0.518050 0.560558
O O2 0.896588 0.584987 0.346694
O O3 0.712557 0.468415 0.300137
O O4 0.846882 0.275250 0.397055
O O5 0.798037 0.265066 0.732522
O O6 0.646578 0.473749 0.785548
O O7 0.654861 0.262312 0.557649
O O8 0.000840 0.622726 0.114985
O O9 0.044463 0.818404 0.326839
O O10 0.069980 0.482363 0.370030
O O11 0.897552 0.037876 0.574610
O O12 0.487769 0.667471 0.882713
#
# Coordination Sequence:
#
# PCOD9345718 Si02
#       6
#     4   4   4   4   4   4
#     4  10  22  43  64 100 136 185 231 286 367 420
#     4  11  23  41  66 101 138 177 240 293 346 437
#     4  10  22  43  67 101 139 186 232 299 361 427
#     4  10  22  40  70  93 132 186 231 288 349 428
#     4   9  23  42  64  97 140 176 228 298 351 416
#     4  10  22  43  69  98 143 184 240 292 366 430
#
# _framework density 24.365345000000001
#
# number of rings (size 3 to 8) (size 9 to 14) (size 15 to 20)
#    0.000    2.000    1.667    1.000    4.667    6.667 
#    0.000    0.000    0.000    0.000    0.000    0.000 
#    0.000    0.000    0.000    0.000    0.000    0.000 
#
# Total GULP energy -133998.021168 kJ/mol
# GULP energy per Si atom -5583.250882 kJ/mol
# Density = 2.430989 g / cm^3
# Si number density = 24.365345 Si / 1000 Ang^3
#
#
#
# Elastic Constant Matrix: (Units=GPa)
#
#
# Indices 1 2 3 4 5 6 
#
# 1 100.6719 6.5044 13.5161 0.0000 0.0000 0.0000
# 2 6.5044 79.1364 30.6908 0.0000 0.0000 0.0000
# 3 13.5161 30.6908 57.5549 0.0000 0.0000 0.0000
# 4 0.0000 0.0000 0.0000 49.3843 0.0000 0.0000
# 5 0.0000 0.0000 0.0000 0.0000 46.4039 0.0000
# 6 0.0000 0.0000 0.0000 0.0000 0.0000 69.4443
#
#
#
# Elastic Compliance Matrix: (Units=1/GPa)
#
#
# Indices 1 2 3 4 5 6 
#
# 1 0.010257 0.000115 -0.002470 0.000000 0.000000 0.000000
# 2 0.000115 0.015932 -0.008523 0.000000 0.000000 0.000000
# 3 -0.002470 -0.008523 0.022500 0.000000 0.000000 0.000000
# 4 0.000000 0.000000 0.000000 0.020249 0.000000 0.000000
# 5 0.000000 0.000000 0.000000 0.000000 0.021550 0.000000
# 6 0.000000 0.000000 0.000000 0.000000 0.000000 0.014400
#
#
# Mechanical properties :
#
#
# Convention : Reuss Voigt Hill
#
# Bulk Modulus (GPa) = 37.12882 37.64287 37.38585
# Shear Modulus (GPa) = 36.86707 45.48995 41.17851
#
# Velocity S-wave (km/s) = 3.89407 4.32556 4.11547
# Velocity P-wave (km/s) = 5.95734 6.35847 6.16117
#
# Compressibility (1/GPa) = 0.02693326
#
# Stress axis : x y z
#
# Youngs Moduli (GPa) = 97.48995 62.76560 44.44538
#
# Poissons Ratio (x) = -0.00721 0.10978
# Poissons Ratio (y) = -0.01120 0.37880
# Poissons Ratio (z) = 0.24081 0.53494
#
# Static dielectric constant tensor:
#      x y z
#    x 2.051630 0.000000 0.000000 
#    y 0.000000 1.975470 0.000000 
#    z 0.000000 0.000000 1.962480 
# 
# From -- ./inp_files/4222.got.cif
#   From: 2010.05.17/outbox.cif.g08.bks.cpg/sg33_3_cif.got.tgz:4222.got - 2010.06.03 17:15:25.
