data_PCOD9345594
_publ_section_title
;
Structure prediction by ZEFSAII (Michael W. Deem and Ramdas Pophale) SiO2 
 PCOD9345594
Probable space group: P N A 21
;
_chemical_formula_sum "Si O2"
_cell_formula_units_Z 32
_cell_length_a 11.414757
_cell_length_b 11.739573
_cell_length_c 12.575297
_cell_angle_alpha 90.000000
_cell_angle_beta 90.000000
_cell_angle_gamma 90.000000
_cell_volume 1685.144791
_symmetry_space_group_name_H-M "P N A 21"
_symmetry_group_IT_number 33
_symmetry_cell_setting 'orthorhombic'
loop_
_space_group_symop_operation_xyz
x,y,z
-x,-y,1/2+z
1/2-x,1/2+y,1/2+z
1/2+x,1/2-y,z
loop_
_atom_site_type_symbol
_atom_site_label
_atom_site_fract_x
_atom_site_fract_y
_atom_site_fract_z
Si Si1 0.302496 0.556985 0.164100
Si Si2 0.569146 0.277732 0.409090
Si Si3 0.307690 0.497027 0.922968
Si Si4 0.805651 0.688149 0.120044
Si Si5 0.467046 0.622914 0.359081
Si Si6 0.350247 0.431539 0.468624
Si Si7 0.630447 0.058604 0.310295
Si Si8 0.578497 0.113072 0.834592
O O1 0.258853 0.687704 0.154790
O O2 0.406159 0.570900 0.251905
O O3 0.198214 0.476945 0.204377
O O4 0.337646 0.511852 0.048249
O O5 0.664658 0.375256 0.381443
O O6 0.608140 0.220367 0.521379
O O7 0.446977 0.342635 0.426102
O O8 0.567177 0.179980 0.320637
O O9 0.397491 0.410939 0.866366
O O10 0.178281 0.451158 0.902192
O O11 0.874076 0.626314 0.213990
O O12 0.698614 0.611404 0.080089
O O13 0.406823 0.555024 0.456332
O O14 0.444695 0.756498 0.367354
O O15 0.236507 0.434098 0.394113
O O16 0.538786 0.960556 0.338138
#
# Coordination Sequence:
#
# PCOD9345594 Si02
#       8
#     4   4   4   4   4   4   4   4
#     4   9  20  39  60  91 119 163 199 252 294 355
#     4   9  20  39  64  87 112 157 205 251 290 358
#     4  10  22  40  63  88 121 161 204 245 302 362
#     4   9  20  34  62  91 114 155 208 249 282 358
#     4   9  21  40  62  87 122 156 202 250 303 353
#     4   9  19  38  63  86 115 159 206 246 295 354
#     4  10  22  35  60  88 124 151 197 251 306 349
#     4  11  24  35  60  94 123 156 193 254 306 357
#
# _framework density 18.989466
#
# number of rings (size 3 to 8) (size 9 to 14) (size 15 to 20)
#    0.000    2.500    0.000    0.000   12.250    4.000 
#    0.000    5.000    0.000    0.000    0.000    0.000 
#    0.000    0.000    0.000    0.000    0.000    0.000 
#
# Total GULP energy -178331.021530 kJ/mol
# GULP energy per Si atom -5572.844423 kJ/mol
# Density = 1.894624 g / cm^3
# Si number density = 18.989466 Si / 1000 Ang^3
#
#
#
# Elastic Constant Matrix: (Units=GPa)
#
#
# Indices 1 2 3 4 5 6 
#
# 1 86.0026 53.4101 25.2913 0.0000 0.0000 0.0000
# 2 53.4101 117.0397 44.5968 0.0000 0.0000 0.0000
# 3 25.2913 44.5968 54.1967 0.0000 0.0000 0.0000
# 4 0.0000 0.0000 0.0000 25.6917 0.0000 0.0000
# 5 0.0000 0.0000 0.0000 0.0000 15.3362 0.0000
# 6 0.0000 0.0000 0.0000 0.0000 0.0000 43.4028
#
#
#
# Elastic Compliance Matrix: (Units=1/GPa)
#
#
# Indices 1 2 3 4 5 6 
#
# 1 0.016401 -0.006654 -0.002178 0.000000 0.000000 0.000000
# 2 -0.006654 0.015147 -0.009358 0.000000 0.000000 0.000000
# 3 -0.002178 -0.009358 0.027168 0.000000 0.000000 0.000000
# 4 0.000000 0.000000 0.000000 0.038923 0.000000 0.000000
# 5 0.000000 0.000000 0.000000 0.000000 0.065205 0.000000
# 6 0.000000 0.000000 0.000000 0.000000 0.000000 0.023040
#
#
# Mechanical properties :
#
#
# Convention : Reuss Voigt Hill
#
# Bulk Modulus (GPa) = 44.77390 55.98172 50.37781
# Shear Modulus (GPa) = 21.76657 25.81553 23.79105
#
# Velocity S-wave (km/s) = 3.38930 3.69109 3.54341
# Velocity P-wave (km/s) = 6.24067 6.90724 6.58240
#
# Compressibility (1/GPa) = 0.02233444
#
# Stress axis : x y z
#
# Youngs Moduli (GPa) = 60.97345 66.02064 36.80758
#
# Poissons Ratio (x) = 0.43933 0.08015
# Poissons Ratio (y) = 0.40575 0.34446
# Poissons Ratio (z) = 0.13278 0.61785
#
# Static dielectric constant tensor:
#      x y z
#    x 1.675810 0.000000 0.000000 
#    y 0.000000 1.664900 0.000000 
#    z 0.000000 0.000000 1.698710 
# 
# From -- ./inp_files/6496.got.cif
#   From: 2010.05.17/outbox.cif.g08.bks.cpg/sg33_4_cif.got.tgz:6496.got - 2010.06.03 17:15:25.
