data_PCOD9345496
_publ_section_title
;
Structure prediction by ZEFSAII (Michael W. Deem and Ramdas Pophale) SiO2 
 PCOD9345496
Probable space group: P N A 21
;
_chemical_formula_sum "Si O2"
_cell_formula_units_Z 32
_cell_length_a 11.029852
_cell_length_b 21.888296
_cell_length_c 5.860233
_cell_angle_alpha 90.000000
_cell_angle_beta 90.000000
_cell_angle_gamma 90.000000
_cell_volume 1414.804791
_symmetry_space_group_name_H-M "P N A 21"
_symmetry_group_IT_number 33
_symmetry_cell_setting 'orthorhombic'
loop_
_space_group_symop_operation_xyz
x,y,z
-x,-y,1/2+z
1/2-x,1/2+y,1/2+z
1/2+x,1/2-y,z
loop_
_atom_site_type_symbol
_atom_site_label
_atom_site_fract_x
_atom_site_fract_y
_atom_site_fract_z
Si Si1 0.915618 0.342929 0.756600
Si Si2 0.706718 0.725291 0.310523
Si Si3 0.457929 0.349953 0.462285
Si Si4 0.054857 0.021774 0.556455
Si Si5 0.908516 0.739255 0.971225
Si Si6 0.225926 0.358715 0.197859
Si Si7 0.171879 0.546842 0.988112
Si Si8 0.008132 0.435743 0.117343
O O1 0.859969 0.286485 0.902433
O O2 0.826642 0.390802 0.632752
O O3 0.990813 0.308783 0.557609
O O4 0.995888 0.387842 0.910490
O O5 0.609187 0.692942 0.145433
O O6 0.825029 0.753498 0.189192
O O7 0.751085 0.665759 0.446149
O O8 0.530656 0.405713 0.563086
O O9 0.542844 0.299309 0.347241
O O10 0.354427 0.376670 0.300465
O O11 0.199839 0.013198 0.517747
O O12 0.993033 0.000563 0.309816
O O13 0.816712 0.703885 0.811987
O O14 0.121004 0.406396 0.253394
O O15 0.060538 0.502370 0.061471
O O16 0.123521 0.562318 0.734549
#
# Coordination Sequence:
#
# PCOD9345496 Si02
#       8
#     4   4   4   4   4   4   4   4
#     4  11  23  41  66 104 140 184 245 306 371 456
#     4  10  23  39  68 100 141 185 232 306 377 455
#     4  10  25  43  69 101 141 189 246 305 380 458
#     4  12  31  54  78 109 155 205 259 317 388 466
#     4  10  21  42  64 102 141 180 239 301 377 452
#     4  11  23  40  71 102 141 188 240 313 380 463
#     4  12  27  47  75 106 147 194 259 321 383 458
#     4  12  25  42  73 106 140 191 248 317 386 448
#
# _framework density 22.617961999999999
#
# number of rings (size 3 to 8) (size 9 to 14) (size 15 to 20)
#    0.000    1.000    3.750    1.500    7.000    3.000 
#    0.000    0.000    0.000    0.000    0.000    0.000 
#    0.000    0.000    0.000    0.000    0.000    0.000 
#
# Total GULP energy -178202.660907 kJ/mol
# GULP energy per Si atom -5568.833153 kJ/mol
# Density = 2.256648 g / cm^3
# Si number density = 22.617962 Si / 1000 Ang^3
#
#
#
# Elastic Constant Matrix: (Units=GPa)
#
#
# Indices 1 2 3 4 5 6 
#
# 1 79.0410 13.0675 9.2851 0.0000 0.0000 0.0000
# 2 13.0675 90.0950 9.5221 0.0000 0.0000 0.0000
# 3 9.2851 9.5221 34.4622 0.0000 0.0000 0.0000
# 4 0.0000 0.0000 0.0000 12.6159 0.0000 0.0000
# 5 0.0000 0.0000 0.0000 0.0000 22.0612 0.0000
# 6 0.0000 0.0000 0.0000 0.0000 0.0000 -54.9847
#
#
#
# Elastic Compliance Matrix: (Units=1/GPa)
#
#
# Indices 1 2 3 4 5 6 
#
# 1 0.013284 -0.001595 -0.003138 0.000000 0.000000 0.000000
# 2 -0.001595 0.011625 -0.002782 0.000000 0.000000 0.000000
# 3 -0.003138 -0.002782 0.030632 0.000000 0.000000 0.000000
# 4 0.000000 0.000000 0.000000 0.079265 0.000000 0.000000
# 5 0.000000 0.000000 0.000000 0.000000 0.045328 0.000000
# 6 0.000000 0.000000 0.000000 0.000000 0.000000 -0.018187
#
#
# Mechanical properties :
#
#
# Convention : Reuss Voigt Hill
#
# Bulk Modulus (GPa) = 24.68580 29.70529 27.19554
# Shear Modulus (GPa) = 26.24927 7.38671 16.81799
#
# Velocity S-wave (km/s) = 3.41038 1.80913 2.72980
# Velocity P-wave (km/s) = 5.14252 4.18640 4.68889
#
# Compressibility (1/GPa) = 0.04050912
#
# Stress axis : x y z
#
# Youngs Moduli (GPa) = 75.27832 86.02297 32.64597
#
# Poissons Ratio (x) = 0.13721 0.10246
# Poissons Ratio (y) = 0.12007 0.09083
# Poissons Ratio (z) = 0.23625 0.23934
#
# Static dielectric constant tensor:
#      x y z
#    x 1.886510 0.000000 0.000000 
#    y 0.000000 1.879640 0.000000 
#    z 0.000000 0.000000 1.963050 
# 
# From -- ./inp_files/1040.got.cif
#   From: 2010.05.17/outbox.cif.g08.bks.cpg/sg33_1_cif.got.tgz:1040.got - 2010.06.03 17:15:25.
