data_PCOD9345059
_publ_section_title
;
Structure prediction by ZEFSAII (Michael W. Deem and Ramdas Pophale) SiO2 
 PCOD9345059
Probable space group: P N A 21
;
_chemical_formula_sum "Si O2"
_cell_formula_units_Z 24
_cell_length_a 8.739310
_cell_length_b 14.469614
_cell_length_c 8.930056
_cell_angle_alpha 90.000000
_cell_angle_beta 90.000000
_cell_angle_gamma 90.000000
_cell_volume 1129.245251
_symmetry_space_group_name_H-M "P N A 21"
_symmetry_group_IT_number 33
_symmetry_cell_setting 'orthorhombic'
loop_
_space_group_symop_operation_xyz
x,y,z
-x,-y,1/2+z
1/2-x,1/2+y,1/2+z
1/2+x,1/2-y,z
loop_
_atom_site_type_symbol
_atom_site_label
_atom_site_fract_x
_atom_site_fract_y
_atom_site_fract_z
Si Si1 0.171626 0.393586 0.402350
Si Si2 0.977955 0.694463 0.160361
Si Si3 0.684645 0.441321 0.065720
Si Si4 0.665718 0.557905 0.622397
Si Si5 0.202314 0.141996 0.764689
Si Si6 0.868599 0.511996 0.334450
O O1 0.102550 0.310005 0.498262
O O2 0.293048 0.454650 0.497989
O O3 0.248580 0.376456 0.241918
O O4 0.024567 0.460720 0.380357
O O5 0.934288 0.786779 0.246313
O O6 0.913435 0.604536 0.245816
O O7 0.158581 0.680212 0.165648
O O8 0.507462 0.416469 0.085380
O O9 0.774492 0.446137 0.221514
O O10 0.749205 0.373206 0.937603
O O11 0.657918 0.458223 0.703942
O O12 0.767766 0.541396 0.475975
#
# Coordination Sequence:
#
# PCOD9345059 Si02
#       6
#     4   4   4   4   4   4
#     4  10  20  40  64  91 121 172 220 253 320 394
#     4  11  24  40  64  91 126 168 215 270 327 386
#     4  10  22  37  64  97 125 164 220 263 317 391
#     4  11  21  39  68  96 126 164 219 268 316 390
#     4  11  24  42  62  94 129 167 216 269 332 385
#     4  11  19  40  68  89 123 171 212 265 314 394
#
# _framework density 21.253132999999998
#
# number of rings (size 3 to 8) (size 9 to 14) (size 15 to 20)
#    0.000    1.333    5.000    3.000    7.000    0.000 
#    0.000    1.667    0.000    0.000    0.000    0.000 
#    0.000    0.000    0.000    0.000    0.000    0.000 
#
# Total GULP energy -134044.165340 kJ/mol
# GULP energy per Si atom -5585.173556 kJ/mol
# Density = 2.120476 g / cm^3
# Si number density = 21.253133 Si / 1000 Ang^3
#
#
#
# Elastic Constant Matrix: (Units=GPa)
#
#
# Indices 1 2 3 4 5 6 
#
# 1 98.0426 -6.1400 31.6350 0.0000 0.0000 0.0000
# 2 -6.1400 18.0607 -3.6675 0.0000 0.0000 0.0000
# 3 31.6350 -3.6675 101.6967 0.0000 0.0000 0.0000
# 4 0.0000 0.0000 0.0000 22.7285 0.0000 0.0000
# 5 0.0000 0.0000 0.0000 0.0000 37.9759 0.0000
# 6 0.0000 0.0000 0.0000 0.0000 0.0000 13.1840
#
#
#
# Elastic Compliance Matrix: (Units=1/GPa)
#
#
# Indices 1 2 3 4 5 6 
#
# 1 0.011520 0.003212 -0.003468 0.000000 0.000000 0.000000
# 2 0.003212 0.056673 0.001045 0.000000 0.000000 0.000000
# 3 -0.003468 0.001045 0.010950 0.000000 0.000000 0.000000
# 4 0.000000 0.000000 0.000000 0.043998 0.000000 0.000000
# 5 0.000000 0.000000 0.000000 0.000000 0.026332 0.000000
# 6 0.000000 0.000000 0.000000 0.000000 0.000000 0.075849
#
#
# Mechanical properties :
#
#
# Convention : Reuss Voigt Hill
#
# Bulk Modulus (GPa) = 12.38844 29.05055 20.71950
# Shear Modulus (GPa) = 19.94812 27.84252 23.89532
#
# Velocity S-wave (km/s) = 3.06698 3.62338 3.35673
# Velocity P-wave (km/s) = 4.28759 5.58602 4.97931
#
# Compressibility (1/GPa) = 0.08072039
#
# Stress axis : x y z
#
# Youngs Moduli (GPa) = 86.80788 17.64510 91.32834
#
# Poissons Ratio (x) = -0.05668 0.31669
# Poissons Ratio (y) = -0.27884 -0.09540
# Poissons Ratio (z) = 0.30102 -0.01843
#
# Static dielectric constant tensor:
#      x y z
#    x 1.758000 0.000000 0.000000 
#    y 0.000000 1.744610 0.000000 
#    z 0.000000 0.000000 1.823260 
# 
# From -- ./inp_files/3107.got.cif
#   From: 2010.05.17/outbox.cif.g08.bks.cpg/sg33_2_cif.got.tgz:3107.got - 2010.06.03 17:15:25.
