data_PCOD9345894
_publ_section_title
;
Structure prediction by ZEFSAII (Michael W. Deem and Ramdas Pophale) SiO2 
 PCOD9345894
Probable space group: P N A 21
;
_chemical_formula_sum "Si O2"
_cell_formula_units_Z 28
_cell_length_a 8.262451
_cell_length_b 27.041877
_cell_length_c 5.161019
_cell_angle_alpha 90.000000
_cell_angle_beta 90.000000
_cell_angle_gamma 90.000000
_cell_volume 1153.137745
_symmetry_space_group_name_H-M "P N A 21"
_symmetry_group_IT_number 33
_symmetry_cell_setting 'orthorhombic'
loop_
_space_group_symop_operation_xyz
x,y,z
-x,-y,1/2+z
1/2-x,1/2+y,1/2+z
1/2+x,1/2-y,z
loop_
_atom_site_type_symbol
_atom_site_label
_atom_site_fract_x
_atom_site_fract_y
_atom_site_fract_z
Si Si1 0.863887 0.351368 0.888800
Si Si2 0.125701 0.385598 0.496915
Si Si3 0.981965 0.088465 0.517849
Si Si4 0.489045 0.790822 0.771531
Si Si5 0.915837 0.514834 0.792039
Si Si6 0.665569 0.441440 0.035294
Si Si7 0.150405 0.190151 0.479169
O O1 0.711422 0.320588 0.773369
O O2 0.969746 0.383406 0.683196
O O3 0.788462 0.394473 0.069559
O O4 0.992611 0.308966 0.975888
O O5 0.296815 0.403467 0.601580
O O6 0.134470 0.330431 0.388820
O O7 0.101882 0.426390 0.274092
O O8 0.044978 0.054235 0.279573
O O9 0.044192 0.142214 0.423385
O O10 0.070798 0.072291 0.776088
O O11 0.672799 0.804453 0.850702
O O12 0.444940 0.737805 0.879246
O O13 0.940985 0.494014 0.504308
O O14 0.770625 0.488705 0.949998
#
# Coordination Sequence:
#
# PCOD9345894 Si02
#       7
#     4   4   4   4   4   4   4
#     4  10  22  44  68  97 136 182 231 290 342 419
#     4  11  26  42  68 103 139 179 237 288 347 424
#     4  11  25  45  69 101 146 179 227 293 358 410
#     4  11  22  43  68  94 140 178 237 281 354 413
#     4  12  25  42  75 103 136 184 241 284 350 418
#     4  11  23  45  70 100 140 185 227 292 351 411
#     4  10  23  41  64 100 133 181 230 282 346 421
#
# _framework density 24.281575
#
# number of rings (size 3 to 8) (size 9 to 14) (size 15 to 20)
#    0.000    1.143    2.857    2.571    4.000    3.429 
#    2.571    0.000    0.000    0.000    0.000    0.000 
#    0.000    0.000    0.000    0.000    0.000    0.000 
#
# Total GULP energy -156122.059536 kJ/mol
# GULP energy per Si atom -5575.787841 kJ/mol
# Density = 2.422631 g / cm^3
# Si number density = 24.281575 Si / 1000 Ang^3
#
#
#
# Elastic Constant Matrix: (Units=GPa)
#
#
# Indices 1 2 3 4 5 6 
#
# 1 71.4626 14.2524 6.7089 0.0000 0.0000 0.0000
# 2 14.2524 86.2230 -2.6453 0.0000 0.0000 0.0000
# 3 6.7089 -2.6453 58.3023 0.0000 0.0000 0.0000
# 4 0.0000 0.0000 0.0000 13.2279 0.0000 0.0000
# 5 0.0000 0.0000 0.0000 0.0000 -1.3289 0.0000
# 6 0.0000 0.0000 0.0000 0.0000 0.0000 33.0560
#
#
#
# Elastic Compliance Matrix: (Units=1/GPa)
#
#
# Indices 1 2 3 4 5 6 
#
# 1 0.014656 -0.002478 -0.001799 0.000000 0.000000 0.000000
# 2 -0.002478 0.012033 0.000831 0.000000 0.000000 0.000000
# 3 -0.001799 0.000831 0.017397 0.000000 0.000000 0.000000
# 4 0.000000 0.000000 0.000000 0.075598 0.000000 0.000000
# 5 0.000000 0.000000 0.000000 0.000000 -0.752477 0.000000
# 6 0.000000 0.000000 0.000000 0.000000 0.000000 0.030252
#
#
# Mechanical properties :
#
#
# Convention : Reuss Voigt Hill
#
# Bulk Modulus (GPa) = 26.88562 28.06887 27.47724
# Shear Modulus (GPa) = -8.57263 22.16912 6.79824
#
# Velocity S-wave (km/s) = -1.88100 3.02487 1.67506
# Velocity P-wave (km/s) = 2.52565 4.87695 3.88352
#
# Compressibility (1/GPa) = 0.03719460
#
# Stress axis : x y z
#
# Youngs Moduli (GPa) = 68.22955 83.10535 57.48217
#
# Poissons Ratio (x) = 0.20592 0.10341
# Poissons Ratio (y) = 0.16906 -0.04777
# Poissons Ratio (z) = 0.12274 -0.06907
#
# Static dielectric constant tensor:
#      x y z
#    x 1.969030 0.000000 0.000000 
#    y 0.000000 1.980020 0.000000 
#    z 0.000000 0.000000 2.138460 
# 
# From -- ./inp_files/531.got.cif
#   From: 2010.05.17/outbox.cif.g08.bks.cpg/sg33_1_cif.got.tgz:531.got - 2010.06.03 17:15:25.
