data_PCOD9345298
_publ_section_title
;
Structure prediction by ZEFSAII (Michael W. Deem and Ramdas Pophale) SiO2 
 PCOD9345298
Probable space group: P N A 21
;
_chemical_formula_sum "Si O2"
_cell_formula_units_Z 32
_cell_length_a 5.496116
_cell_length_b 26.135724
_cell_length_c 9.817759
_cell_angle_alpha 90.000000
_cell_angle_beta 90.000000
_cell_angle_gamma 90.000000
_cell_volume 1410.271705
_symmetry_space_group_name_H-M "P N A 21"
_symmetry_group_IT_number 33
_symmetry_cell_setting 'orthorhombic'
loop_
_space_group_symop_operation_xyz
x,y,z
-x,-y,1/2+z
1/2-x,1/2+y,1/2+z
1/2+x,1/2-y,z
loop_
_atom_site_type_symbol
_atom_site_label
_atom_site_fract_x
_atom_site_fract_y
_atom_site_fract_z
Si Si1 0.760153 0.373167 0.493090
Si Si2 0.846209 0.758241 0.966174
Si Si3 0.729045 0.104204 0.838435
Si Si4 0.604654 0.449690 0.675819
Si Si5 0.261935 0.911543 0.877987
Si Si6 0.559150 0.560123 0.589548
Si Si7 0.841233 0.476160 0.948677
Si Si8 0.859595 0.720849 0.268010
O O1 0.680195 0.315744 0.519376
O O2 0.791013 0.405901 0.630402
O O3 0.512204 0.398632 0.431047
O O4 0.010504 0.373976 0.407435
O O5 0.598992 0.745934 0.888398
O O6 0.853386 0.723537 0.102068
O O7 0.546420 0.061082 0.894278
O O8 0.644908 0.162002 0.814984
O O9 0.856305 0.081589 0.703167
O O10 0.911740 0.101271 0.968832
O O11 0.636910 0.499428 0.579827
O O12 0.645912 0.471933 0.825751
O O13 0.203647 0.919562 0.718877
O O14 0.369444 0.963395 0.946337
O O15 0.268833 0.547293 0.587808
O O16 0.608800 0.749951 0.309807
#
# Coordination Sequence:
#
# PCOD9345298 Si02
#       8
#     4   4   4   4   4   4   4   4
#     4  12  24  42  67 100 136 183 225 289 360 414
#     4  10  21  38  65  95 132 161 215 291 355 410
#     4  11  24  39  71  98 139 193 225 296 364 411
#     4  10  22  37  62 100 140 177 231 279 342 421
#     4  11  26  42  66  99 141 189 237 276 346 434
#     4  10  23  43  60  98 143 186 235 279 331 436
#     4  10  23  38  65  96 142 184 233 278 346 419
#     4  10  23  41  64  98 133 163 227 294 356 413
#
# _framework density 22.690660999999999
#
# number of rings (size 3 to 8) (size 9 to 14) (size 15 to 20)
#    0.000    1.500    1.250    3.000   14.000    1.000 
#    0.000    0.000    0.000    4.500    0.000    0.000 
#    0.000    0.000    0.000    0.000    0.000    0.000 
#
# Total GULP energy -178153.046654 kJ/mol
# GULP energy per Si atom -5567.282708 kJ/mol
# Density = 2.263902 g / cm^3
# Si number density = 22.690661 Si / 1000 Ang^3
#
#
#
# Elastic Constant Matrix: (Units=GPa)
#
#
# Indices 1 2 3 4 5 6 
#
# 1 119.1879 35.5123 23.5235 0.0000 0.0000 0.0000
# 2 35.5123 118.6741 26.0131 0.0000 0.0000 0.0000
# 3 23.5235 26.0131 49.7855 0.0000 0.0000 0.0000
# 4 0.0000 0.0000 0.0000 22.7217 0.0000 0.0000
# 5 0.0000 0.0000 0.0000 0.0000 37.6681 0.0000
# 6 0.0000 0.0000 0.0000 0.0000 0.0000 38.9797
#
#
#
# Elastic Compliance Matrix: (Units=1/GPa)
#
#
# Indices 1 2 3 4 5 6 
#
# 1 0.009714 -0.002147 -0.003468 0.000000 0.000000 0.000000
# 2 -0.002147 0.009991 -0.004206 0.000000 0.000000 0.000000
# 3 -0.003468 -0.004206 0.023923 0.000000 0.000000 0.000000
# 4 0.000000 0.000000 0.000000 0.044011 0.000000 0.000000
# 5 0.000000 0.000000 0.000000 0.000000 0.026548 0.000000
# 6 0.000000 0.000000 0.000000 0.000000 0.000000 0.025654
#
#
# Mechanical properties :
#
#
# Convention : Reuss Voigt Hill
#
# Bulk Modulus (GPa) = 41.69140 50.86058 46.27599
# Shear Modulus (GPa) = 29.85479 33.38047 31.61763
#
# Velocity S-wave (km/s) = 3.63123 3.83967 3.73690
# Velocity P-wave (km/s) = 5.99957 6.49005 6.24963
#
# Compressibility (1/GPa) = 0.02398576
#
# Stress axis : x y z
#
# Youngs Moduli (GPa) = 102.94162 100.09277 41.80157
#
# Poissons Ratio (x) = 0.21487 0.14498
# Poissons Ratio (y) = 0.22098 0.17581
# Poissons Ratio (z) = 0.35703 0.42098
#
# Static dielectric constant tensor:
#      x y z
#    x 2.058620 0.000000 0.000000 
#    y 0.000000 1.845180 0.000000 
#    z 0.000000 0.000000 1.948430 
# 
# From -- ./inp_files/5606.got.cif
#   From: 2010.05.17/outbox.cif.g08.bks.cpg/sg33_3_cif.got.tgz:5606.got - 2010.06.03 17:15:25.
