data_PCOD9345795
_publ_section_title
;
Structure prediction by ZEFSAII (Michael W. Deem and Ramdas Pophale) SiO2 
 PCOD9345795
Probable space group: P N A 21
;
_chemical_formula_sum "Si O2"
_cell_formula_units_Z 16
_cell_length_a 11.511378
_cell_length_b 7.620862
_cell_length_c 7.056880
_cell_angle_alpha 90.000000
_cell_angle_beta 90.000000
_cell_angle_gamma 90.000000
_cell_volume 619.076253
_symmetry_space_group_name_H-M "P N A 21"
_symmetry_group_IT_number 33
_symmetry_cell_setting 'orthorhombic'
loop_
_space_group_symop_operation_xyz
x,y,z
-x,-y,1/2+z
1/2-x,1/2+y,1/2+z
1/2+x,1/2-y,z
loop_
_atom_site_type_symbol
_atom_site_label
_atom_site_fract_x
_atom_site_fract_y
_atom_site_fract_z
Si Si1 0.041085 0.791816 0.353900
Si Si2 0.510718 0.057065 0.174055
Si Si3 0.653447 0.499299 0.670288
Si Si4 0.326839 0.864397 0.987405
O O1 0.068013 0.634455 0.208425
O O2 0.957391 0.681133 0.498276
O O3 0.973615 0.946241 0.249963
O O4 0.138058 0.872337 0.490896
O O5 0.557070 0.157905 0.357085
O O6 0.375083 0.010115 0.135990
O O7 0.698604 0.313778 0.593056
O O8 0.727854 0.575251 0.843325
#
# Coordination Sequence:
#
# PCOD9345795 Si02
#       4
#     4   4   4   4
#     4  10  22  42  67  98 134 174 225 280 338 406
#     4   9  21  43  65  94 136 178 223 280 339 403
#     4  11  24  43  71 102 135 180 230 282 344 411
#     4  10  23  42  69 102 137 180 228 284 345 408
#
# _framework density 25.844957000000001
#
# number of rings (size 3 to 8) (size 9 to 14) (size 15 to 20)
#    0.000    2.000    0.000    1.500    0.000   14.000 
#    0.000   17.500    0.000    0.000    0.000    0.000 
#    0.000    0.000    0.000    0.000    0.000    0.000 
#
# Total GULP energy -89258.657330 kJ/mol
# GULP energy per Si atom -5578.666083 kJ/mol
# Density = 2.578613 g / cm^3
# Si number density = 25.844957 Si / 1000 Ang^3
#
#
#
# Elastic Constant Matrix: (Units=GPa)
#
#
# Indices 1 2 3 4 5 6 
#
# 1 68.2010 29.6315 30.5315 0.0000 0.0000 0.0000
# 2 29.6315 121.3320 4.0418 0.0000 0.0000 0.0000
# 3 30.5315 4.0418 51.4969 0.0000 0.0000 0.0000
# 4 0.0000 0.0000 0.0000 58.1808 0.0000 0.0000
# 5 0.0000 0.0000 0.0000 0.0000 18.5078 0.0000
# 6 0.0000 0.0000 0.0000 0.0000 0.0000 2.5113
#
#
#
# Elastic Compliance Matrix: (Units=1/GPa)
#
#
# Indices 1 2 3 4 5 6 
#
# 1 0.022743 -0.005118 -0.013082 0.000000 0.000000 0.000000
# 2 -0.005118 0.009415 0.002296 0.000000 0.000000 0.000000
# 3 -0.013082 0.002296 0.026995 0.000000 0.000000 0.000000
# 4 0.000000 0.000000 0.000000 0.017188 0.000000 0.000000
# 5 0.000000 0.000000 0.000000 0.000000 0.054031 0.000000
# 6 0.000000 0.000000 0.000000 0.000000 0.000000 0.398204
#
#
# Mechanical properties :
#
#
# Convention : Reuss Voigt Hill
#
# Bulk Modulus (GPa) = 36.57229 41.04882 38.81056
# Shear Modulus (GPa) = 8.77963 27.62832 18.20398
#
# Velocity S-wave (km/s) = 1.84511 3.27311 2.65684
# Velocity P-wave (km/s) = 4.32673 5.49559 4.94581
#
# Compressibility (1/GPa) = 0.02734310
#
# Stress axis : x y z
#
# Youngs Moduli (GPa) = 43.97005 106.20911 37.04454
#
# Poissons Ratio (x) = 0.54362 0.48462
# Poissons Ratio (y) = 0.22506 -0.08504
# Poissons Ratio (z) = 0.57522 -0.24382
#
# Static dielectric constant tensor:
#      x y z
#    x 2.069770 0.000000 0.000000 
#    y 0.000000 2.050300 0.000000 
#    z 0.000000 0.000000 2.074300 
# 
# From -- ./inp_files/3627.got.cif
#   From: 2010.05.17/outbox.cif.g08.bks.cpg/sg33_2_cif.got.tgz:3627.got - 2010.06.03 17:15:25.
