data_PCOD9345692
_publ_section_title
;
Structure prediction by ZEFSAII (Michael W. Deem and Ramdas Pophale) SiO2 
 PCOD9345692
Probable space group: P N A 21
;
_chemical_formula_sum "Si O2"
_cell_formula_units_Z 20
_cell_length_a 12.544642
_cell_length_b 6.080073
_cell_length_c 11.058530
_cell_angle_alpha 90.000000
_cell_angle_beta 90.000000
_cell_angle_gamma 90.000000
_cell_volume 843.459950
_symmetry_space_group_name_H-M "P N A 21"
_symmetry_group_IT_number 33
_symmetry_cell_setting 'orthorhombic'
loop_
_space_group_symop_operation_xyz
x,y,z
-x,-y,1/2+z
1/2-x,1/2+y,1/2+z
1/2+x,1/2-y,z
loop_
_atom_site_type_symbol
_atom_site_label
_atom_site_fract_x
_atom_site_fract_y
_atom_site_fract_z
Si Si1 0.062684 0.547033 0.475850
Si Si2 0.193684 0.397642 0.258762
Si Si3 0.858482 0.759020 0.178595
Si Si4 0.871331 0.386223 0.355685
Si Si5 0.010985 0.129779 0.155992
O O1 0.115741 0.538811 0.344496
O O2 0.136221 0.416635 0.570888
O O3 0.033435 0.785645 0.527455
O O4 0.948929 0.420081 0.467986
O O5 0.267029 0.555637 0.177082
O O6 0.267684 0.263070 0.353164
O O7 0.129942 0.215512 0.180481
O O8 0.844526 0.625378 0.302542
O O9 0.972264 0.883814 0.176547
O O10 0.944832 0.266724 0.255684
#
# Coordination Sequence:
#
# PCOD9345692 Si02
#       5
#     4   4   4   4   4
#     4  10  22  40  64  94 128 165 217 259 328 377
#     4  10  22  40  65  95 128 166 218 261 316 391
#     4  10  22  42  62  90 134 166 207 274 309 383
#     4   9  21  40  59  93 124 166 212 253 320 378
#     4   9  21  40  60  94 126 163 210 257 317 381
#
# _framework density 23.711853000000001
#
# number of rings (size 3 to 8) (size 9 to 14) (size 15 to 20)
#    0.000    2.400    0.000    0.000    2.800   11.200 
#   14.400    0.000    0.000    0.000    0.000    0.000 
#    0.000    0.000    0.000    0.000    0.000    0.000 
#
# Total GULP energy -111613.705737 kJ/mol
# GULP energy per Si atom -5580.685287 kJ/mol
# Density = 2.365788 g / cm^3
# Si number density = 23.711853 Si / 1000 Ang^3
#
#
#
# Elastic Constant Matrix: (Units=GPa)
#
#
# Indices 1 2 3 4 5 6 
#
# 1 86.9360 18.1698 17.7535 0.0000 0.0000 0.0000
# 2 18.1698 51.3868 4.3272 0.0000 0.0000 0.0000
# 3 17.7535 4.3272 45.7466 0.0000 0.0000 0.0000
# 4 0.0000 0.0000 0.0000 27.6353 0.0000 0.0000
# 5 0.0000 0.0000 0.0000 0.0000 31.7302 0.0000
# 6 0.0000 0.0000 0.0000 0.0000 0.0000 10.2987
#
#
#
# Elastic Compliance Matrix: (Units=1/GPa)
#
#
# Indices 1 2 3 4 5 6 
#
# 1 0.013385 -0.004330 -0.004785 0.000000 0.000000 0.000000
# 2 -0.004330 0.021017 -0.000308 0.000000 0.000000 0.000000
# 3 -0.004785 -0.000308 0.023746 0.000000 0.000000 0.000000
# 4 0.000000 0.000000 0.000000 0.036186 0.000000 0.000000
# 5 0.000000 0.000000 0.000000 0.000000 0.031516 0.000000
# 6 0.000000 0.000000 0.000000 0.000000 0.000000 0.097100
#
#
# Mechanical properties :
#
#
# Convention : Reuss Voigt Hill
#
# Bulk Modulus (GPa) = 25.44350 29.39671 27.42011
# Shear Modulus (GPa) = 19.61601 23.52078 21.56839
#
# Velocity S-wave (km/s) = 2.87934 3.15293 3.01924
# Velocity P-wave (km/s) = 4.66988 5.06744 4.87272
#
# Compressibility (1/GPa) = 0.03930277
#
# Stress axis : x y z
#
# Youngs Moduli (GPa) = 74.71179 47.58026 42.11313
#
# Poissons Ratio (x) = 0.20601 0.20150
# Poissons Ratio (y) = 0.32349 0.01296
# Poissons Ratio (z) = 0.35748 0.01464
#
# Static dielectric constant tensor:
#      x y z
#    x 1.971760 0.000000 0.000000 
#    y 0.000000 1.926190 0.000000 
#    z 0.000000 0.000000 1.901240 
# 
# From -- ./inp_files/6189.got.cif
#   From: 2010.05.17/outbox.cif.g08.bks.cpg/sg33_4_cif.got.tgz:6189.got - 2010.06.03 17:15:25.
