data_PCOD9345414
_publ_section_title
;
Structure prediction by ZEFSAII (Michael W. Deem and Ramdas Pophale) SiO2 
 PCOD9345414
Probable space group: P N A 21
;
_chemical_formula_sum "Si O2"
_cell_formula_units_Z 32
_cell_length_a 12.583525
_cell_length_b 13.246265
_cell_length_c 9.011684
_cell_angle_alpha 90.000000
_cell_angle_beta 90.000000
_cell_angle_gamma 90.000000
_cell_volume 1502.109905
_symmetry_space_group_name_H-M "P N A 21"
_symmetry_group_IT_number 33
_symmetry_cell_setting 'orthorhombic'
loop_
_space_group_symop_operation_xyz
x,y,z
-x,-y,1/2+z
1/2-x,1/2+y,1/2+z
1/2+x,1/2-y,z
loop_
_atom_site_type_symbol
_atom_site_label
_atom_site_fract_x
_atom_site_fract_y
_atom_site_fract_z
Si Si1 0.917092 0.149886 0.798160
Si Si2 0.469067 0.304254 0.120798
Si Si3 0.814276 0.893985 0.515995
Si Si4 0.928668 0.780360 0.051924
Si Si5 0.221588 0.688099 0.204215
Si Si6 0.533005 0.548187 0.856790
Si Si7 0.896697 0.413800 0.205886
Si Si8 0.538028 0.926442 0.034845
O O1 0.816201 0.195403 0.716790
O O2 0.016899 0.195691 0.710083
O O3 0.916863 0.197533 0.960073
O O4 0.941899 0.032556 0.815767
O O5 0.594925 0.323531 0.091917
O O6 0.424680 0.402824 0.205867
O O7 0.437559 0.201673 0.200422
O O8 0.765941 0.847408 0.363657
O O9 0.719875 0.916817 0.630931
O O10 0.881055 0.990860 0.456856
O O11 0.808228 0.811118 0.075176
O O12 0.953773 0.665315 0.012983
O O13 0.984527 0.856867 0.940696
O O14 0.124869 0.618083 0.149965
O O15 0.906925 0.448923 0.376690
O O16 0.975896 0.480310 0.105317
#
# Coordination Sequence:
#
# PCOD9345414 Si02
#       8
#     4   4   4   4   4   4   4   4
#     4  10  21  40  68  97 141 179 221 288 346 416
#     4  11  23  45  70 102 141 175 236 295 341 425
#     4  11  25  44  75 105 138 191 234 286 365 429
#     4  11  23  45  67 102 144 179 238 294 345 420
#     4  11  23  45  68 107 140 187 236 280 363 422
#     4  11  23  44  70 107 137 180 236 301 342 412
#     4  12  26  51  68 103 144 191 239 291 368 424
#     4  11  28  46  72  97 147 190 234 305 348 432
#
# _framework density 21.303367999999999
#
# number of rings (size 3 to 8) (size 9 to 14) (size 15 to 20)
#    0.000    1.000    5.000    2.250    3.500    3.000 
#    6.750    0.000    0.000    0.000    0.000    0.000 
#    0.000    0.000    0.000    0.000    0.000    0.000 
#
# Total GULP energy -178766.638472 kJ/mol
# GULP energy per Si atom -5586.457452 kJ/mol
# Density = 2.125488 g / cm^3
# Si number density = 21.303368 Si / 1000 Ang^3
#
#
#
# Elastic Constant Matrix: (Units=GPa)
#
#
# Indices 1 2 3 4 5 6 
#
# 1 87.7289 19.0889 12.9591 0.0000 0.0000 0.0000
# 2 19.0889 84.3972 7.2935 0.0000 0.0000 0.0000
# 3 12.9591 7.2935 80.2671 0.0000 0.0000 0.0000
# 4 0.0000 0.0000 0.0000 515.5928 0.0000 0.0000
# 5 0.0000 0.0000 0.0000 0.0000 31.0963 0.0000
# 6 0.0000 0.0000 0.0000 0.0000 0.0000 12.7969
#
#
#
# Elastic Compliance Matrix: (Units=1/GPa)
#
#
# Indices 1 2 3 4 5 6 
#
# 1 0.012224 -0.002615 -0.001736 0.000000 0.000000 0.000000
# 2 -0.002615 0.012502 -0.000714 0.000000 0.000000 0.000000
# 3 -0.001736 -0.000714 0.012804 0.000000 0.000000 0.000000
# 4 0.000000 0.000000 0.000000 0.001940 0.000000 0.000000
# 5 0.000000 0.000000 0.000000 0.000000 0.032158 0.000000
# 6 0.000000 0.000000 0.000000 0.000000 0.000000 0.078144
#
#
# Mechanical properties :
#
#
# Convention : Reuss Voigt Hill
#
# Bulk Modulus (GPa) = 36.49602 36.78626 36.64114
# Shear Modulus (GPa) = 29.57983 126.10063 77.84023
#
# Velocity S-wave (km/s) = 3.73031 7.70203 6.05130
# Velocity P-wave (km/s) = 5.97682 9.81837 8.12781
#
# Compressibility (1/GPa) = 0.02740025
#
# Stress axis : x y z
#
# Youngs Moduli (GPa) = 81.80530 79.98820 78.10334
#
# Poissons Ratio (x) = 0.20916 0.13559
# Poissons Ratio (y) = 0.21391 0.05575
# Poissons Ratio (z) = 0.14201 0.05710
#
# Static dielectric constant tensor:
#      x y z
#    x 1.753680 0.000000 0.000000 
#    y 0.000000 1.441300 0.000000 
#    z 0.000000 0.000000 1.819530 
# 
# From -- ./inp_files/3981.got.cif
#   From: 2010.05.17/outbox.cif.g08.bks.cpg/sg33_2_cif.got.tgz:3981.got - 2010.06.03 17:15:25.
