data_PCOD9345382
_publ_section_title
;
Structure prediction by ZEFSAII (Michael W. Deem and Ramdas Pophale) SiO2 
 PCOD9345382
Probable space group: P N A 21
;
_chemical_formula_sum "Si O2"
_cell_formula_units_Z 20
_cell_length_a 14.005736
_cell_length_b 6.909003
_cell_length_c 7.315070
_cell_angle_alpha 90.000000
_cell_angle_beta 90.000000
_cell_angle_gamma 90.000000
_cell_volume 707.847665
_symmetry_space_group_name_H-M "P N A 21"
_symmetry_group_IT_number 33
_symmetry_cell_setting 'orthorhombic'
loop_
_space_group_symop_operation_xyz
x,y,z
-x,-y,1/2+z
1/2-x,1/2+y,1/2+z
1/2+x,1/2-y,z
loop_
_atom_site_type_symbol
_atom_site_label
_atom_site_fract_x
_atom_site_fract_y
_atom_site_fract_z
Si Si1 0.923835 0.796747 0.392430
Si Si2 0.923216 0.379423 0.109799
Si Si3 0.215196 0.118010 0.187514
Si Si4 0.223240 0.052066 0.608748
Si Si5 0.587225 0.865544 0.003191
O O1 0.876803 0.912171 0.562781
O O2 0.869024 0.877896 0.218328
O O3 0.883485 0.579205 0.424342
O O4 0.033544 0.759450 0.452488
O O5 0.814149 0.442157 0.086751
O O6 0.936568 0.273166 0.307296
O O7 0.992696 0.568907 0.108664
O O8 0.200096 0.050056 0.393322
O O9 0.241215 0.349455 0.195237
O O10 0.318653 0.188747 0.614695
#
# Coordination Sequence:
#
# PCOD9345382 Si02
#       5
#     4   4   4   4   4
#     4   9  21  37  60  93 122 169 217 283 333 411
#     4   9  19  38  59  91 122 170 222 269 336 415
#     4  10  22  40  64  89 131 172 225 282 345 416
#     4  10  21  40  61  93 130 172 220 288 346 407
#     4   8  19  35  60  90 121 169 220 268 330 417
#
# _framework density 28.254667000000001
#
# number of rings (size 3 to 8) (size 9 to 14) (size 15 to 20)
#    1.200    1.600    0.000    0.000    2.800    6.400 
#    3.600    0.000    0.000    0.000    0.000    0.000 
#    0.000    0.000    0.000    0.000    0.000    0.000 
#
# Total GULP energy -111510.447299 kJ/mol
# GULP energy per Si atom -5575.522365 kJ/mol
# Density = 2.819036 g / cm^3
# Si number density = 28.254667 Si / 1000 Ang^3
#
#
#
# Elastic Constant Matrix: (Units=GPa)
#
#
# Indices 1 2 3 4 5 6 
#
# 1 142.2051 13.7209 53.3137 0.0000 0.0000 0.0000
# 2 13.7209 65.0498 15.6058 0.0000 0.0000 0.0000
# 3 53.3137 15.6058 151.5622 0.0000 0.0000 0.0000
# 4 0.0000 0.0000 0.0000 22.6578 0.0000 0.0000
# 5 0.0000 0.0000 0.0000 0.0000 57.2788 0.0000
# 6 0.0000 0.0000 0.0000 0.0000 0.0000 40.3473
#
#
#
# Elastic Compliance Matrix: (Units=1/GPa)
#
#
# Indices 1 2 3 4 5 6 
#
# 1 0.008171 -0.001060 -0.002765 0.000000 0.000000 0.000000
# 2 -0.001060 0.015900 -0.001264 0.000000 0.000000 0.000000
# 3 -0.002765 -0.001264 0.007701 0.000000 0.000000 0.000000
# 4 0.000000 0.000000 0.000000 0.044135 0.000000 0.000000
# 5 0.000000 0.000000 0.000000 0.000000 0.017458 0.000000
# 6 0.000000 0.000000 0.000000 0.000000 0.000000 0.024785
#
#
# Mechanical properties :
#
#
# Convention : Reuss Voigt Hill
#
# Bulk Modulus (GPa) = 46.31207 58.23309 52.27258
# Shear Modulus (GPa) = 36.89320 42.46854 39.68087
#
# Velocity S-wave (km/s) = 3.61742 3.88114 3.75160
# Velocity P-wave (km/s) = 5.82015 6.38272 6.10792
#
# Compressibility (1/GPa) = 0.02159264
#
# Stress axis : x y z
#
# Youngs Moduli (GPa) = 122.38340 62.89408 129.85703
#
# Poissons Ratio (x) = 0.06668 0.35907
# Poissons Ratio (y) = 0.12974 0.16417
# Poissons Ratio (z) = 0.33840 0.07951
#
# Static dielectric constant tensor:
#      x y z
#    x 2.254780 0.000000 0.000000 
#    y 0.000000 2.430830 0.000000 
#    z 0.000000 0.000000 2.327050 
# 
# From -- ./inp_files/1688.got.cif
#   From: 2010.05.17/outbox.cif.g08.bks.cpg/sg33_1_cif.got.tgz:1688.got - 2010.06.03 17:15:25.
