data_PCOD9345741
_publ_section_title
;
Structure prediction by ZEFSAII (Michael W. Deem and Ramdas Pophale) SiO2 
 PCOD9345741
Probable space group: P N A 21
;
_chemical_formula_sum "Si O2"
_cell_formula_units_Z 28
_cell_length_a 9.278613
_cell_length_b 16.345462
_cell_length_c 8.135686
_cell_angle_alpha 90.000000
_cell_angle_beta 90.000000
_cell_angle_gamma 90.000000
_cell_volume 1233.884305
_symmetry_space_group_name_H-M "P N A 21"
_symmetry_group_IT_number 33
_symmetry_cell_setting 'orthorhombic'
loop_
_space_group_symop_operation_xyz
x,y,z
-x,-y,1/2+z
1/2-x,1/2+y,1/2+z
1/2+x,1/2-y,z
loop_
_atom_site_type_symbol
_atom_site_label
_atom_site_fract_x
_atom_site_fract_y
_atom_site_fract_z
Si Si1 0.619341 0.817916 0.948360
Si Si2 0.399143 0.012856 0.307388
Si Si3 0.266239 0.355764 0.941792
Si Si4 0.141014 0.255816 0.242663
Si Si5 0.661821 0.932916 0.436905
Si Si6 0.506959 0.776831 0.306348
Si Si7 0.038149 0.120620 0.992048
O O1 0.640462 0.914659 0.932154
O O2 0.762126 0.770233 0.896390
O O3 0.503537 0.796065 0.808405
O O4 0.555757 0.791197 0.122160
O O5 0.322057 0.928607 0.350663
O O6 0.569510 0.993950 0.325558
O O7 0.358401 0.039068 0.124160
O O8 0.440931 0.313376 0.875940
O O9 0.163728 0.282657 0.836543
O O10 0.221933 0.316025 0.119029
O O11 0.392602 0.424315 0.023047
O O12 0.100217 0.174486 0.138644
O O13 0.589172 0.843773 0.415375
O O14 0.831348 0.922901 0.404661
#
# Coordination Sequence:
#
# PCOD9345741 Si02
#       7
#     4   4   4   4   4   4   4
#     4  12  24  42  70 104 138 176 243 293 351 431
#     4  11  22  43  67  96 135 189 231 281 365 436
#     4  10  22  41  66 100 139 183 228 288 359 428
#     4  11  23  42  72 104 136 184 237 295 353 429
#     4  11  23  43  68  97 136 188 236 285 359 435
#     4  10  23  39  69  97 138 183 233 290 352 422
#     4  11  21  42  66 100 136 183 228 292 351 415
#
# _framework density 22.692564999999998
#
# number of rings (size 3 to 8) (size 9 to 14) (size 15 to 20)
#    0.000    1.143    2.857    6.000    4.000    0.000 
#    0.000    7.143    0.000    0.000    0.000    0.000 
#    0.000    0.000    0.000    0.000    0.000    0.000 
#
# Total GULP energy -156049.807356 kJ/mol
# GULP energy per Si atom -5573.207406 kJ/mol
# Density = 2.264092 g / cm^3
# Si number density = 22.692565 Si / 1000 Ang^3
#
#
#
# Elastic Constant Matrix: (Units=GPa)
#
#
# Indices 1 2 3 4 5 6 
#
# 1 134.5361 -3.5315 20.1521 0.0000 0.0000 0.0000
# 2 -3.5315 59.8587 18.7795 0.0000 0.0000 0.0000
# 3 20.1521 18.7795 84.4915 0.0000 0.0000 0.0000
# 4 0.0000 0.0000 0.0000 29.3013 0.0000 0.0000
# 5 0.0000 0.0000 0.0000 0.0000 32.5559 0.0000
# 6 0.0000 0.0000 0.0000 0.0000 0.0000 29.4495
#
#
#
# Elastic Compliance Matrix: (Units=1/GPa)
#
#
# Indices 1 2 3 4 5 6 
#
# 1 0.007777 0.001119 -0.002104 0.000000 0.000000 0.000000
# 2 0.001119 0.018119 -0.004294 0.000000 0.000000 0.000000
# 3 -0.002104 -0.004294 0.013292 0.000000 0.000000 0.000000
# 4 0.000000 0.000000 0.000000 0.034128 0.000000 0.000000
# 5 0.000000 0.000000 0.000000 0.000000 0.030716 0.000000
# 6 0.000000 0.000000 0.000000 0.000000 0.000000 0.033956
#
#
# Mechanical properties :
#
#
# Convention : Reuss Voigt Hill
#
# Bulk Modulus (GPa) = 34.92789 38.85405 36.89097
# Shear Modulus (GPa) = 31.62741 34.49376 33.06059
#
# Velocity S-wave (km/s) = 3.73733 3.90301 3.82106
# Velocity P-wave (km/s) = 5.83512 6.12131 5.97993
#
# Compressibility (1/GPa) = 0.02863041
#
# Stress axis : x y z
#
# Youngs Moduli (GPa) = 128.57726 55.19001 75.23493
#
# Poissons Ratio (x) = -0.06175 0.15827
# Poissons Ratio (y) = -0.14386 0.32307
# Poissons Ratio (z) = 0.27048 0.23699
#
# Static dielectric constant tensor:
#      x y z
#    x 1.906410 0.000000 0.000000 
#    y 0.000000 1.932280 0.000000 
#    z 0.000000 0.000000 1.835190 
# 
# From -- ./inp_files/3312.got.cif
#   From: 2010.05.17/outbox.cif.g08.bks.cpg/sg33_2_cif.got.tgz:3312.got - 2010.06.03 17:15:25.
