data_PCOD9345213
_publ_section_title
;
Structure prediction by ZEFSAII (Michael W. Deem and Ramdas Pophale) SiO2 
 PCOD9345213
Probable space group: P N A 21
;
_chemical_formula_sum "Si O2"
_cell_formula_units_Z 24
_cell_length_a 13.003294
_cell_length_b 16.961433
_cell_length_c 4.958622
_cell_angle_alpha 90.000000
_cell_angle_beta 90.000000
_cell_angle_gamma 90.000000
_cell_volume 1093.646396
_symmetry_space_group_name_H-M "P N A 21"
_symmetry_group_IT_number 33
_symmetry_cell_setting 'orthorhombic'
loop_
_space_group_symop_operation_xyz
x,y,z
-x,-y,1/2+z
1/2-x,1/2+y,1/2+z
1/2+x,1/2-y,z
loop_
_atom_site_type_symbol
_atom_site_label
_atom_site_fract_x
_atom_site_fract_y
_atom_site_fract_z
Si Si1 0.284051 0.808969 0.762170
Si Si2 0.452192 0.963451 0.237391
Si Si3 0.538355 0.458268 0.308679
Si Si4 0.774737 0.051954 0.893938
Si Si5 0.910377 0.176461 0.548460
Si Si6 0.926819 0.710397 0.283887
O O1 0.257960 0.898353 0.658735
O O2 0.342552 0.769157 0.511238
O O3 0.173472 0.778453 0.865336
O O4 0.362788 0.802761 0.008627
O O5 0.329666 0.971800 0.249026
O O6 0.472832 0.875542 0.347517
O O7 0.504388 0.024104 0.441399
O O8 0.472061 0.518553 0.496655
O O9 0.652242 0.476269 0.416803
O O10 0.488673 0.374413 0.366687
O O11 0.842128 0.115481 0.724915
O O12 0.981469 0.229646 0.735306
#
# Coordination Sequence:
#
# PCOD9345213 Si02
#       6
#     4   4   4   4   4   4
#     4  11  21  43  66  93 135 181 212 278 344 394
#     4  11  23  43  66  92 131 177 220 271 330 406
#     4  10  21  36  67 101 125 166 219 268 334 399
#     4  10  22  43  69  98 132 178 215 283 336 397
#     4  11  23  44  72  98 137 181 218 289 337 403
#     4  11  26  41  70  98 132 179 236 263 343 407
#
# _framework density 21.944936999999999
#
# number of rings (size 3 to 8) (size 9 to 14) (size 15 to 20)
#    0.000    1.333    5.000    2.000    2.333    0.000 
#    3.000    0.000    3.667    0.000    0.000    0.000 
#    0.000    0.000    0.000    0.000    0.000    0.000 
#
# Total GULP energy -134041.054638 kJ/mol
# GULP energy per Si atom -5585.043943 kJ/mol
# Density = 2.189499 g / cm^3
# Si number density = 21.944937 Si / 1000 Ang^3
#
#
#
# Elastic Constant Matrix: (Units=GPa)
#
#
# Indices 1 2 3 4 5 6 
#
# 1 161.1096 53.2973 51.7549 0.0000 0.0000 0.0000
# 2 53.2973 37.6011 6.7094 0.0000 0.0000 0.0000
# 3 51.7549 6.7094 118.4531 0.0000 0.0000 0.0000
# 4 0.0000 0.0000 0.0000 19.9353 0.0000 0.0000
# 5 0.0000 0.0000 0.0000 0.0000 41.6351 0.0000
# 6 0.0000 0.0000 0.0000 0.0000 0.0000 30.5863
#
#
#
# Elastic Compliance Matrix: (Units=1/GPa)
#
#
# Indices 1 2 3 4 5 6 
#
# 1 0.014216 -0.019236 -0.005122 0.000000 0.000000 0.000000
# 2 -0.019236 0.052896 0.005409 0.000000 0.000000 0.000000
# 3 -0.005122 0.005409 0.010374 0.000000 0.000000 0.000000
# 4 0.000000 0.000000 0.000000 0.050162 0.000000 0.000000
# 5 0.000000 0.000000 0.000000 0.000000 0.024018 0.000000
# 6 0.000000 0.000000 0.000000 0.000000 0.000000 0.032694
#
#
# Mechanical properties :
#
#
# Convention : Reuss Voigt Hill
#
# Bulk Modulus (GPa) = 25.26078 60.07632 42.66855
# Shear Modulus (GPa) = 21.23549 32.12481 26.68015
#
# Velocity S-wave (km/s) = 3.11412 3.83022 3.49058
# Velocity P-wave (km/s) = 4.94634 6.85538 5.97756
#
# Compressibility (1/GPa) = 0.03958705
#
# Stress axis : x y z
#
# Youngs Moduli (GPa) = 70.34389 18.90496 96.39871
#
# Poissons Ratio (x) = 0.36366 0.49372
# Poissons Ratio (y) = 1.35315 -0.52139
# Poissons Ratio (z) = 0.36028 -0.10225
#
# Static dielectric constant tensor:
#      x y z
#    x 1.811560 0.000000 0.000000 
#    y 0.000000 1.828370 0.000000 
#    z 0.000000 0.000000 1.847370 
# 
# From -- ./inp_files/883.got.cif
#   From: 2010.05.17/outbox.cif.g08.bks.cpg/sg33_1_cif.got.tgz:883.got - 2010.06.03 17:15:25.
