data_PCOD9345121
_publ_section_title
;
Structure prediction by ZEFSAII (Michael W. Deem and Ramdas Pophale) SiO2 
 PCOD9345121
Probable space group: P N A 21
;
_chemical_formula_sum "Si O2"
_cell_formula_units_Z 28
_cell_length_a 16.479020
_cell_length_b 7.210720
_cell_length_c 10.183266
_cell_angle_alpha 90.000000
_cell_angle_beta 90.000000
_cell_angle_gamma 90.000000
_cell_volume 1210.032683
_symmetry_space_group_name_H-M "P N A 21"
_symmetry_group_IT_number 33
_symmetry_cell_setting 'orthorhombic'
loop_
_space_group_symop_operation_xyz
x,y,z
-x,-y,1/2+z
1/2-x,1/2+y,1/2+z
1/2+x,1/2-y,z
loop_
_atom_site_type_symbol
_atom_site_label
_atom_site_fract_x
_atom_site_fract_y
_atom_site_fract_z
Si Si1 0.048087 0.254657 0.745780
Si Si2 0.831654 0.947555 0.508289
Si Si3 0.172604 0.477431 0.089300
Si Si4 0.172604 0.522570 0.640508
Si Si5 0.048087 0.745344 0.984028
Si Si6 0.668346 0.552444 0.721519
Si Si7 0.923752 0.500001 0.864904
O O1 0.129097 0.378246 0.735920
O O2 0.081424 0.047957 0.725965
O O3 0.000000 0.303779 0.614904
O O4 0.985693 0.323332 0.856327
O O5 0.837571 0.729274 0.532883
O O6 0.767882 0.016964 0.617205
O O7 0.797647 0.000000 0.364904
O O8 0.918576 0.047956 0.503844
O O9 0.129097 0.621755 0.993888
O O10 0.267881 0.516965 0.112603
O O11 0.129915 0.485625 0.233280
O O12 0.129915 0.514374 0.496528
O O13 0.162429 0.729274 0.696925
O O14 0.985693 0.676669 0.873481
#
# Coordination Sequence:
#
# PCOD9345121 Si02
#       7
#     4   4   4   4   4   4   4
#     4  10  22  37  60  88 122 160 208 262 318 383
#     4  11  22  38  63  89 122 166 214 257 321 394
#     4  10  22  41  61  89 127 164 208 268 322 385
#     4  10  22  41  61  89 127 164 208 268 322 385
#     4  10  22  37  60  88 122 160 208 262 318 383
#     4  11  22  38  63  89 122 166 214 257 321 394
#     4  10  20  42  64  90 130 168 208 278 332 378
#
# _framework density 23.139870999999999
#
# number of rings (size 3 to 8) (size 9 to 14) (size 15 to 20)
#    0.000    1.714    1.429    2.571    0.000    5.714 
#    0.000    4.286    0.000    0.000    0.000    0.000 
#    0.000    0.000    0.000    0.000    0.000    0.000 
#
# Total GULP energy -156242.403179 kJ/mol
# GULP energy per Si atom -5580.085828 kJ/mol
# Density = 2.308720 g / cm^3
# Si number density = 23.139871 Si / 1000 Ang^3
#
#
#
# Elastic Constant Matrix: (Units=GPa)
#
#
# Indices 1 2 3 4 5 6 
#
# 1 68.9186 5.1311 10.0166 0.0000 0.0000 0.0000
# 2 5.1311 71.3800 5.7014 0.0000 0.0000 0.0000
# 3 10.0166 5.7014 70.6586 0.0000 0.0000 0.0000
# 4 0.0000 0.0000 0.0000 34.3221 0.0000 0.0000
# 5 0.0000 0.0000 0.0000 0.0000 11.9030 0.0000
# 6 0.0000 0.0000 0.0000 0.0000 0.0000 -4.0505
#
#
#
# Elastic Compliance Matrix: (Units=1/GPa)
#
#
# Indices 1 2 3 4 5 6 
#
# 1 0.014873 -0.000907 -0.002035 0.000000 0.000000 0.000000
# 2 -0.000907 0.014156 -0.001014 0.000000 0.000000 0.000000
# 3 -0.002035 -0.001014 0.014523 0.000000 0.000000 0.000000
# 4 0.000000 0.000000 0.000000 0.029136 0.000000 0.000000
# 5 0.000000 0.000000 0.000000 0.000000 0.084013 0.000000
# 6 0.000000 0.000000 0.000000 0.000000 0.000000 -0.246886
#
#
# Mechanical properties :
#
#
# Convention : Reuss Voigt Hill
#
# Bulk Modulus (GPa) = 28.05788 28.07281 28.06535
# Shear Modulus (GPa) = -71.02831 21.10879 -24.95976
#
# Velocity S-wave (km/s) = -5.54634 3.02358 -3.28784
# Velocity P-wave (km/s) = 5.37253 4.93432 1.50276
#
# Compressibility (1/GPa) = 0.03564062
#
# Stress axis : x y z
#
# Youngs Moduli (GPa) = 67.23515 70.64309 68.85693
#
# Poissons Ratio (x) = 0.06404 0.14014
# Poissons Ratio (y) = 0.06095 0.06980
# Poissons Ratio (z) = 0.13684 0.07161
#
# Static dielectric constant tensor:
#      x y z
#    x 1.895500 0.000000 0.000000 
#    y 0.000000 1.914640 0.000000 
#    z 0.000000 0.000000 1.886940 
# 
# From -- ./inp_files/6944.got.cif
#   From: 2010.05.17/outbox.cif.g08.bks.cpg/sg33_4_cif.got.tgz:6944.got - 2010.06.03 17:15:25.
