data_PCOD9345152
_publ_section_title
;
Structure prediction by ZEFSAII (Michael W. Deem and Ramdas Pophale) SiO2 
 PCOD9345152
Probable space group: P N A 21
;
_chemical_formula_sum "Si O2"
_cell_formula_units_Z 32
_cell_length_a 14.874187
_cell_length_b 7.444772
_cell_length_c 11.580972
_cell_angle_alpha 90.000000
_cell_angle_beta 90.000000
_cell_angle_gamma 90.000000
_cell_volume 1282.418134
_symmetry_space_group_name_H-M "P N A 21"
_symmetry_group_IT_number 33
_symmetry_cell_setting 'orthorhombic'
loop_
_space_group_symop_operation_xyz
x,y,z
-x,-y,1/2+z
1/2-x,1/2+y,1/2+z
1/2+x,1/2-y,z
loop_
_atom_site_type_symbol
_atom_site_label
_atom_site_fract_x
_atom_site_fract_y
_atom_site_fract_z
Si Si1 0.270270 0.227759 0.350740
Si Si2 0.159300 0.700845 0.621807
Si Si3 0.891842 0.232756 0.862761
Si Si4 0.696530 0.193217 0.824072
Si Si5 0.921622 0.814752 0.810422
Si Si6 0.068118 0.797334 0.994520
Si Si7 0.532535 0.116051 0.702067
Si Si8 0.362780 0.667827 0.562707
O O1 0.312891 0.318378 0.235252
O O2 0.166537 0.263864 0.373387
O O3 0.330138 0.256531 0.461472
O O4 0.278519 0.016869 0.320545
O O5 0.122889 0.781045 0.501152
O O6 0.082062 0.565692 0.663970
O O7 0.258232 0.617453 0.590739
O O8 0.792632 0.288873 0.816682
O O9 0.967307 0.367278 0.813735
O O10 0.915759 0.033564 0.814827
O O11 0.620065 0.238131 0.732049
O O12 0.650101 0.216340 0.948732
O O13 0.905322 0.753896 0.679102
O O14 0.009436 0.766499 0.880481
O O15 0.026467 0.686682 0.097505
O O16 0.073021 0.004464 0.029339
#
# Coordination Sequence:
#
# PCOD9345152 Si02
#       8
#     4   4   4   4   4   4   4   4
#     4   9  22  43  63  91 127 162 209 265 316 376
#     4   9  22  41  66  88 126 167 210 261 314 375
#     4  10  20  43  68  89 124 173 211 262 323 376
#     4   9  21  43  68  87 123 171 211 258 320 378
#     4  10  22  43  65  90 126 167 216 263 316 387
#     4  12  25  36  62  96 125 163 203 264 315 375
#     4  11  23  36  63  95 125 162 210 261 313 379
#     4  10  21  43  67  88 126 167 212 262 317 380
#
# _framework density 24.952860000000001
#
# number of rings (size 3 to 8) (size 9 to 14) (size 15 to 20)
#    0.000    2.000    1.250    1.500    5.250    2.000 
#    2.250    0.000    5.500    0.000    0.000    0.000 
#    0.000    0.000    0.000    0.000    0.000    0.000 
#
# Total GULP energy -178791.742769 kJ/mol
# GULP energy per Si atom -5587.241962 kJ/mol
# Density = 2.489607 g / cm^3
# Si number density = 24.952860 Si / 1000 Ang^3
#
#
#
# Elastic Constant Matrix: (Units=GPa)
#
#
# Indices 1 2 3 4 5 6 
#
# 1 139.4779 10.6289 28.6969 0.0000 0.0000 0.0000
# 2 10.6289 21.9584 9.7312 0.0000 0.0000 0.0000
# 3 28.6969 9.7312 64.4441 0.0000 0.0000 0.0000
# 4 0.0000 0.0000 0.0000 28.0453 0.0000 0.0000
# 5 0.0000 0.0000 0.0000 0.0000 50.4304 0.0000
# 6 0.0000 0.0000 0.0000 0.0000 0.0000 29.5538
#
#
#
# Elastic Compliance Matrix: (Units=1/GPa)
#
#
# Indices 1 2 3 4 5 6 
#
# 1 0.008015 -0.002463 -0.003197 0.000000 0.000000 0.000000
# 2 -0.002463 0.049563 -0.006388 0.000000 0.000000 0.000000
# 3 -0.003197 -0.006388 0.017906 0.000000 0.000000 0.000000
# 4 0.000000 0.000000 0.000000 0.035657 0.000000 0.000000
# 5 0.000000 0.000000 0.000000 0.000000 0.019829 0.000000
# 6 0.000000 0.000000 0.000000 0.000000 0.000000 0.033837
#
#
# Mechanical properties :
#
#
# Convention : Reuss Voigt Hill
#
# Bulk Modulus (GPa) = 19.45938 35.99936 27.72937
# Shear Modulus (GPa) = 24.26814 33.39412 28.83113
#
# Velocity S-wave (km/s) = 3.12197 3.66223 3.40284
# Velocity P-wave (km/s) = 4.56191 5.68690 5.15518
#
# Compressibility (1/GPa) = 0.05138910
#
# Stress axis : x y z
#
# Youngs Moduli (GPa) = 124.76476 20.17615 55.84849
#
# Poissons Ratio (x) = 0.04969 0.17856
# Poissons Ratio (y) = 0.30727 0.35673
# Poissons Ratio (z) = 0.39890 0.12888
#
# Static dielectric constant tensor:
#      x y z
#    x 1.977430 0.000000 0.000000 
#    y 0.000000 2.021430 0.000000 
#    z 0.000000 0.000000 2.055770 
# 
# From -- ./inp_files/6819.got.cif
#   From: 2010.05.17/outbox.cif.g08.bks.cpg/sg33_4_cif.got.tgz:6819.got - 2010.06.03 17:15:25.
