data_PCOD9345554
_publ_section_title
;
Structure prediction by ZEFSAII (Michael W. Deem and Ramdas Pophale) SiO2 
 PCOD9345554
Probable space group: P N A 21
;
_chemical_formula_sum "Si O2"
_cell_formula_units_Z 24
_cell_length_a 16.349297
_cell_length_b 4.825373
_cell_length_c 10.877783
_cell_angle_alpha 90.000000
_cell_angle_beta 90.000000
_cell_angle_gamma 90.000000
_cell_volume 858.164142
_symmetry_space_group_name_H-M "P N A 21"
_symmetry_group_IT_number 33
_symmetry_cell_setting 'orthorhombic'
loop_
_space_group_symop_operation_xyz
x,y,z
-x,-y,1/2+z
1/2-x,1/2+y,1/2+z
1/2+x,1/2-y,z
loop_
_atom_site_type_symbol
_atom_site_label
_atom_site_fract_x
_atom_site_fract_y
_atom_site_fract_z
Si Si1 0.943365 0.732500 0.813070
Si Si2 0.618415 0.747470 0.452132
Si Si3 0.065017 0.051582 0.684848
Si Si4 0.236892 0.815382 0.925655
Si Si5 0.890575 0.079698 0.615452
Si Si6 0.740302 0.426971 0.675523
O O1 0.945356 0.438047 0.874972
O O2 0.904274 0.776983 0.676848
O O3 0.888665 0.942474 0.892944
O O4 0.029219 0.884744 0.799353
O O5 0.589600 0.688193 0.588994
O O6 0.696364 0.947257 0.452589
O O7 0.150602 0.208879 0.700772
O O8 0.983434 0.196015 0.627385
O O9 0.151824 0.924771 0.984293
O O10 0.253045 0.564428 0.025109
O O11 0.236957 0.823866 0.776258
O O12 0.821391 0.241324 0.696713
#
# Coordination Sequence:
#
# PCOD9345554 Si02
#       6
#     4   4   4   4   4   4
#     4  10  25  45  73 109 163 204 268 348 420 497
#     4  12  23  46  77 107 162 213 264 360 413 512
#     4  10  24  45  76 119 153 220 280 343 433 510
#     4  10  21  43  74 113 161 214 280 344 437 507
#     4   8  22  46  70 119 160 208 276 351 415 517
#     4  10  21  45  78 115 161 221 272 350 426 519
#
# _framework density 27.96668
#
# number of rings (size 3 to 8) (size 9 to 14) (size 15 to 20)
#    2.000    0.000    1.667    1.000    2.333    4.000 
#    0.000    1.667    0.000    2.000    0.000    0.000 
#    0.000    0.000    0.000    0.000    0.000    0.000 
#
# Total GULP energy -133620.228336 kJ/mol
# GULP energy per Si atom -5567.509514 kJ/mol
# Density = 2.790303 g / cm^3
# Si number density = 27.966680 Si / 1000 Ang^3
#
#
#
# Elastic Constant Matrix: (Units=GPa)
#
#
# Indices 1 2 3 4 5 6 
#
# 1 206.5465 25.6074 33.7771 0.0000 0.0000 0.0000
# 2 25.6074 129.2462 42.1592 0.0000 0.0000 0.0000
# 3 33.7771 42.1592 156.7339 0.0000 0.0000 0.0000
# 4 0.0000 0.0000 0.0000 39.9416 0.0000 0.0000
# 5 0.0000 0.0000 0.0000 0.0000 55.4269 0.0000
# 6 0.0000 0.0000 0.0000 0.0000 0.0000 29.4709
#
#
#
# Elastic Compliance Matrix: (Units=1/GPa)
#
#
# Indices 1 2 3 4 5 6 
#
# 1 0.005077 -0.000711 -0.000903 0.000000 0.000000 0.000000
# 2 -0.000711 0.008581 -0.002155 0.000000 0.000000 0.000000
# 3 -0.000903 -0.002155 0.007154 0.000000 0.000000 0.000000
# 4 0.000000 0.000000 0.000000 0.025037 0.000000 0.000000
# 5 0.000000 0.000000 0.000000 0.000000 0.018042 0.000000
# 6 0.000000 0.000000 0.000000 0.000000 0.000000 0.033932
#
#
# Mechanical properties :
#
#
# Convention : Reuss Voigt Hill
#
# Bulk Modulus (GPa) = 75.33225 77.29045 76.31135
# Shear Modulus (GPa) = 45.54310 51.03340 48.28825
#
# Velocity S-wave (km/s) = 4.03982 4.27639 4.15979
# Velocity P-wave (km/s) = 6.98248 7.21665 7.10053
#
# Compressibility (1/GPa) = 0.01327453
#
# Stress axis : x y z
#
# Youngs Moduli (GPa) = 196.95218 116.53610 139.77357
#
# Poissons Ratio (x) = 0.08291 0.12619
# Poissons Ratio (y) = 0.14013 0.30119
# Poissons Ratio (z) = 0.17781 0.25112
#
# Static dielectric constant tensor:
#      x y z
#    x 2.357970 0.000000 0.000000 
#    y 0.000000 2.124800 0.000000 
#    z 0.000000 0.000000 2.262900 
# 
# From -- ./inp_files/6927.got.cif
#   From: 2010.05.17/outbox.cif.g08.bks.cpg/sg33_4_cif.got.tgz:6927.got - 2010.06.03 17:15:25.
