data_PCOD9345479
_publ_section_title
;
Structure prediction by ZEFSAII (Michael W. Deem and Ramdas Pophale) SiO2 
 PCOD9345479
Probable space group: P N A 21
;
_chemical_formula_sum "Si O2"
_cell_formula_units_Z 12
_cell_length_a 9.834832
_cell_length_b 6.808999
_cell_length_c 6.823578
_cell_angle_alpha 90.000000
_cell_angle_beta 90.000000
_cell_angle_gamma 90.000000
_cell_volume 456.943366
_symmetry_space_group_name_H-M "P N A 21"
_symmetry_group_IT_number 33
_symmetry_cell_setting 'orthorhombic'
loop_
_space_group_symop_operation_xyz
x,y,z
-x,-y,1/2+z
1/2-x,1/2+y,1/2+z
1/2+x,1/2-y,z
loop_
_atom_site_type_symbol
_atom_site_label
_atom_site_fract_x
_atom_site_fract_y
_atom_site_fract_z
Si Si1 0.216795 0.880711 0.506390
Si Si2 0.087051 0.693045 0.880800
Si Si3 0.966768 0.734279 0.268115
O O1 0.157108 0.825898 0.717428
O O2 0.336665 0.742171 0.412032
O O3 0.092266 0.845683 0.361857
O O4 0.289852 0.090400 0.498824
O O5 0.018604 0.505298 0.773503
O O6 0.982737 0.779716 0.037644
#
# Coordination Sequence:
#
# PCOD9345479 Si02
#       3
#     4   4   4
#     4  10  22  42  68 103 143 200 240 307 379 441
#     4  10  21  41  70 101 151 188 245 306 372 440
#     4  10  21  41  68  98 146 192 245 307 367 441
#
# _framework density 26.261462000000002
#
# number of rings (size 3 to 8) (size 9 to 14) (size 15 to 20)
#    2.000    0.000    3.333    0.000    0.000    8.000 
#    6.000    0.000    0.000    0.000    0.000    0.000 
#    0.000    0.000    0.000    0.000    0.000    0.000 
#
# Total GULP energy -67026.556219 kJ/mol
# GULP energy per Si atom -5585.546352 kJ/mol
# Density = 2.620169 g / cm^3
# Si number density = 26.261462 Si / 1000 Ang^3
#
#
#
# Elastic Constant Matrix: (Units=GPa)
#
#
# Indices 1 2 3 4 5 6 
#
# 1 151.6549 5.7169 51.9038 0.0000 0.0000 0.0000
# 2 5.7169 65.4668 33.8542 0.0000 0.0000 0.0000
# 3 51.9038 33.8542 181.5633 0.0000 0.0000 0.0000
# 4 0.0000 0.0000 0.0000 24.5168 0.0000 0.0000
# 5 0.0000 0.0000 0.0000 0.0000 61.4786 0.0000
# 6 0.0000 0.0000 0.0000 0.0000 0.0000 43.7372
#
#
#
# Elastic Compliance Matrix: (Units=1/GPa)
#
#
# Indices 1 2 3 4 5 6 
#
# 1 0.007323 0.000490 -0.002185 0.000000 0.000000 0.000000
# 2 0.000490 0.016938 -0.003298 0.000000 0.000000 0.000000
# 3 -0.002185 -0.003298 0.006747 0.000000 0.000000 0.000000
# 4 0.000000 0.000000 0.000000 0.040788 0.000000 0.000000
# 5 0.000000 0.000000 0.000000 0.000000 0.016266 0.000000
# 6 0.000000 0.000000 0.000000 0.000000 0.000000 0.022864
#
#
# Mechanical properties :
#
#
# Convention : Reuss Voigt Hill
#
# Bulk Modulus (GPa) = 47.56826 64.62608 56.09717
# Shear Modulus (GPa) = 39.08705 46.42722 42.75713
#
# Velocity S-wave (km/s) = 3.86214 4.20918 4.03939
# Velocity P-wave (km/s) = 6.16772 6.94875 6.56985
#
# Compressibility (1/GPa) = 0.02102242
#
# Stress axis : x y z
#
# Youngs Moduli (GPa) = 136.55184 59.03972 148.20644
#
# Poissons Ratio (x) = -0.02895 0.32382
# Poissons Ratio (y) = -0.06696 0.48884
# Poissons Ratio (z) = 0.29836 0.19474
#
# Static dielectric constant tensor:
#      x y z
#    x 2.009310 0.000000 0.000000 
#    y 0.000000 2.135030 0.000000 
#    z 0.000000 0.000000 2.038920 
# 
# From -- ./inp_files/252.got.cif
#   From: 2010.05.17/outbox.cif.g08.bks.cpg/sg33_1_cif.got.tgz:252.got - 2010.06.03 17:15:25.
