data_PCOD9345374
_publ_section_title
;
Structure prediction by ZEFSAII (Michael W. Deem and Ramdas Pophale) SiO2 
 PCOD9345374
Probable space group: P N A 21
;
_chemical_formula_sum "Si O2"
_cell_formula_units_Z 28
_cell_length_a 10.668206
_cell_length_b 12.132693
_cell_length_c 9.178535
_cell_angle_alpha 90.000000
_cell_angle_beta 90.000000
_cell_angle_gamma 90.000000
_cell_volume 1188.015126
_symmetry_space_group_name_H-M "P N A 21"
_symmetry_group_IT_number 33
_symmetry_cell_setting 'orthorhombic'
loop_
_space_group_symop_operation_xyz
x,y,z
-x,-y,1/2+z
1/2-x,1/2+y,1/2+z
1/2+x,1/2-y,z
loop_
_atom_site_type_symbol
_atom_site_label
_atom_site_fract_x
_atom_site_fract_y
_atom_site_fract_z
Si Si1 0.444680 0.954202 0.631780
Si Si2 0.839819 0.975491 0.475558
Si Si3 0.727568 0.590809 0.411610
Si Si4 0.516306 0.452340 0.248634
Si Si5 0.858877 0.638870 0.124534
Si Si6 0.364997 0.764097 0.832992
Si Si7 0.326192 0.208350 0.093385
O O1 0.336432 0.961462 0.511334
O O2 0.394191 0.887308 0.772423
O O3 0.554880 0.870304 0.583736
O O4 0.512946 0.070928 0.652879
O O5 0.957516 0.986920 0.584378
O O6 0.782837 0.855788 0.503917
O O7 0.737581 0.059329 0.537892
O O8 0.889154 0.002218 0.316394
O O9 0.634712 0.505063 0.335931
O O10 0.795360 0.656671 0.279898
O O11 0.655670 0.676524 0.513906
O O12 0.532019 0.321965 0.273216
O O13 0.872278 0.736017 0.007601
O O14 0.236284 0.726420 0.753099
#
# Coordination Sequence:
#
# PCOD9345374 Si02
#       7
#     4   4   4   4   4   4   4
#     4  10  21  41  64  85 117 169 203 247 307 385
#     4   9  21  39  59  84 121 155 200 249 302 365
#     4  10  22  38  60  86 122 155 200 256 304 363
#     4  10  22  38  59  90 121 160 199 256 305 370
#     4  10  21  40  57  91 121 149 202 259 304 358
#     4  10  22  37  63  92 120 164 200 258 311 366
#     4   9  21  39  62  84 118 164 208 241 309 383
#
# _framework density 23.568724
#
# number of rings (size 3 to 8) (size 9 to 14) (size 15 to 20)
#    0.000    2.286    0.000    1.714    8.000    2.286 
#    2.571    2.857    0.000    0.000    0.000    0.000 
#    0.000    0.000    0.000    0.000    0.000    0.000 
#
# Total GULP energy -156490.194225 kJ/mol
# GULP energy per Si atom -5588.935508 kJ/mol
# Density = 2.351508 g / cm^3
# Si number density = 23.568724 Si / 1000 Ang^3
#
#
#
# Elastic Constant Matrix: (Units=GPa)
#
#
# Indices 1 2 3 4 5 6 
#
# 1 70.6900 -0.4931 12.3859 0.0000 0.0000 0.0000
# 2 -0.4931 35.3022 4.3405 0.0000 0.0000 0.0000
# 3 12.3859 4.3405 75.7182 0.0000 0.0000 0.0000
# 4 0.0000 0.0000 0.0000 33.3201 0.0000 0.0000
# 5 0.0000 0.0000 0.0000 0.0000 33.0516 0.0000
# 6 0.0000 0.0000 0.0000 0.0000 0.0000 28.1333
#
#
#
# Elastic Compliance Matrix: (Units=1/GPa)
#
#
# Indices 1 2 3 4 5 6 
#
# 1 0.014572 0.000500 -0.002412 0.000000 0.000000 0.000000
# 2 0.000500 0.028545 -0.001718 0.000000 0.000000 0.000000
# 3 -0.002412 -0.001718 0.013700 0.000000 0.000000 0.000000
# 4 0.000000 0.000000 0.000000 0.030012 0.000000 0.000000
# 5 0.000000 0.000000 0.000000 0.000000 0.030256 0.000000
# 6 0.000000 0.000000 0.000000 0.000000 0.000000 0.035545
#
#
# Mechanical properties :
#
#
# Convention : Reuss Voigt Hill
#
# Bulk Modulus (GPa) = 20.17890 23.79745 21.98817
# Shear Modulus (GPa) = 28.34309 29.93282 29.13795
#
# Velocity S-wave (km/s) = 3.47157 3.56760 3.51992
# Velocity P-wave (km/s) = 4.96482 5.20474 5.08620
#
# Compressibility (1/GPa) = 0.04955673
#
# Stress axis : x y z
#
# Youngs Moduli (GPa) = 68.62263 35.03230 72.99287
#
# Poissons Ratio (x) = -0.01752 0.17609
# Poissons Ratio (y) = -0.03432 0.12541
# Poissons Ratio (z) = 0.16555 0.06019
#
# Static dielectric constant tensor:
#      x y z
#    x 1.915850 0.000000 0.000000 
#    y 0.000000 1.899520 0.000000 
#    z 0.000000 0.000000 1.882030 
# 
# From -- ./inp_files/3843.got.cif
#   From: 2010.05.17/outbox.cif.g08.bks.cpg/sg33_2_cif.got.tgz:3843.got - 2010.06.03 17:15:25.
