data_PCOD9345704
_publ_section_title
;
Structure prediction by ZEFSAII (Michael W. Deem and Ramdas Pophale) SiO2 
 PCOD9345704
Probable space group: P N A 21
;
_chemical_formula_sum "Si O2"
_cell_formula_units_Z 28
_cell_length_a 5.092061
_cell_length_b 20.846873
_cell_length_c 11.097356
_cell_angle_alpha 90.000000
_cell_angle_beta 90.000000
_cell_angle_gamma 90.000000
_cell_volume 1178.023724
_symmetry_space_group_name_H-M "P N A 21"
_symmetry_group_IT_number 33
_symmetry_cell_setting 'orthorhombic'
loop_
_space_group_symop_operation_xyz
x,y,z
-x,-y,1/2+z
1/2-x,1/2+y,1/2+z
1/2+x,1/2-y,z
loop_
_atom_site_type_symbol
_atom_site_label
_atom_site_fract_x
_atom_site_fract_y
_atom_site_fract_z
Si Si1 0.457544 0.864699 0.940670
Si Si2 0.317749 0.983108 0.088381
Si Si3 0.353467 0.209487 0.676898
Si Si4 0.040900 0.979639 0.412785
Si Si5 0.369320 0.295478 0.265345
Si Si6 0.816696 0.907114 0.730945
Si Si7 0.514677 0.909794 0.325868
O O1 0.192145 0.828295 0.897311
O O2 0.633739 0.867859 0.821999
O O3 0.427540 0.938978 0.980403
O O4 0.583908 0.826337 0.050931
O O5 0.407302 0.942573 0.202813
O O6 0.352524 0.056621 0.129950
O O7 0.013682 0.988117 0.043039
O O8 0.051508 0.230401 0.681834
O O9 0.429269 0.162623 0.786884
O O10 0.781530 0.941436 0.372336
O O11 0.280738 0.930492 0.413999
O O12 0.073421 0.035348 0.313894
O O13 0.610371 0.246815 0.247193
O O14 0.456104 0.358510 0.189838
#
# Coordination Sequence:
#
# PCOD9345704 Si02
#       7
#     4   4   4   4   4   4   4
#     4  11  23  42  63 102 136 171 221 279 336 404
#     4  10  22  40  66  97 131 175 218 272 334 408
#     4  11  24  40  67  97 129 173 220 271 342 405
#     4  11  22  42  64  95 133 173 215 281 337 397
#     4  12  24  41  65  91 133 177 215 267 333 400
#     4  11  25  41  66  99 137 178 219 277 343 403
#     4  10  24  40  63  97 135 165 222 279 335 397
#
# _framework density 23.768619999999999
#
# number of rings (size 3 to 8) (size 9 to 14) (size 15 to 20)
#    0.000    1.143    2.857    3.429    2.000    6.857 
#    0.000    0.000    0.000    5.143    0.000    0.000 
#    0.000    0.000    0.000    0.000    0.000    0.000 
#
# Total GULP energy -156198.718643 kJ/mol
# GULP energy per Si atom -5578.525666 kJ/mol
# Density = 2.371452 g / cm^3
# Si number density = 23.768620 Si / 1000 Ang^3
#
#
#
# Elastic Constant Matrix: (Units=GPa)
#
#
# Indices 1 2 3 4 5 6 
#
# 1 108.4365 14.7731 21.5776 0.0000 0.0000 0.0000
# 2 14.7731 65.8058 -1.5831 0.0000 0.0000 0.0000
# 3 21.5776 -1.5831 45.8094 0.0000 0.0000 0.0000
# 4 0.0000 0.0000 0.0000 39.0265 0.0000 0.0000
# 5 0.0000 0.0000 0.0000 0.0000 38.1421 0.0000
# 6 0.0000 0.0000 0.0000 0.0000 0.0000 44.4585
#
#
#
# Elastic Compliance Matrix: (Units=1/GPa)
#
#
# Indices 1 2 3 4 5 6 
#
# 1 0.010570 -0.002495 -0.005065 0.000000 0.000000 0.000000
# 2 -0.002495 0.015798 0.001721 0.000000 0.000000 0.000000
# 3 -0.005065 0.001721 0.024275 0.000000 0.000000 0.000000
# 4 0.000000 0.000000 0.000000 0.025624 0.000000 0.000000
# 5 0.000000 0.000000 0.000000 0.000000 0.026218 0.000000
# 6 0.000000 0.000000 0.000000 0.000000 0.000000 0.022493
#
#
# Mechanical properties :
#
#
# Convention : Reuss Voigt Hill
#
# Bulk Modulus (GPa) = 25.66403 32.17633 28.92018
# Shear Modulus (GPa) = 33.41312 36.67768 35.04540
#
# Velocity S-wave (km/s) = 3.75342 3.93251 3.84401
# Velocity P-wave (km/s) = 5.44106 5.84690 5.64763
#
# Compressibility (1/GPa) = 0.03896504
#
# Stress axis : x y z
#
# Youngs Moduli (GPa) = 94.61009 63.30046 41.19509
#
# Poissons Ratio (x) = 0.15791 0.20865
# Poissons Ratio (y) = 0.23602 -0.07090
# Poissons Ratio (z) = 0.47919 -0.10894
#
# Static dielectric constant tensor:
#      x y z
#    x 2.009260 0.000000 0.000000 
#    y 0.000000 1.932400 0.000000 
#    z 0.000000 0.000000 1.981660 
# 
# From -- ./inp_files/5524.got.cif
#   From: 2010.05.17/outbox.cif.g08.bks.cpg/sg33_3_cif.got.tgz:5524.got - 2010.06.03 17:15:25.
