data_PCOD9345523
_publ_section_title
;
Structure prediction by ZEFSAII (Michael W. Deem and Ramdas Pophale) SiO2 
 PCOD9345523
Probable space group: P N A 21
;
_chemical_formula_sum "Si O2"
_cell_formula_units_Z 20
_cell_length_a 14.719989
_cell_length_b 6.702380
_cell_length_c 8.088090
_cell_angle_alpha 90.000000
_cell_angle_beta 90.000000
_cell_angle_gamma 90.000000
_cell_volume 797.962547
_symmetry_space_group_name_H-M "P N A 21"
_symmetry_group_IT_number 33
_symmetry_cell_setting 'orthorhombic'
loop_
_space_group_symop_operation_xyz
x,y,z
-x,-y,1/2+z
1/2-x,1/2+y,1/2+z
1/2+x,1/2-y,z
loop_
_atom_site_type_symbol
_atom_site_label
_atom_site_fract_x
_atom_site_fract_y
_atom_site_fract_z
Si Si1 0.237643 0.651960 0.630800
Si Si2 0.946558 0.375861 0.734591
Si Si3 0.598367 0.149760 0.958954
Si Si4 0.339255 0.796936 0.951186
Si Si5 0.426773 0.396835 0.005271
O O1 0.085067 0.832614 0.311987
O O2 0.304775 0.756336 0.495722
O O3 0.221242 0.423898 0.578329
O O4 0.144415 0.774860 0.613881
O O5 0.898331 0.538761 0.853673
O O6 0.053404 0.386593 0.780555
O O7 0.915178 0.442991 0.556644
O O8 0.526664 0.309495 0.038902
O O9 0.404731 0.626521 0.021880
O O10 0.277306 0.690188 0.812105
#
# Coordination Sequence:
#
# PCOD9345523 Si02
#       5
#     4   4   4   4   4
#     4  10  22  42  64  94 129 171 227 273 338 408
#     4   8  19  40  62  92 131 159 219 270 332 403
#     4   9  19  42  64  96 128 173 212 278 337 400
#     4  10  21  43  62  92 133 173 218 284 328 411
#     4   9  21  41  60  94 131 164 216 279 327 404
#
# _framework density 25.063832999999999
#
# number of rings (size 3 to 8) (size 9 to 14) (size 15 to 20)
#    1.200    1.600    0.000    0.000    0.000    6.400 
#   21.600    0.000    0.000    0.000    0.000    0.000 
#    0.000    0.000    0.000    0.000    0.000    0.000 
#
# Total GULP energy -111744.800721 kJ/mol
# GULP energy per Si atom -5587.240036 kJ/mol
# Density = 2.500679 g / cm^3
# Si number density = 25.063833 Si / 1000 Ang^3
#
#
#
# Elastic Constant Matrix: (Units=GPa)
#
#
# Indices 1 2 3 4 5 6 
#
# 1 71.6473 15.9466 25.0848 0.0000 0.0000 0.0000
# 2 15.9466 119.0339 49.8755 0.0000 0.0000 0.0000
# 3 25.0848 49.8755 55.5232 0.0000 0.0000 0.0000
# 4 0.0000 0.0000 0.0000 35.1447 0.0000 0.0000
# 5 0.0000 0.0000 0.0000 0.0000 34.1657 0.0000
# 6 0.0000 0.0000 0.0000 0.0000 0.0000 44.7335
#
#
#
# Elastic Compliance Matrix: (Units=1/GPa)
#
#
# Indices 1 2 3 4 5 6 
#
# 1 0.016742 0.001486 -0.008898 0.000000 0.000000 0.000000
# 2 0.001486 0.013603 -0.012891 0.000000 0.000000 0.000000
# 3 -0.008898 -0.012891 0.033610 0.000000 0.000000 0.000000
# 4 0.000000 0.000000 0.000000 0.028454 0.000000 0.000000
# 5 0.000000 0.000000 0.000000 0.000000 0.029269 0.000000
# 6 0.000000 0.000000 0.000000 0.000000 0.000000 0.022355
#
#
# Mechanical properties :
#
#
# Convention : Reuss Voigt Hill
#
# Bulk Modulus (GPa) = 42.82935 47.55757 45.19346
# Shear Modulus (GPa) = 25.98451 33.16195 29.57323
#
# Velocity S-wave (km/s) = 3.22333 3.64139 3.43872
# Velocity P-wave (km/s) = 5.56582 6.05767 5.81695
#
# Compressibility (1/GPa) = 0.02334848
#
# Stress axis : x y z
#
# Youngs Moduli (GPa) = 59.72984 73.51238 29.75302
#
# Poissons Ratio (x) = -0.10921 0.26475
# Poissons Ratio (y) = -0.08873 0.38353
# Poissons Ratio (z) = 0.53149 0.94762
#
# Static dielectric constant tensor:
#      x y z
#    x 1.990960 0.000000 0.000000 
#    y 0.000000 1.939360 0.000000 
#    z 0.000000 0.000000 2.040460 
# 
# From -- ./inp_files/4216.got.cif
#   From: 2010.05.17/outbox.cif.g08.bks.cpg/sg33_3_cif.got.tgz:4216.got - 2010.06.03 17:15:25.
