data_PCOD9345212
_publ_section_title
;
Structure prediction by ZEFSAII (Michael W. Deem and Ramdas Pophale) SiO2 
 PCOD9345212
Probable space group: P N A 21
;
_chemical_formula_sum "Si O2"
_cell_formula_units_Z 28
_cell_length_a 14.910129
_cell_length_b 6.248572
_cell_length_c 15.210470
_cell_angle_alpha 90.000000
_cell_angle_beta 90.000000
_cell_angle_gamma 90.000000
_cell_volume 1417.114080
_symmetry_space_group_name_H-M "P N A 21"
_symmetry_group_IT_number 33
_symmetry_cell_setting 'orthorhombic'
loop_
_space_group_symop_operation_xyz
x,y,z
-x,-y,1/2+z
1/2-x,1/2+y,1/2+z
1/2+x,1/2-y,z
loop_
_atom_site_type_symbol
_atom_site_label
_atom_site_fract_x
_atom_site_fract_y
_atom_site_fract_z
Si Si1 0.942112 0.975687 0.846740
Si Si2 0.808087 0.595700 0.875808
Si Si3 0.557888 0.024312 0.653890
Si Si4 0.131520 0.702074 0.213207
Si Si5 0.368480 0.297926 0.287423
Si Si6 0.127241 0.750000 0.500315
Si Si7 0.808087 0.904300 0.124822
O O1 0.884559 0.774277 0.878487
O O2 0.042855 0.905356 0.827087
O O3 0.897381 0.074468 0.758288
O O4 0.933056 0.153738 0.922321
O O5 0.833197 0.445033 0.793106
O O6 0.712610 0.705558 0.856627
O O7 0.813079 0.439991 0.959382
O O8 0.457145 0.094644 0.673543
O O9 0.615441 0.225722 0.622143
O O10 0.602620 0.925532 0.742342
O O11 0.566944 0.846262 0.578309
O O12 0.212610 0.705558 0.144004
O O13 0.333197 0.445033 0.207524
O O14 0.186921 0.939991 0.541249
#
# Coordination Sequence:
#
# PCOD9345212 Si02
#       7
#     4   4   4   4   4   4   4
#     4  11  20  40  61  92 120 159 206 257 302 366
#     4  10  21  40  58  89 122 160 200 253 302 369
#     4  11  20  40  61  92 120 159 206 257 302 366
#     4  10  21  36  66  88 116 158 207 251 305 357
#     4  10  21  36  66  88 116 158 207 251 305 357
#     4  10  24  38  58  86 132 162 200 252 308 362
#     4  10  21  40  58  89 122 160 200 253 302 369
#
# _framework density 19.758465999999999
#
# number of rings (size 3 to 8) (size 9 to 14) (size 15 to 20)
#    0.000    1.714    2.857    1.714    0.000    1.143 
#    0.000    5.714    0.000    0.000    0.000    0.000 
#    0.000    0.000    0.000    0.000    0.000    0.000 
#
# Total GULP energy -156335.256974 kJ/mol
# GULP energy per Si atom -5583.402035 kJ/mol
# Density = 1.971349 g / cm^3
# Si number density = 19.758466 Si / 1000 Ang^3
#
#
#
# Elastic Constant Matrix: (Units=GPa)
#
#
# Indices 1 2 3 4 5 6 
#
# 1 124.3888 11.7823 33.1129 0.0000 0.0000 0.0000
# 2 11.7823 37.7131 12.7135 0.0000 0.0000 0.0000
# 3 33.1129 12.7135 74.2789 0.0000 0.0000 0.0000
# 4 0.0000 0.0000 0.0000 26.3845 0.0000 0.0000
# 5 0.0000 0.0000 0.0000 0.0000 0.2391 0.0000
# 6 0.0000 0.0000 0.0000 0.0000 0.0000 13.4067
#
#
#
# Elastic Compliance Matrix: (Units=1/GPa)
#
#
# Indices 1 2 3 4 5 6 
#
# 1 0.009210 -0.001585 -0.003835 0.000000 0.000000 0.000000
# 2 -0.001585 0.028412 -0.004157 0.000000 0.000000 0.000000
# 3 -0.003835 -0.004157 0.015884 0.000000 0.000000 0.000000
# 4 0.000000 0.000000 0.000000 0.037901 0.000000 0.000000
# 5 0.000000 0.000000 0.000000 0.000000 4.181732 0.000000
# 6 0.000000 0.000000 0.000000 0.000000 0.000000 0.074589
#
#
# Mechanical properties :
#
#
# Convention : Reuss Voigt Hill
#
# Bulk Modulus (GPa) = 29.10840 39.06647 34.08743
# Shear Modulus (GPa) = 1.14199 19.92420 10.53310
#
# Velocity S-wave (km/s) = 0.76107 3.17896 2.31139
# Velocity P-wave (km/s) = 3.94162 5.76969 4.94094
#
# Compressibility (1/GPa) = 0.03435434
#
# Stress axis : x y z
#
# Youngs Moduli (GPa) = 108.57519 35.19603 62.95795
#
# Poissons Ratio (x) = 0.05578 0.24142
# Poissons Ratio (y) = 0.17207 0.26169
# Poissons Ratio (z) = 0.41634 0.14629
#
# Static dielectric constant tensor:
#      x y z
#    x 1.645950 0.000000 0.000000 
#    y 0.000000 1.697700 0.000000 
#    z 0.000000 0.000000 1.723180 
# 
# From -- ./inp_files/1384.got.cif
#   From: 2010.05.17/outbox.cif.g08.bks.cpg/sg33_1_cif.got.tgz:1384.got - 2010.06.03 17:15:25.
