data_PCOD9345808
_publ_section_title
;
Structure prediction by ZEFSAII (Michael W. Deem and Ramdas Pophale) SiO2 
 PCOD9345808
Probable space group: P N A 21
;
_chemical_formula_sum "Si O2"
_cell_formula_units_Z 28
_cell_length_a 18.357163
_cell_length_b 5.095370
_cell_length_c 14.335830
_cell_angle_alpha 90.000000
_cell_angle_beta 90.000000
_cell_angle_gamma 90.000000
_cell_volume 1340.923902
_symmetry_space_group_name_H-M "P N A 21"
_symmetry_group_IT_number 33
_symmetry_cell_setting 'orthorhombic'
loop_
_space_group_symop_operation_xyz
x,y,z
-x,-y,1/2+z
1/2-x,1/2+y,1/2+z
1/2+x,1/2-y,z
loop_
_atom_site_type_symbol
_atom_site_label
_atom_site_fract_x
_atom_site_fract_y
_atom_site_fract_z
Si Si1 0.360096 0.579928 0.723320
Si Si2 0.908924 0.410087 0.612251
Si Si3 0.843759 0.599138 0.894314
Si Si4 0.739334 0.234392 0.790714
Si Si5 0.578324 0.054403 0.576953
Si Si6 0.719480 0.951054 0.978011
Si Si7 0.164707 0.930442 0.633938
O O1 0.403735 0.337953 0.680828
O O2 0.376803 0.675516 0.828414
O O3 0.274594 0.493984 0.726388
O O4 0.376797 0.829745 0.659938
O O5 0.854504 0.357433 0.526046
O O6 0.992396 0.457643 0.587781
O O7 0.811837 0.376813 0.828395
O O8 0.772190 0.717300 0.944419
O O9 0.898312 0.494521 0.970989
O O10 0.703855 0.118692 0.884430
O O11 0.695565 0.441375 0.728971
O O12 0.608965 0.345000 0.597302
O O13 0.620969 0.841269 0.639872
O O14 0.770396 0.090406 0.056777
#
# Coordination Sequence:
#
# PCOD9345808 Si02
#       7
#     4   4   4   4   4   4   4
#     4  11  23  41  70  97 127 178 226 276 338 403
#     4  12  25  45  66  98 139 181 221 277 349 416
#     4  10  22  42  70 100 131 172 232 284 335 405
#     4  11  22  40  72 104 127 172 237 287 334 391
#     4  11  26  45  64  98 141 180 213 278 353 406
#     4  10  23  38  71 101 126 175 230 280 331 404
#     4  11  23  43  69  94 137 176 227 280 330 409
#
# _framework density 20.881126999999999
#
# number of rings (size 3 to 8) (size 9 to 14) (size 15 to 20)
#    0.000    1.143    4.286    0.857    8.000    0.000 
#    2.571    1.429    0.000    0.000    0.000    0.000 
#    0.000    0.000    0.000    0.000    0.000    0.000 
#
# Total GULP energy -156430.978556 kJ/mol
# GULP energy per Si atom -5586.820663 kJ/mol
# Density = 2.083360 g / cm^3
# Si number density = 20.881127 Si / 1000 Ang^3
#
#
#
# Elastic Constant Matrix: (Units=GPa)
#
#
# Indices 1 2 3 4 5 6 
#
# 1 119.8014 28.9204 66.4941 0.0000 0.0000 0.0000
# 2 28.9204 91.5118 28.5692 0.0000 0.0000 0.0000
# 3 66.4941 28.5692 103.9301 0.0000 0.0000 0.0000
# 4 0.0000 0.0000 0.0000 35.2357 0.0000 0.0000
# 5 0.0000 0.0000 0.0000 0.0000 16.7548 0.0000
# 6 0.0000 0.0000 0.0000 0.0000 0.0000 23.3070
#
#
#
# Elastic Compliance Matrix: (Units=1/GPa)
#
#
# Indices 1 2 3 4 5 6 
#
# 1 0.013174 -0.001676 -0.007968 0.000000 0.000000 0.000000
# 2 -0.001676 0.012167 -0.002272 0.000000 0.000000 0.000000
# 3 -0.007968 -0.002272 0.015345 0.000000 0.000000 0.000000
# 4 0.000000 0.000000 0.000000 0.028380 0.000000 0.000000
# 5 0.000000 0.000000 0.000000 0.000000 0.059684 0.000000
# 6 0.000000 0.000000 0.000000 0.000000 0.000000 0.042906
#
#
# Mechanical properties :
#
#
# Convention : Reuss Voigt Hill
#
# Bulk Modulus (GPa) = 59.33748 62.57896 60.95822
# Shear Modulus (GPa) = 24.86250 27.81013 26.33632
#
# Velocity S-wave (km/s) = 3.45435 3.65339 3.55526
# Velocity P-wave (km/s) = 6.66247 6.91596 6.79040
#
# Compressibility (1/GPa) = 0.01685276
#
# Stress axis : x y z
#
# Youngs Moduli (GPa) = 75.90494 82.19265 65.16991
#
# Poissons Ratio (x) = 0.13774 0.51929
# Poissons Ratio (y) = 0.12721 0.14808
# Poissons Ratio (z) = 0.60483 0.18676
#
# Static dielectric constant tensor:
#      x y z
#    x 1.705820 0.000000 0.000000 
#    y 0.000000 1.817150 0.000000 
#    z 0.000000 0.000000 1.785620 
# 
# From -- ./inp_files/8213.got.cif
#   From: 2010.05.17/outbox.cif.g08.bks.cpg/sg33_5_cif.got.tgz:8213.got - 2010.06.03 17:15:25.
