data_PCOD9345798
_publ_section_title
;
Structure prediction by ZEFSAII (Michael W. Deem and Ramdas Pophale) SiO2 
 PCOD9345798
Probable space group: P N A 21
;
_chemical_formula_sum "Si O2"
_cell_formula_units_Z 28
_cell_length_a 14.680932
_cell_length_b 7.550884
_cell_length_c 10.730206
_cell_angle_alpha 90.000000
_cell_angle_beta 90.000000
_cell_angle_gamma 90.000000
_cell_volume 1189.486412
_symmetry_space_group_name_H-M "P N A 21"
_symmetry_group_IT_number 33
_symmetry_cell_setting 'orthorhombic'
loop_
_space_group_symop_operation_xyz
x,y,z
-x,-y,1/2+z
1/2-x,1/2+y,1/2+z
1/2+x,1/2-y,z
loop_
_atom_site_type_symbol
_atom_site_label
_atom_site_fract_x
_atom_site_fract_y
_atom_site_fract_z
Si Si1 0.382911 0.587910 0.194220
Si Si2 0.119230 0.860512 0.944056
Si Si3 0.134891 0.915801 0.436822
Si Si4 0.778701 0.605530 0.100918
Si Si5 0.678663 0.006039 0.866301
Si Si6 0.577904 0.207650 0.390932
Si Si7 0.492028 0.136652 0.807871
O O1 0.379686 0.488616 0.324985
O O2 0.291377 0.698590 0.163130
O O3 0.462503 0.736840 0.203967
O O4 0.394674 0.457443 0.078010
O O5 0.181046 0.688787 0.919975
O O6 0.018216 0.778541 0.947966
O O7 0.176371 0.940329 0.058630
O O8 0.241426 0.879304 0.424980
O O9 0.077919 0.760338 0.378446
O O10 0.121568 0.101233 0.360389
O O11 0.811106 0.487480 0.216742
O O12 0.852621 0.613263 0.988458
O O13 0.581052 0.092724 0.890403
O O14 0.552315 0.057878 0.288683
#
# Coordination Sequence:
#
# PCOD9345798 Si02
#       7
#     4   4   4   4   4   4   4
#     4  10  22  42  69  98 140 184 225 297 341 415
#     4  11  21  44  68  97 141 180 230 288 353 406
#     4  11  22  47  69 101 142 181 231 290 352 410
#     4  10  23  43  67 101 138 181 230 292 341 416
#     4  10  23  43  69 102 139 179 235 281 345 429
#     4  10  22  42  68  95 137 180 229 289 338 413
#     4  10  23  43  68 100 135 183 234 279 350 415
#
# _framework density 23.539572
#
# number of rings (size 3 to 8) (size 9 to 14) (size 15 to 20)
#    0.000    1.714    4.286    0.000    2.000    5.714 
#    0.000    2.857    0.000    0.000    0.000    0.000 
#    0.000    0.000    0.000    0.000    0.000    0.000 
#
# Total GULP energy -156095.488412 kJ/mol
# GULP energy per Si atom -5574.838872 kJ/mol
# Density = 2.348599 g / cm^3
# Si number density = 23.539572 Si / 1000 Ang^3
#
#
#
# Elastic Constant Matrix: (Units=GPa)
#
#
# Indices 1 2 3 4 5 6 
#
# 1 73.2348 4.9544 -10.5453 0.0000 0.0000 0.0000
# 2 4.9544 69.5257 15.3371 0.0000 0.0000 0.0000
# 3 -10.5453 15.3371 42.1895 0.0000 0.0000 0.0000
# 4 0.0000 0.0000 0.0000 19.1969 0.0000 0.0000
# 5 0.0000 0.0000 0.0000 0.0000 21.5063 0.0000
# 6 0.0000 0.0000 0.0000 0.0000 0.0000 31.4813
#
#
#
# Elastic Compliance Matrix: (Units=1/GPa)
#
#
# Indices 1 2 3 4 5 6 
#
# 1 0.014411 -0.001980 0.004322 0.000000 0.000000 0.000000
# 2 -0.001980 0.015909 -0.006278 0.000000 0.000000 0.000000
# 3 0.004322 -0.006278 0.027065 0.000000 0.000000 0.000000
# 4 0.000000 0.000000 0.000000 0.052092 0.000000 0.000000
# 5 0.000000 0.000000 0.000000 0.000000 0.046498 0.000000
# 6 0.000000 0.000000 0.000000 0.000000 0.000000 0.031765
#
#
# Mechanical properties :
#
#
# Convention : Reuss Voigt Hill
#
# Bulk Modulus (GPa) = 20.19720 22.71584 21.45652
# Shear Modulus (GPa) = 23.57179 26.11714 24.84447
#
# Velocity S-wave (km/s) = 3.16787 3.33453 3.25227
# Velocity P-wave (km/s) = 4.68821 4.94939 4.82057
#
# Compressibility (1/GPa) = 0.04951182
#
# Stress axis : x y z
#
# Youngs Moduli (GPa) = 69.39136 62.85633 36.94771
#
# Poissons Ratio (x) = 0.12448 -0.15969
# Poissons Ratio (y) = 0.13742 0.23198
# Poissons Ratio (z) = -0.29991 0.39464
#
# Static dielectric constant tensor:
#      x y z
#    x 1.973850 0.000000 0.000000 
#    y 0.000000 1.909840 0.000000 
#    z 0.000000 0.000000 1.923030 
# 
# From -- ./inp_files/6738.got.cif
#   From: 2010.05.17/outbox.cif.g08.bks.cpg/sg33_4_cif.got.tgz:6738.got - 2010.06.03 17:15:25.
