data_PCOD9345119
_publ_section_title
;
Structure prediction by ZEFSAII (Michael W. Deem and Ramdas Pophale) SiO2 
 PCOD9345119
Probable space group: P N A 21
;
_chemical_formula_sum "Si O2"
_cell_formula_units_Z 28
_cell_length_a 28.229789
_cell_length_b 8.474972
_cell_length_c 4.977747
_cell_angle_alpha 90.000000
_cell_angle_beta 90.000000
_cell_angle_gamma 90.000000
_cell_volume 1190.909401
_symmetry_space_group_name_H-M "P N A 21"
_symmetry_group_IT_number 33
_symmetry_cell_setting 'orthorhombic'
loop_
_space_group_symop_operation_xyz
x,y,z
-x,-y,1/2+z
1/2-x,1/2+y,1/2+z
1/2+x,1/2-y,z
loop_
_atom_site_type_symbol
_atom_site_label
_atom_site_fract_x
_atom_site_fract_y
_atom_site_fract_z
Si Si1 0.307591 0.142765 0.157420
Si Si2 0.838324 0.977555 0.732088
Si Si3 0.111783 0.890129 0.699750
Si Si4 0.665104 0.186100 0.895859
Si Si5 0.261553 0.255855 0.661223
Si Si6 0.542440 0.836486 0.454622
Si Si7 0.562183 0.055359 0.944851
O O1 0.355571 0.239922 0.125666
O O2 0.274289 0.242891 0.351403
O O3 0.319925 0.993213 0.336978
O O4 0.284376 0.126360 0.865625
O O5 0.872873 0.058736 0.501114
O O6 0.790643 0.085256 0.752161
O O7 0.826496 0.802888 0.641654
O O8 0.868205 0.975990 0.004496
O O9 0.062031 0.827532 0.580976
O O10 0.705757 0.256578 0.699067
O O11 0.608463 0.163240 0.923331
O O12 0.485461 0.841509 0.468293
O O13 0.558542 0.968639 0.663093
O O14 0.560414 0.912595 0.169527
#
# Coordination Sequence:
#
# PCOD9345119 Si02
#       7
#     4   4   4   4   4   4   4
#     4  10  23  39  65  86 118 173 216 247 314 380
#     4  10  24  39  62  96 128 166 214 262 326 388
#     4  10  20  42  64  87 129 175 204 256 327 388
#     4  12  24  42  65  97 130 162 221 275 321 374
#     4  10  24  42  59  87 126 172 208 256 318 392
#     4  10  20  42  64  96 128 163 220 265 316 391
#     4  10  23  36  67 101 123 163 219 275 312 375
#
# _framework density 23.511441999999999
#
# number of rings (size 3 to 8) (size 9 to 14) (size 15 to 20)
#    0.000    1.714    1.429    1.714    4.000    9.143 
#    0.000    1.429    0.000    0.000    0.000    0.000 
#    0.000    0.000    0.000    0.000    0.000    0.000 
#
# Total GULP energy -155922.177206 kJ/mol
# GULP energy per Si atom -5568.649186 kJ/mol
# Density = 2.345793 g / cm^3
# Si number density = 23.511442 Si / 1000 Ang^3
#
#
#
# Elastic Constant Matrix: (Units=GPa)
#
#
# Indices 1 2 3 4 5 6 
#
# 1 149.0344 18.6016 31.0784 0.0000 0.0000 0.0000
# 2 18.6016 55.4810 2.9730 0.0000 0.0000 0.0000
# 3 31.0784 2.9730 77.7638 0.0000 0.0000 0.0000
# 4 0.0000 0.0000 0.0000 13.5293 0.0000 0.0000
# 5 0.0000 0.0000 0.0000 0.0000 -30.1753 0.0000
# 6 0.0000 0.0000 0.0000 0.0000 0.0000 10.0668
#
#
#
# Elastic Compliance Matrix: (Units=1/GPa)
#
#
# Indices 1 2 3 4 5 6 
#
# 1 0.007626 -0.002398 -0.002956 0.000000 0.000000 0.000000
# 2 -0.002398 0.018815 0.000239 0.000000 0.000000 0.000000
# 3 -0.002956 0.000239 0.014032 0.000000 0.000000 0.000000
# 4 0.000000 0.000000 0.000000 0.073914 0.000000 0.000000
# 5 0.000000 0.000000 0.000000 0.000000 -0.033140 0.000000
# 6 0.000000 0.000000 0.000000 0.000000 0.000000 0.099337
#
#
# Mechanical properties :
#
#
# Convention : Reuss Voigt Hill
#
# Bulk Modulus (GPa) = 33.06594 43.06503 38.06549
# Shear Modulus (GPa) = 24.88870 13.99255 19.44063
#
# Velocity S-wave (km/s) = 3.25711 2.44219 2.87863
# Velocity P-wave (km/s) = 5.31407 5.12921 5.22246
#
# Compressibility (1/GPa) = 0.03024260
#
# Stress axis : x y z
#
# Youngs Moduli (GPa) = 131.13718 53.14775 71.26750
#
# Poissons Ratio (x) = 0.12746 0.21066
# Poissons Ratio (y) = 0.31451 -0.01704
# Poissons Ratio (z) = 0.38763 -0.01271
#
# Static dielectric constant tensor:
#      x y z
#    x 2.919380 0.000000 0.000000 
#    y 0.000000 1.998260 0.000000 
#    z 0.000000 0.000000 1.886160 
# 
# From -- ./inp_files/2401.got.cif
#   From: 2010.05.17/outbox.cif.g08.bks.cpg/sg33_2_cif.got.tgz:2401.got - 2010.06.03 17:15:25.
