data_PCOD9345505
_publ_section_title
;
Structure prediction by ZEFSAII (Michael W. Deem and Ramdas Pophale) SiO2 
 PCOD9345505
Probable space group: P N A 21
;
_chemical_formula_sum "Si O2"
_cell_formula_units_Z 32
_cell_length_a 19.294407
_cell_length_b 7.865349
_cell_length_c 9.457923
_cell_angle_alpha 90.000000
_cell_angle_beta 90.000000
_cell_angle_gamma 90.000000
_cell_volume 1435.308336
_symmetry_space_group_name_H-M "P N A 21"
_symmetry_group_IT_number 33
_symmetry_cell_setting 'orthorhombic'
loop_
_space_group_symop_operation_xyz
x,y,z
-x,-y,1/2+z
1/2-x,1/2+y,1/2+z
1/2+x,1/2-y,z
loop_
_atom_site_type_symbol
_atom_site_label
_atom_site_fract_x
_atom_site_fract_y
_atom_site_fract_z
Si Si1 0.835517 0.017719 0.633570
Si Si2 0.645886 0.360152 0.738888
Si Si3 0.464830 0.504976 0.462245
Si Si4 0.006258 0.366539 0.079622
Si Si5 0.387490 0.636440 0.910800
Si Si6 0.710875 0.870573 0.169068
Si Si7 0.660652 0.148683 0.978755
Si Si8 0.581724 0.999303 0.330475
O O1 0.783344 0.174886 0.618684
O O2 0.908097 0.080711 0.563067
O O3 0.848806 0.982214 0.798927
O O4 0.823594 0.833207 0.555507
O O5 0.581355 0.434374 0.827770
O O6 0.633102 0.370255 0.573623
O O7 0.723163 0.434827 0.758623
O O8 0.657729 0.177759 0.812162
O O9 0.494659 0.662723 0.555707
O O10 0.530163 0.401050 0.410196
O O11 0.082953 0.403348 0.020036
O O12 0.946590 0.437109 0.980106
O O13 0.014872 0.454842 0.231887
O O14 0.378655 0.824321 0.850939
O O15 0.639164 0.881272 0.257298
O O16 0.706952 0.999607 0.038219
#
# Coordination Sequence:
#
# PCOD9345505 Si02
#       8
#     4   4   4   4   4   4   4   4
#     4  10  21  42  67  90 128 180 216 269 348 385
#     4  10  25  40  70  96 133 177 225 278 340 411
#     4  10  22  43  62  93 135 167 223 285 330 398
#     4   9  20  39  60  93 127 172 212 273 328 375
#     4  12  22  39  67 101 128 174 226 280 337 411
#     4  11  23  44  69  94 135 186 219 276 345 403
#     4   9  22  47  60  95 138 167 223 290 310 411
#     4  11  23  38  67  94 136 167 220 273 328 396
#
# _framework density 22.294861999999998
#
# number of rings (size 3 to 8) (size 9 to 14) (size 15 to 20)
#    0.000    2.000    3.750    1.500    8.750    2.000 
#    0.000    0.000    2.750    0.000    0.000    0.000 
#    0.000    0.000    0.000    0.000    0.000    0.000 
#
# Total GULP energy -178295.082203 kJ/mol
# GULP energy per Si atom -5571.721319 kJ/mol
# Density = 2.224412 g / cm^3
# Si number density = 22.294862 Si / 1000 Ang^3
#
#
#
# Elastic Constant Matrix: (Units=GPa)
#
#
# Indices 1 2 3 4 5 6 
#
# 1 46.2277 36.3429 18.5615 0.0000 0.0000 0.0000
# 2 36.3429 71.9059 23.4568 0.0000 0.0000 0.0000
# 3 18.5615 23.4568 131.4139 0.0000 0.0000 0.0000
# 4 0.0000 0.0000 0.0000 31.4812 0.0000 0.0000
# 5 0.0000 0.0000 0.0000 0.0000 34.6578 0.0000
# 6 0.0000 0.0000 0.0000 0.0000 0.0000 4.7005
#
#
#
# Elastic Compliance Matrix: (Units=1/GPa)
#
#
# Indices 1 2 3 4 5 6 
#
# 1 0.036369 -0.017739 -0.001971 0.000000 0.000000 0.000000
# 2 -0.017739 0.023419 -0.001675 0.000000 0.000000 0.000000
# 3 -0.001971 -0.001675 0.008187 0.000000 0.000000 0.000000
# 4 0.000000 0.000000 0.000000 0.031765 0.000000 0.000000
# 5 0.000000 0.000000 0.000000 0.000000 0.028854 0.000000
# 6 0.000000 0.000000 0.000000 0.000000 0.000000 0.212742
#
#
# Mechanical properties :
#
#
# Convention : Reuss Voigt Hill
#
# Bulk Modulus (GPa) = 39.67227 45.14110 42.40668
# Shear Modulus (GPa) = 12.73865 25.58031 19.15948
#
# Velocity S-wave (km/s) = 2.39293 3.39095 2.93468
# Velocity P-wave (km/s) = 5.04656 5.96847 5.52677
#
# Compressibility (1/GPa) = 0.02520652
#
# Stress axis : x y z
#
# Youngs Moduli (GPa) = 27.49582 42.70029 122.14770
#
# Poissons Ratio (x) = 0.75746 0.24071
# Poissons Ratio (y) = 0.48775 0.20456
# Poissons Ratio (z) = 0.05418 0.07151
#
# Static dielectric constant tensor:
#      x y z
#    x 1.870550 0.000000 0.000000 
#    y 0.000000 1.872310 0.000000 
#    z 0.000000 0.000000 1.894740 
# 
# From -- ./inp_files/5057.got.cif
#   From: 2010.05.17/outbox.cif.g08.bks.cpg/sg33_3_cif.got.tgz:5057.got - 2010.06.03 17:15:25.
