data_PCOD9345452
_publ_section_title
;
Structure prediction by ZEFSAII (Michael W. Deem and Ramdas Pophale) SiO2 
 PCOD9345452
Probable space group: P N A 21
;
_chemical_formula_sum "Si O2"
_cell_formula_units_Z 32
_cell_length_a 14.973560
_cell_length_b 8.789559
_cell_length_c 12.261591
_cell_angle_alpha 90.000000
_cell_angle_beta 90.000000
_cell_angle_gamma 90.000000
_cell_volume 1613.760119
_symmetry_space_group_name_H-M "P N A 21"
_symmetry_group_IT_number 33
_symmetry_cell_setting 'orthorhombic'
loop_
_space_group_symop_operation_xyz
x,y,z
-x,-y,1/2+z
1/2-x,1/2+y,1/2+z
1/2+x,1/2-y,z
loop_
_atom_site_type_symbol
_atom_site_label
_atom_site_fract_x
_atom_site_fract_y
_atom_site_fract_z
Si Si1 0.165662 0.572184 0.836510
Si Si2 0.985507 0.627796 0.940828
Si Si3 0.650939 0.557572 0.390998
Si Si4 0.567953 0.332669 0.231841
Si Si5 0.232633 0.349895 0.216197
Si Si6 0.403548 0.489733 0.123234
Si Si7 0.616690 0.888438 0.324795
Si Si8 0.942263 0.678080 0.189205
O O1 0.248568 0.499581 0.898227
O O2 0.209493 0.721638 0.780453
O O3 0.119917 0.448996 0.751282
O O4 0.090988 0.620244 0.923390
O O5 0.954192 0.732477 0.839183
O O6 0.943959 0.464581 0.916553
O O7 0.949433 0.664603 0.059053
O O8 0.610717 0.485410 0.280403
O O9 0.590716 0.500756 0.492050
O O10 0.655055 0.736306 0.374576
O O11 0.645627 0.238813 0.170494
O O12 0.480081 0.375308 0.165664
O O13 0.305026 0.422046 0.137706
O O14 0.190127 0.489320 0.285646
O O15 0.411512 0.644787 0.195065
O O16 0.542949 0.848336 0.232811
#
# Coordination Sequence:
#
# PCOD9345452 Si02
#       8
#     4   4   4   4   4   4   4   4
#     4  10  23  43  63  93 136 168 228 284 336 415
#     4  10  21  41  65  92 127 178 217 275 352 398
#     4  11  23  41  63  98 128 173 223 279 333 411
#     4  10  21  44  62  93 137 169 222 281 339 404
#     4  10  23  41  64  92 131 179 217 287 335 398
#     4  12  23  41  70  95 133 180 227 275 344 410
#     4  10  23  40  63  92 136 166 227 283 329 412
#     4  11  23  41  68  95 130 185 221 284 352 412
#
# _framework density 19.829464999999999
#
# number of rings (size 3 to 8) (size 9 to 14) (size 15 to 20)
#    0.000    1.500    3.750    0.750    3.500    0.000 
#    2.250    1.250    2.750    0.000    0.000    0.000 
#    0.000    0.000    0.000    0.000    0.000    0.000 
#
# Total GULP energy -178251.912858 kJ/mol
# GULP energy per Si atom -5570.372277 kJ/mol
# Density = 1.978433 g / cm^3
# Si number density = 19.829465 Si / 1000 Ang^3
#
#
#
# Elastic Constant Matrix: (Units=GPa)
#
#
# Indices 1 2 3 4 5 6 
#
# 1 91.5479 17.6286 14.1833 0.0000 0.0000 0.0000
# 2 17.6286 101.1616 5.5058 0.0000 0.0000 0.0000
# 3 14.1833 5.5058 36.1358 0.0000 0.0000 0.0000
# 4 0.0000 0.0000 0.0000 10.1877 0.0000 0.0000
# 5 0.0000 0.0000 0.0000 0.0000 19.4643 0.0000
# 6 0.0000 0.0000 0.0000 0.0000 0.0000 38.3445
#
#
#
# Elastic Compliance Matrix: (Units=1/GPa)
#
#
# Indices 1 2 3 4 5 6 
#
# 1 0.011962 -0.001844 -0.004414 0.000000 0.000000 0.000000
# 2 -0.001844 0.010252 -0.000838 0.000000 0.000000 0.000000
# 3 -0.004414 -0.000838 0.029534 0.000000 0.000000 0.000000
# 4 0.000000 0.000000 0.000000 0.098157 0.000000 0.000000
# 5 0.000000 0.000000 0.000000 0.000000 0.051376 0.000000
# 6 0.000000 0.000000 0.000000 0.000000 0.000000 0.026079
#
#
# Mechanical properties :
#
#
# Convention : Reuss Voigt Hill
#
# Bulk Modulus (GPa) = 26.62778 33.72008 30.17393
# Shear Modulus (GPa) = 19.67943 26.36781 23.02362
#
# Velocity S-wave (km/s) = 3.15371 3.65050 3.41116
# Velocity P-wave (km/s) = 5.16902 5.90001 5.54657
#
# Compressibility (1/GPa) = 0.03755476
#
# Stress axis : x y z
#
# Youngs Moduli (GPa) = 83.59621 97.54015 33.85972
#
# Poissons Ratio (x) = 0.17990 0.14946
# Poissons Ratio (y) = 0.15418 0.02838
# Poissons Ratio (z) = 0.36901 0.08176
#
# Static dielectric constant tensor:
#      x y z
#    x 1.706350 0.000000 0.000000 
#    y 0.000000 1.751110 0.000000 
#    z 0.000000 0.000000 1.725610 
# 
# From -- ./inp_files/6783.got.cif
#   From: 2010.05.17/outbox.cif.g08.bks.cpg/sg33_4_cif.got.tgz:6783.got - 2010.06.03 17:15:25.
