data_PCOD9345585
_publ_section_title
;
Structure prediction by ZEFSAII (Michael W. Deem and Ramdas Pophale) SiO2 
 PCOD9345585
Probable space group: P N A 21
;
_chemical_formula_sum "Si O2"
_cell_formula_units_Z 32
_cell_length_a 8.740237
_cell_length_b 24.279619
_cell_length_c 5.177833
_cell_angle_alpha 90.000000
_cell_angle_beta 90.000000
_cell_angle_gamma 90.000000
_cell_volume 1098.785996
_symmetry_space_group_name_H-M "P N A 21"
_symmetry_group_IT_number 33
_symmetry_cell_setting 'orthorhombic'
loop_
_space_group_symop_operation_xyz
x,y,z
-x,-y,1/2+z
1/2-x,1/2+y,1/2+z
1/2+x,1/2-y,z
loop_
_atom_site_type_symbol
_atom_site_label
_atom_site_fract_x
_atom_site_fract_y
_atom_site_fract_z
Si Si1 0.851406 0.749228 0.923950
Si Si2 0.305619 0.490531 0.115388
Si Si3 0.109994 0.745330 0.565721
Si Si4 0.811957 0.153040 0.695316
Si Si5 0.007948 0.462127 0.258886
Si Si6 0.520079 0.870489 0.360345
Si Si7 0.139130 0.058787 0.113227
Si Si8 0.848541 0.856017 0.246628
O O1 0.777749 0.770530 0.660115
O O2 0.025816 0.745201 0.842905
O O3 0.770505 0.691482 0.982921
O O4 0.839145 0.793683 0.147195
O O5 0.185978 0.447107 0.223704
O O6 0.282701 0.524251 0.845865
O O7 0.465015 0.460348 0.118924
O O8 0.307606 0.534600 0.341196
O O9 0.132225 0.802336 0.412995
O O10 0.027782 0.694617 0.423754
O O11 0.657756 0.118794 0.777054
O O12 0.979632 0.125126 0.633621
O O13 0.938895 0.409598 0.107520
O O14 0.003376 0.513473 0.049075
O O15 0.670742 0.875092 0.174357
O O16 0.138838 0.123014 0.043958
#
# Coordination Sequence:
#
# PCOD9345585 Si02
#       8
#     4   4   4   4   4   4   4   4
#     4  12  24  43  70  99 143 194 238 304 371 443
#     4  10  21  46  69 101 146 187 234 311 376 432
#     4  12  24  45  70 102 140 193 243 305 371 455
#     4  12  25  48  66 103 151 184 245 308 372 456
#     4  12  27  48  73 108 154 198 255 322 374 453
#     4  12  26  45  76 107 144 201 250 303 392 457
#     4  10  23  42  74 105 139 186 246 301 373 444
#     4  12  24  43  70 103 137 187 241 302 359 448
#
# _framework density 29.123049000000002
#
# number of rings (size 3 to 8) (size 9 to 14) (size 15 to 20)
#    0.000    0.500    3.750    5.250    0.000    5.000 
#    0.000    3.750    0.000    0.000    0.000    0.000 
#    0.000    0.000    0.000    0.000    0.000    0.000 
#
# Total GULP energy -178467.201191 kJ/mol
# GULP energy per Si atom -5577.100037 kJ/mol
# Density = 2.905676 g / cm^3
# Si number density = 29.123049 Si / 1000 Ang^3
#
#
#
# Elastic Constant Matrix: (Units=GPa)
#
#
# Indices 1 2 3 4 5 6 
#
# 1 91.0550 6.1688 3.9225 0.0000 0.0000 0.0000
# 2 6.1688 87.4628 25.9881 0.0000 0.0000 0.0000
# 3 3.9225 25.9881 141.9086 0.0000 0.0000 0.0000
# 4 0.0000 0.0000 0.0000 33.5212 0.0000 0.0000
# 5 0.0000 0.0000 0.0000 0.0000 26.2292 0.0000
# 6 0.0000 0.0000 0.0000 0.0000 0.0000 36.2755
#
#
#
# Elastic Compliance Matrix: (Units=1/GPa)
#
#
# Indices 1 2 3 4 5 6 
#
# 1 0.011039 -0.000728 -0.000172 0.000000 0.000000 0.000000
# 2 -0.000728 0.012139 -0.002203 0.000000 0.000000 0.000000
# 3 -0.000172 -0.002203 0.007455 0.000000 0.000000 0.000000
# 4 0.000000 0.000000 0.000000 0.029832 0.000000 0.000000
# 5 0.000000 0.000000 0.000000 0.000000 0.038125 0.000000
# 6 0.000000 0.000000 0.000000 0.000000 0.000000 0.027567
#
#
# Mechanical properties :
#
#
# Convention : Reuss Voigt Hill
#
# Bulk Modulus (GPa) = 40.93570 43.62057 42.27814
# Shear Modulus (GPa) = 35.58590 38.16166 36.87378
#
# Velocity S-wave (km/s) = 3.49938 3.62382 3.56214
# Velocity P-wave (km/s) = 5.51491 5.70262 5.60955
#
# Compressibility (1/GPa) = 0.02442855
#
# Stress axis : x y z
#
# Youngs Moduli (GPa) = 90.58740 82.37690 134.13849
#
# Poissons Ratio (x) = 0.05993 0.02306
# Poissons Ratio (y) = 0.06590 0.29551
# Poissons Ratio (z) = 0.01557 0.18148
#
# Static dielectric constant tensor:
#      x y z
#    x 2.454730 0.000000 0.000000 
#    y 0.000000 2.422530 0.000000 
#    z 0.000000 0.000000 2.308250 
# 
# From -- ./inp_files/591.got.cif
#   From: 2010.05.17/outbox.cif.g08.bks.cpg/sg33_1_cif.got.tgz:591.got - 2010.06.03 17:15:25.
