data_PCOD9345232
_publ_section_title
;
Structure prediction by ZEFSAII (Michael W. Deem and Ramdas Pophale) SiO2 
 PCOD9345232
Probable space group: P N A 21
;
_chemical_formula_sum "Si O2"
_cell_formula_units_Z 12
_cell_length_a 9.565221
_cell_length_b 9.069856
_cell_length_c 5.264047
_cell_angle_alpha 90.000000
_cell_angle_beta 90.000000
_cell_angle_gamma 90.000000
_cell_volume 456.683330
_symmetry_space_group_name_H-M "P N A 21"
_symmetry_group_IT_number 33
_symmetry_cell_setting 'orthorhombic'
loop_
_space_group_symop_operation_xyz
x,y,z
-x,-y,1/2+z
1/2-x,1/2+y,1/2+z
1/2+x,1/2-y,z
loop_
_atom_site_type_symbol
_atom_site_label
_atom_site_fract_x
_atom_site_fract_y
_atom_site_fract_z
Si Si1 0.443393 0.235040 0.619350
Si Si2 0.339597 0.013703 0.960704
Si Si3 0.193219 0.082680 0.469934
O O1 0.290787 0.228616 0.497053
O O2 0.538362 0.373564 0.552493
O O3 0.534927 0.098414 0.509732
O O4 0.411131 0.177554 0.906280
O O5 0.232597 0.023626 0.195018
O O6 0.260957 0.987226 0.694588
#
# Coordination Sequence:
#
# PCOD9345232 Si02
#       3
#     4   4   4
#     4  10  21  40  59  86 114 159 189 242 291 352
#     4  10  21  37  60  84 116 155 189 236 298 346
#     4  10  22  33  63  84 114 152 200 232 291 348
#
# _framework density 26.276413000000002
#
# number of rings (size 3 to 8) (size 9 to 14) (size 15 to 20)
#    2.000    0.000    3.333    0.000    4.667    0.000 
#    0.000    3.333    0.000    0.000    0.000    0.000 
#    0.000    0.000    0.000    0.000    0.000    0.000 
#
# Total GULP energy -66942.434252 kJ/mol
# GULP energy per Si atom -5578.536188 kJ/mol
# Density = 2.621661 g / cm^3
# Si number density = 26.276413 Si / 1000 Ang^3
#
#
#
# Elastic Constant Matrix: (Units=GPa)
#
#
# Indices 1 2 3 4 5 6 
#
# 1 162.1159 19.7117 37.9572 0.0000 0.0000 0.0000
# 2 19.7117 50.4031 36.2639 0.0000 0.0000 0.0000
# 3 37.9572 36.2639 180.7048 0.0000 0.0000 0.0000
# 4 0.0000 0.0000 0.0000 44.2876 0.0000 0.0000
# 5 0.0000 0.0000 0.0000 0.0000 27.5228 0.0000
# 6 0.0000 0.0000 0.0000 0.0000 0.0000 44.8085
#
#
#
# Elastic Compliance Matrix: (Units=1/GPa)
#
#
# Indices 1 2 3 4 5 6 
#
# 1 0.006633 -0.001860 -0.001020 0.000000 0.000000 0.000000
# 2 -0.001860 0.023710 -0.004367 0.000000 0.000000 0.000000
# 3 -0.001020 -0.004367 0.006625 0.000000 0.000000 0.000000
# 4 0.000000 0.000000 0.000000 0.022580 0.000000 0.000000
# 5 0.000000 0.000000 0.000000 0.000000 0.036333 0.000000
# 6 0.000000 0.000000 0.000000 0.000000 0.000000 0.022317
#
#
# Mechanical properties :
#
#
# Convention : Reuss Voigt Hill
#
# Bulk Modulus (GPa) = 44.49891 64.56548 54.53220
# Shear Modulus (GPa) = 35.66731 43.27652 39.47191
#
# Velocity S-wave (km/s) = 3.68827 4.06269 3.88000
# Velocity P-wave (km/s) = 5.92533 6.82878 6.39303
#
# Compressibility (1/GPa) = 0.02247246
#
# Stress axis : x y z
#
# Youngs Moduli (GPa) = 150.75110 42.17666 150.95286
#
# Poissons Ratio (x) = 0.07846 0.15398
# Poissons Ratio (y) = 0.28045 0.65926
# Poissons Ratio (z) = 0.15377 0.18420
#
# Static dielectric constant tensor:
#      x y z
#    x 1.996990 0.000000 0.000000 
#    y 0.000000 2.272340 0.000000 
#    z 0.000000 0.000000 2.012770 
# 
# From -- ./inp_files/23.got.cif
#   From: 2010.05.17/outbox.cif.g08.bks.cpg/sg33_1_cif.got.tgz:23.got - 2010.06.03 17:15:25.
