data_PCOD9345595
_publ_section_title
;
Structure prediction by ZEFSAII (Michael W. Deem and Ramdas Pophale) SiO2 
 PCOD9345595
Probable space group: P N A 21
;
_chemical_formula_sum "Si O2"
_cell_formula_units_Z 32
_cell_length_a 10.174556
_cell_length_b 9.587728
_cell_length_c 18.474073
_cell_angle_alpha 90.000000
_cell_angle_beta 90.000000
_cell_angle_gamma 90.000000
_cell_volume 1802.161994
_symmetry_space_group_name_H-M "P N A 21"
_symmetry_group_IT_number 33
_symmetry_cell_setting 'orthorhombic'
loop_
_space_group_symop_operation_xyz
x,y,z
-x,-y,1/2+z
1/2-x,1/2+y,1/2+z
1/2+x,1/2-y,z
loop_
_atom_site_type_symbol
_atom_site_label
_atom_site_fract_x
_atom_site_fract_y
_atom_site_fract_z
Si Si1 0.273369 0.754514 0.267730
Si Si2 0.153115 0.957437 0.730287
Si Si3 0.840173 0.961465 0.727758
Si Si4 0.000655 0.644485 0.516773
Si Si5 0.250031 0.752822 0.606396
Si Si6 0.471006 0.183440 0.856685
Si Si7 0.240082 0.742247 0.853907
Si Si8 0.017518 0.390694 0.418190
O O1 0.275045 0.606257 0.228246
O O2 0.415946 0.772764 0.302344
O O3 0.166875 0.744078 0.331904
O O4 0.231322 0.889731 0.223085
O O5 0.190716 0.868090 0.660303
O O6 0.196211 0.868834 0.801013
O O7 0.996561 0.977478 0.733232
O O8 0.805913 0.867667 0.658614
O O9 0.789204 0.879421 0.799324
O O10 0.870247 0.682253 0.560939
O O11 0.131899 0.691828 0.558002
O O12 0.995835 0.723023 0.439114
O O13 0.009962 0.481560 0.491952
O O14 0.466765 0.015272 0.859114
O O15 0.357730 0.792284 0.905823
O O16 0.116008 0.689047 0.899558
#
# Coordination Sequence:
#
# PCOD9345595 Si02
#       8
#     4   4   4   4   4   4   4   4
#     4  12  21  38  62  96 127 146 200 256 326 342
#     4  11  22  36  64  92 124 158 198 258 297 368
#     4  11  22  36  64  92 124 158 198 258 297 368
#     4  10  22  41  61  89 119 159 210 247 289 362
#     4  11  23  42  64  86 119 169 214 234 294 373
#     4  10  22  35  62  93 119 157 187 261 306 361
#     4  11  20  38  62  98 120 153 202 250 320 357
#     4  10  22  36  63  92 124 154 195 256 305 353
#
# _framework density 17.756450999999998
#
# number of rings (size 3 to 8) (size 9 to 14) (size 15 to 20)
#    0.750    0.500    6.250    0.750    0.000    1.000 
#    0.000    2.500    0.000    0.000    0.000    0.000 
#    0.000    0.000    0.000    0.000    0.000    0.000 
#
# Total GULP energy -178431.708850 kJ/mol
# GULP energy per Si atom -5575.990902 kJ/mol
# Density = 1.771604 g / cm^3
# Si number density = 17.756451 Si / 1000 Ang^3
#
#
#
# Elastic Constant Matrix: (Units=GPa)
#
#
# Indices 1 2 3 4 5 6 
#
# 1 119.1609 43.2345 45.3209 0.0000 0.0000 0.0000
# 2 43.2345 115.5648 45.8048 0.0000 0.0000 0.0000
# 3 45.3209 45.8048 72.8255 0.0000 0.0000 0.0000
# 4 0.0000 0.0000 0.0000 21.8979 0.0000 0.0000
# 5 0.0000 0.0000 0.0000 0.0000 26.4284 0.0000
# 6 0.0000 0.0000 0.0000 0.0000 0.0000 32.2327
#
#
#
# Elastic Compliance Matrix: (Units=1/GPa)
#
#
# Indices 1 2 3 4 5 6 
#
# 1 0.011305 -0.001919 -0.005828 0.000000 0.000000 0.000000
# 2 -0.001919 0.011853 -0.006260 0.000000 0.000000 0.000000
# 3 -0.005828 -0.006260 0.021296 0.000000 0.000000 0.000000
# 4 0.000000 0.000000 0.000000 0.045666 0.000000 0.000000
# 5 0.000000 0.000000 0.000000 0.000000 0.037838 0.000000
# 6 0.000000 0.000000 0.000000 0.000000 0.000000 0.031024
#
#
# Mechanical properties :
#
#
# Convention : Reuss Voigt Hill
#
# Bulk Modulus (GPa) = 60.83546 64.03020 62.43283
# Shear Modulus (GPa) = 25.97702 27.65786 26.81744
#
# Velocity S-wave (km/s) = 3.82902 3.95096 3.89046
# Velocity P-wave (km/s) = 7.34057 7.54665 7.44432
#
# Compressibility (1/GPa) = 0.01643778
#
# Stress axis : x y z
#
# Youngs Moduli (GPa) = 88.45593 84.36986 46.95702
#
# Poissons Ratio (x) = 0.16194 0.27367
# Poissons Ratio (y) = 0.16978 0.29397
# Poissons Ratio (z) = 0.51554 0.52819
#
# Static dielectric constant tensor:
#      x y z
#    x 1.578880 0.000000 0.000000 
#    y 0.000000 1.622930 0.000000 
#    z 0.000000 0.000000 1.583360 
# 
# From -- ./inp_files/9265.got.cif
#   From: 2010.05.17/outbox.cif.g08.bks.cpg/sg33_5_cif.got.tgz:9265.got - 2010.06.03 17:15:25.
